MODEL 1
REMARK VINA RESULT:    -2.039      0.000      0.000
REMARK INTER + INTRA:          -8.339
REMARK INTER:                  -5.377
REMARK INTRA:                  -2.962
REMARK UNBOUND:                -2.962
REMARK SMILES CCCCCCCCCCCCCCCCCCCCCCCCCCCCCC(=O)[O-]
REMARK SMILES IDX 16 1 17 2 18 3 19 4 20 5 21 6 22 7 23 8 24 9 25 10 26 11
REMARK SMILES IDX 27 12 28 13 29 14 30 15 31 16 32 17 15 18 14 19 13 20 12 21
REMARK SMILES IDX 11 22 10 23 9 24 8 25 7 26 6 27 5 28 4 29 3 30 2 31 1 32
REMARK H PARENT
REMARK Flexibility Score: inf
ROOT
ATOM      1  C   UNL     1      -8.661  -4.383  -5.885  1.00  0.00     0.000 C 
ENDROOT
BRANCH   1   2
ATOM      2  C   UNL     1      -9.592  -3.621  -6.846  1.00  0.00     0.000 C 
BRANCH   2   3
ATOM      3  C   UNL     1     -10.833  -4.433  -7.252  1.00  0.00     0.000 C 
BRANCH   3   4
ATOM      4  C   UNL     1     -11.051  -4.462  -8.775  1.00  0.00     0.000 C 
BRANCH   4   5
ATOM      5  C   UNL     1      -9.914  -3.836  -9.607  1.00  0.00     0.000 C 
BRANCH   5   6
ATOM      6  C   UNL     1      -8.829  -4.821 -10.082  1.00  0.00     0.000 C 
BRANCH   6   7
ATOM      7  C   UNL     1      -7.410  -4.535  -9.552  1.00  0.00     0.000 C 
BRANCH   7   8
ATOM      8  C   UNL     1      -6.447  -5.735  -9.598  1.00  0.00     0.000 C 
BRANCH   8   9
ATOM      9  C   UNL     1      -6.723  -6.766  -8.489  1.00  0.00     0.000 C 
BRANCH   9  10
ATOM     10  C   UNL     1      -5.456  -7.098  -7.673  1.00  0.00     0.000 C 
BRANCH  10  11
ATOM     11  C   UNL     1      -5.715  -7.289  -6.168  1.00  0.00     0.000 C 
BRANCH  11  12
ATOM     12  C   UNL     1      -5.243  -6.094  -5.327  1.00  0.00     0.000 C 
BRANCH  12  13
ATOM     13  C   UNL     1      -4.121  -5.290  -6.010  1.00  0.00     0.006 C 
BRANCH  13  14
ATOM     14  C   UNL     1      -4.455  -3.809  -6.253  1.00  0.00     0.053 C 
BRANCH  14  15
ATOM     15  C   UNL     1      -3.411  -2.893  -5.689  1.00  0.00     0.041 C 
ATOM     16  O   UNL     1      -3.304  -1.713  -6.120  1.00  0.00    -0.550 OA
ATOM     17  O   UNL     1      -2.572  -3.333  -4.673  1.00  0.00    -0.550 OA
ENDBRANCH  14  15
ENDBRANCH  13  14
ENDBRANCH  12  13
ENDBRANCH  11  12
ENDBRANCH  10  11
ENDBRANCH   9  10
ENDBRANCH   8   9
ENDBRANCH   7   8
ENDBRANCH   6   7
ENDBRANCH   5   6
ENDBRANCH   4   5
ENDBRANCH   3   4
ENDBRANCH   2   3
ENDBRANCH   1   2
BRANCH   1  18
ATOM     18  C   UNL     1      -9.271  -5.642  -5.236  1.00  0.00     0.000 C 
BRANCH  18  19
ATOM     19  C   UNL     1      -9.783  -5.456  -3.793  1.00  0.00     0.000 C 
BRANCH  19  20
ATOM     20  C   UNL     1     -11.125  -4.710  -3.662  1.00  0.00     0.000 C 
BRANCH  20  21
ATOM     21  C   UNL     1     -10.952  -3.189  -3.510  1.00  0.00     0.000 C 
BRANCH  21  22
ATOM     22  C   UNL     1     -11.125  -2.713  -2.057  1.00  0.00     0.000 C 
BRANCH  22  23
ATOM     23  C   UNL     1     -10.533  -3.653  -0.985  1.00  0.00     0.000 C 
BRANCH  23  24
ATOM     24  C   UNL     1      -9.007  -3.541  -0.784  1.00  0.00    -0.000 C 
BRANCH  24  25
ATOM     25  C   UNL     1      -8.234  -2.975  -1.989  1.00  0.00    -0.000 C 
BRANCH  25  26
ATOM     26  C   UNL     1      -7.331  -1.790  -1.613  1.00  0.00    -0.000 C 
BRANCH  26  27
ATOM     27  C   UNL     1      -8.163  -0.558  -1.231  1.00  0.00    -0.000 C 
BRANCH  27  28
ATOM     28  C   UNL     1      -7.336   0.728  -1.379  1.00  0.00    -0.000 C 
BRANCH  28  29
ATOM     29  C   UNL     1      -7.835   1.863  -0.470  1.00  0.00    -0.000 C 
BRANCH  29  30
ATOM     30  C   UNL     1      -8.889   2.749  -1.158  1.00  0.00    -0.000 C 
BRANCH  30  31
ATOM     31  C   UNL     1      -8.525   4.241  -1.114  1.00  0.00    -0.003 C 
ATOM     32  C   UNL     1      -9.674   5.140  -1.566  1.00  0.00     0.004 C 
ENDBRANCH  30  31
ENDBRANCH  29  30
ENDBRANCH  28  29
ENDBRANCH  27  28
ENDBRANCH  26  27
ENDBRANCH  25  26
ENDBRANCH  24  25
ENDBRANCH  23  24
ENDBRANCH  22  23
ENDBRANCH  21  22
ENDBRANCH  20  21
ENDBRANCH  19  20
ENDBRANCH  18  19
ENDBRANCH   1  18
TORSDOF 28
ENDMDL
MODEL 2
REMARK VINA RESULT:    -1.986      2.661      6.867
REMARK INTER + INTRA:          -8.198
REMARK INTER:                  -4.915
REMARK INTRA:                  -3.283
REMARK UNBOUND:                -2.962
REMARK SMILES CCCCCCCCCCCCCCCCCCCCCCCCCCCCCC(=O)[O-]
REMARK SMILES IDX 16 1 17 2 18 3 19 4 20 5 21 6 22 7 23 8 24 9 25 10 26 11
REMARK SMILES IDX 27 12 28 13 29 14 30 15 31 16 32 17 15 18 14 19 13 20 12 21
REMARK SMILES IDX 11 22 10 23 9 24 8 25 7 26 6 27 5 28 4 29 3 30 2 31 1 32
REMARK H PARENT
REMARK Flexibility Score: inf
ROOT
ATOM      1  C   UNL     1      -8.680  -3.219  -9.905  1.00  0.00     0.000 C 
ENDROOT
BRANCH   1   2
ATOM      2  C   UNL     1     -10.156  -3.097  -9.483  1.00  0.00     0.000 C 
BRANCH   2   3
ATOM      3  C   UNL     1     -10.969  -4.372  -9.764  1.00  0.00     0.000 C 
BRANCH   3   4
ATOM      4  C   UNL     1     -10.080  -5.575 -10.125  1.00  0.00     0.000 C 
BRANCH   4   5
ATOM      5  C   UNL     1     -10.477  -6.904  -9.451  1.00  0.00     0.000 C 
BRANCH   5   6
ATOM      6  C   UNL     1     -11.124  -6.765  -8.059  1.00  0.00     0.000 C 
BRANCH   6   7
ATOM      7  C   UNL     1     -10.305  -5.950  -7.037  1.00  0.00     0.000 C 
BRANCH   7   8
ATOM      8  C   UNL     1     -11.118  -4.924  -6.227  1.00  0.00     0.000 C 
BRANCH   8   9
ATOM      9  C   UNL     1     -10.505  -3.513  -6.266  1.00  0.00     0.000 C 
BRANCH   9  10
ATOM     10  C   UNL     1     -10.328  -2.916  -4.854  1.00  0.00     0.000 C 
BRANCH  10  11
ATOM     11  C   UNL     1      -9.963  -3.955  -3.779  1.00  0.00     0.000 C 
BRANCH  11  12
ATOM     12  C   UNL     1     -10.763  -3.774  -2.480  1.00  0.00     0.000 C 
BRANCH  12  13
ATOM     13  C   UNL     1      -9.863  -3.532  -1.254  1.00  0.00     0.006 C 
BRANCH  13  14
ATOM     14  C   UNL     1      -8.381  -3.292  -1.588  1.00  0.00     0.053 C 
BRANCH  14  15
ATOM     15  C   UNL     1      -8.048  -1.832  -1.668  1.00  0.00     0.041 C 
ATOM     16  O   UNL     1      -8.858  -0.974  -1.227  1.00  0.00    -0.550 OA
ATOM     17  O   UNL     1      -6.836  -1.422  -2.208  1.00  0.00    -0.550 OA
ENDBRANCH  14  15
ENDBRANCH  13  14
ENDBRANCH  12  13
ENDBRANCH  11  12
ENDBRANCH  10  11
ENDBRANCH   9  10
ENDBRANCH   8   9
ENDBRANCH   7   8
ENDBRANCH   6   7
ENDBRANCH   5   6
ENDBRANCH   4   5
ENDBRANCH   3   4
ENDBRANCH   2   3
ENDBRANCH   1   2
BRANCH   1  18
ATOM     18  C   UNL     1      -7.678  -3.406  -8.748  1.00  0.00     0.000 C 
BRANCH  18  19
ATOM     19  C   UNL     1      -6.522  -4.388  -9.031  1.00  0.00     0.000 C 
BRANCH  19  20
ATOM     20  C   UNL     1      -6.827  -5.479 -10.076  1.00  0.00     0.000 C 
BRANCH  20  21
ATOM     21  C   UNL     1      -6.108  -6.807  -9.782  1.00  0.00     0.000 C 
BRANCH  21  22
ATOM     22  C   UNL     1      -6.915  -7.725  -8.847  1.00  0.00     0.000 C 
BRANCH  22  23
ATOM     23  C   UNL     1      -6.466  -7.715  -7.371  1.00  0.00     0.000 C 
BRANCH  23  24
ATOM     24  C   UNL     1      -7.034  -6.560  -6.520  1.00  0.00    -0.000 C 
BRANCH  24  25
ATOM     25  C   UNL     1      -5.977  -5.604  -5.936  1.00  0.00    -0.000 C 
BRANCH  25  26
ATOM     26  C   UNL     1      -4.754  -6.344  -5.373  1.00  0.00    -0.000 C 
BRANCH  26  27
ATOM     27  C   UNL     1      -3.599  -6.357  -6.384  1.00  0.00    -0.000 C 
BRANCH  27  28
ATOM     28  C   UNL     1      -2.269  -6.008  -5.699  1.00  0.00    -0.000 C 
BRANCH  28  29
ATOM     29  C   UNL     1      -2.290  -4.622  -5.034  1.00  0.00    -0.000 C 
BRANCH  29  30
ATOM     30  C   UNL     1      -2.644  -3.498  -6.024  1.00  0.00    -0.000 C 
BRANCH  30  31
ATOM     31  C   UNL     1      -3.603  -2.460  -5.420  1.00  0.00    -0.003 C 
ATOM     32  C   UNL     1      -3.376  -1.056  -5.977  1.00  0.00     0.004 C 
ENDBRANCH  30  31
ENDBRANCH  29  30
ENDBRANCH  28  29
ENDBRANCH  27  28
ENDBRANCH  26  27
ENDBRANCH  25  26
ENDBRANCH  24  25
ENDBRANCH  23  24
ENDBRANCH  22  23
ENDBRANCH  21  22
ENDBRANCH  20  21
ENDBRANCH  19  20
ENDBRANCH  18  19
ENDBRANCH   1  18
TORSDOF 28
ENDMDL
MODEL 3
REMARK VINA RESULT:    -1.533      2.643      7.965
REMARK INTER + INTRA:          -7.004
REMARK INTER:                  -4.196
REMARK INTRA:                  -2.808
REMARK UNBOUND:                -2.962
REMARK SMILES CCCCCCCCCCCCCCCCCCCCCCCCCCCCCC(=O)[O-]
REMARK SMILES IDX 16 1 17 2 18 3 19 4 20 5 21 6 22 7 23 8 24 9 25 10 26 11
REMARK SMILES IDX 27 12 28 13 29 14 30 15 31 16 32 17 15 18 14 19 13 20 12 21
REMARK SMILES IDX 11 22 10 23 9 24 8 25 7 26 6 27 5 28 4 29 3 30 2 31 1 32
REMARK H PARENT
REMARK Flexibility Score: inf
ROOT
ATOM      1  C   UNL     1      -9.634  -4.243  -7.988  1.00  0.00     0.000 C 
ENDROOT
BRANCH   1   2
ATOM      2  C   UNL     1     -11.016  -3.854  -7.433  1.00  0.00     0.000 C 
BRANCH   2   3
ATOM      3  C   UNL     1     -11.105  -3.974  -5.902  1.00  0.00     0.000 C 
BRANCH   3   4
ATOM      4  C   UNL     1     -11.124  -5.435  -5.422  1.00  0.00     0.000 C 
BRANCH   4   5
ATOM      5  C   UNL     1     -11.120  -5.618  -3.891  1.00  0.00     0.000 C 
BRANCH   5   6
ATOM      6  C   UNL     1     -10.325  -4.556  -3.106  1.00  0.00     0.000 C 
BRANCH   6   7
ATOM      7  C   UNL     1     -10.842  -4.275  -1.681  1.00  0.00     0.000 C 
BRANCH   7   8
ATOM      8  C   UNL     1     -10.899  -2.786  -1.294  1.00  0.00     0.000 C 
BRANCH   8   9
ATOM      9  C   UNL     1      -9.801  -2.386  -0.294  1.00  0.00     0.000 C 
BRANCH   9  10
ATOM     10  C   UNL     1      -8.385  -2.540  -0.890  1.00  0.00     0.000 C 
BRANCH  10  11
ATOM     11  C   UNL     1      -8.232  -1.936  -2.297  1.00  0.00     0.000 C 
BRANCH  11  12
ATOM     12  C   UNL     1      -6.987  -1.046  -2.430  1.00  0.00     0.000 C 
BRANCH  12  13
ATOM     13  C   UNL     1      -7.006   0.154  -1.465  1.00  0.00     0.006 C 
BRANCH  13  14
ATOM     14  C   UNL     1      -8.320   0.953  -1.465  1.00  0.00     0.053 C 
BRANCH  14  15
ATOM     15  C   UNL     1      -8.265   2.133  -0.542  1.00  0.00     0.041 C 
ATOM     16  O   UNL     1      -7.877   1.988   0.648  1.00  0.00    -0.550 OA
ATOM     17  O   UNL     1      -8.618   3.396  -1.002  1.00  0.00    -0.550 OA
ENDBRANCH  14  15
ENDBRANCH  13  14
ENDBRANCH  12  13
ENDBRANCH  11  12
ENDBRANCH  10  11
ENDBRANCH   9  10
ENDBRANCH   8   9
ENDBRANCH   7   8
ENDBRANCH   6   7
ENDBRANCH   5   6
ENDBRANCH   4   5
ENDBRANCH   3   4
ENDBRANCH   2   3
ENDBRANCH   1   2
BRANCH   1  18
ATOM     18  C   UNL     1      -9.548  -4.353  -9.524  1.00  0.00     0.000 C 
BRANCH  18  19
ATOM     19  C   UNL     1     -10.107  -5.659 -10.124  1.00  0.00     0.000 C 
BRANCH  19  20
ATOM     20  C   UNL     1     -10.029  -6.892  -9.203  1.00  0.00     0.000 C 
BRANCH  20  21
ATOM     21  C   UNL     1      -9.465  -8.134  -9.913  1.00  0.00     0.000 C 
BRANCH  21  22
ATOM     22  C   UNL     1      -7.936  -8.077 -10.086  1.00  0.00     0.000 C 
BRANCH  22  23
ATOM     23  C   UNL     1      -7.168  -7.439  -8.909  1.00  0.00     0.000 C 
BRANCH  23  24
ATOM     24  C   UNL     1      -6.110  -6.389  -9.308  1.00  0.00    -0.000 C 
BRANCH  24  25
ATOM     25  C   UNL     1      -5.646  -5.470  -8.164  1.00  0.00    -0.000 C 
BRANCH  25  26
ATOM     26  C   UNL     1      -6.207  -5.891  -6.798  1.00  0.00    -0.000 C 
BRANCH  26  27
ATOM     27  C   UNL     1      -5.307  -6.939  -6.128  1.00  0.00    -0.000 C 
BRANCH  27  28
ATOM     28  C   UNL     1      -3.824  -6.575  -6.299  1.00  0.00    -0.000 C 
BRANCH  28  29
ATOM     29  C   UNL     1      -3.316  -5.625  -5.201  1.00  0.00    -0.000 C 
BRANCH  29  30
ATOM     30  C   UNL     1      -2.720  -4.327  -5.774  1.00  0.00    -0.000 C 
BRANCH  30  31
ATOM     31  C   UNL     1      -3.785  -3.250  -6.028  1.00  0.00    -0.003 C 
ATOM     32  C   UNL     1      -3.366  -1.874  -5.512  1.00  0.00     0.004 C 
ENDBRANCH  30  31
ENDBRANCH  29  30
ENDBRANCH  28  29
ENDBRANCH  27  28
ENDBRANCH  26  27
ENDBRANCH  25  26
ENDBRANCH  24  25
ENDBRANCH  23  24
ENDBRANCH  22  23
ENDBRANCH  21  22
ENDBRANCH  20  21
ENDBRANCH  19  20
ENDBRANCH  18  19
ENDBRANCH   1  18
TORSDOF 28
ENDMDL
MODEL 4
REMARK VINA RESULT:    -1.280      1.050      1.827
REMARK INTER + INTRA:          -6.338
REMARK INTER:                  -4.151
REMARK INTRA:                  -2.187
REMARK UNBOUND:                -2.962
REMARK SMILES CCCCCCCCCCCCCCCCCCCCCCCCCCCCCC(=O)[O-]
REMARK SMILES IDX 16 1 17 2 18 3 19 4 20 5 21 6 22 7 23 8 24 9 25 10 26 11
REMARK SMILES IDX 27 12 28 13 29 14 30 15 31 16 32 17 15 18 14 19 13 20 12 21
REMARK SMILES IDX 11 22 10 23 9 24 8 25 7 26 6 27 5 28 4 29 3 30 2 31 1 32
REMARK H PARENT
REMARK Flexibility Score: inf
ROOT
ATOM      1  C   UNL     1     -10.399  -4.664  -5.878  1.00  0.00     0.000 C 
ENDROOT
BRANCH   1   2
ATOM      2  C   UNL     1     -10.599  -5.058  -7.352  1.00  0.00     0.000 C 
BRANCH   2   3
ATOM      3  C   UNL     1     -10.885  -3.853  -8.264  1.00  0.00     0.000 C 
BRANCH   3   4
ATOM      4  C   UNL     1     -10.533  -4.126  -9.736  1.00  0.00     0.000 C 
BRANCH   4   5
ATOM      5  C   UNL     1      -9.681  -5.388  -9.979  1.00  0.00     0.000 C 
BRANCH   5   6
ATOM      6  C   UNL     1      -8.157  -5.180  -9.878  1.00  0.00     0.000 C 
BRANCH   6   7
ATOM      7  C   UNL     1      -7.335  -6.468  -9.670  1.00  0.00     0.000 C 
BRANCH   7   8
ATOM      8  C   UNL     1      -6.388  -6.443  -8.457  1.00  0.00     0.000 C 
BRANCH   8   9
ATOM      9  C   UNL     1      -7.116  -6.136  -7.136  1.00  0.00     0.000 C 
BRANCH   9  10
ATOM     10  C   UNL     1      -6.169  -6.204  -5.920  1.00  0.00     0.000 C 
BRANCH  10  11
ATOM     11  C   UNL     1      -4.842  -6.931  -6.201  1.00  0.00     0.000 C 
BRANCH  11  12
ATOM     12  C   UNL     1      -3.613  -6.047  -5.948  1.00  0.00     0.000 C 
BRANCH  12  13
ATOM     13  C   UNL     1      -3.960  -4.549  -5.871  1.00  0.00     0.006 C 
BRANCH  13  14
ATOM     14  C   UNL     1      -2.834  -3.660  -5.317  1.00  0.00     0.053 C 
BRANCH  14  15
ATOM     15  C   UNL     1      -3.099  -2.203  -5.547  1.00  0.00     0.041 C 
ATOM     16  O   UNL     1      -3.409  -1.789  -6.696  1.00  0.00    -0.550 OA
ATOM     17  O   UNL     1      -3.026  -1.305  -4.489  1.00  0.00    -0.550 OA
ENDBRANCH  14  15
ENDBRANCH  13  14
ENDBRANCH  12  13
ENDBRANCH  11  12
ENDBRANCH  10  11
ENDBRANCH   9  10
ENDBRANCH   8   9
ENDBRANCH   7   8
ENDBRANCH   6   7
ENDBRANCH   5   6
ENDBRANCH   4   5
ENDBRANCH   3   4
ENDBRANCH   2   3
ENDBRANCH   1   2
BRANCH   1  18
ATOM     18  C   UNL     1     -10.999  -3.303  -5.472  1.00  0.00     0.000 C 
BRANCH  18  19
ATOM     19  C   UNL     1     -11.124  -3.065  -3.953  1.00  0.00     0.000 C 
BRANCH  19  20
ATOM     20  C   UNL     1     -10.813  -4.287  -3.068  1.00  0.00     0.000 C 
BRANCH  20  21
ATOM     21  C   UNL     1     -11.007  -4.006  -1.568  1.00  0.00     0.000 C 
BRANCH  21  22
ATOM     22  C   UNL     1     -10.045  -2.928  -1.036  1.00  0.00     0.000 C 
BRANCH  22  23
ATOM     23  C   UNL     1      -8.608  -3.001  -1.594  1.00  0.00     0.000 C 
BRANCH  23  24
ATOM     24  C   UNL     1      -7.657  -1.889  -1.104  1.00  0.00    -0.000 C 
BRANCH  24  25
ATOM     25  C   UNL     1      -7.655  -0.612  -1.964  1.00  0.00    -0.000 C 
BRANCH  25  26
ATOM     26  C   UNL     1      -6.836   0.526  -1.335  1.00  0.00    -0.000 C 
BRANCH  26  27
ATOM     27  C   UNL     1      -7.663   1.297  -0.297  1.00  0.00    -0.000 C 
BRANCH  27  28
ATOM     28  C   UNL     1      -8.740   2.152  -0.982  1.00  0.00    -0.000 C 
BRANCH  28  29
ATOM     29  C   UNL     1      -8.510   3.660  -0.791  1.00  0.00    -0.000 C 
BRANCH  29  30
ATOM     30  C   UNL     1      -9.257   4.507  -1.837  1.00  0.00    -0.000 C 
BRANCH  30  31
ATOM     31  C   UNL     1      -9.509   5.946  -1.360  1.00  0.00    -0.003 C 
ATOM     32  C   UNL     1      -8.615   6.342  -0.186  1.00  0.00     0.004 C 
ENDBRANCH  30  31
ENDBRANCH  29  30
ENDBRANCH  28  29
ENDBRANCH  27  28
ENDBRANCH  26  27
ENDBRANCH  25  26
ENDBRANCH  24  25
ENDBRANCH  23  24
ENDBRANCH  22  23
ENDBRANCH  21  22
ENDBRANCH  20  21
ENDBRANCH  19  20
ENDBRANCH  18  19
ENDBRANCH   1  18
TORSDOF 28
ENDMDL
MODEL 5
REMARK VINA RESULT:    -0.983      1.285      2.390
REMARK INTER + INTRA:          -5.555
REMARK INTER:                  -3.841
REMARK INTRA:                  -1.714
REMARK UNBOUND:                -2.962
REMARK SMILES CCCCCCCCCCCCCCCCCCCCCCCCCCCCCC(=O)[O-]
REMARK SMILES IDX 16 1 17 2 18 3 19 4 20 5 21 6 22 7 23 8 24 9 25 10 26 11
REMARK SMILES IDX 27 12 28 13 29 14 30 15 31 16 32 17 15 18 14 19 13 20 12 21
REMARK SMILES IDX 11 22 10 23 9 24 8 25 7 26 6 27 5 28 4 29 3 30 2 31 1 32
REMARK H PARENT
REMARK Flexibility Score: inf
ROOT
ATOM      1  C   UNL     1      -9.968  -4.081  -4.715  1.00  0.00     0.000 C 
ENDROOT
BRANCH   1   2
ATOM      2  C   UNL     1      -9.445  -5.414  -5.278  1.00  0.00     0.000 C 
BRANCH   2   3
ATOM      3  C   UNL     1      -9.936  -5.699  -6.707  1.00  0.00     0.000 C 
BRANCH   3   4
ATOM      4  C   UNL     1      -9.846  -4.465  -7.621  1.00  0.00     0.000 C 
BRANCH   4   5
ATOM      5  C   UNL     1      -9.705  -4.778  -9.125  1.00  0.00     0.000 C 
BRANCH   5   6
ATOM      6  C   UNL     1      -9.615  -6.275  -9.477  1.00  0.00     0.000 C 
BRANCH   6   7
ATOM      7  C   UNL     1      -8.188  -6.799  -9.742  1.00  0.00     0.000 C 
BRANCH   7   8
ATOM      8  C   UNL     1      -7.060  -5.817  -9.379  1.00  0.00     0.000 C 
BRANCH   8   9
ATOM      9  C   UNL     1      -5.706  -6.517  -9.162  1.00  0.00     0.000 C 
BRANCH   9  10
ATOM     10  C   UNL     1      -5.213  -6.391  -7.705  1.00  0.00     0.000 C 
BRANCH  10  11
ATOM     11  C   UNL     1      -5.913  -5.281  -6.902  1.00  0.00     0.000 C 
BRANCH  11  12
ATOM     12  C   UNL     1      -5.122  -4.858  -5.656  1.00  0.00     0.000 C 
BRANCH  12  13
ATOM     13  C   UNL     1      -3.666  -5.361  -5.674  1.00  0.00     0.006 C 
BRANCH  13  14
ATOM     14  C   UNL     1      -2.607  -4.252  -5.561  1.00  0.00     0.053 C 
BRANCH  14  15
ATOM     15  C   UNL     1      -3.205  -2.883  -5.684  1.00  0.00     0.041 C 
ATOM     16  O   UNL     1      -3.288  -2.135  -4.674  1.00  0.00    -0.550 OA
ATOM     17  O   UNL     1      -3.649  -2.424  -6.919  1.00  0.00    -0.550 OA
ENDBRANCH  14  15
ENDBRANCH  13  14
ENDBRANCH  12  13
ENDBRANCH  11  12
ENDBRANCH  10  11
ENDBRANCH   9  10
ENDBRANCH   8   9
ENDBRANCH   7   8
ENDBRANCH   6   7
ENDBRANCH   5   6
ENDBRANCH   4   5
ENDBRANCH   3   4
ENDBRANCH   2   3
ENDBRANCH   1   2
BRANCH   1  18
ATOM     18  C   UNL     1     -11.124  -4.201  -3.701  1.00  0.00     0.000 C 
BRANCH  18  19
ATOM     19  C   UNL     1     -11.124  -3.147  -2.575  1.00  0.00     0.000 C 
BRANCH  19  20
ATOM     20  C   UNL     1     -11.125  -3.716  -1.143  1.00  0.00     0.000 C 
BRANCH  20  21
ATOM     21  C   UNL     1      -9.773  -3.542  -0.429  1.00  0.00     0.000 C 
BRANCH  21  22
ATOM     22  C   UNL     1      -8.602  -3.361  -1.411  1.00  0.00     0.000 C 
BRANCH  22  23
ATOM     23  C   UNL     1      -8.476  -1.953  -2.029  1.00  0.00     0.000 C 
BRANCH  23  24
ATOM     24  C   UNL     1      -7.160  -1.213  -1.712  1.00  0.00    -0.000 C 
BRANCH  24  25
ATOM     25  C   UNL     1      -7.277   0.321  -1.652  1.00  0.00    -0.000 C 
BRANCH  25  26
ATOM     26  C   UNL     1      -8.448   0.794  -0.776  1.00  0.00    -0.000 C 
BRANCH  26  27
ATOM     27  C   UNL     1      -8.255   2.250  -0.330  1.00  0.00    -0.000 C 
BRANCH  27  28
ATOM     28  C   UNL     1      -9.146   3.195  -1.151  1.00  0.00    -0.000 C 
BRANCH  28  29
ATOM     29  C   UNL     1      -8.518   4.586  -1.340  1.00  0.00    -0.000 C 
BRANCH  29  30
ATOM     30  C   UNL     1      -9.232   5.673  -0.516  1.00  0.00    -0.000 C 
BRANCH  30  31
ATOM     31  C   UNL     1      -8.663   7.077  -0.772  1.00  0.00    -0.003 C 
ATOM     32  C   UNL     1      -9.472   8.174  -0.084  1.00  0.00     0.004 C 
ENDBRANCH  30  31
ENDBRANCH  29  30
ENDBRANCH  28  29
ENDBRANCH  27  28
ENDBRANCH  26  27
ENDBRANCH  25  26
ENDBRANCH  24  25
ENDBRANCH  23  24
ENDBRANCH  22  23
ENDBRANCH  21  22
ENDBRANCH  20  21
ENDBRANCH  19  20
ENDBRANCH  18  19
ENDBRANCH   1  18
TORSDOF 28
ENDMDL
MODEL 6
REMARK VINA RESULT:    -0.974      2.901      8.570
REMARK INTER + INTRA:          -5.531
REMARK INTER:                  -3.266
REMARK INTRA:                  -2.265
REMARK UNBOUND:                -2.962
REMARK SMILES CCCCCCCCCCCCCCCCCCCCCCCCCCCCCC(=O)[O-]
REMARK SMILES IDX 16 1 17 2 18 3 19 4 20 5 21 6 22 7 23 8 24 9 25 10 26 11
REMARK SMILES IDX 27 12 28 13 29 14 30 15 31 16 32 17 15 18 14 19 13 20 12 21
REMARK SMILES IDX 11 22 10 23 9 24 8 25 7 26 6 27 5 28 4 29 3 30 2 31 1 32
REMARK H PARENT
REMARK Flexibility Score: inf
ROOT
ATOM      1  C   UNL     1      -8.769  -4.285  -5.684  1.00  0.00     0.000 C 
ENDROOT
BRANCH   1   2
ATOM      2  C   UNL     1      -9.902  -3.392  -5.149  1.00  0.00     0.000 C 
BRANCH   2   3
ATOM      3  C   UNL     1     -11.124  -4.193  -4.669  1.00  0.00     0.000 C 
BRANCH   3   4
ATOM      4  C   UNL     1     -11.125  -4.418  -3.147  1.00  0.00     0.000 C 
BRANCH   4   5
ATOM      5  C   UNL     1     -11.109  -3.131  -2.298  1.00  0.00     0.000 C 
BRANCH   5   6
ATOM      6  C   UNL     1     -10.641  -3.312  -0.841  1.00  0.00     0.000 C 
BRANCH   6   7
ATOM      7  C   UNL     1      -9.121  -3.501  -0.662  1.00  0.00     0.000 C 
BRANCH   7   8
ATOM      8  C   UNL     1      -8.282  -3.230  -1.923  1.00  0.00     0.000 C 
BRANCH   8   9
ATOM      9  C   UNL     1      -7.560  -1.871  -1.879  1.00  0.00     0.000 C 
BRANCH   9  10
ATOM     10  C   UNL     1      -8.056  -0.985  -0.717  1.00  0.00     0.000 C 
BRANCH  10  11
ATOM     11  C   UNL     1      -8.953   0.184  -1.162  1.00  0.00     0.000 C 
BRANCH  11  12
ATOM     12  C   UNL     1      -8.212   1.529  -1.183  1.00  0.00     0.000 C 
BRANCH  12  13
ATOM     13  C   UNL     1      -9.156   2.733  -1.008  1.00  0.00     0.006 C 
BRANCH  13  14
ATOM     14  C   UNL     1      -8.535   3.928  -0.265  1.00  0.00     0.053 C 
BRANCH  14  15
ATOM     15  C   UNL     1      -8.709   5.213  -1.016  1.00  0.00     0.041 C 
ATOM     16  O   UNL     1      -8.330   5.303  -2.214  1.00  0.00    -0.550 OA
ATOM     17  O   UNL     1      -9.309   6.305  -0.400  1.00  0.00    -0.550 OA
ENDBRANCH  14  15
ENDBRANCH  13  14
ENDBRANCH  12  13
ENDBRANCH  11  12
ENDBRANCH  10  11
ENDBRANCH   9  10
ENDBRANCH   8   9
ENDBRANCH   7   8
ENDBRANCH   6   7
ENDBRANCH   5   6
ENDBRANCH   4   5
ENDBRANCH   3   4
ENDBRANCH   2   3
ENDBRANCH   1   2
BRANCH   1  18
ATOM     18  C   UNL     1      -9.225  -5.507  -6.507  1.00  0.00     0.000 C 
BRANCH  18  19
ATOM     19  C   UNL     1      -9.405  -5.254  -8.018  1.00  0.00     0.000 C 
BRANCH  19  20
ATOM     20  C   UNL     1     -10.462  -6.134  -8.711  1.00  0.00     0.000 C 
BRANCH  20  21
ATOM     21  C   UNL     1     -10.043  -6.573 -10.124  1.00  0.00     0.000 C 
BRANCH  21  22
ATOM     22  C   UNL     1      -9.199  -7.860 -10.120  1.00  0.00     0.000 C 
BRANCH  22  23
ATOM     23  C   UNL     1      -7.955  -7.824  -9.208  1.00  0.00     0.000 C 
BRANCH  23  24
ATOM     24  C   UNL     1      -6.748  -7.045  -9.772  1.00  0.00    -0.000 C 
BRANCH  24  25
ATOM     25  C   UNL     1      -6.124  -6.025  -8.802  1.00  0.00    -0.000 C 
BRANCH  25  26
ATOM     26  C   UNL     1      -5.980  -6.574  -7.374  1.00  0.00    -0.000 C 
BRANCH  26  27
ATOM     27  C   UNL     1      -4.505  -6.653  -6.957  1.00  0.00    -0.000 C 
BRANCH  27  28
ATOM     28  C   UNL     1      -4.254  -5.834  -5.681  1.00  0.00    -0.000 C 
BRANCH  28  29
ATOM     29  C   UNL     1      -2.759  -5.570  -5.431  1.00  0.00    -0.000 C 
BRANCH  29  30
ATOM     30  C   UNL     1      -2.377  -4.095  -5.646  1.00  0.00    -0.000 C 
BRANCH  30  31
ATOM     31  C   UNL     1      -3.599  -3.164  -5.648  1.00  0.00    -0.003 C 
ATOM     32  C   UNL     1      -3.267  -1.759  -6.146  1.00  0.00     0.004 C 
ENDBRANCH  30  31
ENDBRANCH  29  30
ENDBRANCH  28  29
ENDBRANCH  27  28
ENDBRANCH  26  27
ENDBRANCH  25  26
ENDBRANCH  24  25
ENDBRANCH  23  24
ENDBRANCH  22  23
ENDBRANCH  21  22
ENDBRANCH  20  21
ENDBRANCH  19  20
ENDBRANCH  18  19
ENDBRANCH   1  18
TORSDOF 28
ENDMDL
MODEL 7
REMARK VINA RESULT:    -0.875      3.861      7.354
REMARK INTER + INTRA:          -5.269
REMARK INTER:                  -3.910
REMARK INTRA:                  -1.359
REMARK UNBOUND:                -2.962
REMARK SMILES CCCCCCCCCCCCCCCCCCCCCCCCCCCCCC(=O)[O-]
REMARK SMILES IDX 16 1 17 2 18 3 19 4 20 5 21 6 22 7 23 8 24 9 25 10 26 11
REMARK SMILES IDX 27 12 28 13 29 14 30 15 31 16 32 17 15 18 14 19 13 20 12 21
REMARK SMILES IDX 11 22 10 23 9 24 8 25 7 26 6 27 5 28 4 29 3 30 2 31 1 32
REMARK H PARENT
REMARK Flexibility Score: inf
ROOT
ATOM      1  C   UNL     1      -8.389  -1.849  -1.882  1.00  0.00     0.000 C 
ENDROOT
BRANCH   1   2
ATOM      2  C   UNL     1      -8.487  -3.277  -1.315  1.00  0.00     0.000 C 
BRANCH   2   3
ATOM      3  C   UNL     1      -9.918  -3.664  -0.905  1.00  0.00     0.000 C 
BRANCH   3   4
ATOM      4  C   UNL     1     -10.975  -3.186  -1.915  1.00  0.00     0.000 C 
BRANCH   4   5
ATOM      5  C   UNL     1     -11.045  -4.004  -3.221  1.00  0.00     0.000 C 
BRANCH   5   6
ATOM      6  C   UNL     1     -10.935  -3.179  -4.518  1.00  0.00     0.000 C 
BRANCH   6   7
ATOM      7  C   UNL     1     -10.096  -3.830  -5.636  1.00  0.00     0.000 C 
BRANCH   7   8
ATOM      8  C   UNL     1     -10.807  -3.946  -6.996  1.00  0.00     0.000 C 
BRANCH   8   9
ATOM      9  C   UNL     1     -10.420  -5.222  -7.765  1.00  0.00     0.000 C 
BRANCH   9  10
ATOM     10  C   UNL     1      -8.977  -5.674  -7.456  1.00  0.00     0.000 C 
BRANCH  10  11
ATOM     11  C   UNL     1      -7.916  -5.049  -8.379  1.00  0.00     0.000 C 
BRANCH  11  12
ATOM     12  C   UNL     1      -7.234  -6.083  -9.287  1.00  0.00     0.000 C 
BRANCH  12  13
ATOM     13  C   UNL     1      -6.116  -6.862  -8.569  1.00  0.00     0.006 C 
BRANCH  13  14
ATOM     14  C   UNL     1      -5.347  -6.048  -7.515  1.00  0.00     0.053 C 
BRANCH  14  15
ATOM     15  C   UNL     1      -4.941  -6.885  -6.339  1.00  0.00     0.041 C 
ATOM     16  O   UNL     1      -5.600  -7.915  -6.038  1.00  0.00    -0.550 OA
ATOM     17  O   UNL     1      -3.822  -6.540  -5.591  1.00  0.00    -0.550 OA
ENDBRANCH  14  15
ENDBRANCH  13  14
ENDBRANCH  12  13
ENDBRANCH  11  12
ENDBRANCH  10  11
ENDBRANCH   9  10
ENDBRANCH   8   9
ENDBRANCH   7   8
ENDBRANCH   6   7
ENDBRANCH   5   6
ENDBRANCH   4   5
ENDBRANCH   3   4
ENDBRANCH   2   3
ENDBRANCH   1   2
BRANCH   1  18
ATOM     18  C   UNL     1      -7.856  -0.785  -0.901  1.00  0.00     0.000 C 
BRANCH  18  19
ATOM     19  C   UNL     1      -7.762   0.646  -1.468  1.00  0.00     0.000 C 
BRANCH  19  20
ATOM     20  C   UNL     1      -8.165   1.768  -0.492  1.00  0.00     0.000 C 
BRANCH  20  21
ATOM     21  C   UNL     1      -8.642   3.043  -1.208  1.00  0.00     0.000 C 
BRANCH  21  22
ATOM     22  C   UNL     1      -8.535   4.297  -0.323  1.00  0.00     0.000 C 
BRANCH  22  23
ATOM     23  C   UNL     1      -8.933   5.620  -1.010  1.00  0.00     0.000 C 
BRANCH  23  24
ATOM     24  C   UNL     1      -9.488   6.709  -0.067  1.00  0.00    -0.000 C 
BRANCH  24  25
ATOM     25  C   UNL     1      -9.201   8.155  -0.507  1.00  0.00    -0.000 C 
BRANCH  25  26
ATOM     26  C   UNL     1      -8.996   9.109   0.681  1.00  0.00    -0.000 C 
BRANCH  26  27
ATOM     27  C   UNL     1      -9.966   8.784   1.826  1.00  0.00    -0.000 C 
BRANCH  27  28
ATOM     28  C   UNL     1      -9.959   9.901   2.881  1.00  0.00    -0.000 C 
BRANCH  28  29
ATOM     29  C   UNL     1     -10.878   9.595   4.076  1.00  0.00    -0.000 C 
BRANCH  29  30
ATOM     30  C   UNL     1     -10.222   9.934   5.426  1.00  0.00    -0.000 C 
BRANCH  30  31
ATOM     31  C   UNL     1     -10.723   9.036   6.567  1.00  0.00    -0.003 C 
ATOM     32  C   UNL     1      -9.761   9.000   7.753  1.00  0.00     0.004 C 
ENDBRANCH  30  31
ENDBRANCH  29  30
ENDBRANCH  28  29
ENDBRANCH  27  28
ENDBRANCH  26  27
ENDBRANCH  25  26
ENDBRANCH  24  25
ENDBRANCH  23  24
ENDBRANCH  22  23
ENDBRANCH  21  22
ENDBRANCH  20  21
ENDBRANCH  19  20
ENDBRANCH  18  19
ENDBRANCH   1  18
TORSDOF 28
ENDMDL
MODEL 8
REMARK VINA RESULT:    -0.682      3.804      9.885
REMARK INTER + INTRA:          -4.760
REMARK INTER:                  -2.737
REMARK INTRA:                  -2.023
REMARK UNBOUND:                -2.962
REMARK SMILES CCCCCCCCCCCCCCCCCCCCCCCCCCCCCC(=O)[O-]
REMARK SMILES IDX 16 1 17 2 18 3 19 4 20 5 21 6 22 7 23 8 24 9 25 10 26 11
REMARK SMILES IDX 27 12 28 13 29 14 30 15 31 16 32 17 15 18 14 19 13 20 12 21
REMARK SMILES IDX 11 22 10 23 9 24 8 25 7 26 6 27 5 28 4 29 3 30 2 31 1 32
REMARK H PARENT
REMARK Flexibility Score: inf
ROOT
ATOM      1  C   UNL     1     -11.117  -4.203  -4.182  1.00  0.00     0.000 C 
ENDROOT
BRANCH   1   2
ATOM      2  C   UNL     1      -9.828  -3.363  -4.131  1.00  0.00     0.000 C 
BRANCH   2   3
ATOM      3  C   UNL     1      -8.820  -3.871  -3.087  1.00  0.00     0.000 C 
BRANCH   3   4
ATOM      4  C   UNL     1      -9.274  -3.602  -1.642  1.00  0.00     0.000 C 
BRANCH   4   5
ATOM      5  C   UNL     1      -8.614  -2.381  -0.970  1.00  0.00     0.000 C 
BRANCH   5   6
ATOM      6  C   UNL     1      -7.394  -1.803  -1.712  1.00  0.00     0.000 C 
BRANCH   6   7
ATOM      7  C   UNL     1      -7.176  -0.287  -1.529  1.00  0.00     0.000 C 
BRANCH   7   8
ATOM      8  C   UNL     1      -8.416   0.493  -1.056  1.00  0.00     0.000 C 
BRANCH   8   9
ATOM      9  C   UNL     1      -8.070   1.888  -0.506  1.00  0.00     0.000 C 
BRANCH   9  10
ATOM     10  C   UNL     1      -8.866   3.006  -1.212  1.00  0.00     0.000 C 
BRANCH  10  11
ATOM     11  C   UNL     1      -8.700   4.393  -0.565  1.00  0.00     0.000 C 
BRANCH  11  12
ATOM     12  C   UNL     1      -8.852   5.542  -1.573  1.00  0.00     0.000 C 
BRANCH  12  13
ATOM     13  C   UNL     1      -9.541   6.779  -0.967  1.00  0.00     0.006 C 
BRANCH  13  14
ATOM     14  C   UNL     1      -8.711   7.512   0.100  1.00  0.00     0.053 C 
BRANCH  14  15
ATOM     15  C   UNL     1      -9.141   8.938   0.271  1.00  0.00     0.041 C 
ATOM     16  O   UNL     1      -9.506   9.358   1.402  1.00  0.00    -0.550 OA
ATOM     17  O   UNL     1      -9.118   9.808  -0.811  1.00  0.00    -0.550 OA
ENDBRANCH  14  15
ENDBRANCH  13  14
ENDBRANCH  12  13
ENDBRANCH  11  12
ENDBRANCH  10  11
ENDBRANCH   9  10
ENDBRANCH   8   9
ENDBRANCH   7   8
ENDBRANCH   6   7
ENDBRANCH   5   6
ENDBRANCH   4   5
ENDBRANCH   3   4
ENDBRANCH   2   3
ENDBRANCH   1   2
BRANCH   1  18
ATOM     18  C   UNL     1     -10.998  -5.549  -4.926  1.00  0.00     0.000 C 
BRANCH  18  19
ATOM     19  C   UNL     1     -10.029  -5.554  -6.127  1.00  0.00     0.000 C 
BRANCH  19  20
ATOM     20  C   UNL     1     -10.078  -4.297  -7.016  1.00  0.00     0.000 C 
BRANCH  20  21
ATOM     21  C   UNL     1     -10.892  -4.506  -8.304  1.00  0.00     0.000 C 
BRANCH  21  22
ATOM     22  C   UNL     1     -10.317  -3.731  -9.503  1.00  0.00     0.000 C 
BRANCH  22  23
ATOM     23  C   UNL     1      -9.021  -4.318 -10.102  1.00  0.00     0.000 C 
BRANCH  23  24
ATOM     24  C   UNL     1      -7.713  -3.824  -9.447  1.00  0.00    -0.000 C 
BRANCH  24  25
ATOM     25  C   UNL     1      -6.668  -4.922  -9.180  1.00  0.00    -0.000 C 
BRANCH  25  26
ATOM     26  C   UNL     1      -7.285  -6.200  -8.591  1.00  0.00    -0.000 C 
BRANCH  26  27
ATOM     27  C   UNL     1      -6.300  -6.910  -7.651  1.00  0.00    -0.000 C 
BRANCH  27  28
ATOM     28  C   UNL     1      -6.351  -6.296  -6.243  1.00  0.00    -0.000 C 
BRANCH  28  29
ATOM     29  C   UNL     1      -5.007  -6.403  -5.502  1.00  0.00    -0.000 C 
BRANCH  29  30
ATOM     30  C   UNL     1      -3.965  -5.398  -6.023  1.00  0.00    -0.000 C 
BRANCH  30  31
ATOM     31  C   UNL     1      -4.448  -3.942  -5.923  1.00  0.00    -0.003 C 
ATOM     32  C   UNL     1      -3.295  -2.947  -5.802  1.00  0.00     0.004 C 
ENDBRANCH  30  31
ENDBRANCH  29  30
ENDBRANCH  28  29
ENDBRANCH  27  28
ENDBRANCH  26  27
ENDBRANCH  25  26
ENDBRANCH  24  25
ENDBRANCH  23  24
ENDBRANCH  22  23
ENDBRANCH  21  22
ENDBRANCH  20  21
ENDBRANCH  19  20
ENDBRANCH  18  19
ENDBRANCH   1  18
TORSDOF 28
ENDMDL
MODEL 9
REMARK VINA RESULT:    -0.472      2.663      8.154
REMARK INTER + INTRA:          -4.206
REMARK INTER:                  -2.495
REMARK INTRA:                  -1.710
REMARK UNBOUND:                -2.962
REMARK SMILES CCCCCCCCCCCCCCCCCCCCCCCCCCCCCC(=O)[O-]
REMARK SMILES IDX 16 1 17 2 18 3 19 4 20 5 21 6 22 7 23 8 24 9 25 10 26 11
REMARK SMILES IDX 27 12 28 13 29 14 30 15 31 16 32 17 15 18 14 19 13 20 12 21
REMARK SMILES IDX 11 22 10 23 9 24 8 25 7 26 6 27 5 28 4 29 3 30 2 31 1 32
REMARK H PARENT
REMARK Flexibility Score: inf
ROOT
ATOM      1  C   UNL     1     -11.119  -6.410  -7.597  1.00  0.00     0.000 C 
ENDROOT
BRANCH   1   2
ATOM      2  C   UNL     1     -10.711  -5.902  -6.203  1.00  0.00     0.000 C 
BRANCH   2   3
ATOM      3  C   UNL     1      -9.609  -4.829  -6.252  1.00  0.00     0.000 C 
BRANCH   3   4
ATOM      4  C   UNL     1      -9.645  -3.887  -5.036  1.00  0.00     0.000 C 
BRANCH   4   5
ATOM      5  C   UNL     1      -9.940  -4.573  -3.688  1.00  0.00     0.000 C 
BRANCH   5   6
ATOM      6  C   UNL     1     -10.850  -3.777  -2.732  1.00  0.00     0.000 C 
BRANCH   6   7
ATOM      7  C   UNL     1     -10.420  -3.798  -1.251  1.00  0.00     0.000 C 
BRANCH   7   8
ATOM      8  C   UNL     1      -9.683  -2.535  -0.773  1.00  0.00     0.000 C 
BRANCH   8   9
ATOM      9  C   UNL     1      -8.715  -1.972  -1.829  1.00  0.00     0.000 C 
BRANCH   9  10
ATOM     10  C   UNL     1      -7.389  -1.488  -1.205  1.00  0.00     0.000 C 
BRANCH  10  11
ATOM     11  C   UNL     1      -7.079  -0.004  -1.472  1.00  0.00     0.000 C 
BRANCH  11  12
ATOM     12  C   UNL     1      -8.335   0.879  -1.462  1.00  0.00     0.000 C 
BRANCH  12  13
ATOM     13  C   UNL     1      -8.100   2.242  -0.786  1.00  0.00     0.006 C 
BRANCH  13  14
ATOM     14  C   UNL     1      -9.261   3.239  -0.940  1.00  0.00     0.053 C 
BRANCH  14  15
ATOM     15  C   UNL     1      -8.797   4.578  -1.430  1.00  0.00     0.041 C 
ATOM     16  O   UNL     1      -9.287   5.633  -0.947  1.00  0.00    -0.550 OA
ATOM     17  O   UNL     1      -7.808   4.660  -2.403  1.00  0.00    -0.550 OA
ENDBRANCH  14  15
ENDBRANCH  13  14
ENDBRANCH  12  13
ENDBRANCH  11  12
ENDBRANCH  10  11
ENDBRANCH   9  10
ENDBRANCH   8   9
ENDBRANCH   7   8
ENDBRANCH   6   7
ENDBRANCH   5   6
ENDBRANCH   4   5
ENDBRANCH   3   4
ENDBRANCH   2   3
ENDBRANCH   1   2
BRANCH   1  18
ATOM     18  C   UNL     1     -10.202  -5.966  -8.755  1.00  0.00     0.000 C 
BRANCH  18  19
ATOM     19  C   UNL     1     -10.421  -4.522  -9.252  1.00  0.00     0.000 C 
BRANCH  19  20
ATOM     20  C   UNL     1      -9.140  -3.683  -9.419  1.00  0.00     0.000 C 
BRANCH  20  21
ATOM     21  C   UNL     1      -7.872  -4.430  -8.972  1.00  0.00     0.000 C 
BRANCH  21  22
ATOM     22  C   UNL     1      -7.194  -5.192 -10.125  1.00  0.00     0.000 C 
BRANCH  22  23
ATOM     23  C   UNL     1      -6.726  -6.621  -9.780  1.00  0.00     0.000 C 
BRANCH  23  24
ATOM     24  C   UNL     1      -5.924  -6.751  -8.468  1.00  0.00    -0.000 C 
BRANCH  24  25
ATOM     25  C   UNL     1      -6.778  -6.961  -7.204  1.00  0.00    -0.000 C 
BRANCH  25  26
ATOM     26  C   UNL     1      -6.073  -6.487  -5.924  1.00  0.00    -0.000 C 
BRANCH  26  27
ATOM     27  C   UNL     1      -4.673  -7.104  -5.802  1.00  0.00    -0.000 C 
BRANCH  27  28
ATOM     28  C   UNL     1      -3.594  -6.009  -5.778  1.00  0.00    -0.000 C 
BRANCH  28  29
ATOM     29  C   UNL     1      -4.184  -4.598  -5.616  1.00  0.00    -0.000 C 
BRANCH  29  30
ATOM     30  C   UNL     1      -3.099  -3.508  -5.567  1.00  0.00    -0.000 C 
BRANCH  30  31
ATOM     31  C   UNL     1      -3.611  -2.145  -6.059  1.00  0.00    -0.003 C 
ATOM     32  C   UNL     1      -2.590  -1.027  -5.858  1.00  0.00     0.004 C 
ENDBRANCH  30  31
ENDBRANCH  29  30
ENDBRANCH  28  29
ENDBRANCH  27  28
ENDBRANCH  26  27
ENDBRANCH  25  26
ENDBRANCH  24  25
ENDBRANCH  23  24
ENDBRANCH  22  23
ENDBRANCH  21  22
ENDBRANCH  20  21
ENDBRANCH  19  20
ENDBRANCH  18  19
ENDBRANCH   1  18
TORSDOF 28
ENDMDL
