MODEL 1
REMARK VINA RESULT:    -4.684      0.000      0.000
REMARK INTER + INTRA:          -7.566
REMARK INTER:                  -6.874
REMARK INTRA:                  -0.692
REMARK UNBOUND:                -0.692
REMARK SMILES CCCOC(=O)c1ccccc1C(=O)OCCC
REMARK SMILES IDX 7 1 8 2 9 3 10 4 11 5 12 6 5 7 6 8 4 9 3 10 2 11 1 12 13 13
REMARK SMILES IDX 14 14 15 15 16 16 17 17 18 18
REMARK H PARENT
REMARK Flexibility Score: inf
ROOT
ATOM      1  C   UNL     1     120.203 120.183 129.597  1.00  0.00     0.074 A 
ATOM      2  C   UNL     1     121.074 119.378 128.840  1.00  0.00     0.016 A 
ATOM      3  C   UNL     1     122.424 119.278 129.174  1.00  0.00     0.001 A 
ATOM      4  C   UNL     1     122.927 119.977 130.270  1.00  0.00     0.001 A 
ATOM      5  C   UNL     1     122.086 120.798 131.020  1.00  0.00     0.016 A 
ATOM      6  C   UNL     1     120.725 120.932 130.688  1.00  0.00     0.074 A 
ENDROOT
BRANCH   1   7
ATOM      7  C   UNL     1     118.759 120.156 129.268  1.00  0.00     0.339 C 
ATOM      8  O   UNL     1     117.998 119.343 129.862  1.00  0.00    -0.246 OA
BRANCH   7   9
ATOM      9  O   UNL     1     118.236 121.063 128.339  1.00  0.00    -0.462 OA
BRANCH   9  10
ATOM     10  C   UNL     1     118.038 122.448 128.614  1.00  0.00     0.233 C 
BRANCH  10  11
ATOM     11  C   UNL     1     116.563 122.822 128.448  1.00  0.00     0.038 C 
ATOM     12  C   UNL     1     116.196 122.979 126.975  1.00  0.00     0.007 C 
ENDBRANCH  10  11
ENDBRANCH   9  10
ENDBRANCH   7   9
ENDBRANCH   1   7
BRANCH   6  13
ATOM     13  C   UNL     1     119.917 121.905 131.456  1.00  0.00     0.339 C 
ATOM     14  O   UNL     1     120.242 123.124 131.481  1.00  0.00    -0.246 OA
BRANCH  13  15
ATOM     15  O   UNL     1     118.821 121.455 132.199  1.00  0.00    -0.462 OA
BRANCH  15  16
ATOM     16  C   UNL     1     117.581 122.153 132.240  1.00  0.00     0.233 C 
BRANCH  16  17
ATOM     17  C   UNL     1     116.436 121.147 132.326  1.00  0.00     0.038 C 
ATOM     18  C   UNL     1     115.093 121.808 132.025  1.00  0.00     0.007 C 
ENDBRANCH  16  17
ENDBRANCH  15  16
ENDBRANCH  13  15
ENDBRANCH   6  13
TORSDOF 8
ENDMDL
MODEL 2
REMARK VINA RESULT:    -4.652      1.584      4.653
REMARK INTER + INTRA:          -7.519
REMARK INTER:                  -6.555
REMARK INTRA:                  -0.965
REMARK UNBOUND:                -0.692
REMARK SMILES CCCOC(=O)c1ccccc1C(=O)OCCC
REMARK SMILES IDX 7 1 8 2 9 3 10 4 11 5 12 6 5 7 6 8 4 9 3 10 2 11 1 12 13 13
REMARK SMILES IDX 14 14 15 15 16 16 17 17 18 18
REMARK H PARENT
REMARK Flexibility Score: inf
ROOT
ATOM      1  C   UNL     1     118.123 119.783 130.677  1.00  0.00     0.074 A 
ATOM      2  C   UNL     1     117.529 118.576 131.089  1.00  0.00     0.016 A 
ATOM      3  C   UNL     1     116.463 118.575 131.987  1.00  0.00     0.001 A 
ATOM      4  C   UNL     1     115.969 119.779 132.487  1.00  0.00     0.001 A 
ATOM      5  C   UNL     1     116.558 120.986 132.109  1.00  0.00     0.016 A 
ATOM      6  C   UNL     1     117.650 121.009 131.222  1.00  0.00     0.074 A 
ENDROOT
BRANCH   1   7
ATOM      7  C   UNL     1     119.171 119.729 129.632  1.00  0.00     0.339 C 
ATOM      8  O   UNL     1     118.838 119.668 128.415  1.00  0.00    -0.246 OA
BRANCH   7   9
ATOM      9  O   UNL     1     120.522 119.793 129.991  1.00  0.00    -0.462 OA
BRANCH   9  10
ATOM     10  C   UNL     1     121.593 119.592 129.071  1.00  0.00     0.233 C 
BRANCH  10  11
ATOM     11  C   UNL     1     122.931 119.531 129.811  1.00  0.00     0.038 C 
ATOM     12  C   UNL     1     122.952 120.495 130.994  1.00  0.00     0.007 C 
ENDBRANCH  10  11
ENDBRANCH   9  10
ENDBRANCH   7   9
ENDBRANCH   1   7
BRANCH   6  13
ATOM     13  C   UNL     1     118.296 122.312 130.953  1.00  0.00     0.339 C 
ATOM     14  O   UNL     1     119.251 122.711 131.674  1.00  0.00    -0.246 OA
BRANCH  13  15
ATOM     15  O   UNL     1     117.805 123.125 129.926  1.00  0.00    -0.462 OA
BRANCH  15  16
ATOM     16  C   UNL     1     118.358 123.125 128.614  1.00  0.00     0.233 C 
BRANCH  16  17
ATOM     17  C   UNL     1     117.230 123.045 127.589  1.00  0.00     0.038 C 
ATOM     18  C   UNL     1     116.163 122.039 128.015  1.00  0.00     0.007 C 
ENDBRANCH  16  17
ENDBRANCH  15  16
ENDBRANCH  13  15
ENDBRANCH   6  13
TORSDOF 8
ENDMDL
MODEL 3
REMARK VINA RESULT:    -4.589      1.122      2.799
REMARK INTER + INTRA:          -7.426
REMARK INTER:                  -6.902
REMARK INTRA:                  -0.524
REMARK UNBOUND:                -0.692
REMARK SMILES CCCOC(=O)c1ccccc1C(=O)OCCC
REMARK SMILES IDX 7 1 8 2 9 3 10 4 11 5 12 6 5 7 6 8 4 9 3 10 2 11 1 12 13 13
REMARK SMILES IDX 14 14 15 15 16 16 17 17 18 18
REMARK H PARENT
REMARK Flexibility Score: inf
ROOT
ATOM      1  C   UNL     1     120.477 120.062 129.742  1.00  0.00     0.074 A 
ATOM      2  C   UNL     1     121.578 119.278 129.346  1.00  0.00     0.016 A 
ATOM      3  C   UNL     1     122.837 119.480 129.910  1.00  0.00     0.001 A 
ATOM      4  C   UNL     1     123.019 120.465 130.879  1.00  0.00     0.001 A 
ATOM      5  C   UNL     1     121.947 121.268 131.269  1.00  0.00     0.016 A 
ATOM      6  C   UNL     1     120.673 121.097 130.697  1.00  0.00     0.074 A 
ENDROOT
BRANCH   1   7
ATOM      7  C   UNL     1     119.143 119.723 129.197  1.00  0.00     0.339 C 
ATOM      8  O   UNL     1     119.030 119.375 127.989  1.00  0.00    -0.246 OA
BRANCH   7   9
ATOM      9  O   UNL     1     118.020 119.743 130.033  1.00  0.00    -0.462 OA
BRANCH   9  10
ATOM     10  C   UNL     1     117.678 118.680 130.919  1.00  0.00     0.233 C 
BRANCH  10  11
ATOM     11  C   UNL     1     116.874 119.211 132.108  1.00  0.00     0.038 C 
ATOM     12  C   UNL     1     115.916 120.317 131.676  1.00  0.00     0.007 C 
ENDBRANCH  10  11
ENDBRANCH   9  10
ENDBRANCH   7   9
ENDBRANCH   1   7
BRANCH   6  13
ATOM     13  C   UNL     1     119.611 122.056 131.074  1.00  0.00     0.339 C 
ATOM     14  O   UNL     1     118.941 121.883 132.129  1.00  0.00    -0.246 OA
BRANCH  13  15
ATOM     15  O   UNL     1     119.315 123.125 130.222  1.00  0.00    -0.462 OA
BRANCH  15  16
ATOM     16  C   UNL     1     118.635 122.956 128.983  1.00  0.00     0.233 C 
BRANCH  16  17
ATOM     17  C   UNL     1     117.128 122.956 129.226  1.00  0.00     0.038 C 
ATOM     18  C   UNL     1     116.388 122.203 128.124  1.00  0.00     0.007 C 
ENDBRANCH  16  17
ENDBRANCH  15  16
ENDBRANCH  13  15
ENDBRANCH   6  13
TORSDOF 8
ENDMDL
MODEL 4
REMARK VINA RESULT:    -4.578      1.397      4.948
REMARK INTER + INTRA:          -7.410
REMARK INTER:                  -6.460
REMARK INTRA:                  -0.951
REMARK UNBOUND:                -0.692
REMARK SMILES CCCOC(=O)c1ccccc1C(=O)OCCC
REMARK SMILES IDX 7 1 8 2 9 3 10 4 11 5 12 6 5 7 6 8 4 9 3 10 2 11 1 12 13 13
REMARK SMILES IDX 14 14 15 15 16 16 17 17 18 18
REMARK H PARENT
REMARK Flexibility Score: inf
ROOT
ATOM      1  C   UNL     1     117.396 121.414 129.967  1.00  0.00     0.074 A 
ATOM      2  C   UNL     1     116.196 121.490 129.236  1.00  0.00     0.016 A 
ATOM      3  C   UNL     1     116.085 122.337 128.134  1.00  0.00     0.001 A 
ATOM      4  C   UNL     1     117.168 123.121 127.743  1.00  0.00     0.001 A 
ATOM      5  C   UNL     1     118.359 123.078 128.467  1.00  0.00     0.016 A 
ATOM      6  C   UNL     1     118.487 122.248 129.596  1.00  0.00     0.074 A 
ENDROOT
BRANCH   1   7
ATOM      7  C   UNL     1     117.494 120.410 131.052  1.00  0.00     0.339 C 
ATOM      8  O   UNL     1     117.703 119.199 130.765  1.00  0.00    -0.246 OA
BRANCH   7   9
ATOM      9  O   UNL     1     117.404 120.813 132.389  1.00  0.00    -0.462 OA
BRANCH   9  10
ATOM     10  C   UNL     1     116.247 120.609 133.197  1.00  0.00     0.233 C 
BRANCH  10  11
ATOM     11  C   UNL     1     115.505 121.931 133.415  1.00  0.00     0.038 C 
ATOM     12  C   UNL     1     116.431 123.124 133.201  1.00  0.00     0.007 C 
ENDBRANCH  10  11
ENDBRANCH   9  10
ENDBRANCH   7   9
ENDBRANCH   1   7
BRANCH   6  13
ATOM     13  C   UNL     1     119.737 122.335 130.383  1.00  0.00     0.339 C 
ATOM     14  O   UNL     1     119.788 123.052 131.420  1.00  0.00    -0.246 OA
BRANCH  13  15
ATOM     15  O   UNL     1     120.879 121.661 129.939  1.00  0.00    -0.462 OA
BRANCH  15  16
ATOM     16  C   UNL     1     121.044 120.254 130.078  1.00  0.00     0.233 C 
BRANCH  16  17
ATOM     17  C   UNL     1     121.963 119.739 128.973  1.00  0.00     0.038 C 
ATOM     18  C   UNL     1     123.012 118.779 129.527  1.00  0.00     0.007 C 
ENDBRANCH  16  17
ENDBRANCH  15  16
ENDBRANCH  13  15
ENDBRANCH   6  13
TORSDOF 8
ENDMDL
MODEL 5
REMARK VINA RESULT:    -4.560      0.945      3.751
REMARK INTER + INTRA:          -7.384
REMARK INTER:                  -6.535
REMARK INTRA:                  -0.850
REMARK UNBOUND:                -0.692
REMARK SMILES CCCOC(=O)c1ccccc1C(=O)OCCC
REMARK SMILES IDX 7 1 8 2 9 3 10 4 11 5 12 6 5 7 6 8 4 9 3 10 2 11 1 12 13 13
REMARK SMILES IDX 14 14 15 15 16 16 17 17 18 18
REMARK H PARENT
REMARK Flexibility Score: inf
ROOT
ATOM      1  C   UNL     1     120.335 121.112 130.911  1.00  0.00     0.074 A 
ATOM      2  C   UNL     1     121.676 121.249 131.317  1.00  0.00     0.016 A 
ATOM      3  C   UNL     1     122.695 120.571 130.650  1.00  0.00     0.001 A 
ATOM      4  C   UNL     1     122.395 119.746 129.567  1.00  0.00     0.001 A 
ATOM      5  C   UNL     1     121.071 119.578 129.163  1.00  0.00     0.016 A 
ATOM      6  C   UNL     1     120.024 120.235 129.835  1.00  0.00     0.074 A 
ENDROOT
BRANCH   1   7
ATOM      7  C   UNL     1     119.311 121.948 131.579  1.00  0.00     0.339 C 
ATOM      8  O   UNL     1     119.103 123.125 131.172  1.00  0.00    -0.246 OA
BRANCH   7   9
ATOM      9  O   UNL     1     118.545 121.417 132.624  1.00  0.00    -0.462 OA
BRANCH   9  10
ATOM     10  C   UNL     1     117.463 122.111 133.239  1.00  0.00     0.233 C 
BRANCH  10  11
ATOM     11  C   UNL     1     116.299 121.155 133.512  1.00  0.00     0.038 C 
ATOM     12  C   UNL     1     114.990 121.917 133.696  1.00  0.00     0.007 C 
ENDBRANCH  10  11
ENDBRANCH   9  10
ENDBRANCH   7   9
ENDBRANCH   1   7
BRANCH   6  13
ATOM     13  C   UNL     1     118.636 119.925 129.426  1.00  0.00     0.339 C 
ATOM     14  O   UNL     1     117.968 119.054 130.049  1.00  0.00    -0.246 OA
BRANCH  13  15
ATOM     15  O   UNL     1     118.088 120.563 128.310  1.00  0.00    -0.462 OA
BRANCH  15  16
ATOM     16  C   UNL     1     117.563 121.886 128.361  1.00  0.00     0.233 C 
BRANCH  16  17
ATOM     17  C   UNL     1     116.041 121.824 128.458  1.00  0.00     0.038 C 
ATOM     18  C   UNL     1     115.587 121.588 129.896  1.00  0.00     0.007 C 
ENDBRANCH  16  17
ENDBRANCH  15  16
ENDBRANCH  13  15
ENDBRANCH   6  13
TORSDOF 8
ENDMDL
MODEL 6
REMARK VINA RESULT:    -4.545      1.609      4.747
REMARK INTER + INTRA:          -7.363
REMARK INTER:                  -6.339
REMARK INTRA:                  -1.024
REMARK UNBOUND:                -0.692
REMARK SMILES CCCOC(=O)c1ccccc1C(=O)OCCC
REMARK SMILES IDX 7 1 8 2 9 3 10 4 11 5 12 6 5 7 6 8 4 9 3 10 2 11 1 12 13 13
REMARK SMILES IDX 14 14 15 15 16 16 17 17 18 18
REMARK H PARENT
REMARK Flexibility Score: inf
ROOT
ATOM      1  C   UNL     1     117.561 121.044 131.189  1.00  0.00     0.074 A 
ATOM      2  C   UNL     1     116.462 120.988 132.067  1.00  0.00     0.016 A 
ATOM      3  C   UNL     1     115.940 119.762 132.479  1.00  0.00     0.001 A 
ATOM      4  C   UNL     1     116.506 118.573 132.025  1.00  0.00     0.001 A 
ATOM      5  C   UNL     1     117.581 118.606 131.136  1.00  0.00     0.016 A 
ATOM      6  C   UNL     1     118.110 119.830 130.690  1.00  0.00     0.074 A 
ENDROOT
BRANCH   1   7
ATOM      7  C   UNL     1     118.147 122.369 130.882  1.00  0.00     0.339 C 
ATOM      8  O   UNL     1     119.121 122.795 131.563  1.00  0.00    -0.246 OA
BRANCH   7   9
ATOM      9  O   UNL     1     117.653 123.122 129.810  1.00  0.00    -0.462 OA
BRANCH   9  10
ATOM     10  C   UNL     1     118.146 123.013 128.477  1.00  0.00     0.233 C 
BRANCH  10  11
ATOM     11  C   UNL     1     116.993 122.782 127.497  1.00  0.00     0.038 C 
ATOM     12  C   UNL     1     115.891 121.936 128.129  1.00  0.00     0.007 C 
ENDBRANCH  10  11
ENDBRANCH   9  10
ENDBRANCH   7   9
ENDBRANCH   1   7
BRANCH   6  13
ATOM     13  C   UNL     1     119.175 119.792 129.663  1.00  0.00     0.339 C 
ATOM     14  O   UNL     1     118.877 119.716 128.439  1.00  0.00    -0.246 OA
BRANCH  13  15
ATOM     15  O   UNL     1     120.515 119.785 130.061  1.00  0.00    -0.462 OA
BRANCH  15  16
ATOM     16  C   UNL     1     121.457 120.753 129.610  1.00  0.00     0.233 C 
BRANCH  16  17
ATOM     17  C   UNL     1     122.605 120.048 128.893  1.00  0.00     0.038 C 
ATOM     18  C   UNL     1     122.995 118.756 129.606  1.00  0.00     0.007 C 
ENDBRANCH  16  17
ENDBRANCH  15  16
ENDBRANCH  13  15
ENDBRANCH   6  13
TORSDOF 8
ENDMDL
MODEL 7
REMARK VINA RESULT:    -4.520      1.551      4.616
REMARK INTER + INTRA:          -7.326
REMARK INTER:                  -6.329
REMARK INTRA:                  -0.997
REMARK UNBOUND:                -0.692
REMARK SMILES CCCOC(=O)c1ccccc1C(=O)OCCC
REMARK SMILES IDX 7 1 8 2 9 3 10 4 11 5 12 6 5 7 6 8 4 9 3 10 2 11 1 12 13 13
REMARK SMILES IDX 14 14 15 15 16 16 17 17 18 18
REMARK H PARENT
REMARK Flexibility Score: inf
ROOT
ATOM      1  C   UNL     1     118.591 121.779 129.978  1.00  0.00     0.074 A 
ATOM      2  C   UNL     1     118.718 122.764 128.980  1.00  0.00     0.016 A 
ATOM      3  C   UNL     1     117.627 123.125 128.191  1.00  0.00     0.001 A 
ATOM      4  C   UNL     1     116.391 122.511 128.383  1.00  0.00     0.001 A 
ATOM      5  C   UNL     1     116.249 121.516 129.351  1.00  0.00     0.016 A 
ATOM      6  C   UNL     1     117.341 121.120 130.144  1.00  0.00     0.074 A 
ENDROOT
BRANCH   1   7
ATOM      7  C   UNL     1     119.750 121.524 130.863  1.00  0.00     0.339 C 
ATOM      8  O   UNL     1     119.820 122.102 131.984  1.00  0.00    -0.246 OA
BRANCH   7   9
ATOM      9  O   UNL     1     120.737 120.609 130.479  1.00  0.00    -0.462 OA
BRANCH   9  10
ATOM     10  C   UNL     1     121.866 120.956 129.680  1.00  0.00     0.233 C 
BRANCH  10  11
ATOM     11  C   UNL     1     122.258 119.789 128.770  1.00  0.00     0.038 C 
ATOM     12  C   UNL     1     123.082 118.753 129.527  1.00  0.00     0.007 C 
ENDBRANCH  10  11
ENDBRANCH   9  10
ENDBRANCH   7   9
ENDBRANCH   1   7
BRANCH   6  13
ATOM     13  C   UNL     1     117.148 119.984 131.071  1.00  0.00     0.339 C 
ATOM     14  O   UNL     1     117.560 118.832 130.762  1.00  0.00    -0.246 OA
BRANCH  13  15
ATOM     15  O   UNL     1     116.456 120.183 132.270  1.00  0.00    -0.462 OA
BRANCH  15  16
ATOM     16  C   UNL     1     117.109 120.535 133.485  1.00  0.00     0.233 C 
BRANCH  16  17
ATOM     17  C   UNL     1     116.427 121.759 134.090  1.00  0.00     0.038 C 
ATOM     18  C   UNL     1     116.465 122.946 133.131  1.00  0.00     0.007 C 
ENDBRANCH  16  17
ENDBRANCH  15  16
ENDBRANCH  13  15
ENDBRANCH   6  13
TORSDOF 8
ENDMDL
MODEL 8
REMARK VINA RESULT:    -4.201      1.784      4.849
REMARK INTER + INTRA:          -6.858
REMARK INTER:                  -6.012
REMARK INTRA:                  -0.846
REMARK UNBOUND:                -0.692
REMARK SMILES CCCOC(=O)c1ccccc1C(=O)OCCC
REMARK SMILES IDX 7 1 8 2 9 3 10 4 11 5 12 6 5 7 6 8 4 9 3 10 2 11 1 12 13 13
REMARK SMILES IDX 14 14 15 15 16 16 17 17 18 18
REMARK H PARENT
REMARK Flexibility Score: inf
ROOT
ATOM      1  C   UNL     1     117.770 122.377 130.114  1.00  0.00     0.074 A 
ATOM      2  C   UNL     1     118.412 122.803 128.936  1.00  0.00     0.016 A 
ATOM      3  C   UNL     1     117.709 122.906 127.737  1.00  0.00     0.001 A 
ATOM      4  C   UNL     1     116.353 122.589 127.692  1.00  0.00     0.001 A 
ATOM      5  C   UNL     1     115.702 122.143 128.843  1.00  0.00     0.016 A 
ATOM      6  C   UNL     1     116.397 122.009 130.058  1.00  0.00     0.074 A 
ENDROOT
BRANCH   1   7
ATOM      7  C   UNL     1     118.537 122.402 131.380  1.00  0.00     0.339 C 
ATOM      8  O   UNL     1     118.142 123.124 132.337  1.00  0.00    -0.246 OA
BRANCH   7   9
ATOM      9  O   UNL     1     119.668 121.590 131.530  1.00  0.00    -0.462 OA
BRANCH   9  10
ATOM     10  C   UNL     1     120.946 121.910 130.983  1.00  0.00     0.233 C 
BRANCH  10  11
ATOM     11  C   UNL     1     121.755 120.635 130.732  1.00  0.00     0.038 C 
ATOM     12  C   UNL     1     121.342 119.968 129.423  1.00  0.00     0.007 C 
ENDBRANCH  10  11
ENDBRANCH   9  10
ENDBRANCH   7   9
ENDBRANCH   1   7
BRANCH   6  13
ATOM     13  C   UNL     1     115.674 121.425 131.209  1.00  0.00     0.339 C 
ATOM     14  O   UNL     1     115.109 122.173 132.054  1.00  0.00    -0.246 OA
BRANCH  13  15
ATOM     15  O   UNL     1     115.668 120.038 131.386  1.00  0.00    -0.462 OA
BRANCH  15  16
ATOM     16  C   UNL     1     116.436 119.386 132.392  1.00  0.00     0.233 C 
BRANCH  16  17
ATOM     17  C   UNL     1     117.288 118.294 131.752  1.00  0.00     0.038 C 
ATOM     18  C   UNL     1     117.950 118.787 130.468  1.00  0.00     0.007 C 
ENDBRANCH  16  17
ENDBRANCH  15  16
ENDBRANCH  13  15
ENDBRANCH   6  13
TORSDOF 8
ENDMDL
