MODEL 1
REMARK VINA RESULT:    -3.357      0.000      0.000
REMARK INTER + INTRA:          -5.031
REMARK INTER:                  -4.730
REMARK INTRA:                  -0.301
REMARK UNBOUND:                -0.301
REMARK SMILES CCCCCCCCC(=O)[O-]
REMARK SMILES IDX 6 1 7 2 8 3 9 4 10 5 11 6 5 7 4 8 3 9 2 10 1 11
REMARK H PARENT
REMARK Flexibility Score: inf
ROOT
ATOM      1  C   UNL     1     -95.075 148.314 242.366  1.00  0.00     0.000 C 
ENDROOT
BRANCH   1   2
ATOM      2  C   UNL     1     -96.385 148.613 243.112  1.00  0.00     0.006 C 
BRANCH   2   3
ATOM      3  C   UNL     1     -96.943 147.347 243.767  1.00  0.00     0.053 C 
BRANCH   3   4
ATOM      4  C   UNL     1     -97.502 147.660 245.119  1.00  0.00     0.041 C 
ATOM      5  O   UNL     1     -97.979 146.740 245.835  1.00  0.00    -0.550 OA
ATOM      6  O   UNL     1     -97.453 148.958 245.609  1.00  0.00    -0.550 OA
ENDBRANCH   3   4
ENDBRANCH   2   3
ENDBRANCH   1   2
BRANCH   1   7
ATOM      7  C   UNL     1     -95.301 147.946 240.891  1.00  0.00     0.000 C 
BRANCH   7   8
ATOM      8  C   UNL     1     -94.000 147.563 240.171  1.00  0.00    -0.000 C 
BRANCH   8   9
ATOM      9  C   UNL     1     -92.933 147.105 241.173  1.00  0.00    -0.000 C 
BRANCH   9  10
ATOM     10  C   UNL     1     -92.793 145.579 241.169  1.00  0.00    -0.003 C 
ATOM     11  C   UNL     1     -91.450 145.148 240.588  1.00  0.00     0.004 C 
ENDBRANCH   9  10
ENDBRANCH   8   9
ENDBRANCH   7   8
ENDBRANCH   1   7
TORSDOF 7
ENDMDL
MODEL 2
REMARK VINA RESULT:    -3.354      1.552      2.852
REMARK INTER + INTRA:          -5.027
REMARK INTER:                  -4.279
REMARK INTRA:                  -0.748
REMARK UNBOUND:                -0.301
REMARK SMILES CCCCCCCCC(=O)[O-]
REMARK SMILES IDX 6 1 7 2 8 3 9 4 10 5 11 6 5 7 4 8 3 9 2 10 1 11
REMARK H PARENT
REMARK Flexibility Score: inf
ROOT
ATOM      1  C   UNL     1     -94.783 146.406 242.557  1.00  0.00     0.000 C 
ENDROOT
BRANCH   1   2
ATOM      2  C   UNL     1     -96.144 147.096 242.739  1.00  0.00     0.006 C 
BRANCH   2   3
ATOM      3  C   UNL     1     -95.975 148.612 242.875  1.00  0.00     0.053 C 
BRANCH   3   4
ATOM      4  C   UNL     1     -97.189 149.220 243.506  1.00  0.00     0.041 C 
ATOM      5  O   UNL     1     -97.994 149.892 242.810  1.00  0.00    -0.550 OA
ATOM      6  O   UNL     1     -97.456 149.003 244.851  1.00  0.00    -0.550 OA
ENDBRANCH   3   4
ENDBRANCH   2   3
ENDBRANCH   1   2
BRANCH   1   7
ATOM      7  C   UNL     1     -93.684 147.375 242.093  1.00  0.00     0.000 C 
BRANCH   7   8
ATOM      8  C   UNL     1     -92.953 146.882 240.836  1.00  0.00    -0.000 C 
BRANCH   8   9
ATOM      9  C   UNL     1     -93.891 146.873 239.623  1.00  0.00    -0.000 C 
BRANCH   9  10
ATOM     10  C   UNL     1     -94.462 148.271 239.358  1.00  0.00    -0.003 C 
ATOM     11  C   UNL     1     -95.968 148.217 239.124  1.00  0.00     0.004 C 
ENDBRANCH   9  10
ENDBRANCH   8   9
ENDBRANCH   7   8
ENDBRANCH   1   7
TORSDOF 7
ENDMDL
MODEL 3
REMARK VINA RESULT:    -3.302      4.624      5.585
REMARK INTER + INTRA:          -4.955
REMARK INTER:                  -4.251
REMARK INTRA:                  -0.703
REMARK UNBOUND:                -0.301
REMARK SMILES CCCCCCCCC(=O)[O-]
REMARK SMILES IDX 6 1 7 2 8 3 9 4 10 5 11 6 5 7 4 8 3 9 2 10 1 11
REMARK H PARENT
REMARK Flexibility Score: inf
ROOT
ATOM      1  C   UNL     1     -95.495 147.951 240.537  1.00  0.00     0.000 C 
ENDROOT
BRANCH   1   2
ATOM      2  C   UNL     1     -94.501 147.931 239.365  1.00  0.00     0.006 C 
BRANCH   2   3
ATOM      3  C   UNL     1     -94.702 146.685 238.498  1.00  0.00     0.053 C 
BRANCH   3   4
ATOM      4  C   UNL     1     -93.771 146.705 237.327  1.00  0.00     0.041 C 
ATOM      5  O   UNL     1     -92.766 145.947 237.305  1.00  0.00    -0.550 OA
ATOM      6  O   UNL     1     -94.039 147.525 236.239  1.00  0.00    -0.550 OA
ENDBRANCH   3   4
ENDBRANCH   2   3
ENDBRANCH   1   2
BRANCH   1   7
ATOM      7  C   UNL     1     -94.804 148.132 241.897  1.00  0.00     0.000 C 
BRANCH   7   8
ATOM      8  C   UNL     1     -93.506 147.319 242.014  1.00  0.00    -0.000 C 
BRANCH   8   9
ATOM      9  C   UNL     1     -93.786 145.913 242.559  1.00  0.00    -0.000 C 
BRANCH   9  10
ATOM     10  C   UNL     1     -92.866 144.876 241.908  1.00  0.00    -0.003 C 
ATOM     11  C   UNL     1     -92.056 145.493 240.771  1.00  0.00     0.004 C 
ENDBRANCH   9  10
ENDBRANCH   8   9
ENDBRANCH   7   8
ENDBRANCH   1   7
TORSDOF 7
ENDMDL
MODEL 4
REMARK VINA RESULT:    -3.273      3.736      5.983
REMARK INTER + INTRA:          -4.914
REMARK INTER:                  -4.507
REMARK INTRA:                  -0.407
REMARK UNBOUND:                -0.301
REMARK SMILES CCCCCCCCC(=O)[O-]
REMARK SMILES IDX 6 1 7 2 8 3 9 4 10 5 11 6 5 7 4 8 3 9 2 10 1 11
REMARK H PARENT
REMARK Flexibility Score: inf
ROOT
ATOM      1  C   UNL     1     -95.313 146.728 242.573  1.00  0.00     0.000 C 
ENDROOT
BRANCH   1   2
ATOM      2  C   UNL     1     -93.897 146.137 242.495  1.00  0.00     0.006 C 
BRANCH   2   3
ATOM      3  C   UNL     1     -93.073 146.833 241.408  1.00  0.00     0.053 C 
BRANCH   3   4
ATOM      4  C   UNL     1     -92.493 145.826 240.465  1.00  0.00     0.041 C 
ATOM      5  O   UNL     1     -93.032 145.622 239.346  1.00  0.00    -0.550 OA
ATOM      6  O   UNL     1     -91.329 145.148 240.802  1.00  0.00    -0.550 OA
ENDBRANCH   3   4
ENDBRANCH   2   3
ENDBRANCH   1   2
BRANCH   1   7
ATOM      7  C   UNL     1     -95.391 148.159 242.018  1.00  0.00     0.000 C 
BRANCH   7   8
ATOM      8  C   UNL     1     -95.985 149.153 243.028  1.00  0.00    -0.000 C 
BRANCH   8   9
ATOM      9  C   UNL     1     -97.502 149.282 242.843  1.00  0.00    -0.000 C 
BRANCH   9  10
ATOM     10  C   UNL     1     -98.227 149.249 244.193  1.00  0.00    -0.003 C 
ATOM     11  C   UNL     1     -97.486 148.369 245.196  1.00  0.00     0.004 C 
ENDBRANCH   9  10
ENDBRANCH   8   9
ENDBRANCH   7   8
ENDBRANCH   1   7
TORSDOF 7
ENDMDL
MODEL 5
REMARK VINA RESULT:    -3.266      1.344      1.750
REMARK INTER + INTRA:          -4.903
REMARK INTER:                  -4.543
REMARK INTRA:                  -0.360
REMARK UNBOUND:                -0.301
REMARK SMILES CCCCCCCCC(=O)[O-]
REMARK SMILES IDX 6 1 7 2 8 3 9 4 10 5 11 6 5 7 4 8 3 9 2 10 1 11
REMARK H PARENT
REMARK Flexibility Score: inf
ROOT
ATOM      1  C   UNL     1     -95.833 147.951 241.990  1.00  0.00     0.000 C 
ENDROOT
BRANCH   1   2
ATOM      2  C   UNL     1     -96.016 149.071 243.026  1.00  0.00     0.006 C 
BRANCH   2   3
ATOM      3  C   UNL     1     -97.473 149.540 243.074  1.00  0.00     0.053 C 
BRANCH   3   4
ATOM      4  C   UNL     1     -98.108 149.146 244.371  1.00  0.00     0.041 C 
ATOM      5  O   UNL     1     -97.391 148.822 245.353  1.00  0.00    -0.550 OA
ATOM      6  O   UNL     1     -99.489 149.184 244.509  1.00  0.00    -0.550 OA
ENDBRANCH   3   4
ENDBRANCH   2   3
ENDBRANCH   1   2
BRANCH   1   7
ATOM      7  C   UNL     1     -95.427 146.613 242.628  1.00  0.00     0.000 C 
BRANCH   7   8
ATOM      8  C   UNL     1     -93.912 146.368 242.571  1.00  0.00    -0.000 C 
BRANCH   8   9
ATOM      9  C   UNL     1     -93.273 147.143 241.412  1.00  0.00    -0.000 C 
BRANCH   9  10
ATOM     10  C   UNL     1     -92.849 146.197 240.284  1.00  0.00    -0.003 C 
ATOM     11  C   UNL     1     -91.728 145.265 240.736  1.00  0.00     0.004 C 
ENDBRANCH   9  10
ENDBRANCH   8   9
ENDBRANCH   7   8
ENDBRANCH   1   7
TORSDOF 7
ENDMDL
MODEL 6
REMARK VINA RESULT:    -3.261      3.191      5.214
REMARK INTER + INTRA:          -4.897
REMARK INTER:                  -4.137
REMARK INTRA:                  -0.760
REMARK UNBOUND:                -0.301
REMARK SMILES CCCCCCCCC(=O)[O-]
REMARK SMILES IDX 6 1 7 2 8 3 9 4 10 5 11 6 5 7 4 8 3 9 2 10 1 11
REMARK H PARENT
REMARK Flexibility Score: inf
ROOT
ATOM      1  C   UNL     1     -92.985 146.822 240.737  1.00  0.00     0.000 C 
ENDROOT
BRANCH   1   2
ATOM      2  C   UNL     1     -93.884 146.881 239.492  1.00  0.00     0.006 C 
BRANCH   2   3
ATOM      3  C   UNL     1     -94.503 148.272 239.330  1.00  0.00     0.053 C 
BRANCH   3   4
ATOM      4  C   UNL     1     -95.957 148.163 238.993  1.00  0.00     0.041 C 
ATOM      5  O   UNL     1     -96.609 147.139 239.329  1.00  0.00    -0.550 OA
ATOM      6  O   UNL     1     -96.603 149.211 238.351  1.00  0.00    -0.550 OA
ENDBRANCH   3   4
ENDBRANCH   2   3
ENDBRANCH   1   2
BRANCH   1   7
ATOM      7  C   UNL     1     -93.667 147.396 241.989  1.00  0.00     0.000 C 
BRANCH   7   8
ATOM      8  C   UNL     1     -94.691 146.427 242.601  1.00  0.00    -0.000 C 
BRANCH   8   9
ATOM      9  C   UNL     1     -96.037 147.125 242.831  1.00  0.00    -0.000 C 
BRANCH   9  10
ATOM     10  C   UNL     1     -95.883 148.649 242.784  1.00  0.00    -0.003 C 
ATOM     11  C   UNL     1     -97.185 149.347 243.164  1.00  0.00     0.004 C 
ENDBRANCH   9  10
ENDBRANCH   8   9
ENDBRANCH   7   8
ENDBRANCH   1   7
TORSDOF 7
ENDMDL
MODEL 7
REMARK VINA RESULT:    -3.248      1.400      2.099
REMARK INTER + INTRA:          -4.878
REMARK INTER:                  -4.301
REMARK INTRA:                  -0.577
REMARK UNBOUND:                -0.301
REMARK SMILES CCCCCCCCC(=O)[O-]
REMARK SMILES IDX 6 1 7 2 8 3 9 4 10 5 11 6 5 7 4 8 3 9 2 10 1 11
REMARK H PARENT
REMARK Flexibility Score: inf
ROOT
ATOM      1  C   UNL     1     -95.577 147.896 240.334  1.00  0.00     0.000 C 
ENDROOT
BRANCH   1   2
ATOM      2  C   UNL     1     -95.755 147.482 241.803  1.00  0.00     0.006 C 
BRANCH   2   3
ATOM      3  C   UNL     1     -95.545 148.676 242.737  1.00  0.00     0.053 C 
BRANCH   3   4
ATOM      4  C   UNL     1     -96.838 149.072 243.380  1.00  0.00     0.041 C 
ATOM      5  O   UNL     1     -97.100 148.702 244.554  1.00  0.00    -0.550 OA
ATOM      6  O   UNL     1     -97.730 149.890 242.699  1.00  0.00    -0.550 OA
ENDBRANCH   3   4
ENDBRANCH   2   3
ENDBRANCH   1   2
BRANCH   1   7
ATOM      7  C   UNL     1     -94.112 147.839 239.874  1.00  0.00     0.000 C 
BRANCH   7   8
ATOM      8  C   UNL     1     -93.865 146.752 238.818  1.00  0.00    -0.000 C 
BRANCH   8   9
ATOM      9  C   UNL     1     -93.153 145.541 239.434  1.00  0.00    -0.000 C 
BRANCH   9  10
ATOM     10  C   UNL     1     -92.480 145.912 240.760  1.00  0.00    -0.003 C 
ATOM     11  C   UNL     1     -92.875 144.942 241.870  1.00  0.00     0.004 C 
ENDBRANCH   9  10
ENDBRANCH   8   9
ENDBRANCH   7   8
ENDBRANCH   1   7
TORSDOF 7
ENDMDL
MODEL 8
REMARK VINA RESULT:    -3.225      3.320      5.594
REMARK INTER + INTRA:          -4.846
REMARK INTER:                  -4.314
REMARK INTRA:                  -0.532
REMARK UNBOUND:                -0.301
REMARK SMILES CCCCCCCCC(=O)[O-]
REMARK SMILES IDX 6 1 7 2 8 3 9 4 10 5 11 6 5 7 4 8 3 9 2 10 1 11
REMARK H PARENT
REMARK Flexibility Score: inf
ROOT
ATOM      1  C   UNL     1     -95.255 147.702 240.263  1.00  0.00     0.000 C 
ENDROOT
BRANCH   1   2
ATOM      2  C   UNL     1     -93.944 147.065 239.776  1.00  0.00     0.006 C 
BRANCH   2   3
ATOM      3  C   UNL     1     -92.894 147.054 240.891  1.00  0.00     0.053 C 
BRANCH   3   4
ATOM      4  C   UNL     1     -92.467 145.652 241.194  1.00  0.00     0.041 C 
ATOM      5  O   UNL     1     -91.413 145.187 240.685  1.00  0.00    -0.550 OA
ATOM      6  O   UNL     1     -93.206 144.875 242.077  1.00  0.00    -0.550 OA
ENDBRANCH   3   4
ENDBRANCH   2   3
ENDBRANCH   1   2
BRANCH   1   7
ATOM      7  C   UNL     1     -96.087 146.751 241.137  1.00  0.00     0.000 C 
BRANCH   7   8
ATOM      8  C   UNL     1     -96.092 147.161 242.618  1.00  0.00    -0.000 C 
BRANCH   8   9
ATOM      9  C   UNL     1     -95.820 148.662 242.772  1.00  0.00    -0.000 C 
BRANCH   9  10
ATOM     10  C   UNL     1     -97.098 149.417 243.156  1.00  0.00    -0.003 C 
ATOM     11  C   UNL     1     -97.653 148.921 244.488  1.00  0.00     0.004 C 
ENDBRANCH   9  10
ENDBRANCH   8   9
ENDBRANCH   7   8
ENDBRANCH   1   7
TORSDOF 7
ENDMDL
MODEL 9
REMARK VINA RESULT:    -3.218      3.332      4.232
REMARK INTER + INTRA:          -4.836
REMARK INTER:                  -4.358
REMARK INTRA:                  -0.477
REMARK UNBOUND:                -0.301
REMARK SMILES CCCCCCCCC(=O)[O-]
REMARK SMILES IDX 6 1 7 2 8 3 9 4 10 5 11 6 5 7 4 8 3 9 2 10 1 11
REMARK H PARENT
REMARK Flexibility Score: inf
ROOT
ATOM      1  C   UNL     1     -94.186 147.660 239.504  1.00  0.00     0.000 C 
ENDROOT
BRANCH   1   2
ATOM      2  C   UNL     1     -93.264 147.453 240.716  1.00  0.00     0.006 C 
BRANCH   2   3
ATOM      3  C   UNL     1     -94.058 147.515 242.023  1.00  0.00     0.053 C 
BRANCH   3   4
ATOM      4  C   UNL     1     -94.210 146.146 242.609  1.00  0.00     0.041 C 
ATOM      5  O   UNL     1     -95.252 145.843 243.247  1.00  0.00    -0.550 OA
ATOM      6  O   UNL     1     -93.223 145.189 242.407  1.00  0.00    -0.550 OA
ENDBRANCH   3   4
ENDBRANCH   2   3
ENDBRANCH   1   2
BRANCH   1   7
ATOM      7  C   UNL     1     -93.982 146.595 238.415  1.00  0.00     0.000 C 
BRANCH   7   8
ATOM      8  C   UNL     1     -93.048 145.462 238.864  1.00  0.00    -0.000 C 
BRANCH   8   9
ATOM      9  C   UNL     1     -92.178 144.974 237.699  1.00  0.00    -0.000 C 
BRANCH   9  10
ATOM     10  C   UNL     1     -92.566 145.672 236.391  1.00  0.00    -0.003 C 
ATOM     11  C   UNL     1     -91.329 146.075 235.592  1.00  0.00     0.004 C 
ENDBRANCH   9  10
ENDBRANCH   8   9
ENDBRANCH   7   8
ENDBRANCH   1   7
TORSDOF 7
ENDMDL
