MODEL 1
REMARK VINA RESULT:    -2.391      0.000      0.000
REMARK INTER + INTRA:          -3.343
REMARK INTER:                  -3.090
REMARK INTRA:                  -0.254
REMARK UNBOUND:                -0.254
REMARK SMILES CCCCCCC(C)=O
REMARK SMILES IDX 4 1 3 2 2 3 1 4 5 5 6 6 7 7 9 8 8 9
REMARK H PARENT
REMARK Flexibility Score: inf
ROOT
ATOM      1  C   UNL     1     126.829 110.272 115.222  1.00  0.00     0.000 C 
ENDROOT
BRANCH   1   2
ATOM      2  C   UNL     1     125.499 111.026 115.117  1.00  0.00    -0.000 C 
BRANCH   2   3
ATOM      3  C   UNL     1     124.311 110.060 115.189  1.00  0.00    -0.003 C 
ATOM      4  C   UNL     1     123.148 110.671 115.964  1.00  0.00     0.004 C 
ENDBRANCH   2   3
ENDBRANCH   1   2
BRANCH   1   5
ATOM      5  C   UNL     1     127.386 110.331 116.651  1.00  0.00     0.008 C 
BRANCH   5   6
ATOM      6  C   UNL     1     127.102 111.680 117.326  1.00  0.00     0.075 C 
BRANCH   6   7
ATOM      7  C   UNL     1     128.314 112.216 118.044  1.00  0.00     0.129 C 
ATOM      8  O   UNL     1     129.193 111.445 118.397  1.00  0.00    -0.300 OA
ATOM      9  C   UNL     1     128.462 113.679 118.340  1.00  0.00     0.087 C 
ENDBRANCH   6   7
ENDBRANCH   5   6
ENDBRANCH   1   5
TORSDOF 5
ENDMDL
MODEL 2
REMARK VINA RESULT:    -2.378     20.311     21.887
REMARK INTER + INTRA:          -3.327
REMARK INTER:                  -3.113
REMARK INTRA:                  -0.215
REMARK UNBOUND:                -0.254
REMARK SMILES CCCCCCC(C)=O
REMARK SMILES IDX 4 1 3 2 2 3 1 4 5 5 6 6 7 7 9 8 8 9
REMARK H PARENT
REMARK Flexibility Score: inf
ROOT
ATOM      1  C   UNL     1     111.075 128.069 117.832  1.00  0.00     0.000 C 
ENDROOT
BRANCH   1   2
ATOM      2  C   UNL     1     111.738 128.772 116.642  1.00  0.00    -0.000 C 
BRANCH   2   3
ATOM      3  C   UNL     1     112.296 127.753 115.642  1.00  0.00    -0.003 C 
ATOM      4  C   UNL     1     113.657 128.190 115.110  1.00  0.00     0.004 C 
ENDBRANCH   2   3
ENDBRANCH   1   2
BRANCH   1   5
ATOM      5  C   UNL     1     111.497 126.595 117.908  1.00  0.00     0.008 C 
BRANCH   5   6
ATOM      6  C   UNL     1     110.324 125.677 118.278  1.00  0.00     0.075 C 
BRANCH   6   7
ATOM      7  C   UNL     1     110.724 124.634 119.290  1.00  0.00     0.129 C 
ATOM      8  O   UNL     1     110.066 124.503 120.311  1.00  0.00    -0.300 OA
ATOM      9  C   UNL     1     111.920 123.754 119.073  1.00  0.00     0.087 C 
ENDBRANCH   6   7
ENDBRANCH   5   6
ENDBRANCH   1   5
TORSDOF 5
ENDMDL
MODEL 3
REMARK VINA RESULT:    -2.375     12.067     14.294
REMARK INTER + INTRA:          -3.323
REMARK INTER:                  -3.110
REMARK INTRA:                  -0.213
REMARK UNBOUND:                -0.254
REMARK SMILES CCCCCCC(C)=O
REMARK SMILES IDX 4 1 3 2 2 3 1 4 5 5 6 6 7 7 9 8 8 9
REMARK H PARENT
REMARK Flexibility Score: inf
ROOT
ATOM      1  C   UNL     1     111.017 111.106 117.842  1.00  0.00     0.000 C 
ENDROOT
BRANCH   1   2
ATOM      2  C   UNL     1     110.263 111.833 116.723  1.00  0.00    -0.000 C 
BRANCH   2   3
ATOM      3  C   UNL     1     111.224 112.298 115.624  1.00  0.00    -0.003 C 
ATOM      4  C   UNL     1     110.848 113.685 115.112  1.00  0.00     0.004 C 
ENDBRANCH   2   3
ENDBRANCH   1   2
BRANCH   1   5
ATOM      5  C   UNL     1     112.516 111.436 117.803  1.00  0.00     0.008 C 
BRANCH   5   6
ATOM      6  C   UNL     1     113.377 110.272 118.312  1.00  0.00     0.075 C 
BRANCH   6   7
ATOM      7  C   UNL     1     114.420 110.733 119.297  1.00  0.00     0.129 C 
ATOM      8  O   UNL     1     114.575 110.118 120.341  1.00  0.00    -0.300 OA
ATOM      9  C   UNL     1     115.271 111.940 119.027  1.00  0.00     0.087 C 
ENDBRANCH   6   7
ENDBRANCH   5   6
ENDBRANCH   1   5
TORSDOF 5
ENDMDL
MODEL 4
REMARK VINA RESULT:    -2.373     14.173     16.326
REMARK INTER + INTRA:          -3.320
REMARK INTER:                  -3.095
REMARK INTRA:                  -0.225
REMARK UNBOUND:                -0.254
REMARK SMILES CCCCCCC(C)=O
REMARK SMILES IDX 4 1 3 2 2 3 1 4 5 5 6 6 7 7 9 8 8 9
REMARK H PARENT
REMARK Flexibility Score: inf
ROOT
ATOM      1  C   UNL     1     127.894 126.761 115.669  1.00  0.00     0.000 C 
ENDROOT
BRANCH   1   2
ATOM      2  C   UNL     1     129.220 126.697 114.904  1.00  0.00    -0.000 C 
BRANCH   2   3
ATOM      3  C   UNL     1     129.958 125.385 115.191  1.00  0.00    -0.003 C 
ATOM      4  C   UNL     1     128.982 124.222 115.335  1.00  0.00     0.004 C 
ENDBRANCH   2   3
ENDBRANCH   1   2
BRANCH   1   5
ATOM      5  C   UNL     1     128.054 127.528 116.989  1.00  0.00     0.008 C 
BRANCH   5   6
ATOM      6  C   UNL     1     126.895 127.258 117.958  1.00  0.00     0.075 C 
BRANCH   6   7
ATOM      7  C   UNL     1     126.118 128.512 118.268  1.00  0.00     0.129 C 
ATOM      8  O   UNL     1     124.898 128.490 118.221  1.00  0.00    -0.300 OA
ATOM      9  C   UNL     1     126.813 129.792 118.629  1.00  0.00     0.087 C 
ENDBRANCH   6   7
ENDBRANCH   5   6
ENDBRANCH   1   5
TORSDOF 5
ENDMDL
MODEL 5
REMARK VINA RESULT:    -2.357     11.658     13.611
REMARK INTER + INTRA:          -3.300
REMARK INTER:                  -3.004
REMARK INTRA:                  -0.295
REMARK UNBOUND:                -0.254
REMARK SMILES CCCCCCC(C)=O
REMARK SMILES IDX 4 1 3 2 2 3 1 4 5 5 6 6 7 7 9 8 8 9
REMARK H PARENT
REMARK Flexibility Score: inf
ROOT
ATOM      1  C   UNL     1     129.470 123.509 116.023  1.00  0.00     0.000 C 
ENDROOT
BRANCH   1   2
ATOM      2  C   UNL     1     129.489 122.087 115.452  1.00  0.00    -0.000 C 
BRANCH   2   3
ATOM      3  C   UNL     1     128.393 121.224 116.086  1.00  0.00    -0.003 C 
ATOM      4  C   UNL     1     127.009 121.652 115.609  1.00  0.00     0.004 C 
ENDBRANCH   2   3
ENDBRANCH   1   2
BRANCH   1   5
ATOM      5  C   UNL     1     129.367 124.553 114.902  1.00  0.00     0.008 C 
BRANCH   5   6
ATOM      6  C   UNL     1     128.105 125.416 115.033  1.00  0.00     0.075 C 
BRANCH   6   7
ATOM      7  C   UNL     1     128.381 126.712 115.750  1.00  0.00     0.129 C 
ATOM      8  O   UNL     1     129.323 127.407 115.397  1.00  0.00    -0.300 OA
ATOM      9  C   UNL     1     127.528 127.167 116.898  1.00  0.00     0.087 C 
ENDBRANCH   6   7
ENDBRANCH   5   6
ENDBRANCH   1   5
TORSDOF 5
ENDMDL
MODEL 6
REMARK VINA RESULT:    -2.356     14.792     16.771
REMARK INTER + INTRA:          -3.299
REMARK INTER:                  -3.092
REMARK INTRA:                  -0.207
REMARK UNBOUND:                -0.254
REMARK SMILES CCCCCCC(C)=O
REMARK SMILES IDX 4 1 3 2 2 3 1 4 5 5 6 6 7 7 9 8 8 9
REMARK H PARENT
REMARK Flexibility Score: inf
ROOT
ATOM      1  C   UNL     1     128.074 127.942 117.802  1.00  0.00     0.000 C 
ENDROOT
BRANCH   1   2
ATOM      2  C   UNL     1     128.795 127.305 116.609  1.00  0.00    -0.000 C 
BRANCH   2   3
ATOM      3  C   UNL     1     127.792 126.737 115.598  1.00  0.00    -0.003 C 
ATOM      4  C   UNL     1     128.209 125.347 115.129  1.00  0.00     0.004 C 
ENDBRANCH   2   3
ENDBRANCH   1   2
BRANCH   1   5
ATOM      5  C   UNL     1     126.579 127.590 117.795  1.00  0.00     0.008 C 
BRANCH   5   6
ATOM      6  C   UNL     1     125.712 128.747 118.310  1.00  0.00     0.075 C 
BRANCH   6   7
ATOM      7  C   UNL     1     124.560 128.256 119.148  1.00  0.00     0.129 C 
ATOM      8  O   UNL     1     123.723 127.519 118.648  1.00  0.00    -0.300 OA
ATOM      9  C   UNL     1     124.413 128.659 120.586  1.00  0.00     0.087 C 
ENDBRANCH   6   7
ENDBRANCH   5   6
ENDBRANCH   1   5
TORSDOF 5
ENDMDL
MODEL 7
REMARK VINA RESULT:    -2.353     12.441     14.510
REMARK INTER + INTRA:          -3.294
REMARK INTER:                  -2.875
REMARK INTRA:                  -0.419
REMARK UNBOUND:                -0.254
REMARK SMILES CCCCCCC(C)=O
REMARK SMILES IDX 4 1 3 2 2 3 1 4 5 5 6 6 7 7 9 8 8 9
REMARK H PARENT
REMARK Flexibility Score: inf
ROOT
ATOM      1  C   UNL     1     129.192 126.696 114.990  1.00  0.00     0.000 C 
ENDROOT
BRANCH   1   2
ATOM      2  C   UNL     1     127.865 126.765 115.753  1.00  0.00    -0.000 C 
BRANCH   2   3
ATOM      3  C   UNL     1     128.046 127.452 117.111  1.00  0.00    -0.003 C 
ATOM      4  C   UNL     1     126.726 127.528 117.872  1.00  0.00     0.004 C 
ENDBRANCH   2   3
ENDBRANCH   1   2
BRANCH   1   5
ATOM      5  C   UNL     1     129.688 125.247 114.876  1.00  0.00     0.008 C 
BRANCH   5   6
ATOM      6  C   UNL     1     128.598 124.233 115.250  1.00  0.00     0.075 C 
BRANCH   6   7
ATOM      7  C   UNL     1     129.036 123.324 116.369  1.00  0.00     0.129 C 
ATOM      8  O   UNL     1     129.432 122.197 116.109  1.00  0.00    -0.300 OA
ATOM      9  C   UNL     1     128.991 123.769 117.801  1.00  0.00     0.087 C 
ENDBRANCH   6   7
ENDBRANCH   5   6
ENDBRANCH   1   5
TORSDOF 5
ENDMDL
MODEL 8
REMARK VINA RESULT:    -2.339     20.411     21.646
REMARK INTER + INTRA:          -3.276
REMARK INTER:                  -2.974
REMARK INTRA:                  -0.302
REMARK UNBOUND:                -0.254
REMARK SMILES CCCCCCC(C)=O
REMARK SMILES IDX 4 1 3 2 2 3 1 4 5 5 6 6 7 7 9 8 8 9
REMARK H PARENT
REMARK Flexibility Score: inf
ROOT
ATOM      1  C   UNL     1     115.542 129.735 115.957  1.00  0.00     0.000 C 
ENDROOT
BRANCH   1   2
ATOM      2  C   UNL     1     116.963 129.561 115.411  1.00  0.00    -0.000 C 
BRANCH   2   3
ATOM      3  C   UNL     1     117.721 128.476 116.183  1.00  0.00    -0.003 C 
ATOM      4  C   UNL     1     117.399 127.086 115.643  1.00  0.00     0.004 C 
ENDBRANCH   2   3
ENDBRANCH   1   2
BRANCH   1   5
ATOM      5  C   UNL     1     114.495 129.435 114.875  1.00  0.00     0.008 C 
BRANCH   5   6
ATOM      6  C   UNL     1     113.748 128.121 115.144  1.00  0.00     0.075 C 
BRANCH   6   7
ATOM      7  C   UNL     1     112.398 128.359 115.769  1.00  0.00     0.129 C 
ATOM      8  O   UNL     1     111.713 129.294 115.383  1.00  0.00    -0.300 OA
ATOM      9  C   UNL     1     111.876 127.474 116.863  1.00  0.00     0.087 C 
ENDBRANCH   6   7
ENDBRANCH   5   6
ENDBRANCH   1   5
TORSDOF 5
ENDMDL
MODEL 9
REMARK VINA RESULT:    -2.316     21.178     22.286
REMARK INTER + INTRA:          -3.247
REMARK INTER:                  -2.746
REMARK INTRA:                  -0.501
REMARK UNBOUND:                -0.254
REMARK SMILES CCCCCCC(C)=O
REMARK SMILES IDX 4 1 3 2 2 3 1 4 5 5 6 6 7 7 9 8 8 9
REMARK H PARENT
REMARK Flexibility Score: inf
ROOT
ATOM      1  C   UNL     1     114.187 129.696 114.883  1.00  0.00     0.000 C 
ENDROOT
BRANCH   1   2
ATOM      2  C   UNL     1     115.044 128.684 115.652  1.00  0.00    -0.000 C 
BRANCH   2   3
ATOM      3  C   UNL     1     115.647 129.317 116.911  1.00  0.00    -0.003 C 
ATOM      4  C   UNL     1     115.158 128.613 118.172  1.00  0.00     0.004 C 
ENDBRANCH   2   3
ENDBRANCH   1   2
BRANCH   1   5
ATOM      5  C   UNL     1     112.711 129.275 114.875  1.00  0.00     0.008 C 
BRANCH   5   6
ATOM      6  C   UNL     1     112.503 127.887 115.495  1.00  0.00     0.075 C 
BRANCH   6   7
ATOM      7  C   UNL     1     111.755 127.960 116.801  1.00  0.00     0.129 C 
ATOM      8  O   UNL     1     111.449 126.927 117.378  1.00  0.00    -0.300 OA
ATOM      9  C   UNL     1     111.371 129.277 117.408  1.00  0.00     0.087 C 
ENDBRANCH   6   7
ENDBRANCH   5   6
ENDBRANCH   1   5
TORSDOF 5
ENDMDL
