MODEL 1
REMARK VINA RESULT:    -3.826      0.000      0.000
REMARK INTER + INTRA:          -5.219
REMARK INTER:                  -4.944
REMARK INTRA:                  -0.275
REMARK UNBOUND:                -0.275
REMARK SMILES CCOC(=O)C=Cc1ccc(O)c(O)c1
REMARK SMILES IDX 6 1 7 2 4 3 5 4 3 5 2 6 1 7 8 8 15 9 9 10 13 11 10 12 11 13
REMARK SMILES IDX 14 14 12 16
REMARK H PARENT 14 15 12 17
REMARK Flexibility Score: inf
ROOT
ATOM      1  C   UNL     1     -10.374 -20.663  18.075  1.00  0.00     0.094 C 
ATOM      2  C   UNL     1     -11.089 -19.853  18.871  1.00  0.00     0.016 C 
ENDROOT
BRANCH   1   3
ATOM      3  C   UNL     1     -10.889 -21.150  16.784  1.00  0.00     0.330 C 
ATOM      4  O   UNL     1     -11.122 -22.378  16.605  1.00  0.00    -0.247 OA
BRANCH   3   5
ATOM      5  O   UNL     1     -11.125 -20.226  15.761  1.00  0.00    -0.463 OA
BRANCH   5   6
ATOM      6  C   UNL     1     -10.800 -20.467  14.393  1.00  0.00     0.230 C 
ATOM      7  C   UNL     1      -9.304 -20.295  14.158  1.00  0.00     0.049 C 
ENDBRANCH   5   6
ENDBRANCH   3   5
ENDBRANCH   1   3
BRANCH   2   8
ATOM      8  C   UNL     1     -10.606 -19.354  20.182  1.00  0.00    -0.021 A 
ATOM      9  C   UNL     1     -10.268 -20.215  21.246  1.00  0.00     0.058 A 
ATOM     10  C   UNL     1     -10.447 -17.969  20.356  1.00  0.00     0.012 A 
ATOM     11  C   UNL     1      -9.806 -19.697  22.464  1.00  0.00     0.157 A 
ATOM     12  C   UNL     1      -9.989 -17.452  21.570  1.00  0.00     0.051 A 
ATOM     13  C   UNL     1      -9.669 -18.309  22.627  1.00  0.00     0.157 A 
BRANCH  11  14
ATOM     14  O   UNL     1      -9.477 -20.557  23.512  1.00  0.00    -0.504 OA
ATOM     15  H   UNL     1      -8.599 -20.475  24.011  1.00  0.00     0.293 HD
ENDBRANCH  11  14
BRANCH  13  16
ATOM     16  O   UNL     1      -9.216 -17.764  23.828  1.00  0.00    -0.504 OA
ATOM     17  H   UNL     1      -9.127 -18.319  24.671  1.00  0.00     0.293 HD
ENDBRANCH  13  16
ENDBRANCH   2   8
TORSDOF 6
ENDMDL
MODEL 2
REMARK VINA RESULT:    -3.535      2.048      2.315
REMARK INTER + INTRA:          -4.843
REMARK INTER:                  -4.574
REMARK INTRA:                  -0.270
REMARK UNBOUND:                -0.275
REMARK SMILES CCOC(=O)C=Cc1ccc(O)c(O)c1
REMARK SMILES IDX 6 1 7 2 4 3 5 4 3 5 2 6 1 7 8 8 15 9 9 10 13 11 10 12 11 13
REMARK SMILES IDX 14 14 12 16
REMARK H PARENT 14 15 12 17
REMARK Flexibility Score: inf
ROOT
ATOM      1  C   UNL     1      -9.202 -21.368  18.682  1.00  0.00     0.094 C 
ATOM      2  C   UNL     1     -10.134 -20.461  19.013  1.00  0.00     0.016 C 
ENDROOT
BRANCH   1   3
ATOM      3  C   UNL     1      -9.143 -21.981  17.344  1.00  0.00     0.330 C 
ATOM      4  O   UNL     1      -9.943 -21.625  16.436  1.00  0.00    -0.247 OA
BRANCH   3   5
ATOM      5  O   UNL     1      -8.176 -22.961  17.095  1.00  0.00    -0.463 OA
BRANCH   5   6
ATOM      6  C   UNL     1      -7.016 -22.736  16.297  1.00  0.00     0.230 C 
ATOM      7  C   UNL     1      -5.873 -22.196  17.148  1.00  0.00     0.049 C 
ENDBRANCH   5   6
ENDBRANCH   3   5
ENDBRANCH   1   3
BRANCH   2   8
ATOM      8  C   UNL     1     -10.230 -19.833  20.354  1.00  0.00    -0.021 A 
ATOM      9  C   UNL     1     -10.386 -20.585  21.536  1.00  0.00     0.058 A 
ATOM     10  C   UNL     1     -10.125 -18.436  20.449  1.00  0.00     0.012 A 
ATOM     11  C   UNL     1     -10.462 -19.947  22.783  1.00  0.00     0.157 A 
ATOM     12  C   UNL     1     -10.202 -17.799  21.690  1.00  0.00     0.051 A 
ATOM     13  C   UNL     1     -10.373 -18.547  22.859  1.00  0.00     0.157 A 
BRANCH  11  14
ATOM     14  O   UNL     1     -10.620 -20.699  23.946  1.00  0.00    -0.504 OA
ATOM     15  H   UNL     1     -10.682 -21.711  23.920  1.00  0.00     0.293 HD
ENDBRANCH  11  14
BRANCH  13  16
ATOM     16  O   UNL     1     -10.448 -17.885  24.083  1.00  0.00    -0.504 OA
ATOM     17  H   UNL     1     -11.219 -18.027  24.726  1.00  0.00     0.293 HD
ENDBRANCH  13  16
ENDBRANCH   2   8
TORSDOF 6
ENDMDL
MODEL 3
REMARK VINA RESULT:    -3.534     17.588     20.087
REMARK INTER + INTRA:          -4.842
REMARK INTER:                  -4.610
REMARK INTRA:                  -0.232
REMARK UNBOUND:                -0.275
REMARK SMILES CCOC(=O)C=Cc1ccc(O)c(O)c1
REMARK SMILES IDX 6 1 7 2 4 3 5 4 3 5 2 6 1 7 8 8 15 9 9 10 13 11 10 12 11 13
REMARK SMILES IDX 14 14 12 16
REMARK H PARENT 14 15 12 17
REMARK Flexibility Score: inf
ROOT
ATOM      1  C   UNL     1       6.085 -22.548  13.473  1.00  0.00     0.094 C 
ATOM      2  C   UNL     1       7.315 -22.692  12.958  1.00  0.00     0.016 C 
ENDROOT
BRANCH   1   3
ATOM      3  C   UNL     1       5.780 -22.856  14.880  1.00  0.00     0.330 C 
ATOM      4  O   UNL     1       4.588 -23.020  15.260  1.00  0.00    -0.247 OA
BRANCH   3   5
ATOM      5  O   UNL     1       6.838 -22.972  15.788  1.00  0.00    -0.463 OA
BRANCH   5   6
ATOM      6  C   UNL     1       7.354 -21.874  16.537  1.00  0.00     0.230 C 
ATOM      7  C   UNL     1       6.395 -21.489  17.658  1.00  0.00     0.049 C 
ENDBRANCH   5   6
ENDBRANCH   3   5
ENDBRANCH   1   3
BRANCH   2   8
ATOM      8  C   UNL     1       7.654 -22.403  11.542  1.00  0.00    -0.021 A 
ATOM      9  C   UNL     1       6.885 -22.885  10.464  1.00  0.00     0.058 A 
ATOM     10  C   UNL     1       8.765 -21.588  11.271  1.00  0.00     0.012 A 
ATOM     11  C   UNL     1       7.238 -22.577   9.142  1.00  0.00     0.157 A 
ATOM     12  C   UNL     1       9.118 -21.282   9.955  1.00  0.00     0.051 A 
ATOM     13  C   UNL     1       8.362 -21.774   8.887  1.00  0.00     0.157 A 
BRANCH  11  14
ATOM     14  O   UNL     1       6.473 -23.061   8.081  1.00  0.00    -0.504 OA
ATOM     15  H   UNL     1       6.283 -24.050   7.971  1.00  0.00     0.293 HD
ENDBRANCH  11  14
BRANCH  13  16
ATOM     16  O   UNL     1       8.740 -21.454   7.584  1.00  0.00    -0.504 OA
ATOM     17  H   UNL     1       9.441 -20.751   7.384  1.00  0.00     0.293 HD
ENDBRANCH  13  16
ENDBRANCH   2   8
TORSDOF 6
ENDMDL
MODEL 4
REMARK VINA RESULT:    -2.867      3.816      7.117
REMARK INTER + INTRA:          -3.979
REMARK INTER:                  -3.603
REMARK INTRA:                  -0.376
REMARK UNBOUND:                -0.275
REMARK SMILES CCOC(=O)C=Cc1ccc(O)c(O)c1
REMARK SMILES IDX 6 1 7 2 4 3 5 4 3 5 2 6 1 7 8 8 15 9 9 10 13 11 10 12 11 13
REMARK SMILES IDX 14 14 12 16
REMARK H PARENT 14 15 12 17
REMARK Flexibility Score: inf
ROOT
ATOM      1  C   UNL     1      -8.292 -22.682  21.905  1.00  0.00     0.094 C 
ATOM      2  C   UNL     1      -8.648 -22.772  20.615  1.00  0.00     0.016 C 
ENDROOT
BRANCH   1   3
ATOM      3  C   UNL     1      -9.280 -22.679  22.996  1.00  0.00     0.330 C 
ATOM      4  O   UNL     1      -8.980 -23.121  24.139  1.00  0.00    -0.247 OA
BRANCH   3   5
ATOM      5  O   UNL     1     -10.557 -22.167  22.746  1.00  0.00    -0.463 OA
BRANCH   5   6
ATOM      6  C   UNL     1     -11.001 -20.897  23.219  1.00  0.00     0.230 C 
ATOM      7  C   UNL     1     -10.431 -19.773  22.361  1.00  0.00     0.049 C 
ENDBRANCH   5   6
ENDBRANCH   3   5
ENDBRANCH   1   3
BRANCH   2   8
ATOM      8  C   UNL     1      -7.680 -22.766  19.491  1.00  0.00    -0.021 A 
ATOM      9  C   UNL     1      -8.038 -22.382  18.183  1.00  0.00     0.058 A 
ATOM     10  C   UNL     1      -6.347 -23.123  19.751  1.00  0.00     0.012 A 
ATOM     11  C   UNL     1      -7.085 -22.381  17.154  1.00  0.00     0.157 A 
ATOM     12  C   UNL     1      -5.398 -23.125  18.727  1.00  0.00     0.051 A 
ATOM     13  C   UNL     1      -5.760 -22.758  17.427  1.00  0.00     0.157 A 
BRANCH  11  14
ATOM     14  O   UNL     1      -7.449 -22.003  15.862  1.00  0.00    -0.504 OA
ATOM     15  H   UNL     1      -7.967 -21.150  15.684  1.00  0.00     0.293 HD
ENDBRANCH  11  14
BRANCH  13  16
ATOM     16  O   UNL     1      -4.791 -22.771  16.424  1.00  0.00    -0.504 OA
ATOM     17  H   UNL     1      -4.353 -23.629  16.110  1.00  0.00     0.293 HD
ENDBRANCH  13  16
ENDBRANCH   2   8
TORSDOF 6
ENDMDL
MODEL 5
REMARK VINA RESULT:    -2.659      4.332      6.891
REMARK INTER + INTRA:          -3.710
REMARK INTER:                  -3.466
REMARK INTRA:                  -0.244
REMARK UNBOUND:                -0.275
REMARK SMILES CCOC(=O)C=Cc1ccc(O)c(O)c1
REMARK SMILES IDX 6 1 7 2 4 3 5 4 3 5 2 6 1 7 8 8 15 9 9 10 13 11 10 12 11 13
REMARK SMILES IDX 14 14 12 16
REMARK H PARENT 14 15 12 17
REMARK Flexibility Score: inf
ROOT
ATOM      1  C   UNL     1      -8.914 -21.654  18.510  1.00  0.00     0.094 C 
ATOM      2  C   UNL     1      -8.465 -22.200  17.369  1.00  0.00     0.016 C 
ENDROOT
BRANCH   1   3
ATOM      3  C   UNL     1     -10.342 -21.648  18.870  1.00  0.00     0.330 C 
ATOM      4  O   UNL     1     -11.083 -22.629  18.584  1.00  0.00    -0.247 OA
BRANCH   3   5
ATOM      5  O   UNL     1     -10.861 -20.539  19.545  1.00  0.00    -0.463 OA
BRANCH   5   6
ATOM      6  C   UNL     1     -10.191 -19.890  20.624  1.00  0.00     0.230 C 
ATOM      7  C   UNL     1     -10.609 -18.427  20.716  1.00  0.00     0.049 C 
ENDBRANCH   5   6
ENDBRANCH   3   5
ENDBRANCH   1   3
BRANCH   2   8
ATOM      8  C   UNL     1      -7.037 -22.213  16.970  1.00  0.00    -0.021 A 
ATOM      9  C   UNL     1      -6.519 -21.361  15.972  1.00  0.00     0.058 A 
ATOM     10  C   UNL     1      -6.160 -23.083  17.638  1.00  0.00     0.012 A 
ATOM     11  C   UNL     1      -5.158 -21.401  15.635  1.00  0.00     0.157 A 
ATOM     12  C   UNL     1      -4.805 -23.125  17.301  1.00  0.00     0.051 A 
ATOM     13  C   UNL     1      -4.299 -22.290  16.301  1.00  0.00     0.157 A 
BRANCH  11  14
ATOM     14  O   UNL     1      -4.657 -20.557  14.645  1.00  0.00    -0.504 OA
ATOM     15  H   UNL     1      -3.832 -19.989  14.799  1.00  0.00     0.293 HD
ENDBRANCH  11  14
BRANCH  13  16
ATOM     16  O   UNL     1      -2.943 -22.355  15.985  1.00  0.00    -0.504 OA
ATOM     17  H   UNL     1      -2.576 -23.026  15.320  1.00  0.00     0.293 HD
ENDBRANCH  13  16
ENDBRANCH   2   8
TORSDOF 6
ENDMDL
MODEL 6
REMARK VINA RESULT:    -2.505     15.620     17.518
REMARK INTER + INTRA:          -3.511
REMARK INTER:                  -3.249
REMARK INTRA:                  -0.262
REMARK UNBOUND:                -0.275
REMARK SMILES CCOC(=O)C=Cc1ccc(O)c(O)c1
REMARK SMILES IDX 6 1 7 2 4 3 5 4 3 5 2 6 1 7 8 8 15 9 9 10 13 11 10 12 11 13
REMARK SMILES IDX 14 14 12 16
REMARK H PARENT 14 15 12 17
REMARK Flexibility Score: inf
ROOT
ATOM      1  C   UNL     1       6.675 -22.095  12.397  1.00  0.00     0.094 C 
ATOM      2  C   UNL     1       6.121 -23.122  13.059  1.00  0.00     0.016 C 
ENDROOT
BRANCH   1   3
ATOM      3  C   UNL     1       8.058 -22.139  11.892  1.00  0.00     0.330 C 
ATOM      4  O   UNL     1       8.420 -23.037  11.083  1.00  0.00    -0.247 OA
BRANCH   3   5
ATOM      5  O   UNL     1       8.962 -21.161  12.319  1.00  0.00    -0.463 OA
BRANCH   5   6
ATOM      6  C   UNL     1       8.566 -19.953  12.966  1.00  0.00     0.230 C 
ATOM      7  C   UNL     1       9.060 -18.740  12.188  1.00  0.00     0.049 C 
ENDBRANCH   5   6
ENDBRANCH   3   5
ENDBRANCH   1   3
BRANCH   2   8
ATOM      8  C   UNL     1       4.736 -23.106  13.591  1.00  0.00    -0.021 A 
ATOM      9  C   UNL     1       3.601 -23.119  12.756  1.00  0.00     0.058 A 
ATOM     10  C   UNL     1       4.552 -23.114  14.984  1.00  0.00     0.012 A 
ATOM     11  C   UNL     1       2.310 -23.115  13.305  1.00  0.00     0.157 A 
ATOM     12  C   UNL     1       3.267 -23.108  15.532  1.00  0.00     0.051 A 
ATOM     13  C   UNL     1       2.144 -23.106  14.700  1.00  0.00     0.157 A 
BRANCH  11  14
ATOM     14  O   UNL     1       1.194 -23.125  12.470  1.00  0.00    -0.504 OA
ATOM     15  H   UNL     1       0.796 -23.991  12.125  1.00  0.00     0.293 HD
ENDBRANCH  11  14
BRANCH  13  16
ATOM     16  O   UNL     1       0.874 -23.097  15.274  1.00  0.00    -0.504 OA
ATOM     17  H   UNL     1       0.493 -22.275  15.727  1.00  0.00     0.293 HD
ENDBRANCH  13  16
ENDBRANCH   2   8
TORSDOF 6
ENDMDL
MODEL 7
REMARK VINA RESULT:    -2.463      2.941      3.832
REMARK INTER + INTRA:          -3.457
REMARK INTER:                  -3.244
REMARK INTRA:                  -0.214
REMARK UNBOUND:                -0.275
REMARK SMILES CCOC(=O)C=Cc1ccc(O)c(O)c1
REMARK SMILES IDX 6 1 7 2 4 3 5 4 3 5 2 6 1 7 8 8 15 9 9 10 13 11 10 12 11 13
REMARK SMILES IDX 14 14 12 16
REMARK H PARENT 14 15 12 17
REMARK Flexibility Score: inf
ROOT
ATOM      1  C   UNL     1      -8.676 -21.953  18.692  1.00  0.00     0.094 C 
ATOM      2  C   UNL     1      -9.920 -21.915  19.194  1.00  0.00     0.016 C 
ENDROOT
BRANCH   1   3
ATOM      3  C   UNL     1      -8.412 -21.994  17.244  1.00  0.00     0.330 C 
ATOM      4  O   UNL     1      -9.223 -21.478  16.427  1.00  0.00    -0.247 OA
BRANCH   3   5
ATOM      5  O   UNL     1      -7.240 -22.608  16.791  1.00  0.00    -0.463 OA
BRANCH   5   6
ATOM      6  C   UNL     1      -5.951 -22.007  16.886  1.00  0.00     0.230 C 
ATOM      7  C   UNL     1      -4.855 -23.059  16.754  1.00  0.00     0.049 C 
ENDBRANCH   5   6
ENDBRANCH   3   5
ENDBRANCH   1   3
BRANCH   2   8
ATOM      8  C   UNL     1     -10.221 -21.885  20.646  1.00  0.00    -0.021 A 
ATOM      9  C   UNL     1     -10.328 -20.684  21.375  1.00  0.00     0.058 A 
ATOM     10  C   UNL     1     -10.444 -23.103  21.310  1.00  0.00     0.012 A 
ATOM     11  C   UNL     1     -10.626 -20.705  22.746  1.00  0.00     0.157 A 
ATOM     12  C   UNL     1     -10.739 -23.125  22.675  1.00  0.00     0.051 A 
ATOM     13  C   UNL     1     -10.829 -21.932  23.399  1.00  0.00     0.157 A 
BRANCH  11  14
ATOM     14  O   UNL     1     -10.727 -19.511  23.459  1.00  0.00    -0.504 OA
ATOM     15  H   UNL     1     -11.517 -18.887  23.343  1.00  0.00     0.293 HD
ENDBRANCH  11  14
BRANCH  13  16
ATOM     16  O   UNL     1     -11.122 -21.985  24.760  1.00  0.00    -0.504 OA
ATOM     17  H   UNL     1     -12.075 -21.985  25.106  1.00  0.00     0.293 HD
ENDBRANCH  13  16
ENDBRANCH   2   8
TORSDOF 6
ENDMDL
MODEL 8
REMARK VINA RESULT:    -2.209      4.267      4.923
REMARK INTER + INTRA:          -3.130
REMARK INTER:                  -2.949
REMARK INTRA:                  -0.181
REMARK UNBOUND:                -0.275
REMARK SMILES CCOC(=O)C=Cc1ccc(O)c(O)c1
REMARK SMILES IDX 6 1 7 2 4 3 5 4 3 5 2 6 1 7 8 8 15 9 9 10 13 11 10 12 11 13
REMARK SMILES IDX 14 14 12 16
REMARK H PARENT 14 15 12 17
REMARK Flexibility Score: inf
ROOT
ATOM      1  C   UNL     1      -6.527 -22.673  18.269  1.00  0.00     0.094 C 
ATOM      2  C   UNL     1      -7.865 -22.653  18.364  1.00  0.00     0.016 C 
ENDROOT
BRANCH   1   3
ATOM      3  C   UNL     1      -5.833 -22.968  17.005  1.00  0.00     0.330 C 
ATOM      4  O   UNL     1      -6.481 -23.122  15.934  1.00  0.00    -0.247 OA
BRANCH   3   5
ATOM      5  O   UNL     1      -4.437 -23.066  17.010  1.00  0.00    -0.463 OA
BRANCH   5   6
ATOM      6  C   UNL     1      -3.608 -22.532  15.980  1.00  0.00     0.230 C 
ATOM      7  C   UNL     1      -2.138 -22.805  16.277  1.00  0.00     0.049 C 
ENDBRANCH   5   6
ENDBRANCH   3   5
ENDBRANCH   1   3
BRANCH   2   8
ATOM      8  C   UNL     1      -8.597 -22.372  19.624  1.00  0.00    -0.021 A 
ATOM      9  C   UNL     1      -8.197 -22.899  20.868  1.00  0.00     0.058 A 
ATOM     10  C   UNL     1      -9.711 -21.518  19.576  1.00  0.00     0.012 A 
ATOM     11  C   UNL     1      -8.914 -22.596  22.035  1.00  0.00     0.157 A 
ATOM     12  C   UNL     1     -10.427 -21.217  20.737  1.00  0.00     0.051 A 
ATOM     13  C   UNL     1     -10.037 -21.754  21.968  1.00  0.00     0.157 A 
BRANCH  11  14
ATOM     14  O   UNL     1      -8.513 -23.125  23.261  1.00  0.00    -0.504 OA
ATOM     15  H   UNL     1      -8.433 -22.546  24.089  1.00  0.00     0.293 HD
ENDBRANCH  11  14
BRANCH  13  16
ATOM     16  O   UNL     1     -10.772 -21.439  23.109  1.00  0.00    -0.504 OA
ATOM     17  H   UNL     1     -10.577 -21.862  24.009  1.00  0.00     0.293 HD
ENDBRANCH  13  16
ENDBRANCH   2   8
TORSDOF 6
ENDMDL
