MODEL 1
REMARK VINA RESULT:    -3.962      0.000      0.000
REMARK INTER + INTRA:          -6.926
REMARK INTER:                  -6.046
REMARK INTRA:                  -0.880
REMARK UNBOUND:                -0.880
REMARK SMILES CCCCCCCCCCC(=O)[O-]
REMARK SMILES IDX 7 1 8 2 9 3 10 4 11 5 12 6 13 7 6 8 5 9 4 10 3 11 2 12 1 13
REMARK H PARENT
REMARK Flexibility Score: inf
ROOT
ATOM      1  C   UNL     1     -43.111  27.644  -0.385  1.00  0.00     0.000 C 
ENDROOT
BRANCH   1   2
ATOM      2  C   UNL     1     -42.355  27.934   0.920  1.00  0.00     0.000 C 
BRANCH   2   3
ATOM      3  C   UNL     1     -43.069  28.973   1.806  1.00  0.00     0.006 C 
BRANCH   3   4
ATOM      4  C   UNL     1     -43.551  28.426   3.159  1.00  0.00     0.053 C 
BRANCH   4   5
ATOM      5  C   UNL     1     -44.537  27.312   2.997  1.00  0.00     0.041 C 
ATOM      6  O   UNL     1     -44.231  26.140   3.339  1.00  0.00    -0.550 OA
ATOM      7  O   UNL     1     -45.783  27.560   2.434  1.00  0.00    -0.550 OA
ENDBRANCH   4   5
ENDBRANCH   3   4
ENDBRANCH   2   3
ENDBRANCH   1   2
BRANCH   1   8
ATOM      8  C   UNL     1     -44.255  28.644  -0.591  1.00  0.00     0.000 C 
BRANCH   8   9
ATOM      9  C   UNL     1     -45.521  27.936  -1.097  1.00  0.00    -0.000 C 
BRANCH   9  10
ATOM     10  C   UNL     1     -45.368  26.407  -1.136  1.00  0.00    -0.000 C 
BRANCH  10  11
ATOM     11  C   UNL     1     -45.669  25.818  -2.524  1.00  0.00    -0.000 C 
BRANCH  11  12
ATOM     12  C   UNL     1     -46.547  26.746  -3.379  1.00  0.00    -0.003 C 
ATOM     13  C   UNL     1     -46.246  26.630  -4.873  1.00  0.00     0.004 C 
ENDBRANCH  11  12
ENDBRANCH  10  11
ENDBRANCH   9  10
ENDBRANCH   8   9
ENDBRANCH   1   8
TORSDOF 9
ENDMDL
MODEL 2
REMARK VINA RESULT:    -3.866      1.450      2.958
REMARK INTER + INTRA:          -6.780
REMARK INTER:                  -6.253
REMARK INTRA:                  -0.527
REMARK UNBOUND:                -0.880
REMARK SMILES CCCCCCCCCCC(=O)[O-]
REMARK SMILES IDX 7 1 8 2 9 3 10 4 11 5 12 6 13 7 6 8 5 9 4 10 3 11 2 12 1 13
REMARK H PARENT
REMARK Flexibility Score: inf
ROOT
ATOM      1  C   UNL     1     -44.839  26.321  -1.411  1.00  0.00     0.000 C 
ENDROOT
BRANCH   1   2
ATOM      2  C   UNL     1     -45.114  27.822  -1.240  1.00  0.00     0.000 C 
BRANCH   2   3
ATOM      3  C   UNL     1     -44.070  28.524  -0.351  1.00  0.00     0.006 C 
BRANCH   3   4
ATOM      4  C   UNL     1     -43.180  27.565   0.457  1.00  0.00     0.053 C 
BRANCH   4   5
ATOM      5  C   UNL     1     -43.506  27.591   1.918  1.00  0.00     0.041 C 
ATOM      6  O   UNL     1     -42.991  28.463   2.666  1.00  0.00    -0.550 OA
ATOM      7  O   UNL     1     -44.351  26.632   2.461  1.00  0.00    -0.550 OA
ENDBRANCH   4   5
ENDBRANCH   3   4
ENDBRANCH   2   3
ENDBRANCH   1   2
BRANCH   1   8
ATOM      8  C   UNL     1     -45.836  25.688  -2.389  1.00  0.00     0.000 C 
BRANCH   8   9
ATOM      9  C   UNL     1     -46.569  26.766  -3.202  1.00  0.00    -0.000 C 
BRANCH   9  10
ATOM     10  C   UNL     1     -46.203  26.732  -4.695  1.00  0.00    -0.000 C 
BRANCH  10  11
ATOM     11  C   UNL     1     -46.130  28.137  -5.316  1.00  0.00    -0.000 C 
BRANCH  11  12
ATOM     12  C   UNL     1     -45.587  28.118  -6.754  1.00  0.00    -0.003 C 
ATOM     13  C   UNL     1     -45.521  26.707  -7.340  1.00  0.00     0.004 C 
ENDBRANCH  11  12
ENDBRANCH  10  11
ENDBRANCH   9  10
ENDBRANCH   8   9
ENDBRANCH   1   8
TORSDOF 9
ENDMDL
MODEL 3
REMARK VINA RESULT:    -3.660      0.802      1.468
REMARK INTER + INTRA:          -6.466
REMARK INTER:                  -5.816
REMARK INTRA:                  -0.650
REMARK UNBOUND:                -0.880
REMARK SMILES CCCCCCCCCCC(=O)[O-]
REMARK SMILES IDX 7 1 8 2 9 3 10 4 11 5 12 6 13 7 6 8 5 9 4 10 3 11 2 12 1 13
REMARK H PARENT
REMARK Flexibility Score: inf
ROOT
ATOM      1  C   UNL     1     -42.563  28.038   0.933  1.00  0.00     0.000 C 
ENDROOT
BRANCH   1   2
ATOM      2  C   UNL     1     -43.401  28.980   1.810  1.00  0.00     0.000 C 
BRANCH   2   3
ATOM      3  C   UNL     1     -42.951  28.983   3.283  1.00  0.00     0.006 C 
BRANCH   3   4
ATOM      4  C   UNL     1     -43.971  28.375   4.259  1.00  0.00     0.053 C 
BRANCH   4   5
ATOM      5  C   UNL     1     -44.787  27.295   3.619  1.00  0.00     0.041 C 
ATOM      6  O   UNL     1     -45.992  27.504   3.320  1.00  0.00    -0.550 OA
ATOM      7  O   UNL     1     -44.228  26.045   3.384  1.00  0.00    -0.550 OA
ENDBRANCH   4   5
ENDBRANCH   3   4
ENDBRANCH   2   3
ENDBRANCH   1   2
BRANCH   1   8
ATOM      8  C   UNL     1     -43.375  27.539  -0.269  1.00  0.00     0.000 C 
BRANCH   8   9
ATOM      9  C   UNL     1     -44.810  28.085  -0.228  1.00  0.00    -0.000 C 
BRANCH   9  10
ATOM     10  C   UNL     1     -45.850  27.049  -0.684  1.00  0.00    -0.000 C 
BRANCH  10  11
ATOM     11  C   UNL     1     -45.304  26.101  -1.766  1.00  0.00    -0.000 C 
BRANCH  11  12
ATOM     12  C   UNL     1     -46.155  26.115  -3.045  1.00  0.00    -0.003 C 
ATOM     13  C   UNL     1     -46.422  27.529  -3.561  1.00  0.00     0.004 C 
ENDBRANCH  11  12
ENDBRANCH  10  11
ENDBRANCH   9  10
ENDBRANCH   8   9
ENDBRANCH   1   8
TORSDOF 9
ENDMDL
MODEL 4
REMARK VINA RESULT:    -3.614      3.681      6.770
REMARK INTER + INTRA:          -6.396
REMARK INTER:                  -5.791
REMARK INTRA:                  -0.605
REMARK UNBOUND:                -0.880
REMARK SMILES CCCCCCCCCCC(=O)[O-]
REMARK SMILES IDX 7 1 8 2 9 3 10 4 11 5 12 6 13 7 6 8 5 9 4 10 3 11 2 12 1 13
REMARK H PARENT
REMARK Flexibility Score: inf
ROOT
ATOM      1  C   UNL     1     -45.390  26.381  -1.370  1.00  0.00     0.000 C 
ENDROOT
BRANCH   1   2
ATOM      2  C   UNL     1     -45.999  25.817  -2.662  1.00  0.00     0.000 C 
BRANCH   2   3
ATOM      3  C   UNL     1     -46.335  26.912  -3.691  1.00  0.00     0.006 C 
BRANCH   3   4
ATOM      4  C   UNL     1     -46.756  26.377  -5.070  1.00  0.00     0.053 C 
BRANCH   4   5
ATOM      5  C   UNL     1     -45.894  26.916  -6.169  1.00  0.00     0.041 C 
ATOM      6  O   UNL     1     -45.574  28.133  -6.184  1.00  0.00    -0.550 OA
ATOM      7  O   UNL     1     -45.473  26.082  -7.198  1.00  0.00    -0.550 OA
ENDBRANCH   4   5
ENDBRANCH   3   4
ENDBRANCH   2   3
ENDBRANCH   1   2
BRANCH   1   8
ATOM      8  C   UNL     1     -45.609  27.896  -1.275  1.00  0.00     0.000 C 
BRANCH   8   9
ATOM      9  C   UNL     1     -44.448  28.574  -0.532  1.00  0.00    -0.000 C 
BRANCH   9  10
ATOM     10  C   UNL     1     -43.219  27.661  -0.396  1.00  0.00    -0.000 C 
BRANCH  10  11
ATOM     11  C   UNL     1     -42.607  27.702   1.015  1.00  0.00    -0.000 C 
BRANCH  11  12
ATOM     12  C   UNL     1     -43.622  27.333   2.108  1.00  0.00    -0.003 C 
ATOM     13  C   UNL     1     -43.582  28.292   3.298  1.00  0.00     0.004 C 
ENDBRANCH  11  12
ENDBRANCH  10  11
ENDBRANCH   9  10
ENDBRANCH   8   9
ENDBRANCH   1   8
TORSDOF 9
ENDMDL
MODEL 5
REMARK VINA RESULT:    -3.611      2.026      3.095
REMARK INTER + INTRA:          -6.390
REMARK INTER:                  -5.767
REMARK INTRA:                  -0.623
REMARK UNBOUND:                -0.880
REMARK SMILES CCCCCCCCCCC(=O)[O-]
REMARK SMILES IDX 7 1 8 2 9 3 10 4 11 5 12 6 13 7 6 8 5 9 4 10 3 11 2 12 1 13
REMARK H PARENT
REMARK Flexibility Score: inf
ROOT
ATOM      1  C   UNL     1     -43.509  26.991   2.024  1.00  0.00     0.000 C 
ENDROOT
BRANCH   1   2
ATOM      2  C   UNL     1     -44.168  27.697   3.218  1.00  0.00     0.000 C 
BRANCH   2   3
ATOM      3  C   UNL     1     -43.225  28.694   3.917  1.00  0.00     0.006 C 
BRANCH   3   4
ATOM      4  C   UNL     1     -43.616  29.026   5.367  1.00  0.00     0.053 C 
BRANCH   4   5
ATOM      5  C   UNL     1     -43.045  28.045   6.343  1.00  0.00     0.041 C 
ATOM      6  O   UNL     1     -42.020  28.341   7.011  1.00  0.00    -0.550 OA
ATOM      7  O   UNL     1     -43.623  26.790   6.490  1.00  0.00    -0.550 OA
ENDBRANCH   4   5
ENDBRANCH   3   4
ENDBRANCH   2   3
ENDBRANCH   1   2
BRANCH   1   8
ATOM      8  C   UNL     1     -42.623  27.962   1.233  1.00  0.00     0.000 C 
BRANCH   8   9
ATOM      9  C   UNL     1     -42.973  27.932  -0.263  1.00  0.00    -0.000 C 
BRANCH   9  10
ATOM     10  C   UNL     1     -44.233  28.747  -0.592  1.00  0.00    -0.000 C 
BRANCH  10  11
ATOM     11  C   UNL     1     -45.404  27.863  -1.056  1.00  0.00    -0.000 C 
BRANCH  11  12
ATOM     12  C   UNL     1     -44.987  26.400  -1.272  1.00  0.00    -0.003 C 
ATOM     13  C   UNL     1     -45.645  25.775  -2.501  1.00  0.00     0.004 C 
ENDBRANCH  11  12
ENDBRANCH  10  11
ENDBRANCH   9  10
ENDBRANCH   8   9
ENDBRANCH   1   8
TORSDOF 9
ENDMDL
MODEL 6
REMARK VINA RESULT:    -3.379      2.313      6.224
REMARK INTER + INTRA:          -6.036
REMARK INTER:                  -5.386
REMARK INTRA:                  -0.650
REMARK UNBOUND:                -0.880
REMARK SMILES CCCCCCCCCCC(=O)[O-]
REMARK SMILES IDX 7 1 8 2 9 3 10 4 11 5 12 6 13 7 6 8 5 9 4 10 3 11 2 12 1 13
REMARK H PARENT
REMARK Flexibility Score: inf
ROOT
ATOM      1  C   UNL     1     -43.262  27.588   2.177  1.00  0.00     0.000 C 
ENDROOT
BRANCH   1   2
ATOM      2  C   UNL     1     -42.664  28.205   0.904  1.00  0.00     0.000 C 
BRANCH   2   3
ATOM      3  C   UNL     1     -43.241  27.592  -0.385  1.00  0.00     0.006 C 
BRANCH   3   4
ATOM      4  C   UNL     1     -44.694  27.994  -0.683  1.00  0.00     0.053 C 
BRANCH   4   5
ATOM      5  C   UNL     1     -45.639  26.843  -0.533  1.00  0.00     0.041 C 
ATOM      6  O   UNL     1     -46.586  26.904   0.295  1.00  0.00    -0.550 OA
ATOM      7  O   UNL     1     -45.455  25.688  -1.283  1.00  0.00    -0.550 OA
ENDBRANCH   4   5
ENDBRANCH   3   4
ENDBRANCH   2   3
ENDBRANCH   1   2
BRANCH   1   8
ATOM      8  C   UNL     1     -43.882  28.668   3.072  1.00  0.00     0.000 C 
BRANCH   8   9
ATOM      9  C   UNL     1     -42.863  29.185   4.098  1.00  0.00    -0.000 C 
BRANCH   9  10
ATOM     10  C   UNL     1     -43.436  29.245   5.523  1.00  0.00    -0.000 C 
BRANCH  10  11
ATOM     11  C   UNL     1     -42.938  28.090   6.409  1.00  0.00    -0.000 C 
BRANCH  11  12
ATOM     12  C   UNL     1     -43.835  26.846   6.313  1.00  0.00    -0.003 C 
ATOM     13  C   UNL     1     -45.323  27.184   6.392  1.00  0.00     0.004 C 
ENDBRANCH  11  12
ENDBRANCH  10  11
ENDBRANCH   9  10
ENDBRANCH   8   9
ENDBRANCH   1   8
TORSDOF 9
ENDMDL
MODEL 7
REMARK VINA RESULT:    -3.369      2.834      6.547
REMARK INTER + INTRA:          -6.021
REMARK INTER:                  -5.592
REMARK INTRA:                  -0.429
REMARK UNBOUND:                -0.880
REMARK SMILES CCCCCCCCCCC(=O)[O-]
REMARK SMILES IDX 7 1 8 2 9 3 10 4 11 5 12 6 13 7 6 8 5 9 4 10 3 11 2 12 1 13
REMARK H PARENT
REMARK Flexibility Score: inf
ROOT
ATOM      1  C   UNL     1     -42.766  27.302   1.215  1.00  0.00     0.000 C 
ENDROOT
BRANCH   1   2
ATOM      2  C   UNL     1     -43.435  27.757  -0.090  1.00  0.00     0.000 C 
BRANCH   2   3
ATOM      3  C   UNL     1     -44.822  27.122  -0.304  1.00  0.00     0.006 C 
BRANCH   3   4
ATOM      4  C   UNL     1     -45.424  27.370  -1.697  1.00  0.00     0.053 C 
BRANCH   4   5
ATOM      5  C   UNL     1     -45.790  26.093  -2.387  1.00  0.00     0.041 C 
ATOM      6  O   UNL     1     -46.168  26.108  -3.588  1.00  0.00    -0.550 OA
ATOM      7  O   UNL     1     -45.748  24.889  -1.695  1.00  0.00    -0.550 OA
ENDBRANCH   4   5
ENDBRANCH   3   4
ENDBRANCH   2   3
ENDBRANCH   1   2
BRANCH   1   8
ATOM      8  C   UNL     1     -43.699  27.514   2.413  1.00  0.00     0.000 C 
BRANCH   8   9
ATOM      9  C   UNL     1     -43.347  28.807   3.163  1.00  0.00    -0.000 C 
BRANCH   9  10
ATOM     10  C   UNL     1     -43.809  28.786   4.629  1.00  0.00    -0.000 C 
BRANCH  10  11
ATOM     11  C   UNL     1     -44.124  27.365   5.128  1.00  0.00    -0.000 C 
BRANCH  11  12
ATOM     12  C   UNL     1     -43.847  27.195   6.630  1.00  0.00    -0.003 C 
ATOM     13  C   UNL     1     -42.682  28.057   7.117  1.00  0.00     0.004 C 
ENDBRANCH  11  12
ENDBRANCH  10  11
ENDBRANCH   9  10
ENDBRANCH   8   9
ENDBRANCH   1   8
TORSDOF 9
ENDMDL
MODEL 8
REMARK VINA RESULT:    -3.342      2.492      4.287
REMARK INTER + INTRA:          -5.981
REMARK INTER:                  -5.156
REMARK INTRA:                  -0.825
REMARK UNBOUND:                -0.880
REMARK SMILES CCCCCCCCCCC(=O)[O-]
REMARK SMILES IDX 7 1 8 2 9 3 10 4 11 5 12 6 13 7 6 8 5 9 4 10 3 11 2 12 1 13
REMARK H PARENT
REMARK Flexibility Score: inf
ROOT
ATOM      1  C   UNL     1     -42.630  29.378   4.246  1.00  0.00     0.000 C 
ENDROOT
BRANCH   1   2
ATOM      2  C   UNL     1     -43.492  29.232   5.509  1.00  0.00     0.000 C 
BRANCH   2   3
ATOM      3  C   UNL     1     -43.129  27.987   6.339  1.00  0.00     0.006 C 
BRANCH   3   4
ATOM      4  C   UNL     1     -44.070  26.790   6.131  1.00  0.00     0.053 C 
BRANCH   4   5
ATOM      5  C   UNL     1     -45.493  27.131   6.448  1.00  0.00     0.041 C 
ATOM      6  O   UNL     1     -45.839  27.361   7.637  1.00  0.00    -0.550 OA
ATOM      7  O   UNL     1     -46.445  27.160   5.437  1.00  0.00    -0.550 OA
ENDBRANCH   4   5
ENDBRANCH   3   4
ENDBRANCH   2   3
ENDBRANCH   1   2
BRANCH   1   8
ATOM      8  C   UNL     1     -43.507  29.519   2.996  1.00  0.00     0.000 C 
BRANCH   8   9
ATOM      9  C   UNL     1     -44.314  28.237   2.743  1.00  0.00    -0.000 C 
BRANCH   9  10
ATOM     10  C   UNL     1     -43.521  27.185   1.952  1.00  0.00    -0.000 C 
BRANCH  10  11
ATOM     11  C   UNL     1     -42.570  27.814   0.920  1.00  0.00    -0.000 C 
BRANCH  11  12
ATOM     12  C   UNL     1     -43.188  27.885  -0.484  1.00  0.00    -0.003 C 
ATOM     13  C   UNL     1     -44.379  26.942  -0.653  1.00  0.00     0.004 C 
ENDBRANCH  11  12
ENDBRANCH  10  11
ENDBRANCH   9  10
ENDBRANCH   8   9
ENDBRANCH   1   8
TORSDOF 9
ENDMDL
MODEL 9
REMARK VINA RESULT:    -3.218      4.404      7.333
REMARK INTER + INTRA:          -5.791
REMARK INTER:                  -5.414
REMARK INTRA:                  -0.377
REMARK UNBOUND:                -0.880
REMARK SMILES CCCCCCCCCCC(=O)[O-]
REMARK SMILES IDX 7 1 8 2 9 3 10 4 11 5 12 6 13 7 6 8 5 9 4 10 3 11 2 12 1 13
REMARK H PARENT
REMARK Flexibility Score: inf
ROOT
ATOM      1  C   UNL     1     -47.125  25.653  -2.754  1.00  0.00     0.000 C 
ENDROOT
BRANCH   1   2
ATOM      2  C   UNL     1     -46.406  26.548  -3.774  1.00  0.00     0.000 C 
BRANCH   2   3
ATOM      3  C   UNL     1     -47.030  26.472  -5.179  1.00  0.00     0.006 C 
BRANCH   3   4
ATOM      4  C   UNL     1     -46.553  27.569  -6.145  1.00  0.00     0.053 C 
BRANCH   4   5
ATOM      5  C   UNL     1     -46.227  27.024  -7.500  1.00  0.00     0.041 C 
ATOM      6  O   UNL     1     -45.459  26.033  -7.616  1.00  0.00    -0.550 OA
ATOM      7  O   UNL     1     -46.743  27.631  -8.638  1.00  0.00    -0.550 OA
ENDBRANCH   4   5
ENDBRANCH   3   4
ENDBRANCH   2   3
ENDBRANCH   1   2
BRANCH   1   8
ATOM      8  C   UNL     1     -46.281  25.478  -1.485  1.00  0.00     0.000 C 
BRANCH   8   9
ATOM      9  C   UNL     1     -45.032  26.372  -1.528  1.00  0.00    -0.000 C 
BRANCH   9  10
ATOM     10  C   UNL     1     -45.001  27.399  -0.384  1.00  0.00    -0.000 C 
BRANCH  10  11
ATOM     11  C   UNL     1     -43.732  27.283   0.479  1.00  0.00    -0.000 C 
BRANCH  11  12
ATOM     12  C   UNL     1     -42.509  27.937  -0.182  1.00  0.00    -0.003 C 
ATOM     13  C   UNL     1     -42.502  29.459  -0.035  1.00  0.00     0.004 C 
ENDBRANCH  11  12
ENDBRANCH  10  11
ENDBRANCH   9  10
ENDBRANCH   8   9
ENDBRANCH   1   8
TORSDOF 9
ENDMDL
