MODEL 1
REMARK VINA RESULT:    -6.626      0.000      0.000
REMARK INTER + INTRA:         -13.535
REMARK INTER:                 -10.887
REMARK INTRA:                  -2.647
REMARK UNBOUND:                -2.647
REMARK SMILES COc1ccc([C@H]2CC(=O)c3c(O)cc(O[C@@H]4O[C@H](CO[C@@H]5O[C@H](C)[C@H](O)[C@H](O)[C@@H]5O)[C@@H](O)[C@@H](O)[C@H]4O)cc3O2)cc1O
REMARK SMILES IDX 19 1 32 2 34 3 36 4 17 5 18 6 20 7 21 8 22 9 25 10 24 11
REMARK SMILES IDX 26 12 23 13 28 14 30 15 27 16 29 18 31 20 33 22 35 24 16 26
REMARK SMILES IDX 15 27 14 28 38 29 12 30 39 31 11 32 40 33 9 34 7 35 10 36
REMARK SMILES IDX 8 37 13 38 6 40 41 41 5 42 42 43 4 44 3 45 43 46 2 48 1 49
REMARK SMILES IDX 37 50
REMARK H PARENT 27 17 29 19 31 21 33 23 35 25 13 39 43 47 37 51
REMARK Flexibility Score: inf
ROOT
ATOM      1  C   UNL     1       6.663  26.408   1.124  1.00  0.00     0.180 C 
ATOM      2  C   UNL     1       5.427  25.366   1.248  1.00  0.00     0.177 C 
ATOM      3  C   UNL     1       5.871  24.059   2.138  1.00  0.00     0.180 C 
ATOM      4  C   UNL     1       7.369  24.224   2.629  1.00  0.00     0.214 C 
ATOM      5  C   UNL     1       8.248  24.695   1.335  1.00  0.00     0.339 C 
ATOM      6  O   UNL     1       7.666  25.584   0.481  1.00  0.00    -0.332 OA
ENDROOT
BRANCH   1   7
ATOM      7  C   UNL     1       7.340  27.457   2.244  1.00  0.00     0.198 C 
BRANCH   7   8
ATOM      8  O   UNL     1       8.446  28.349   1.919  1.00  0.00    -0.347 OA
BRANCH   8   9
ATOM      9  C   UNL     1       8.318  29.184   0.658  1.00  0.00     0.281 C 
ATOM     10  C   UNL     1       5.953  31.805  -0.542  1.00  0.00     0.041 C 
ATOM     11  C   UNL     1       7.004  30.734  -0.661  1.00  0.00     0.150 C 
ATOM     12  C   UNL     1       6.948  29.953  -1.962  1.00  0.00     0.174 C 
ATOM     13  O   UNL     1       7.035  29.847   0.457  1.00  0.00    -0.344 OA
ATOM     14  C   UNL     1       8.117  28.881  -2.018  1.00  0.00     0.179 C 
ATOM     15  C   UNL     1       8.912  28.657  -0.705  1.00  0.00     0.202 C 
BRANCH  12  16
ATOM     16  O   UNL     1       5.669  29.328  -2.237  1.00  0.00    -0.388 OA
ATOM     17  H   UNL     1       5.625  29.581  -3.179  1.00  0.00     0.211 HD
ENDBRANCH  12  16
BRANCH  14  18
ATOM     18  O   UNL     1       7.683  27.705  -2.693  1.00  0.00    -0.387 OA
ATOM     19  H   UNL     1       6.765  27.375  -2.328  1.00  0.00     0.211 HD
ENDBRANCH  14  18
BRANCH  15  20
ATOM     20  O   UNL     1       9.625  27.438  -0.678  1.00  0.00    -0.385 OA
ATOM     21  H   UNL     1       9.294  26.836  -1.432  1.00  0.00     0.211 HD
ENDBRANCH  15  20
ENDBRANCH   8   9
ENDBRANCH   7   8
ENDBRANCH   1   7
BRANCH   2  22
ATOM     22  O   UNL     1       4.889  25.065  -0.033  1.00  0.00    -0.387 OA
ATOM     23  H   UNL     1       4.547  25.919  -0.435  1.00  0.00     0.211 HD
ENDBRANCH   2  22
BRANCH   3  24
ATOM     24  O   UNL     1       5.826  22.883   1.395  1.00  0.00    -0.387 OA
ATOM     25  H   UNL     1       5.005  22.448   1.702  1.00  0.00     0.211 HD
ENDBRANCH   3  24
BRANCH   5  26
ATOM     26  O   UNL     1       9.465  25.333   1.815  1.00  0.00    -0.462 OA
BRANCH  26  27
ATOM     27  C   UNL     1      10.748  25.000   1.338  1.00  0.00     0.130 A 
ATOM     28  C   UNL     1      10.958  24.256   0.132  1.00  0.00     0.093 A 
ATOM     29  C   UNL     1      11.828  25.805   1.803  1.00  0.00     0.094 A 
ATOM     30  C   UNL     1      11.794  24.759  -0.829  1.00  0.00     0.133 A 
ATOM     31  C   UNL     1      12.882  26.041   0.909  1.00  0.00     0.138 A 
ATOM     32  C   UNL     1      12.719  25.755  -0.409  1.00  0.00     0.102 A 
ATOM     33  O   UNL     1      14.090  26.640   1.315  1.00  0.00    -0.484 OA
ATOM     34  C   UNL     1      13.370  26.683  -1.350  1.00  0.00     0.174 C 
ATOM     35  C   UNL     1      14.954  27.355   0.397  1.00  0.00     0.211 C 
ATOM     36  O   UNL     1      12.668  27.685  -1.703  1.00  0.00    -0.294 OA
ATOM     37  C   UNL     1      14.817  26.967  -1.067  1.00  0.00     0.131 C 
BRANCH  30  38
ATOM     38  O   UNL     1      11.883  24.309  -2.187  1.00  0.00    -0.507 OA
ATOM     39  H   UNL     1      11.968  23.308  -2.348  1.00  0.00     0.293 HD
ENDBRANCH  30  38
BRANCH  35  40
ATOM     40  C   UNL     1      16.387  27.308   0.748  1.00  0.00    -0.003 A 
ATOM     41  C   UNL     1      16.753  26.249   1.615  1.00  0.00     0.057 A 
ATOM     42  C   UNL     1      17.322  28.344   0.543  1.00  0.00     0.011 A 
ATOM     43  C   UNL     1      18.021  26.255   2.243  1.00  0.00     0.158 A 
ATOM     44  C   UNL     1      18.516  28.375   1.279  1.00  0.00     0.051 A 
ATOM     45  C   UNL     1      18.906  27.359   2.125  1.00  0.00     0.160 A 
BRANCH  43  46
ATOM     46  O   UNL     1      18.445  25.183   3.050  1.00  0.00    -0.504 OA
ATOM     47  H   UNL     1      18.154  25.075   4.015  1.00  0.00     0.293 HD
ENDBRANCH  43  46
BRANCH  45  48
ATOM     48  O   UNL     1      20.142  27.299   2.848  1.00  0.00    -0.493 OA
ATOM     49  C   UNL     1      20.977  28.443   3.195  1.00  0.00     0.278 C 
ENDBRANCH  45  48
ENDBRANCH  35  40
ENDBRANCH  26  27
ENDBRANCH   5  26
BRANCH   4  50
ATOM     50  O   UNL     1       8.050  23.136   3.292  1.00  0.00    -0.384 OA
ATOM     51  H   UNL     1       9.065  23.216   3.259  1.00  0.00     0.211 HD
ENDBRANCH   4  50
TORSDOF 15
ENDMDL
MODEL 2
REMARK VINA RESULT:    -6.451      2.826     10.192
REMARK INTER + INTRA:         -13.247
REMARK INTER:                 -11.298
REMARK INTRA:                  -1.950
REMARK UNBOUND:                -2.647
REMARK SMILES COc1ccc([C@H]2CC(=O)c3c(O)cc(O[C@@H]4O[C@H](CO[C@@H]5O[C@H](C)[C@H](O)[C@H](O)[C@@H]5O)[C@@H](O)[C@@H](O)[C@H]4O)cc3O2)cc1O
REMARK SMILES IDX 19 1 32 2 34 3 36 4 17 5 18 6 20 7 21 8 22 9 25 10 24 11
REMARK SMILES IDX 26 12 23 13 28 14 30 15 27 16 29 18 31 20 33 22 35 24 16 26
REMARK SMILES IDX 15 27 14 28 38 29 12 30 39 31 11 32 40 33 9 34 7 35 10 36
REMARK SMILES IDX 8 37 13 38 6 40 41 41 5 42 42 43 4 44 3 45 43 46 2 48 1 49
REMARK SMILES IDX 37 50
REMARK H PARENT 27 17 29 19 31 21 33 23 35 25 13 39 43 47 37 51
REMARK Flexibility Score: inf
ROOT
ATOM      1  C   UNL     1      16.375  24.494   3.851  1.00  0.00     0.180 C 
ATOM      2  C   UNL     1      16.178  24.331   5.452  1.00  0.00     0.177 C 
ATOM      3  C   UNL     1      14.617  24.634   5.866  1.00  0.00     0.180 C 
ATOM      4  C   UNL     1      13.770  24.970   4.570  1.00  0.00     0.214 C 
ATOM      5  C   UNL     1      14.632  26.051   3.701  1.00  0.00     0.339 C 
ATOM      6  O   UNL     1      15.982  25.874   3.655  1.00  0.00    -0.332 OA
ENDROOT
BRANCH   1   7
ATOM      7  C   UNL     1      15.894  23.519   2.574  1.00  0.00     0.198 C 
BRANCH   7   8
ATOM      8  O   UNL     1      16.751  23.242   1.429  1.00  0.00    -0.347 OA
BRANCH   8   9
ATOM      9  C   UNL     1      18.037  24.040   1.313  1.00  0.00     0.281 C 
ATOM     10  C   UNL     1      21.425  23.827   2.856  1.00  0.00     0.041 C 
ATOM     11  C   UNL     1      20.272  24.478   2.140  1.00  0.00     0.150 C 
ATOM     12  C   UNL     1      20.142  25.968   2.400  1.00  0.00     0.174 C 
ATOM     13  O   UNL     1      19.024  23.819   2.362  1.00  0.00    -0.344 OA
ATOM     14  C   UNL     1      18.933  26.575   1.570  1.00  0.00     0.179 C 
ATOM     15  C   UNL     1      17.991  25.556   0.877  1.00  0.00     0.202 C 
BRANCH  12  16
ATOM     16  O   UNL     1      20.034  26.331   3.799  1.00  0.00    -0.388 OA
ATOM     17  H   UNL     1      19.796  27.266   3.651  1.00  0.00     0.211 HD
ENDBRANCH  12  16
BRANCH  14  18
ATOM     18  O   UNL     1      18.295  27.614   2.307  1.00  0.00    -0.387 OA
ATOM     19  H   UNL     1      17.370  27.857   1.897  1.00  0.00     0.211 HD
ENDBRANCH  14  18
BRANCH  15  20
ATOM     20  O   UNL     1      16.733  26.097   0.528  1.00  0.00    -0.385 OA
ATOM     21  H   UNL     1      15.999  25.593   1.024  1.00  0.00     0.211 HD
ENDBRANCH  15  20
ENDBRANCH   8   9
ENDBRANCH   7   8
ENDBRANCH   1   7
BRANCH   2  22
ATOM     22  O   UNL     1      17.145  25.094   6.161  1.00  0.00    -0.387 OA
ATOM     23  H   UNL     1      18.036  24.952   5.720  1.00  0.00     0.211 HD
ENDBRANCH   2  22
BRANCH   3  24
ATOM     24  O   UNL     1      14.507  25.738   6.707  1.00  0.00    -0.387 OA
ATOM     25  H   UNL     1      15.424  26.075   6.766  1.00  0.00     0.211 HD
ENDBRANCH   3  24
BRANCH   5  26
ATOM     26  O   UNL     1      14.170  26.004   2.321  1.00  0.00    -0.462 OA
BRANCH  26  27
ATOM     27  C   UNL     1      13.506  27.076   1.695  1.00  0.00     0.130 A 
ATOM     28  C   UNL     1      14.090  27.835   0.630  1.00  0.00     0.093 A 
ATOM     29  C   UNL     1      12.085  27.095   1.804  1.00  0.00     0.094 A 
ATOM     30  C   UNL     1      13.396  27.993  -0.541  1.00  0.00     0.133 A 
ATOM     31  C   UNL     1      11.365  27.594   0.710  1.00  0.00     0.138 A 
ATOM     32  C   UNL     1      11.992  27.767  -0.483  1.00  0.00     0.102 A 
ATOM     33  O   UNL     1       9.983  27.856   0.777  1.00  0.00    -0.484 OA
ATOM     34  C   UNL     1      11.184  27.476  -1.679  1.00  0.00     0.174 C 
ATOM     35  C   UNL     1       9.131  27.863  -0.395  1.00  0.00     0.211 C 
ATOM     36  O   UNL     1      11.219  26.269  -2.081  1.00  0.00    -0.294 OA
ATOM     37  C   UNL     1       9.837  28.138  -1.714  1.00  0.00     0.131 C 
BRANCH  30  38
ATOM     38  O   UNL     1      13.938  28.452  -1.785  1.00  0.00    -0.507 OA
ATOM     39  H   UNL     1      13.323  28.452  -2.597  1.00  0.00     0.293 HD
ENDBRANCH  30  38
BRANCH  35  40
ATOM     40  C   UNL     1       7.973  28.774  -0.301  1.00  0.00    -0.003 A 
ATOM     41  C   UNL     1       7.266  28.964  -1.513  1.00  0.00     0.057 A 
ATOM     42  C   UNL     1       7.702  29.656   0.766  1.00  0.00     0.011 A 
ATOM     43  C   UNL     1       6.321  30.011  -1.624  1.00  0.00     0.158 A 
ATOM     44  C   UNL     1       6.850  30.755   0.575  1.00  0.00     0.051 A 
ATOM     45  C   UNL     1       6.141  30.966  -0.588  1.00  0.00     0.160 A 
BRANCH  43  46
ATOM     46  O   UNL     1       5.547  30.182  -2.787  1.00  0.00    -0.504 OA
ATOM     47  H   UNL     1       5.640  29.584  -3.600  1.00  0.00     0.293 HD
ENDBRANCH  43  46
BRANCH  45  48
ATOM     48  O   UNL     1       5.206  32.028  -0.819  1.00  0.00    -0.493 OA
ATOM     49  C   UNL     1       5.527  33.329  -1.393  1.00  0.00     0.278 C 
ENDBRANCH  45  48
ENDBRANCH  35  40
ENDBRANCH  26  27
ENDBRANCH   5  26
BRANCH   4  50
ATOM     50  O   UNL     1      12.406  25.433   4.682  1.00  0.00    -0.384 OA
ATOM     51  H   UNL     1      11.747  24.881   4.136  1.00  0.00     0.211 HD
ENDBRANCH   4  50
TORSDOF 15
ENDMDL
MODEL 3
REMARK VINA RESULT:    -6.288      2.334      9.313
REMARK INTER + INTRA:         -12.979
REMARK INTER:                 -10.648
REMARK INTRA:                  -2.332
REMARK UNBOUND:                -2.647
REMARK SMILES COc1ccc([C@H]2CC(=O)c3c(O)cc(O[C@@H]4O[C@H](CO[C@@H]5O[C@H](C)[C@H](O)[C@H](O)[C@@H]5O)[C@@H](O)[C@@H](O)[C@H]4O)cc3O2)cc1O
REMARK SMILES IDX 19 1 32 2 34 3 36 4 17 5 18 6 20 7 21 8 22 9 25 10 24 11
REMARK SMILES IDX 26 12 23 13 28 14 30 15 27 16 29 18 31 20 33 22 35 24 16 26
REMARK SMILES IDX 15 27 14 28 38 29 12 30 39 31 11 32 40 33 9 34 7 35 10 36
REMARK SMILES IDX 8 37 13 38 6 40 41 41 5 42 42 43 4 44 3 45 43 46 2 48 1 49
REMARK SMILES IDX 37 50
REMARK H PARENT 27 17 29 19 31 21 33 23 35 25 13 39 43 47 37 51
REMARK Flexibility Score: inf
ROOT
ATOM      1  C   UNL     1      14.303  24.679   4.303  1.00  0.00     0.180 C 
ATOM      2  C   UNL     1      13.548  24.698   5.739  1.00  0.00     0.177 C 
ATOM      3  C   UNL     1      11.921  24.773   5.525  1.00  0.00     0.180 C 
ATOM      4  C   UNL     1      11.580  24.779   3.978  1.00  0.00     0.214 C 
ATOM      5  C   UNL     1      12.568  25.871   3.273  1.00  0.00     0.339 C 
ATOM      6  O   UNL     1      13.851  25.931   3.729  1.00  0.00    -0.332 OA
ENDROOT
BRANCH   1   7
ATOM      7  C   UNL     1      14.443  23.475   3.145  1.00  0.00     0.198 C 
BRANCH   7   8
ATOM      8  O   UNL     1      15.717  23.115   2.535  1.00  0.00    -0.347 OA
BRANCH   8   9
ATOM      9  C   UNL     1      16.494  24.220   1.844  1.00  0.00     0.281 C 
ATOM     10  C   UNL     1      19.151  26.623   2.880  1.00  0.00     0.041 C 
ATOM     11  C   UNL     1      18.032  26.084   2.030  1.00  0.00     0.150 C 
ATOM     12  C   UNL     1      17.190  27.154   1.359  1.00  0.00     0.174 C 
ATOM     13  O   UNL     1      17.200  25.149   2.718  1.00  0.00    -0.344 OA
ATOM     14  C   UNL     1      16.069  26.494   0.450  1.00  0.00     0.179 C 
ATOM     15  C   UNL     1      15.877  24.962   0.596  1.00  0.00     0.202 C 
BRANCH  12  16
ATOM     16  O   UNL     1      16.607  28.122   2.267  1.00  0.00    -0.388 OA
ATOM     17  H   UNL     1      16.274  27.475   2.917  1.00  0.00     0.211 HD
ENDBRANCH  12  16
BRANCH  14  18
ATOM     18  O   UNL     1      14.881  27.278   0.477  1.00  0.00    -0.387 OA
ATOM     19  H   UNL     1      15.086  28.270   0.720  1.00  0.00     0.211 HD
ENDBRANCH  14  18
BRANCH  15  20
ATOM     20  O   UNL     1      14.631  24.501   0.114  1.00  0.00    -0.385 OA
ATOM     21  H   UNL     1      14.221  23.862   0.794  1.00  0.00     0.211 HD
ENDBRANCH  15  20
ENDBRANCH   8   9
ENDBRANCH   7   8
ENDBRANCH   1   7
BRANCH   2  22
ATOM     22  O   UNL     1      14.090  25.706   6.581  1.00  0.00    -0.387 OA
ATOM     23  H   UNL     1      14.900  25.327   7.038  1.00  0.00     0.211 HD
ENDBRANCH   2  22
BRANCH   3  24
ATOM     24  O   UNL     1      11.381  25.941   6.055  1.00  0.00    -0.387 OA
ATOM     25  H   UNL     1      11.838  26.651   5.560  1.00  0.00     0.211 HD
ENDBRANCH   3  24
BRANCH   5  26
ATOM     26  O   UNL     1      12.657  25.561   1.854  1.00  0.00    -0.462 OA
BRANCH  26  27
ATOM     27  C   UNL     1      11.658  25.911   0.926  1.00  0.00     0.130 A 
ATOM     28  C   UNL     1      10.992  24.948   0.102  1.00  0.00     0.093 A 
ATOM     29  C   UNL     1      10.989  27.150   1.149  1.00  0.00     0.094 A 
ATOM     30  C   UNL     1       9.622  24.905   0.092  1.00  0.00     0.133 A 
ATOM     31  C   UNL     1       9.631  27.216   0.806  1.00  0.00     0.138 A 
ATOM     32  C   UNL     1       8.947  26.070   0.555  1.00  0.00     0.102 A 
ATOM     33  O   UNL     1       8.921  28.432   0.784  1.00  0.00    -0.484 OA
ATOM     34  C   UNL     1       7.546  26.049   1.007  1.00  0.00     0.174 C 
ATOM     35  C   UNL     1       7.483  28.499   0.950  1.00  0.00     0.211 C 
ATOM     36  O   UNL     1       7.363  25.641   2.199  1.00  0.00    -0.294 OA
ATOM     37  C   UNL     1       6.723  27.233   0.588  1.00  0.00     0.131 C 
BRANCH  30  38
ATOM     38  O   UNL     1       8.816  23.840  -0.425  1.00  0.00    -0.507 OA
ATOM     39  H   UNL     1       7.809  23.902  -0.294  1.00  0.00     0.293 HD
ENDBRANCH  30  38
BRANCH  35  40
ATOM     40  C   UNL     1       6.842  29.630   0.250  1.00  0.00    -0.003 A 
ATOM     41  C   UNL     1       6.105  29.274  -0.906  1.00  0.00     0.057 A 
ATOM     42  C   UNL     1       7.129  30.996   0.453  1.00  0.00     0.011 A 
ATOM     43  C   UNL     1       5.682  30.275  -1.811  1.00  0.00     0.158 A 
ATOM     44  C   UNL     1       6.799  31.942  -0.529  1.00  0.00     0.051 A 
ATOM     45  C   UNL     1       6.077  31.631  -1.662  1.00  0.00     0.160 A 
BRANCH  43  46
ATOM     46  O   UNL     1       4.885  29.965  -2.929  1.00  0.00    -0.504 OA
ATOM     47  H   UNL     1       4.920  29.065  -3.395  1.00  0.00     0.293 HD
ENDBRANCH  43  46
BRANCH  45  48
ATOM     48  O   UNL     1       5.650  32.561  -2.665  1.00  0.00    -0.493 OA
ATOM     49  C   UNL     1       5.246  33.941  -2.423  1.00  0.00     0.278 C 
ENDBRANCH  45  48
ENDBRANCH  35  40
ENDBRANCH  26  27
ENDBRANCH   5  26
BRANCH   4  50
ATOM     50  O   UNL     1      10.226  25.005   3.525  1.00  0.00    -0.384 OA
ATOM     51  H   UNL     1       9.594  24.238   3.744  1.00  0.00     0.211 HD
ENDBRANCH   4  50
TORSDOF 15
ENDMDL
MODEL 4
REMARK VINA RESULT:    -6.258      3.230      6.196
REMARK INTER + INTRA:         -12.930
REMARK INTER:                 -11.133
REMARK INTRA:                  -1.797
REMARK UNBOUND:                -2.647
REMARK SMILES COc1ccc([C@H]2CC(=O)c3c(O)cc(O[C@@H]4O[C@H](CO[C@@H]5O[C@H](C)[C@H](O)[C@H](O)[C@@H]5O)[C@@H](O)[C@@H](O)[C@H]4O)cc3O2)cc1O
REMARK SMILES IDX 19 1 32 2 34 3 36 4 17 5 18 6 20 7 21 8 22 9 25 10 24 11
REMARK SMILES IDX 26 12 23 13 28 14 30 15 27 16 29 18 31 20 33 22 35 24 16 26
REMARK SMILES IDX 15 27 14 28 38 29 12 30 39 31 11 32 40 33 9 34 7 35 10 36
REMARK SMILES IDX 8 37 13 38 6 40 41 41 5 42 42 43 4 44 3 45 43 46 2 48 1 49
REMARK SMILES IDX 37 50
REMARK H PARENT 27 17 29 19 31 21 33 23 35 25 13 39 43 47 37 51
REMARK Flexibility Score: inf
ROOT
ATOM      1  C   UNL     1      10.763  26.119   0.855  1.00  0.00     0.180 C 
ATOM      2  C   UNL     1      10.754  27.740   0.898  1.00  0.00     0.177 C 
ATOM      3  C   UNL     1      12.261  28.325   0.607  1.00  0.00     0.180 C 
ATOM      4  C   UNL     1      13.264  27.126   0.347  1.00  0.00     0.214 C 
ATOM      5  C   UNL     1      13.006  26.022   1.523  1.00  0.00     0.339 C 
ATOM      6  O   UNL     1      11.715  25.812   1.903  1.00  0.00    -0.332 OA
ENDROOT
BRANCH   1   7
ATOM      7  C   UNL     1      10.882  25.049  -0.431  1.00  0.00     0.198 C 
BRANCH   7   8
ATOM      8  O   UNL     1      10.140  23.796  -0.483  1.00  0.00    -0.347 OA
BRANCH   8   9
ATOM      9  C   UNL     1       8.955  23.650   0.455  1.00  0.00     0.281 C 
ATOM     10  C   UNL     1       5.492  25.027   0.568  1.00  0.00     0.041 C 
ATOM     11  C   UNL     1       6.743  24.388   1.110  1.00  0.00     0.150 C 
ATOM     12  C   UNL     1       7.020  24.706   2.569  1.00  0.00     0.174 C 
ATOM     13  O   UNL     1       7.899  24.643   0.312  1.00  0.00    -0.344 OA
ATOM     14  C   UNL     1       8.327  23.955   3.064  1.00  0.00     0.179 C 
ATOM     15  C   UNL     1       9.187  23.271   1.969  1.00  0.00     0.202 C 
BRANCH  12  16
ATOM     16  O   UNL     1       7.096  26.121   2.875  1.00  0.00    -0.388 OA
ATOM     17  H   UNL     1       6.240  26.366   2.475  1.00  0.00     0.211 HD
ENDBRANCH  12  16
BRANCH  14  18
ATOM     18  O   UNL     1       9.036  24.757   4.003  1.00  0.00    -0.387 OA
ATOM     19  H   UNL     1       8.426  25.499   4.406  1.00  0.00     0.211 HD
ENDBRANCH  14  18
BRANCH  15  20
ATOM     20  O   UNL     1      10.511  22.999   2.379  1.00  0.00    -0.385 OA
ATOM     21  H   UNL     1      10.516  22.173   2.977  1.00  0.00     0.211 HD
ENDBRANCH  15  20
ENDBRANCH   8   9
ENDBRANCH   7   8
ENDBRANCH   1   7
BRANCH   2  22
ATOM     22  O   UNL     1      10.148  28.211   2.094  1.00  0.00    -0.387 OA
ATOM     23  H   UNL     1       9.589  29.013   1.864  1.00  0.00     0.211 HD
ENDBRANCH   2  22
BRANCH   3  24
ATOM     24  O   UNL     1      12.764  29.032   1.695  1.00  0.00    -0.387 OA
ATOM     25  H   UNL     1      12.835  28.354   2.398  1.00  0.00     0.211 HD
ENDBRANCH   3  24
BRANCH   5  26
ATOM     26  O   UNL     1      13.506  24.735   1.061  1.00  0.00    -0.462 OA
BRANCH  26  27
ATOM     27  C   UNL     1      14.813  24.280   1.320  1.00  0.00     0.130 A 
ATOM     28  C   UNL     1      15.826  24.214   0.310  1.00  0.00     0.093 A 
ATOM     29  C   UNL     1      15.248  24.334   2.676  1.00  0.00     0.094 A 
ATOM     30  C   UNL     1      17.035  24.819   0.532  1.00  0.00     0.133 A 
ATOM     31  C   UNL     1      16.602  24.620   2.903  1.00  0.00     0.138 A 
ATOM     32  C   UNL     1      17.365  25.101   1.887  1.00  0.00     0.102 A 
ATOM     33  O   UNL     1      17.192  24.497   4.176  1.00  0.00    -0.484 OA
ATOM     34  C   UNL     1      18.382  26.097   2.267  1.00  0.00     0.174 C 
ATOM     35  C   UNL     1      18.374  25.240   4.565  1.00  0.00     0.211 C 
ATOM     36  O   UNL     1      17.990  27.308   2.258  1.00  0.00    -0.294 OA
ATOM     37  C   UNL     1      19.261  25.703   3.419  1.00  0.00     0.131 C 
BRANCH  30  38
ATOM     38  O   UNL     1      18.029  25.104  -0.460  1.00  0.00    -0.507 OA
ATOM     39  H   UNL     1      18.385  26.056  -0.512  1.00  0.00     0.293 HD
ENDBRANCH  30  38
BRANCH  35  40
ATOM     40  C   UNL     1      19.229  24.552   5.552  1.00  0.00    -0.003 A 
ATOM     41  C   UNL     1      18.928  24.844   6.905  1.00  0.00     0.057 A 
ATOM     42  C   UNL     1      20.446  23.895   5.274  1.00  0.00     0.011 A 
ATOM     43  C   UNL     1      19.836  24.477   7.926  1.00  0.00     0.158 A 
ATOM     44  C   UNL     1      21.372  23.659   6.301  1.00  0.00     0.051 A 
ATOM     45  C   UNL     1      21.110  23.924   7.629  1.00  0.00     0.160 A 
BRANCH  43  46
ATOM     46  O   UNL     1      19.535  24.684   9.286  1.00  0.00    -0.504 OA
ATOM     47  H   UNL     1      19.979  25.407   9.841  1.00  0.00     0.293 HD
ENDBRANCH  43  46
BRANCH  45  48
ATOM     48  O   UNL     1      21.985  23.642   8.729  1.00  0.00    -0.493 OA
ATOM     49  C   UNL     1      23.319  24.198   8.912  1.00  0.00     0.278 C 
ENDBRANCH  45  48
ENDBRANCH  35  40
ENDBRANCH  26  27
ENDBRANCH   5  26
BRANCH   4  50
ATOM     50  O   UNL     1      14.684  27.368   0.230  1.00  0.00    -0.384 OA
ATOM     51  H   UNL     1      15.251  26.548   0.439  1.00  0.00     0.211 HD
ENDBRANCH   4  50
TORSDOF 15
ENDMDL
MODEL 5
REMARK VINA RESULT:    -6.236      2.971      4.684
REMARK INTER + INTRA:         -12.894
REMARK INTER:                 -11.078
REMARK INTRA:                  -1.816
REMARK UNBOUND:                -2.647
REMARK SMILES COc1ccc([C@H]2CC(=O)c3c(O)cc(O[C@@H]4O[C@H](CO[C@@H]5O[C@H](C)[C@H](O)[C@H](O)[C@@H]5O)[C@@H](O)[C@@H](O)[C@H]4O)cc3O2)cc1O
REMARK SMILES IDX 19 1 32 2 34 3 36 4 17 5 18 6 20 7 21 8 22 9 25 10 24 11
REMARK SMILES IDX 26 12 23 13 28 14 30 15 27 16 29 18 31 20 33 22 35 24 16 26
REMARK SMILES IDX 15 27 14 28 38 29 12 30 39 31 11 32 40 33 9 34 7 35 10 36
REMARK SMILES IDX 8 37 13 38 6 40 41 41 5 42 42 43 4 44 3 45 43 46 2 48 1 49
REMARK SMILES IDX 37 50
REMARK H PARENT 27 17 29 19 31 21 33 23 35 25 13 39 43 47 37 51
REMARK Flexibility Score: inf
ROOT
ATOM      1  C   UNL     1       9.709  25.153   0.300  1.00  0.00     0.180 C 
ATOM      2  C   UNL     1       8.941  26.016   1.437  1.00  0.00     0.177 C 
ATOM      3  C   UNL     1       9.989  27.045   2.174  1.00  0.00     0.180 C 
ATOM      4  C   UNL     1      11.430  26.900   1.531  1.00  0.00     0.214 C 
ATOM      5  C   UNL     1      11.753  25.303   1.435  1.00  0.00     0.339 C 
ATOM      6  O   UNL     1      10.723  24.481   1.088  1.00  0.00    -0.332 OA
ENDROOT
BRANCH   1   7
ATOM      7  C   UNL     1      10.282  25.585  -1.216  1.00  0.00     0.198 C 
BRANCH   7   8
ATOM      8  O   UNL     1       9.407  25.746  -2.371  1.00  0.00    -0.347 OA
BRANCH   8   9
ATOM      9  C   UNL     1       8.219  26.678  -2.219  1.00  0.00     0.281 C 
ATOM     10  C   UNL     1       7.791  30.336  -1.639  1.00  0.00     0.041 C 
ATOM     11  C   UNL     1       7.390  28.886  -1.663  1.00  0.00     0.150 C 
ATOM     12  C   UNL     1       6.389  28.501  -0.588  1.00  0.00     0.174 C 
ATOM     13  O   UNL     1       8.503  27.992  -1.656  1.00  0.00    -0.344 OA
ATOM     14  C   UNL     1       5.992  26.970  -0.720  1.00  0.00     0.179 C 
ATOM     15  C   UNL     1       6.835  26.120  -1.705  1.00  0.00     0.202 C 
BRANCH  12  16
ATOM     16  O   UNL     1       6.809  28.804   0.766  1.00  0.00    -0.388 OA
ATOM     17  H   UNL     1       6.208  29.562   0.899  1.00  0.00     0.211 HD
ENDBRANCH  12  16
BRANCH  14  18
ATOM     18  O   UNL     1       5.772  26.400   0.567  1.00  0.00    -0.387 OA
ATOM     19  H   UNL     1       4.878  26.733   0.982  1.00  0.00     0.211 HD
ENDBRANCH  14  18
BRANCH  15  20
ATOM     20  O   UNL     1       6.736  24.729  -1.479  1.00  0.00    -0.385 OA
ATOM     21  H   UNL     1       6.281  24.289  -2.278  1.00  0.00     0.211 HD
ENDBRANCH  15  20
ENDBRANCH   8   9
ENDBRANCH   7   8
ENDBRANCH   1   7
BRANCH   2  22
ATOM     22  O   UNL     1       8.219  25.164   2.317  1.00  0.00    -0.387 OA
ATOM     23  H   UNL     1       7.425  25.674   2.661  1.00  0.00     0.211 HD
ENDBRANCH   2  22
BRANCH   3  24
ATOM     24  O   UNL     1      10.130  26.761   3.530  1.00  0.00    -0.387 OA
ATOM     25  H   UNL     1      10.967  26.255   3.572  1.00  0.00     0.211 HD
ENDBRANCH   3  24
BRANCH   5  26
ATOM     26  O   UNL     1      12.786  25.103   0.428  1.00  0.00    -0.462 OA
BRANCH  26  27
ATOM     27  C   UNL     1      14.058  24.576   0.725  1.00  0.00     0.130 A 
ATOM     28  C   UNL     1      15.076  24.401  -0.267  1.00  0.00     0.093 A 
ATOM     29  C   UNL     1      14.480  24.663   2.083  1.00  0.00     0.094 A 
ATOM     30  C   UNL     1      16.319  24.935  -0.054  1.00  0.00     0.133 A 
ATOM     31  C   UNL     1      15.847  24.869   2.317  1.00  0.00     0.138 A 
ATOM     32  C   UNL     1      16.651  25.255   1.292  1.00  0.00     0.102 A 
ATOM     33  O   UNL     1      16.413  24.765   3.602  1.00  0.00    -0.484 OA
ATOM     34  C   UNL     1      17.726  26.199   1.643  1.00  0.00     0.174 C 
ATOM     35  C   UNL     1      17.636  25.447   3.975  1.00  0.00     0.211 C 
ATOM     36  O   UNL     1      17.414  27.431   1.575  1.00  0.00    -0.294 OA
ATOM     37  C   UNL     1      18.565  25.800   2.823  1.00  0.00     0.131 C 
BRANCH  30  38
ATOM     38  O   UNL     1      17.340  25.112  -1.044  1.00  0.00    -0.507 OA
ATOM     39  H   UNL     1      17.118  24.856  -2.003  1.00  0.00     0.293 HD
ENDBRANCH  30  38
BRANCH  35  40
ATOM     40  C   UNL     1      18.434  24.749   5.003  1.00  0.00    -0.003 A 
ATOM     41  C   UNL     1      18.238  25.217   6.326  1.00  0.00     0.057 A 
ATOM     42  C   UNL     1      19.535  23.902   4.759  1.00  0.00     0.011 A 
ATOM     43  C   UNL     1      19.133  24.831   7.352  1.00  0.00     0.158 A 
ATOM     44  C   UNL     1      20.467  23.644   5.776  1.00  0.00     0.051 A 
ATOM     45  C   UNL     1      20.304  24.077   7.076  1.00  0.00     0.160 A 
BRANCH  43  46
ATOM     46  O   UNL     1      18.926  25.215   8.690  1.00  0.00    -0.504 OA
ATOM     47  H   UNL     1      19.685  25.476   9.309  1.00  0.00     0.293 HD
ENDBRANCH  43  46
BRANCH  45  48
ATOM     48  O   UNL     1      21.181  23.788   8.171  1.00  0.00    -0.493 OA
ATOM     49  C   UNL     1      22.602  24.111   8.226  1.00  0.00     0.278 C 
ENDBRANCH  45  48
ENDBRANCH  35  40
ENDBRANCH  26  27
ENDBRANCH   5  26
BRANCH   4  50
ATOM     50  O   UNL     1      12.566  27.578   2.112  1.00  0.00    -0.384 OA
ATOM     51  H   UNL     1      13.460  27.186   1.823  1.00  0.00     0.211 HD
ENDBRANCH   4  50
TORSDOF 15
ENDMDL
MODEL 6
REMARK VINA RESULT:    -6.230      2.098      4.778
REMARK INTER + INTRA:         -12.883
REMARK INTER:                 -10.662
REMARK INTRA:                  -2.221
REMARK UNBOUND:                -2.647
REMARK SMILES COc1ccc([C@H]2CC(=O)c3c(O)cc(O[C@@H]4O[C@H](CO[C@@H]5O[C@H](C)[C@H](O)[C@H](O)[C@@H]5O)[C@@H](O)[C@@H](O)[C@H]4O)cc3O2)cc1O
REMARK SMILES IDX 19 1 32 2 34 3 36 4 17 5 18 6 20 7 21 8 22 9 25 10 24 11
REMARK SMILES IDX 26 12 23 13 28 14 30 15 27 16 29 18 31 20 33 22 35 24 16 26
REMARK SMILES IDX 15 27 14 28 38 29 12 30 39 31 11 32 40 33 9 34 7 35 10 36
REMARK SMILES IDX 8 37 13 38 6 40 41 41 5 42 42 43 4 44 3 45 43 46 2 48 1 49
REMARK SMILES IDX 37 50
REMARK H PARENT 27 17 29 19 31 21 33 23 35 25 13 39 43 47 37 51
REMARK Flexibility Score: inf
ROOT
ATOM      1  C   UNL     1       7.976  28.931   1.007  1.00  0.00     0.180 C 
ATOM      2  C   UNL     1       6.810  29.776   0.262  1.00  0.00     0.177 C 
ATOM      3  C   UNL     1       6.083  28.852  -0.886  1.00  0.00     0.180 C 
ATOM      4  C   UNL     1       6.726  27.404  -0.900  1.00  0.00     0.214 C 
ATOM      5  C   UNL     1       8.347  27.598  -0.884  1.00  0.00     0.339 C 
ATOM      6  O   UNL     1       8.843  28.601  -0.105  1.00  0.00    -0.332 OA
ENDROOT
BRANCH   1   7
ATOM      7  C   UNL     1       7.892  27.684   2.126  1.00  0.00     0.198 C 
BRANCH   7   8
ATOM      8  O   UNL     1       6.839  26.676   2.105  1.00  0.00    -0.347 OA
BRANCH   8   9
ATOM      9  C   UNL     1       7.230  25.254   2.460  1.00  0.00     0.281 C 
ATOM     10  C   UNL     1       9.725  23.697   4.753  1.00  0.00     0.041 C 
ATOM     11  C   UNL     1       8.765  23.762   3.595  1.00  0.00     0.150 C 
ATOM     12  C   UNL     1       9.146  22.875   2.423  1.00  0.00     0.174 C 
ATOM     13  O   UNL     1       8.503  25.094   3.153  1.00  0.00    -0.344 OA
ATOM     14  C   UNL     1       8.056  22.973   1.273  1.00  0.00     0.179 C 
ATOM     15  C   UNL     1       6.986  24.084   1.430  1.00  0.00     0.202 C 
BRANCH  12  16
ATOM     16  O   UNL     1      10.473  23.114   1.890  1.00  0.00    -0.388 OA
ATOM     17  H   UNL     1      10.894  22.329   2.289  1.00  0.00     0.211 HD
ENDBRANCH  12  16
BRANCH  14  18
ATOM     18  O   UNL     1       8.673  22.875  -0.007  1.00  0.00    -0.387 OA
ATOM     19  H   UNL     1       9.711  22.911   0.068  1.00  0.00     0.211 HD
ENDBRANCH  14  18
BRANCH  15  20
ATOM     20  O   UNL     1       6.325  24.405   0.223  1.00  0.00    -0.385 OA
ATOM     21  H   UNL     1       5.932  25.343   0.293  1.00  0.00     0.211 HD
ENDBRANCH  15  20
ENDBRANCH   8   9
ENDBRANCH   7   8
ENDBRANCH   1   7
BRANCH   2  22
ATOM     22  O   UNL     1       7.307  31.025  -0.200  1.00  0.00    -0.387 OA
ATOM     23  H   UNL     1       8.194  30.861  -0.642  1.00  0.00     0.211 HD
ENDBRANCH   2  22
BRANCH   3  24
ATOM     24  O   UNL     1       6.261  29.375  -2.164  1.00  0.00    -0.387 OA
ATOM     25  H   UNL     1       6.279  28.582  -2.737  1.00  0.00     0.211 HD
ENDBRANCH   3  24
BRANCH   5  26
ATOM     26  O   UNL     1       8.953  26.368  -0.394  1.00  0.00    -0.462 OA
BRANCH  26  27
ATOM     27  C   UNL     1      10.339  26.123  -0.437  1.00  0.00     0.130 A 
ATOM     28  C   UNL     1      11.179  26.603  -1.492  1.00  0.00     0.093 A 
ATOM     29  C   UNL     1      10.967  25.807   0.803  1.00  0.00     0.094 A 
ATOM     30  C   UNL     1      12.300  27.326  -1.182  1.00  0.00     0.133 A 
ATOM     31  C   UNL     1      12.279  26.264   0.990  1.00  0.00     0.138 A 
ATOM     32  C   UNL     1      12.791  27.198   0.148  1.00  0.00     0.102 A 
ATOM     33  O   UNL     1      13.072  25.842   2.075  1.00  0.00    -0.484 OA
ATOM     34  C   UNL     1      13.688  28.192   0.763  1.00  0.00     0.174 C 
ATOM     35  C   UNL     1      14.171  26.632   2.592  1.00  0.00     0.211 C 
ATOM     36  O   UNL     1      13.117  29.232   1.223  1.00  0.00    -0.294 OA
ATOM     37  C   UNL     1      14.786  27.619   1.612  1.00  0.00     0.131 C 
BRANCH  30  38
ATOM     38  O   UNL     1      13.071  28.119  -2.094  1.00  0.00    -0.507 OA
ATOM     39  H   UNL     1      13.460  28.993  -1.747  1.00  0.00     0.293 HD
ENDBRANCH  30  38
BRANCH  35  40
ATOM     40  C   UNL     1      15.266  25.838   3.185  1.00  0.00    -0.003 A 
ATOM     41  C   UNL     1      15.105  25.536   4.560  1.00  0.00     0.057 A 
ATOM     42  C   UNL     1      16.534  25.620   2.607  1.00  0.00     0.011 A 
ATOM     43  C   UNL     1      16.196  25.031   5.305  1.00  0.00     0.158 A 
ATOM     44  C   UNL     1      17.620  25.236   3.408  1.00  0.00     0.051 A 
ATOM     45  C   UNL     1      17.498  24.927   4.746  1.00  0.00     0.160 A 
BRANCH  43  46
ATOM     46  O   UNL     1      16.051  24.650   6.653  1.00  0.00    -0.504 OA
ATOM     47  H   UNL     1      15.385  23.948   6.955  1.00  0.00     0.293 HD
ENDBRANCH  43  46
BRANCH  45  48
ATOM     48  O   UNL     1      18.552  24.463   5.599  1.00  0.00    -0.493 OA
ATOM     49  C   UNL     1      19.904  24.130   5.169  1.00  0.00     0.278 C 
ENDBRANCH  45  48
ENDBRANCH  35  40
ENDBRANCH  26  27
ENDBRANCH   5  26
BRANCH   4  50
ATOM     50  O   UNL     1       6.375  26.453  -1.930  1.00  0.00    -0.384 OA
ATOM     51  H   UNL     1       6.658  26.746  -2.863  1.00  0.00     0.211 HD
ENDBRANCH   4  50
TORSDOF 15
ENDMDL
MODEL 7
REMARK VINA RESULT:    -6.185      2.522      3.705
REMARK INTER + INTRA:         -12.810
REMARK INTER:                 -11.054
REMARK INTRA:                  -1.756
REMARK UNBOUND:                -2.647
REMARK SMILES COc1ccc([C@H]2CC(=O)c3c(O)cc(O[C@@H]4O[C@H](CO[C@@H]5O[C@H](C)[C@H](O)[C@H](O)[C@@H]5O)[C@@H](O)[C@@H](O)[C@H]4O)cc3O2)cc1O
REMARK SMILES IDX 19 1 32 2 34 3 36 4 17 5 18 6 20 7 21 8 22 9 25 10 24 11
REMARK SMILES IDX 26 12 23 13 28 14 30 15 27 16 29 18 31 20 33 22 35 24 16 26
REMARK SMILES IDX 15 27 14 28 38 29 12 30 39 31 11 32 40 33 9 34 7 35 10 36
REMARK SMILES IDX 8 37 13 38 6 40 41 41 5 42 42 43 4 44 3 45 43 46 2 48 1 49
REMARK SMILES IDX 37 50
REMARK H PARENT 27 17 29 19 31 21 33 23 35 25 13 39 43 47 37 51
REMARK Flexibility Score: inf
ROOT
ATOM      1  C   UNL     1       9.047  25.709  -0.173  1.00  0.00     0.180 C 
ATOM      2  C   UNL     1       7.554  25.841   0.447  1.00  0.00     0.177 C 
ATOM      3  C   UNL     1       7.525  26.991   1.620  1.00  0.00     0.180 C 
ATOM      4  C   UNL     1       8.962  27.641   1.774  1.00  0.00     0.214 C 
ATOM      5  C   UNL     1      10.040  26.416   1.828  1.00  0.00     0.339 C 
ATOM      6  O   UNL     1       9.813  25.354   1.005  1.00  0.00    -0.332 OA
ENDROOT
BRANCH   1   7
ATOM      7  C   UNL     1       9.909  26.716  -1.200  1.00  0.00     0.198 C 
BRANCH   7   8
ATOM      8  O   UNL     1       9.463  27.032  -2.551  1.00  0.00    -0.347 OA
BRANCH   8   9
ATOM      9  C   UNL     1       8.290  27.985  -2.691  1.00  0.00     0.281 C 
ATOM     10  C   UNL     1       7.542  31.441  -1.509  1.00  0.00     0.041 C 
ATOM     11  C   UNL     1       7.234  30.064  -2.031  1.00  0.00     0.150 C 
ATOM     12  C   UNL     1       5.890  29.517  -1.585  1.00  0.00     0.174 C 
ATOM     13  O   UNL     1       8.271  29.117  -1.773  1.00  0.00    -0.344 OA
ATOM     14  C   UNL     1       5.632  28.085  -2.219  1.00  0.00     0.179 C 
ATOM     15  C   UNL     1       6.837  27.421  -2.937  1.00  0.00     0.202 C 
BRANCH  12  16
ATOM     16  O   UNL     1       5.698  29.481  -0.149  1.00  0.00    -0.388 OA
ATOM     17  H   UNL     1       5.543  28.519  -0.083  1.00  0.00     0.211 HD
ENDBRANCH  12  16
BRANCH  14  18
ATOM     18  O   UNL     1       4.916  27.258  -1.308  1.00  0.00    -0.387 OA
ATOM     19  H   UNL     1       4.105  26.797  -1.771  1.00  0.00     0.211 HD
ENDBRANCH  14  18
BRANCH  15  20
ATOM     20  O   UNL     1       6.697  26.025  -3.100  1.00  0.00    -0.385 OA
ATOM     21  H   UNL     1       6.215  25.834  -3.978  1.00  0.00     0.211 HD
ENDBRANCH  15  20
ENDBRANCH   8   9
ENDBRANCH   7   8
ENDBRANCH   1   7
BRANCH   2  22
ATOM     22  O   UNL     1       7.056  24.570   0.841  1.00  0.00    -0.387 OA
ATOM     23  H   UNL     1       6.099  24.685   1.122  1.00  0.00     0.211 HD
ENDBRANCH   2  22
BRANCH   3  24
ATOM     24  O   UNL     1       7.198  26.457   2.864  1.00  0.00    -0.387 OA
ATOM     25  H   UNL     1       7.766  26.957   3.485  1.00  0.00     0.211 HD
ENDBRANCH   3  24
BRANCH   5  26
ATOM     26  O   UNL     1      11.348  26.939   1.463  1.00  0.00    -0.462 OA
BRANCH  26  27
ATOM     27  C   UNL     1      12.501  26.134   1.375  1.00  0.00     0.130 A 
ATOM     28  C   UNL     1      13.084  25.749   0.125  1.00  0.00     0.093 A 
ATOM     29  C   UNL     1      13.344  26.103   2.524  1.00  0.00     0.094 A 
ATOM     30  C   UNL     1      14.416  25.985  -0.096  1.00  0.00     0.133 A 
ATOM     31  C   UNL     1      14.724  25.993   2.303  1.00  0.00     0.138 A 
ATOM     32  C   UNL     1      15.222  26.202   1.057  1.00  0.00     0.102 A 
ATOM     33  O   UNL     1      15.634  25.745   3.349  1.00  0.00    -0.484 OA
ATOM     34  C   UNL     1      16.531  26.875   0.996  1.00  0.00     0.174 C 
ATOM     35  C   UNL     1      17.029  26.128   3.277  1.00  0.00     0.211 C 
ATOM     36  O   UNL     1      16.491  28.146   0.958  1.00  0.00    -0.294 OA
ATOM     37  C   UNL     1      17.594  26.280   1.874  1.00  0.00     0.131 C 
BRANCH  30  38
ATOM     38  O   UNL     1      15.080  25.942  -1.364  1.00  0.00    -0.507 OA
ATOM     39  H   UNL     1      16.094  25.857  -1.364  1.00  0.00     0.293 HD
ENDBRANCH  30  38
BRANCH  35  40
ATOM     40  C   UNL     1      17.941  25.253   4.042  1.00  0.00    -0.003 A 
ATOM     41  C   UNL     1      17.334  24.557   5.117  1.00  0.00     0.057 A 
ATOM     42  C   UNL     1      19.350  25.277   3.983  1.00  0.00     0.011 A 
ATOM     43  C   UNL     1      18.140  23.914   6.086  1.00  0.00     0.158 A 
ATOM     44  C   UNL     1      20.110  24.733   5.029  1.00  0.00     0.051 A 
ATOM     45  C   UNL     1      19.554  24.043   6.086  1.00  0.00     0.160 A 
BRANCH  43  46
ATOM     46  O   UNL     1      17.572  23.152   7.124  1.00  0.00    -0.504 OA
ATOM     47  H   UNL     1      17.999  22.301   7.476  1.00  0.00     0.293 HD
ENDBRANCH  43  46
BRANCH  45  48
ATOM     48  O   UNL     1      20.280  23.406   7.145  1.00  0.00    -0.493 OA
ATOM     49  C   UNL     1      20.826  24.076   8.319  1.00  0.00     0.278 C 
ENDBRANCH  45  48
ENDBRANCH  35  40
ENDBRANCH  26  27
ENDBRANCH   5  26
BRANCH   4  50
ATOM     50  O   UNL     1       9.240  28.563   2.852  1.00  0.00    -0.384 OA
ATOM     51  H   UNL     1       8.469  29.197   3.049  1.00  0.00     0.211 HD
ENDBRANCH   4  50
TORSDOF 15
ENDMDL
MODEL 8
REMARK VINA RESULT:    -6.184      1.686      4.245
REMARK INTER + INTRA:         -12.807
REMARK INTER:                 -10.342
REMARK INTRA:                  -2.465
REMARK UNBOUND:                -2.647
REMARK SMILES COc1ccc([C@H]2CC(=O)c3c(O)cc(O[C@@H]4O[C@H](CO[C@@H]5O[C@H](C)[C@H](O)[C@H](O)[C@@H]5O)[C@@H](O)[C@@H](O)[C@H]4O)cc3O2)cc1O
REMARK SMILES IDX 19 1 32 2 34 3 36 4 17 5 18 6 20 7 21 8 22 9 25 10 24 11
REMARK SMILES IDX 26 12 23 13 28 14 30 15 27 16 29 18 31 20 33 22 35 24 16 26
REMARK SMILES IDX 15 27 14 28 38 29 12 30 39 31 11 32 40 33 9 34 7 35 10 36
REMARK SMILES IDX 8 37 13 38 6 40 41 41 5 42 42 43 4 44 3 45 43 46 2 48 1 49
REMARK SMILES IDX 37 50
REMARK H PARENT 27 17 29 19 31 21 33 23 35 25 13 39 43 47 37 51
REMARK Flexibility Score: inf
ROOT
ATOM      1  C   UNL     1       8.040  28.625  -0.078  1.00  0.00     0.180 C 
ATOM      2  C   UNL     1       6.643  28.677  -0.900  1.00  0.00     0.177 C 
ATOM      3  C   UNL     1       6.228  27.172  -1.411  1.00  0.00     0.180 C 
ATOM      4  C   UNL     1       7.308  26.119  -0.924  1.00  0.00     0.214 C 
ATOM      5  C   UNL     1       8.777  26.746  -1.267  1.00  0.00     0.339 C 
ATOM      6  O   UNL     1       8.939  28.086  -1.079  1.00  0.00    -0.332 OA
ENDROOT
BRANCH   1   7
ATOM      7  C   UNL     1       8.398  28.053   1.457  1.00  0.00     0.198 C 
BRANCH   7   8
ATOM      8  O   UNL     1       7.376  27.555   2.369  1.00  0.00    -0.347 OA
BRANCH   8   9
ATOM      9  C   UNL     1       7.367  26.065   2.659  1.00  0.00     0.281 C 
ATOM     10  C   UNL     1       9.940  23.366   2.685  1.00  0.00     0.041 C 
ATOM     11  C   UNL     1       8.555  23.954   2.629  1.00  0.00     0.150 C 
ATOM     12  C   UNL     1       7.566  23.136   1.818  1.00  0.00     0.174 C 
ATOM     13  O   UNL     1       8.537  25.320   2.213  1.00  0.00    -0.344 OA
ATOM     14  C   UNL     1       6.128  23.805   1.853  1.00  0.00     0.179 C 
ATOM     15  C   UNL     1       6.044  25.229   2.463  1.00  0.00     0.202 C 
BRANCH  12  16
ATOM     16  O   UNL     1       7.974  22.875   0.451  1.00  0.00    -0.388 OA
ATOM     17  H   UNL     1       8.471  23.706   0.325  1.00  0.00     0.211 HD
ENDBRANCH  12  16
BRANCH  14  18
ATOM     18  O   UNL     1       5.460  23.618   0.609  1.00  0.00    -0.387 OA
ATOM     19  H   UNL     1       4.977  22.697   0.572  1.00  0.00     0.211 HD
ENDBRANCH  14  18
BRANCH  15  20
ATOM     20  O   UNL     1       4.875  25.933   2.095  1.00  0.00    -0.385 OA
ATOM     21  H   UNL     1       4.056  25.412   2.406  1.00  0.00     0.211 HD
ENDBRANCH  15  20
ENDBRANCH   8   9
ENDBRANCH   7   8
ENDBRANCH   1   7
BRANCH   2  22
ATOM     22  O   UNL     1       6.693  29.664  -1.920  1.00  0.00    -0.387 OA
ATOM     23  H   UNL     1       7.437  30.302  -1.699  1.00  0.00     0.211 HD
ENDBRANCH   2  22
BRANCH   3  24
ATOM     24  O   UNL     1       6.191  27.086  -2.800  1.00  0.00    -0.387 OA
ATOM     25  H   UNL     1       6.641  26.238  -2.990  1.00  0.00     0.211 HD
ENDBRANCH   3  24
BRANCH   5  26
ATOM     26  O   UNL     1       9.763  26.095  -0.417  1.00  0.00    -0.462 OA
BRANCH  26  27
ATOM     27  C   UNL     1      11.115  25.944  -0.784  1.00  0.00     0.130 A 
ATOM     28  C   UNL     1      11.658  26.497  -1.988  1.00  0.00     0.093 A 
ATOM     29  C   UNL     1      12.030  25.647   0.268  1.00  0.00     0.094 A 
ATOM     30  C   UNL     1      12.775  27.288  -1.918  1.00  0.00     0.133 A 
ATOM     31  C   UNL     1      13.320  26.187   0.165  1.00  0.00     0.138 A 
ATOM     32  C   UNL     1      13.565  27.169  -0.741  1.00  0.00     0.102 A 
ATOM     33  O   UNL     1      14.366  25.799   1.025  1.00  0.00    -0.484 OA
ATOM     34  C   UNL     1      14.518  28.208  -0.315  1.00  0.00     0.174 C 
ATOM     35  C   UNL     1      15.504  26.651   1.302  1.00  0.00     0.211 C 
ATOM     36  O   UNL     1      14.007  29.200   0.297  1.00  0.00    -0.294 OA
ATOM     37  C   UNL     1      15.816  27.694   0.240  1.00  0.00     0.131 C 
BRANCH  30  38
ATOM     38  O   UNL     1      13.265  28.146  -2.956  1.00  0.00    -0.507 OA
ATOM     39  H   UNL     1      14.143  28.634  -2.790  1.00  0.00     0.293 HD
ENDBRANCH  30  38
BRANCH  35  40
ATOM     40  C   UNL     1      16.752  25.921   1.602  1.00  0.00    -0.003 A 
ATOM     41  C   UNL     1      17.598  26.553   2.548  1.00  0.00     0.057 A 
ATOM     42  C   UNL     1      17.287  24.856   0.848  1.00  0.00     0.011 A 
ATOM     43  C   UNL     1      18.930  26.108   2.712  1.00  0.00     0.158 A 
ATOM     44  C   UNL     1      18.647  24.527   0.954  1.00  0.00     0.051 A 
ATOM     45  C   UNL     1      19.496  25.115   1.868  1.00  0.00     0.160 A 
BRANCH  43  46
ATOM     46  O   UNL     1      19.773  26.661   3.694  1.00  0.00    -0.504 OA
ATOM     47  H   UNL     1      19.981  26.189   4.567  1.00  0.00     0.293 HD
ENDBRANCH  43  46
BRANCH  45  48
ATOM     48  O   UNL     1      20.873  24.776   2.072  1.00  0.00    -0.493 OA
ATOM     49  C   UNL     1      21.359  23.663   2.879  1.00  0.00     0.278 C 
ENDBRANCH  45  48
ENDBRANCH  35  40
ENDBRANCH  26  27
ENDBRANCH   5  26
BRANCH   4  50
ATOM     50  O   UNL     1       7.260  24.750  -1.383  1.00  0.00    -0.384 OA
ATOM     51  H   UNL     1       6.379  24.506  -1.831  1.00  0.00     0.211 HD
ENDBRANCH   4  50
TORSDOF 15
ENDMDL
MODEL 9
REMARK VINA RESULT:    -6.127      3.338      5.649
REMARK INTER + INTRA:         -12.714
REMARK INTER:                 -10.949
REMARK INTRA:                  -1.765
REMARK UNBOUND:                -2.647
REMARK SMILES COc1ccc([C@H]2CC(=O)c3c(O)cc(O[C@@H]4O[C@H](CO[C@@H]5O[C@H](C)[C@H](O)[C@H](O)[C@@H]5O)[C@@H](O)[C@@H](O)[C@H]4O)cc3O2)cc1O
REMARK SMILES IDX 19 1 32 2 34 3 36 4 17 5 18 6 20 7 21 8 22 9 25 10 24 11
REMARK SMILES IDX 26 12 23 13 28 14 30 15 27 16 29 18 31 20 33 22 35 24 16 26
REMARK SMILES IDX 15 27 14 28 38 29 12 30 39 31 11 32 40 33 9 34 7 35 10 36
REMARK SMILES IDX 8 37 13 38 6 40 41 41 5 42 42 43 4 44 3 45 43 46 2 48 1 49
REMARK SMILES IDX 37 50
REMARK H PARENT 27 17 29 19 31 21 33 23 35 25 13 39 43 47 37 51
REMARK Flexibility Score: inf
ROOT
ATOM      1  C   UNL     1      10.422  23.661   2.247  1.00  0.00     0.180 C 
ATOM      2  C   UNL     1       9.677  24.705   3.241  1.00  0.00     0.177 C 
ATOM      3  C   UNL     1      10.534  26.102   3.344  1.00  0.00     0.180 C 
ATOM      4  C   UNL     1      11.819  26.017   2.420  1.00  0.00     0.214 C 
ATOM      5  C   UNL     1      12.528  24.576   2.716  1.00  0.00     0.339 C 
ATOM      6  O   UNL     1      11.703  23.508   2.906  1.00  0.00    -0.332 OA
ENDROOT
BRANCH   1   7
ATOM      7  C   UNL     1      10.571  23.642   0.577  1.00  0.00     0.198 C 
BRANCH   7   8
ATOM      8  O   UNL     1       9.420  23.578  -0.315  1.00  0.00    -0.347 OA
BRANCH   8   9
ATOM      9  C   UNL     1       8.415  24.712  -0.235  1.00  0.00     0.281 C 
ATOM     10  C   UNL     1       8.619  28.433  -0.343  1.00  0.00     0.041 C 
ATOM     11  C   UNL     1       8.004  27.092  -0.044  1.00  0.00     0.150 C 
ATOM     12  C   UNL     1       7.101  27.081   1.176  1.00  0.00     0.174 C 
ATOM     13  O   UNL     1       8.962  26.036   0.031  1.00  0.00    -0.344 OA
ATOM     14  C   UNL     1       6.464  25.642   1.384  1.00  0.00     0.179 C 
ATOM     15  C   UNL     1       7.039  24.499   0.508  1.00  0.00     0.202 C 
BRANCH  12  16
ATOM     16  O   UNL     1       7.729  27.543   2.397  1.00  0.00    -0.388 OA
ATOM     17  H   UNL     1       8.559  27.849   1.985  1.00  0.00     0.211 HD
ENDBRANCH  12  16
BRANCH  14  18
ATOM     18  O   UNL     1       6.326  25.355   2.773  1.00  0.00    -0.387 OA
ATOM     19  H   UNL     1       7.249  25.167   3.215  1.00  0.00     0.211 HD
ENDBRANCH  14  18
BRANCH  15  20
ATOM     20  O   UNL     1       6.761  23.208   1.010  1.00  0.00    -0.385 OA
ATOM     21  H   UNL     1       5.841  22.911   0.687  1.00  0.00     0.211 HD
ENDBRANCH  15  20
ENDBRANCH   8   9
ENDBRANCH   7   8
ENDBRANCH   1   7
BRANCH   2  22
ATOM     22  O   UNL     1       9.379  24.091   4.487  1.00  0.00    -0.387 OA
ATOM     23  H   UNL     1       9.268  24.816   5.173  1.00  0.00     0.211 HD
ENDBRANCH   2  22
BRANCH   3  24
ATOM     24  O   UNL     1      10.992  26.337   4.637  1.00  0.00    -0.387 OA
ATOM     25  H   UNL     1      11.847  26.794   4.499  1.00  0.00     0.211 HD
ENDBRANCH   3  24
BRANCH   5  26
ATOM     26  O   UNL     1      13.372  24.238   1.580  1.00  0.00    -0.462 OA
BRANCH  26  27
ATOM     27  C   UNL     1      14.734  23.899   1.707  1.00  0.00     0.130 A 
ATOM     28  C   UNL     1      15.665  24.009   0.625  1.00  0.00     0.093 A 
ATOM     29  C   UNL     1      15.267  23.900   3.029  1.00  0.00     0.094 A 
ATOM     30  C   UNL     1      16.825  24.714   0.807  1.00  0.00     0.133 A 
ATOM     31  C   UNL     1      16.602  24.303   3.179  1.00  0.00     0.138 A 
ATOM     32  C   UNL     1      17.233  24.930   2.153  1.00  0.00     0.102 A 
ATOM     33  O   UNL     1      17.299  24.149   4.394  1.00  0.00    -0.484 OA
ATOM     34  C   UNL     1      18.177  25.994   2.537  1.00  0.00     0.174 C 
ATOM     35  C   UNL     1      18.432  24.978   4.754  1.00  0.00     0.211 C 
ATOM     36  O   UNL     1      17.673  27.157   2.651  1.00  0.00    -0.294 OA
ATOM     37  C   UNL     1      19.178  25.608   3.588  1.00  0.00     0.131 C 
BRANCH  30  38
ATOM     38  O   UNL     1      17.706  25.168  -0.228  1.00  0.00    -0.507 OA
ATOM     39  H   UNL     1      18.072  26.115  -0.155  1.00  0.00     0.293 HD
ENDBRANCH  30  38
BRANCH  35  40
ATOM     40  C   UNL     1      19.424  24.310   5.620  1.00  0.00    -0.003 A 
ATOM     41  C   UNL     1      19.168  24.417   7.009  1.00  0.00     0.057 A 
ATOM     42  C   UNL     1      20.697  23.853   5.217  1.00  0.00     0.011 A 
ATOM     43  C   UNL     1      20.173  24.069   7.942  1.00  0.00     0.158 A 
ATOM     44  C   UNL     1      21.704  23.637   6.170  1.00  0.00     0.051 A 
ATOM     45  C   UNL     1      21.488  23.724   7.529  1.00  0.00     0.160 A 
BRANCH  43  46
ATOM     46  O   UNL     1      19.929  24.091   9.328  1.00  0.00    -0.504 OA
ATOM     47  H   UNL     1      19.083  23.713   9.741  1.00  0.00     0.293 HD
ENDBRANCH  43  46
BRANCH  45  48
ATOM     48  O   UNL     1      22.454  23.448   8.550  1.00  0.00    -0.493 OA
ATOM     49  C   UNL     1      23.498  24.362   8.998  1.00  0.00     0.278 C 
ENDBRANCH  45  48
ENDBRANCH  35  40
ENDBRANCH  26  27
ENDBRANCH   5  26
BRANCH   4  50
ATOM     50  O   UNL     1      12.824  27.055   2.460  1.00  0.00    -0.384 OA
ATOM     51  H   UNL     1      13.296  27.124   3.360  1.00  0.00     0.211 HD
ENDBRANCH   4  50
TORSDOF 15
ENDMDL
