MODEL 1
REMARK VINA RESULT:    -5.597      0.000      0.000
REMARK INTER + INTRA:          -6.463
REMARK INTER:                  -6.251
REMARK INTRA:                  -0.212
REMARK UNBOUND:                -0.212
REMARK SMILES CC(C)c1ccc(C(=O)[O-])cc1
REMARK SMILES IDX 7 1 6 2 11 3 5 4 12 5 4 6 8 7 9 8 10 9 2 10 1 11 3 12
REMARK H PARENT
REMARK Flexibility Score: inf
ROOT
ATOM      1  C   UNL     1     -23.877  -1.182  25.186  1.00  0.00    -0.003 A 
ATOM      2  C   UNL     1     -22.587  -0.645  25.339  1.00  0.00     0.010 A 
ATOM      3  C   UNL     1     -24.720  -0.654  24.193  1.00  0.00     0.010 A 
ATOM      4  C   UNL     1     -22.149   0.396  24.515  1.00  0.00     0.004 A 
ATOM      5  C   UNL     1     -24.282   0.387  23.371  1.00  0.00     0.004 A 
ATOM      6  C   UNL     1     -22.991   0.925  23.522  1.00  0.00    -0.045 A 
ENDROOT
BRANCH   1   7
ATOM      7  C   UNL     1     -24.335  -2.284  26.060  1.00  0.00     0.071 C 
ATOM      8  O   UNL     1     -24.288  -2.170  27.314  1.00  0.00    -0.545 OA
ATOM      9  O   UNL     1     -24.826  -3.462  25.508  1.00  0.00    -0.545 OA
ENDBRANCH   1   7
BRANCH   6  10
ATOM     10  C   UNL     1     -22.504   2.055  22.636  1.00  0.00     0.013 C 
ATOM     11  C   UNL     1     -21.182   1.689  21.949  1.00  0.00     0.012 C 
ATOM     12  C   UNL     1     -23.570   2.451  21.607  1.00  0.00     0.012 C 
ENDBRANCH   6  10
TORSDOF 2
ENDMDL
MODEL 2
REMARK VINA RESULT:    -5.276      3.017      5.048
REMARK INTER + INTRA:          -6.104
REMARK INTER:                  -5.899
REMARK INTRA:                  -0.205
REMARK UNBOUND:                -0.212
REMARK SMILES CC(C)c1ccc(C(=O)[O-])cc1
REMARK SMILES IDX 7 1 6 2 11 3 5 4 12 5 4 6 8 7 9 8 10 9 2 10 1 11 3 12
REMARK H PARENT
REMARK Flexibility Score: inf
ROOT
ATOM      1  C   UNL     1     -22.990   0.757  23.437  1.00  0.00    -0.003 A 
ATOM      2  C   UNL     1     -22.084   0.294  24.405  1.00  0.00     0.010 A 
ATOM      3  C   UNL     1     -24.290   0.224  23.412  1.00  0.00     0.010 A 
ATOM      4  C   UNL     1     -22.469  -0.682  25.329  1.00  0.00     0.004 A 
ATOM      5  C   UNL     1     -24.675  -0.752  24.335  1.00  0.00     0.004 A 
ATOM      6  C   UNL     1     -23.769  -1.216  25.305  1.00  0.00    -0.045 A 
ENDROOT
BRANCH   1   7
ATOM      7  C   UNL     1     -22.578   1.790  22.461  1.00  0.00     0.071 C 
ATOM      8  O   UNL     1     -23.401   2.653  22.056  1.00  0.00    -0.545 OA
ATOM      9  O   UNL     1     -21.275   1.822  21.978  1.00  0.00    -0.545 OA
ENDBRANCH   1   7
BRANCH   6  10
ATOM     10  C   UNL     1     -24.173  -2.274  26.313  1.00  0.00     0.013 C 
ATOM     11  C   UNL     1     -25.182  -1.718  27.325  1.00  0.00     0.012 C 
ATOM     12  C   UNL     1     -24.724  -3.523  25.614  1.00  0.00     0.012 C 
ENDBRANCH   6  10
TORSDOF 2
ENDMDL
MODEL 3
REMARK VINA RESULT:    -5.269      3.018      5.241
REMARK INTER + INTRA:          -6.096
REMARK INTER:                  -5.890
REMARK INTRA:                  -0.207
REMARK UNBOUND:                -0.212
REMARK SMILES CC(C)c1ccc(C(=O)[O-])cc1
REMARK SMILES IDX 7 1 6 2 11 3 5 4 12 5 4 6 8 7 9 8 10 9 2 10 1 11 3 12
REMARK H PARENT
REMARK Flexibility Score: inf
ROOT
ATOM      1  C   UNL     1     -23.002   0.742  23.413  1.00  0.00    -0.003 A 
ATOM      2  C   UNL     1     -24.282   0.170  23.328  1.00  0.00     0.010 A 
ATOM      3  C   UNL     1     -22.128   0.309  24.426  1.00  0.00     0.010 A 
ATOM      4  C   UNL     1     -24.681  -0.815  24.236  1.00  0.00     0.004 A 
ATOM      5  C   UNL     1     -22.528  -0.675  25.334  1.00  0.00     0.004 A 
ATOM      6  C   UNL     1     -23.809  -1.249  25.249  1.00  0.00    -0.045 A 
ENDROOT
BRANCH   1   7
ATOM      7  C   UNL     1     -22.583   1.784  22.450  1.00  0.00     0.071 C 
ATOM      8  O   UNL     1     -23.403   2.654  22.051  1.00  0.00    -0.545 OA
ATOM      9  O   UNL     1     -21.278   1.817  21.972  1.00  0.00    -0.545 OA
ENDBRANCH   1   7
BRANCH   6  10
ATOM     10  C   UNL     1     -24.256  -2.319  26.227  1.00  0.00     0.013 C 
ATOM     11  C   UNL     1     -25.431  -1.830  27.083  1.00  0.00     0.012 C 
ATOM     12  C   UNL     1     -24.606  -3.622  25.501  1.00  0.00     0.012 C 
ENDBRANCH   6  10
TORSDOF 2
ENDMDL
MODEL 4
REMARK VINA RESULT:    -5.224     11.895     12.878
REMARK INTER + INTRA:          -6.046
REMARK INTER:                  -5.839
REMARK INTRA:                  -0.207
REMARK UNBOUND:                -0.212
REMARK SMILES CC(C)c1ccc(C(=O)[O-])cc1
REMARK SMILES IDX 7 1 6 2 11 3 5 4 12 5 4 6 8 7 9 8 10 9 2 10 1 11 3 12
REMARK H PARENT
REMARK Flexibility Score: inf
ROOT
ATOM      1  C   UNL     1     -20.976   9.543  30.296  1.00  0.00    -0.003 A 
ATOM      2  C   UNL     1     -20.876   9.759  31.681  1.00  0.00     0.010 A 
ATOM      3  C   UNL     1     -19.800   9.371  29.547  1.00  0.00     0.010 A 
ATOM      4  C   UNL     1     -19.625   9.801  32.304  1.00  0.00     0.004 A 
ATOM      5  C   UNL     1     -18.550   9.414  30.170  1.00  0.00     0.004 A 
ATOM      6  C   UNL     1     -18.448   9.629  31.557  1.00  0.00    -0.045 A 
ENDROOT
BRANCH   1   7
ATOM      7  C   UNL     1     -22.302   9.499  29.641  1.00  0.00     0.071 C 
ATOM      8  O   UNL     1     -22.474  10.021  28.508  1.00  0.00    -0.545 OA
ATOM      9  O   UNL     1     -23.377   8.879  30.268  1.00  0.00    -0.545 OA
ENDBRANCH   1   7
BRANCH   6  10
ATOM     10  C   UNL     1     -17.098   9.678  32.245  1.00  0.00     0.013 C 
ATOM     11  C   UNL     1     -16.754   8.328  32.886  1.00  0.00     0.012 C 
ATOM     12  C   UNL     1     -15.998  10.125  31.276  1.00  0.00     0.012 C 
ENDBRANCH   6  10
TORSDOF 2
ENDMDL
MODEL 5
REMARK VINA RESULT:    -5.027     11.237     12.188
REMARK INTER + INTRA:          -5.827
REMARK INTER:                  -5.613
REMARK INTRA:                  -0.214
REMARK UNBOUND:                -0.212
REMARK SMILES CC(C)c1ccc(C(=O)[O-])cc1
REMARK SMILES IDX 7 1 6 2 11 3 5 4 12 5 4 6 8 7 9 8 10 9 2 10 1 11 3 12
REMARK H PARENT
REMARK Flexibility Score: inf
ROOT
ATOM      1  C   UNL     1     -20.395   9.507  29.538  1.00  0.00    -0.003 A 
ATOM      2  C   UNL     1     -19.476   9.369  30.592  1.00  0.00     0.010 A 
ATOM      3  C   UNL     1     -19.912   9.762  28.243  1.00  0.00     0.010 A 
ATOM      4  C   UNL     1     -18.102   9.484  30.356  1.00  0.00     0.004 A 
ATOM      5  C   UNL     1     -18.539   9.877  28.008  1.00  0.00     0.004 A 
ATOM      6  C   UNL     1     -17.618   9.739  29.062  1.00  0.00    -0.045 A 
ENDROOT
BRANCH   1   7
ATOM      7  C   UNL     1     -21.847   9.384  29.792  1.00  0.00     0.071 C 
ATOM      8  O   UNL     1     -22.316   9.598  30.941  1.00  0.00    -0.545 OA
ATOM      9  O   UNL     1     -22.714   9.031  28.764  1.00  0.00    -0.545 OA
ENDBRANCH   1   7
BRANCH   6  10
ATOM     10  C   UNL     1     -16.126   9.861  28.821  1.00  0.00     0.013 C 
ATOM     11  C   UNL     1     -15.364  10.028  30.141  1.00  0.00     0.012 C 
ATOM     12  C   UNL     1     -15.594   8.665  28.023  1.00  0.00     0.012 C 
ENDBRANCH   6  10
TORSDOF 2
ENDMDL
MODEL 6
REMARK VINA RESULT:    -4.892      2.932      4.963
REMARK INTER + INTRA:          -5.676
REMARK INTER:                  -5.471
REMARK INTRA:                  -0.206
REMARK UNBOUND:                -0.212
REMARK SMILES CC(C)c1ccc(C(=O)[O-])cc1
REMARK SMILES IDX 7 1 6 2 11 3 5 4 12 5 4 6 8 7 9 8 10 9 2 10 1 11 3 12
REMARK H PARENT
REMARK Flexibility Score: inf
ROOT
ATOM      1  C   UNL     1     -23.521   0.486  23.966  1.00  0.00    -0.003 A 
ATOM      2  C   UNL     1     -22.851  -0.163  25.017  1.00  0.00     0.010 A 
ATOM      3  C   UNL     1     -24.554  -0.193  23.296  1.00  0.00     0.010 A 
ATOM      4  C   UNL     1     -23.206  -1.462  25.391  1.00  0.00     0.004 A 
ATOM      5  C   UNL     1     -24.907  -1.492  23.669  1.00  0.00     0.004 A 
ATOM      6  C   UNL     1     -24.238  -2.142  24.721  1.00  0.00    -0.045 A 
ENDROOT
BRANCH   1   7
ATOM      7  C   UNL     1     -23.143   1.861  23.574  1.00  0.00     0.071 C 
ATOM      8  O   UNL     1     -22.957   2.748  24.450  1.00  0.00    -0.545 OA
ATOM      9  O   UNL     1     -22.987   2.194  22.234  1.00  0.00    -0.545 OA
ENDBRANCH   1   7
BRANCH   6  10
ATOM     10  C   UNL     1     -24.612  -3.552  25.137  1.00  0.00     0.013 C 
ATOM     11  C   UNL     1     -26.120  -3.789  24.993  1.00  0.00     0.012 C 
ATOM     12  C   UNL     1     -23.811  -4.593  24.346  1.00  0.00     0.012 C 
ENDBRANCH   6  10
TORSDOF 2
ENDMDL
MODEL 7
REMARK VINA RESULT:    -4.880     12.638     14.140
REMARK INTER + INTRA:          -5.662
REMARK INTER:                  -5.460
REMARK INTRA:                  -0.203
REMARK UNBOUND:                -0.212
REMARK SMILES CC(C)c1ccc(C(=O)[O-])cc1
REMARK SMILES IDX 7 1 6 2 11 3 5 4 12 5 4 6 8 7 9 8 10 9 2 10 1 11 3 12
REMARK H PARENT
REMARK Flexibility Score: inf
ROOT
ATOM      1  C   UNL     1     -18.022   0.329  37.244  1.00  0.00    -0.003 A 
ATOM      2  C   UNL     1     -17.459  -0.758  37.934  1.00  0.00     0.010 A 
ATOM      3  C   UNL     1     -18.029   0.314  35.839  1.00  0.00     0.010 A 
ATOM      4  C   UNL     1     -16.913  -1.837  37.232  1.00  0.00     0.004 A 
ATOM      5  C   UNL     1     -17.483  -0.764  35.139  1.00  0.00     0.004 A 
ATOM      6  C   UNL     1     -16.919  -1.853  35.827  1.00  0.00    -0.045 A 
ENDROOT
BRANCH   1   7
ATOM      7  C   UNL     1     -18.599   1.469  37.990  1.00  0.00     0.071 C 
ATOM      8  O   UNL     1     -19.732   1.373  38.531  1.00  0.00    -0.545 OA
ATOM      9  O   UNL     1     -17.896   2.664  38.104  1.00  0.00    -0.545 OA
ENDBRANCH   1   7
BRANCH   6  10
ATOM     10  C   UNL     1     -16.323  -3.031  35.079  1.00  0.00     0.013 C 
ATOM     11  C   UNL     1     -16.979  -3.202  33.704  1.00  0.00     0.012 C 
ATOM     12  C   UNL     1     -14.802  -2.893  34.952  1.00  0.00     0.012 C 
ENDBRANCH   6  10
TORSDOF 2
ENDMDL
MODEL 8
REMARK VINA RESULT:    -4.873     12.408     14.156
REMARK INTER + INTRA:          -5.655
REMARK INTER:                  -5.451
REMARK INTRA:                  -0.204
REMARK UNBOUND:                -0.212
REMARK SMILES CC(C)c1ccc(C(=O)[O-])cc1
REMARK SMILES IDX 7 1 6 2 11 3 5 4 12 5 4 6 8 7 9 8 10 9 2 10 1 11 3 12
REMARK H PARENT
REMARK Flexibility Score: inf
ROOT
ATOM      1  C   UNL     1     -17.869   0.546  37.362  1.00  0.00    -0.003 A 
ATOM      2  C   UNL     1     -17.881   0.689  35.964  1.00  0.00     0.010 A 
ATOM      3  C   UNL     1     -17.466  -0.680  37.917  1.00  0.00     0.010 A 
ATOM      4  C   UNL     1     -17.499  -0.373  35.139  1.00  0.00     0.004 A 
ATOM      5  C   UNL     1     -17.085  -1.742  37.092  1.00  0.00     0.004 A 
ATOM      6  C   UNL     1     -17.096  -1.600  35.693  1.00  0.00    -0.045 A 
ENDROOT
BRANCH   1   7
ATOM      7  C   UNL     1     -18.274   1.673  38.232  1.00  0.00     0.071 C 
ATOM      8  O   UNL     1     -19.472   1.799  38.599  1.00  0.00    -0.545 OA
ATOM      9  O   UNL     1     -17.336   2.607  38.655  1.00  0.00    -0.545 OA
ENDBRANCH   1   7
BRANCH   6  10
ATOM     10  C   UNL     1     -16.684  -2.743  34.786  1.00  0.00     0.013 C 
ATOM     11  C   UNL     1     -17.344  -2.621  33.407  1.00  0.00     0.012 C 
ATOM     12  C   UNL     1     -15.159  -2.830  34.662  1.00  0.00     0.012 C 
ENDBRANCH   6  10
TORSDOF 2
ENDMDL
MODEL 9
REMARK VINA RESULT:    -4.721     10.774     12.653
REMARK INTER + INTRA:          -5.484
REMARK INTER:                  -5.277
REMARK INTRA:                  -0.207
REMARK UNBOUND:                -0.212
REMARK SMILES CC(C)c1ccc(C(=O)[O-])cc1
REMARK SMILES IDX 7 1 6 2 11 3 5 4 12 5 4 6 8 7 9 8 10 9 2 10 1 11 3 12
REMARK H PARENT
REMARK Flexibility Score: inf
ROOT
ATOM      1  C   UNL     1     -16.467  -2.780  31.967  1.00  0.00    -0.003 A 
ATOM      2  C   UNL     1     -16.405  -4.168  31.759  1.00  0.00     0.010 A 
ATOM      3  C   UNL     1     -15.335  -2.116  32.472  1.00  0.00     0.010 A 
ATOM      4  C   UNL     1     -15.236  -4.878  32.050  1.00  0.00     0.004 A 
ATOM      5  C   UNL     1     -14.168  -2.826  32.764  1.00  0.00     0.004 A 
ATOM      6  C   UNL     1     -14.104  -4.216  32.555  1.00  0.00    -0.045 A 
ENDROOT
BRANCH   1   7
ATOM      7  C   UNL     1     -17.705  -2.033  31.658  1.00  0.00     0.071 C 
ATOM      8  O   UNL     1     -17.899  -1.564  30.504  1.00  0.00    -0.545 OA
ATOM      9  O   UNL     1     -18.673  -1.837  32.637  1.00  0.00    -0.545 OA
ENDBRANCH   1   7
BRANCH   6  10
ATOM     10  C   UNL     1     -12.843  -4.998  32.867  1.00  0.00     0.013 C 
ATOM     11  C   UNL     1     -12.513  -4.943  34.364  1.00  0.00     0.012 C 
ATOM     12  C   UNL     1     -12.956  -6.447  32.379  1.00  0.00     0.012 C 
ENDBRANCH   6  10
TORSDOF 2
ENDMDL
