MODEL 1
REMARK VINA RESULT:    -4.339      0.000      0.000
REMARK INTER + INTRA:          -6.355
REMARK INTER:                  -6.114
REMARK INTRA:                  -0.241
REMARK UNBOUND:                -0.241
REMARK SMILES CCCCCCCCC(=O)[O-]
REMARK SMILES IDX 6 1 7 2 8 3 9 4 10 5 11 6 5 7 4 8 3 9 2 10 1 11
REMARK H PARENT
REMARK Flexibility Score: inf
ROOT
ATOM      1  C   UNL     1       0.860  24.496  46.897  1.00  0.00     0.000 C 
ENDROOT
BRANCH   1   2
ATOM      2  C   UNL     1       2.010  25.071  47.737  1.00  0.00     0.006 C 
BRANCH   2   3
ATOM      3  C   UNL     1       1.668  25.121  49.232  1.00  0.00     0.053 C 
BRANCH   3   4
ATOM      4  C   UNL     1       1.835  23.784  49.887  1.00  0.00     0.041 C 
ATOM      5  O   UNL     1       2.752  23.005  49.513  1.00  0.00    -0.550 OA
ATOM      6  O   UNL     1       1.000  23.410  50.931  1.00  0.00    -0.550 OA
ENDBRANCH   3   4
ENDBRANCH   2   3
ENDBRANCH   1   2
BRANCH   1   7
ATOM      7  C   UNL     1       1.342  24.136  45.483  1.00  0.00     0.000 C 
BRANCH   7   8
ATOM      8  C   UNL     1       2.355  22.979  45.478  1.00  0.00    -0.000 C 
BRANCH   8   9
ATOM      9  C   UNL     1       3.327  23.049  44.287  1.00  0.00    -0.000 C 
BRANCH   9  10
ATOM     10  C   UNL     1       2.835  22.238  43.079  1.00  0.00    -0.003 C 
ATOM     11  C   UNL     1       1.600  21.394  43.392  1.00  0.00     0.004 C 
ENDBRANCH   9  10
ENDBRANCH   8   9
ENDBRANCH   7   8
ENDBRANCH   1   7
TORSDOF 7
ENDMDL
MODEL 2
REMARK VINA RESULT:    -4.315      0.970      1.568
REMARK INTER + INTRA:          -6.322
REMARK INTER:                  -6.043
REMARK INTRA:                  -0.279
REMARK UNBOUND:                -0.241
REMARK SMILES CCCCCCCCC(=O)[O-]
REMARK SMILES IDX 6 1 7 2 8 3 9 4 10 5 11 6 5 7 4 8 3 9 2 10 1 11
REMARK H PARENT
REMARK Flexibility Score: inf
ROOT
ATOM      1  C   UNL     1       1.815  24.125  47.970  1.00  0.00     0.000 C 
ENDROOT
BRANCH   1   2
ATOM      2  C   UNL     1       1.488  24.942  49.230  1.00  0.00     0.006 C 
BRANCH   2   3
ATOM      3  C   UNL     1       1.214  24.048  50.447  1.00  0.00     0.053 C 
BRANCH   3   4
ATOM      4  C   UNL     1       2.363  23.129  50.732  1.00  0.00     0.041 C 
ATOM      5  O   UNL     1       2.170  21.889  50.844  1.00  0.00    -0.550 OA
ATOM      6  O   UNL     1       3.651  23.636  50.841  1.00  0.00    -0.550 OA
ENDBRANCH   3   4
ENDBRANCH   2   3
ENDBRANCH   1   2
BRANCH   1   7
ATOM      7  C   UNL     1       0.879  24.506  46.812  1.00  0.00     0.000 C 
BRANCH   7   8
ATOM      8  C   UNL     1       1.477  24.181  45.434  1.00  0.00    -0.000 C 
BRANCH   8   9
ATOM      9  C   UNL     1       2.428  22.971  45.472  1.00  0.00    -0.000 C 
BRANCH   9  10
ATOM     10  C   UNL     1       2.779  22.454  44.069  1.00  0.00    -0.003 C 
ATOM     11  C   UNL     1       1.696  21.548  43.482  1.00  0.00     0.004 C 
ENDBRANCH   9  10
ENDBRANCH   8   9
ENDBRANCH   7   8
ENDBRANCH   1   7
TORSDOF 7
ENDMDL
MODEL 3
REMARK VINA RESULT:    -4.230      1.990      2.982
REMARK INTER + INTRA:          -6.201
REMARK INTER:                  -5.909
REMARK INTRA:                  -0.292
REMARK UNBOUND:                -0.241
REMARK SMILES CCCCCCCCC(=O)[O-]
REMARK SMILES IDX 6 1 7 2 8 3 9 4 10 5 11 6 5 7 4 8 3 9 2 10 1 11
REMARK H PARENT
REMARK Flexibility Score: inf
ROOT
ATOM      1  C   UNL     1       1.596  24.036  49.407  1.00  0.00     0.000 C 
ENDROOT
BRANCH   1   2
ATOM      2  C   UNL     1       2.658  23.050  49.916  1.00  0.00     0.006 C 
BRANCH   2   3
ATOM      3  C   UNL     1       2.231  22.357  51.217  1.00  0.00     0.053 C 
BRANCH   3   4
ATOM      4  C   UNL     1       3.383  21.674  51.888  1.00  0.00     0.041 C 
ATOM      5  O   UNL     1       4.447  22.307  52.119  1.00  0.00    -0.550 OA
ATOM      6  O   UNL     1       3.270  20.349  52.289  1.00  0.00    -0.550 OA
ENDBRANCH   3   4
ENDBRANCH   2   3
ENDBRANCH   1   2
BRANCH   1   7
ATOM      7  C   UNL     1       1.985  24.596  48.030  1.00  0.00     0.000 C 
BRANCH   7   8
ATOM      8  C   UNL     1       0.804  24.623  47.045  1.00  0.00    -0.000 C 
BRANCH   8   9
ATOM      9  C   UNL     1       1.195  24.129  45.640  1.00  0.00    -0.000 C 
BRANCH   9  10
ATOM     10  C   UNL     1       2.278  23.041  45.680  1.00  0.00    -0.003 C 
ATOM     11  C   UNL     1       2.370  22.247  44.377  1.00  0.00     0.004 C 
ENDBRANCH   9  10
ENDBRANCH   8   9
ENDBRANCH   7   8
ENDBRANCH   1   7
TORSDOF 7
ENDMDL
MODEL 4
REMARK VINA RESULT:    -4.214      3.222      5.850
REMARK INTER + INTRA:          -6.180
REMARK INTER:                  -5.910
REMARK INTRA:                  -0.271
REMARK UNBOUND:                -0.241
REMARK SMILES CCCCCCCCC(=O)[O-]
REMARK SMILES IDX 6 1 7 2 8 3 9 4 10 5 11 6 5 7 4 8 3 9 2 10 1 11
REMARK H PARENT
REMARK Flexibility Score: inf
ROOT
ATOM      1  C   UNL     1       1.845  24.254  45.314  1.00  0.00     0.000 C 
ENDROOT
BRANCH   1   2
ATOM      2  C   UNL     1       2.407  22.829  45.203  1.00  0.00     0.006 C 
BRANCH   2   3
ATOM      3  C   UNL     1       3.186  22.612  43.899  1.00  0.00     0.053 C 
BRANCH   3   4
ATOM      4  C   UNL     1       2.350  21.935  42.856  1.00  0.00     0.041 C 
ATOM      5  O   UNL     1       2.575  22.137  41.633  1.00  0.00    -0.550 OA
ATOM      6  O   UNL     1       1.344  21.054  43.234  1.00  0.00    -0.550 OA
ENDBRANCH   3   4
ENDBRANCH   2   3
ENDBRANCH   1   2
BRANCH   1   7
ATOM      7  C   UNL     1       1.095  24.445  46.641  1.00  0.00     0.000 C 
BRANCH   7   8
ATOM      8  C   UNL     1       1.945  24.057  47.863  1.00  0.00    -0.000 C 
BRANCH   8   9
ATOM      9  C   UNL     1       1.365  24.599  49.182  1.00  0.00    -0.000 C 
BRANCH   9  10
ATOM     10  C   UNL     1       1.836  23.798  50.405  1.00  0.00    -0.003 C 
ATOM     11  C   UNL     1       2.832  22.696  50.044  1.00  0.00     0.004 C 
ENDBRANCH   9  10
ENDBRANCH   8   9
ENDBRANCH   7   8
ENDBRANCH   1   7
TORSDOF 7
ENDMDL
MODEL 5
REMARK VINA RESULT:    -4.106      1.387      2.329
REMARK INTER + INTRA:          -6.027
REMARK INTER:                  -5.762
REMARK INTRA:                  -0.265
REMARK UNBOUND:                -0.241
REMARK SMILES CCCCCCCCC(=O)[O-]
REMARK SMILES IDX 6 1 7 2 8 3 9 4 10 5 11 6 5 7 4 8 3 9 2 10 1 11
REMARK H PARENT
REMARK Flexibility Score: inf
ROOT
ATOM      1  C   UNL     1       1.256  24.966  48.984  1.00  0.00     0.000 C 
ENDROOT
BRANCH   1   2
ATOM      2  C   UNL     1       1.493  24.253  50.325  1.00  0.00     0.006 C 
BRANCH   2   3
ATOM      3  C   UNL     1       2.328  22.976  50.163  1.00  0.00     0.053 C 
BRANCH   3   4
ATOM      4  C   UNL     1       2.176  22.059  51.339  1.00  0.00     0.041 C 
ATOM      5  O   UNL     1       3.083  21.230  51.617  1.00  0.00    -0.550 OA
ATOM      6  O   UNL     1       1.051  22.144  52.148  1.00  0.00    -0.550 OA
ENDBRANCH   3   4
ENDBRANCH   2   3
ENDBRANCH   1   2
BRANCH   1   7
ATOM      7  C   UNL     1       1.788  24.123  47.815  1.00  0.00     0.000 C 
BRANCH   7   8
ATOM      8  C   UNL     1       1.053  24.408  46.495  1.00  0.00    -0.000 C 
BRANCH   8   9
ATOM      9  C   UNL     1       1.978  24.308  45.269  1.00  0.00    -0.000 C 
BRANCH   9  10
ATOM     10  C   UNL     1       2.598  22.911  45.114  1.00  0.00    -0.003 C 
ATOM     11  C   UNL     1       3.536  22.808  43.911  1.00  0.00     0.004 C 
ENDBRANCH   9  10
ENDBRANCH   8   9
ENDBRANCH   7   8
ENDBRANCH   1   7
TORSDOF 7
ENDMDL
MODEL 6
REMARK VINA RESULT:    -4.018      1.683      2.714
REMARK INTER + INTRA:          -5.903
REMARK INTER:                  -5.498
REMARK INTRA:                  -0.406
REMARK UNBOUND:                -0.241
REMARK SMILES CCCCCCCCC(=O)[O-]
REMARK SMILES IDX 6 1 7 2 8 3 9 4 10 5 11 6 5 7 4 8 3 9 2 10 1 11
REMARK H PARENT
REMARK Flexibility Score: inf
ROOT
ATOM      1  C   UNL     1       2.973  25.162  44.586  1.00  0.00     0.000 C 
ENDROOT
BRANCH   1   2
ATOM      2  C   UNL     1       1.756  24.326  45.012  1.00  0.00     0.006 C 
BRANCH   2   3
ATOM      3  C   UNL     1       2.015  23.539  46.303  1.00  0.00     0.053 C 
BRANCH   3   4
ATOM      4  C   UNL     1       1.525  24.276  47.512  1.00  0.00     0.041 C 
ATOM      5  O   UNL     1       0.594  25.119  47.407  1.00  0.00    -0.550 OA
ATOM      6  O   UNL     1       2.072  24.008  48.760  1.00  0.00    -0.550 OA
ENDBRANCH   3   4
ENDBRANCH   2   3
ENDBRANCH   1   2
BRANCH   1   7
ATOM      7  C   UNL     1       3.700  24.505  43.402  1.00  0.00     0.000 C 
BRANCH   7   8
ATOM      8  C   UNL     1       3.346  23.018  43.238  1.00  0.00    -0.000 C 
BRANCH   8   9
ATOM      9  C   UNL     1       2.875  22.675  41.814  1.00  0.00    -0.000 C 
BRANCH   9  10
ATOM     10  C   UNL     1       1.934  21.462  41.782  1.00  0.00    -0.003 C 
ATOM     11  C   UNL     1       1.369  21.112  43.158  1.00  0.00     0.004 C 
ENDBRANCH   9  10
ENDBRANCH   8   9
ENDBRANCH   7   8
ENDBRANCH   1   7
TORSDOF 7
ENDMDL
MODEL 7
REMARK VINA RESULT:    -3.948      3.418      5.794
REMARK INTER + INTRA:          -5.805
REMARK INTER:                  -5.230
REMARK INTRA:                  -0.575
REMARK UNBOUND:                -0.241
REMARK SMILES CCCCCCCCC(=O)[O-]
REMARK SMILES IDX 6 1 7 2 8 3 9 4 10 5 11 6 5 7 4 8 3 9 2 10 1 11
REMARK H PARENT
REMARK Flexibility Score: inf
ROOT
ATOM      1  C   UNL     1       1.152  23.224  51.390  1.00  0.00     0.000 C 
ENDROOT
BRANCH   1   2
ATOM      2  C   UNL     1       1.278  24.412  50.424  1.00  0.00     0.006 C 
BRANCH   2   3
ATOM      3  C   UNL     1       1.986  24.026  49.118  1.00  0.00     0.053 C 
BRANCH   3   4
ATOM      4  C   UNL     1       1.353  24.680  47.927  1.00  0.00     0.041 C 
ATOM      5  O   UNL     1       0.915  25.858  48.010  1.00  0.00    -0.550 OA
ATOM      6  O   UNL     1       1.278  24.001  46.718  1.00  0.00    -0.550 OA
ENDBRANCH   3   4
ENDBRANCH   2   3
ENDBRANCH   1   2
BRANCH   1   7
ATOM      7  C   UNL     1       2.101  22.086  50.985  1.00  0.00     0.000 C 
BRANCH   7   8
ATOM      8  C   UNL     1       2.975  21.598  52.152  1.00  0.00    -0.000 C 
BRANCH   8   9
ATOM      9  C   UNL     1       4.252  22.440  52.327  1.00  0.00    -0.000 C 
BRANCH   9  10
ATOM     10  C   UNL     1       4.977  22.691  50.997  1.00  0.00    -0.003 C 
ATOM     11  C   UNL     1       6.149  23.663  51.134  1.00  0.00     0.004 C 
ENDBRANCH   9  10
ENDBRANCH   8   9
ENDBRANCH   7   8
ENDBRANCH   1   7
TORSDOF 7
ENDMDL
MODEL 8
REMARK VINA RESULT:    -3.802      3.019      5.586
REMARK INTER + INTRA:          -5.599
REMARK INTER:                  -5.229
REMARK INTRA:                  -0.370
REMARK UNBOUND:                -0.241
REMARK SMILES CCCCCCCCC(=O)[O-]
REMARK SMILES IDX 6 1 7 2 8 3 9 4 10 5 11 6 5 7 4 8 3 9 2 10 1 11
REMARK H PARENT
REMARK Flexibility Score: inf
ROOT
ATOM      1  C   UNL     1       1.752  25.023  47.430  1.00  0.00     0.000 C 
ENDROOT
BRANCH   1   2
ATOM      2  C   UNL     1       1.227  24.111  46.311  1.00  0.00     0.006 C 
BRANCH   2   3
ATOM      3  C   UNL     1       2.297  23.132  45.810  1.00  0.00     0.053 C 
BRANCH   3   4
ATOM      4  C   UNL     1       2.871  23.561  44.494  1.00  0.00     0.041 C 
ATOM      5  O   UNL     1       2.512  24.649  43.970  1.00  0.00    -0.550 OA
ATOM      6  O   UNL     1       3.827  22.776  43.862  1.00  0.00    -0.550 OA
ENDBRANCH   3   4
ENDBRANCH   2   3
ENDBRANCH   1   2
BRANCH   1   7
ATOM      7  C   UNL     1       1.346  24.484  48.811  1.00  0.00     0.000 C 
BRANCH   7   8
ATOM      8  C   UNL     1       2.556  24.185  49.711  1.00  0.00    -0.000 C 
BRANCH   8   9
ATOM      9  C   UNL     1       2.838  22.677  49.839  1.00  0.00    -0.000 C 
BRANCH   9  10
ATOM     10  C   UNL     1       2.648  22.164  51.274  1.00  0.00    -0.003 C 
ATOM     11  C   UNL     1       1.209  22.304  51.770  1.00  0.00     0.004 C 
ENDBRANCH   9  10
ENDBRANCH   8   9
ENDBRANCH   7   8
ENDBRANCH   1   7
TORSDOF 7
ENDMDL
MODEL 9
REMARK VINA RESULT:    -3.777      1.752      2.319
REMARK INTER + INTRA:          -5.563
REMARK INTER:                  -5.203
REMARK INTRA:                  -0.360
REMARK UNBOUND:                -0.241
REMARK SMILES CCCCCCCCC(=O)[O-]
REMARK SMILES IDX 6 1 7 2 8 3 9 4 10 5 11 6 5 7 4 8 3 9 2 10 1 11
REMARK H PARENT
REMARK Flexibility Score: inf
ROOT
ATOM      1  C   UNL     1       0.838  24.445  46.880  1.00  0.00     0.000 C 
ENDROOT
BRANCH   1   2
ATOM      2  C   UNL     1       1.941  24.297  47.939  1.00  0.00     0.006 C 
BRANCH   2   3
ATOM      3  C   UNL     1       1.396  24.427  49.367  1.00  0.00     0.053 C 
BRANCH   3   4
ATOM      4  C   UNL     1       1.273  25.860  49.788  1.00  0.00     0.041 C 
ATOM      5  O   UNL     1       0.443  26.191  50.676  1.00  0.00    -0.550 OA
ATOM      6  O   UNL     1       2.096  26.825  49.223  1.00  0.00    -0.550 OA
ENDBRANCH   3   4
ENDBRANCH   2   3
ENDBRANCH   1   2
BRANCH   1   7
ATOM      7  C   UNL     1       1.362  24.064  45.486  1.00  0.00     0.000 C 
BRANCH   7   8
ATOM      8  C   UNL     1       2.425  22.953  45.535  1.00  0.00    -0.000 C 
BRANCH   8   9
ATOM      9  C   UNL     1       3.318  22.934  44.282  1.00  0.00    -0.000 C 
BRANCH   9  10
ATOM     10  C   UNL     1       3.067  24.138  43.363  1.00  0.00    -0.003 C 
ATOM     11  C   UNL     1       4.224  24.402  42.400  1.00  0.00     0.004 C 
ENDBRANCH   9  10
ENDBRANCH   8   9
ENDBRANCH   7   8
ENDBRANCH   1   7
TORSDOF 7
ENDMDL
