MODEL 1
REMARK VINA RESULT:    -5.047      0.000      0.000
REMARK INTER + INTRA:         -11.465
REMARK INTER:                  -9.177
REMARK INTRA:                  -2.288
REMARK UNBOUND:                -2.288
REMARK SMILES CCCCCCCCCCCCCCCC(=O)[O-]
REMARK SMILES IDX 9 1 10 2 11 3 12 4 13 5 14 6 15 7 16 8 17 9 18 10 8 11 7 12
REMARK SMILES IDX 6 13 5 14 4 15 3 16 2 17 1 18
REMARK H PARENT
REMARK Flexibility Score: inf
ROOT
ATOM      1  C   UNL     1     -17.327   5.431 -21.223  1.00  0.00     0.000 C 
ENDROOT
BRANCH   1   2
ATOM      2  C   UNL     1     -17.629   4.097 -20.518  1.00  0.00     0.000 C 
BRANCH   2   3
ATOM      3  C   UNL     1     -16.700   2.925 -20.902  1.00  0.00     0.000 C 
BRANCH   3   4
ATOM      4  C   UNL     1     -15.569   2.631 -19.899  1.00  0.00     0.000 C 
BRANCH   4   5
ATOM      5  C   UNL     1     -14.462   1.701 -20.427  1.00  0.00     0.000 C 
BRANCH   5   6
ATOM      6  C   UNL     1     -14.917   0.236 -20.611  1.00  0.00     0.006 C 
BRANCH   6   7
ATOM      7  C   UNL     1     -14.508  -0.658 -19.433  1.00  0.00     0.053 C 
BRANCH   7   8
ATOM      8  C   UNL     1     -13.937  -1.949 -19.931  1.00  0.00     0.041 C 
ATOM      9  O   UNL     1     -14.045  -2.262 -21.147  1.00  0.00    -0.550 OA
ATOM     10  O   UNL     1     -13.241  -2.781 -19.065  1.00  0.00    -0.550 OA
ENDBRANCH   7   8
ENDBRANCH   6   7
ENDBRANCH   5   6
ENDBRANCH   4   5
ENDBRANCH   3   4
ENDBRANCH   2   3
ENDBRANCH   1   2
BRANCH   1  11
ATOM     11  C   UNL     1     -16.725   6.483 -20.280  1.00  0.00     0.000 C 
BRANCH  11  12
ATOM     12  C   UNL     1     -15.222   6.660 -20.544  1.00  0.00    -0.000 C 
BRANCH  12  13
ATOM     13  C   UNL     1     -14.815   6.276 -21.978  1.00  0.00    -0.000 C 
BRANCH  13  14
ATOM     14  C   UNL     1     -13.763   5.155 -22.081  1.00  0.00    -0.000 C 
BRANCH  14  15
ATOM     15  C   UNL     1     -13.977   4.239 -23.293  1.00  0.00    -0.000 C 
BRANCH  15  16
ATOM     16  C   UNL     1     -15.279   4.588 -24.024  1.00  0.00    -0.000 C 
BRANCH  16  17
ATOM     17  C   UNL     1     -16.036   3.320 -24.435  1.00  0.00    -0.003 C 
ATOM     18  C   UNL     1     -15.187   2.073 -24.207  1.00  0.00     0.004 C 
ENDBRANCH  16  17
ENDBRANCH  15  16
ENDBRANCH  14  15
ENDBRANCH  13  14
ENDBRANCH  12  13
ENDBRANCH  11  12
ENDBRANCH   1  11
TORSDOF 14
ENDMDL
MODEL 2
REMARK VINA RESULT:    -5.032      2.522      4.058
REMARK INTER + INTRA:         -11.439
REMARK INTER:                  -9.132
REMARK INTRA:                  -2.306
REMARK UNBOUND:                -2.288
REMARK SMILES CCCCCCCCCCCCCCCC(=O)[O-]
REMARK SMILES IDX 9 1 10 2 11 3 12 4 13 5 14 6 15 7 16 8 17 9 18 10 8 11 7 12
REMARK SMILES IDX 6 13 5 14 4 15 3 16 2 17 1 18
REMARK H PARENT
REMARK Flexibility Score: inf
ROOT
ATOM      1  C   UNL     1     -14.288   5.502 -21.981  1.00  0.00     0.000 C 
ENDROOT
BRANCH   1   2
ATOM      2  C   UNL     1     -15.740   4.993 -21.997  1.00  0.00     0.000 C 
BRANCH   2   3
ATOM      3  C   UNL     1     -16.385   4.801 -20.608  1.00  0.00     0.000 C 
BRANCH   3   4
ATOM      4  C   UNL     1     -16.565   3.336 -20.168  1.00  0.00     0.000 C 
BRANCH   4   5
ATOM      5  C   UNL     1     -15.305   2.679 -19.576  1.00  0.00     0.000 C 
BRANCH   5   6
ATOM      6  C   UNL     1     -14.580   1.730 -20.557  1.00  0.00     0.006 C 
BRANCH   6   7
ATOM      7  C   UNL     1     -15.521   1.162 -21.627  1.00  0.00     0.053 C 
BRANCH   7   8
ATOM      8  C   UNL     1     -15.043   1.538 -22.995  1.00  0.00     0.041 C 
ATOM      9  O   UNL     1     -13.919   2.088 -23.144  1.00  0.00    -0.550 OA
ATOM     10  O   UNL     1     -15.814   1.236 -24.109  1.00  0.00    -0.550 OA
ENDBRANCH   7   8
ENDBRANCH   6   7
ENDBRANCH   5   6
ENDBRANCH   4   5
ENDBRANCH   3   4
ENDBRANCH   2   3
ENDBRANCH   1   2
BRANCH   1  11
ATOM     11  C   UNL     1     -13.820   5.932 -20.583  1.00  0.00     0.000 C 
BRANCH  11  12
ATOM     12  C   UNL     1     -12.920   7.173 -20.663  1.00  0.00    -0.000 C 
BRANCH  12  13
ATOM     13  C   UNL     1     -13.648   8.470 -20.267  1.00  0.00    -0.000 C 
BRANCH  13  14
ATOM     14  C   UNL     1     -15.129   8.296 -19.882  1.00  0.00    -0.000 C 
BRANCH  14  15
ATOM     15  C   UNL     1     -16.067   9.228 -20.663  1.00  0.00    -0.000 C 
BRANCH  15  16
ATOM     16  C   UNL     1     -16.675   8.508 -21.872  1.00  0.00    -0.000 C 
BRANCH  16  17
ATOM     17  C   UNL     1     -15.941   8.886 -23.164  1.00  0.00    -0.003 C 
ATOM     18  C   UNL     1     -16.355   7.978 -24.319  1.00  0.00     0.004 C 
ENDBRANCH  16  17
ENDBRANCH  15  16
ENDBRANCH  14  15
ENDBRANCH  13  14
ENDBRANCH  12  13
ENDBRANCH  11  12
ENDBRANCH   1  11
TORSDOF 14
ENDMDL
MODEL 3
REMARK VINA RESULT:    -5.001      4.327      7.024
REMARK INTER + INTRA:         -11.383
REMARK INTER:                  -9.143
REMARK INTRA:                  -2.239
REMARK UNBOUND:                -2.288
REMARK SMILES CCCCCCCCCCCCCCCC(=O)[O-]
REMARK SMILES IDX 9 1 10 2 11 3 12 4 13 5 14 6 15 7 16 8 17 9 18 10 8 11 7 12
REMARK SMILES IDX 6 13 5 14 4 15 3 16 2 17 1 18
REMARK H PARENT
REMARK Flexibility Score: inf
ROOT
ATOM      1  C   UNL     1     -14.384   5.383 -22.662  1.00  0.00     0.000 C 
ENDROOT
BRANCH   1   2
ATOM      2  C   UNL     1     -13.958   5.612 -21.201  1.00  0.00     0.000 C 
BRANCH   2   3
ATOM      3  C   UNL     1     -12.885   6.701 -20.991  1.00  0.00     0.000 C 
BRANCH   3   4
ATOM      4  C   UNL     1     -13.384   7.986 -20.303  1.00  0.00     0.000 C 
BRANCH   4   5
ATOM      5  C   UNL     1     -14.913   8.088 -20.155  1.00  0.00     0.000 C 
BRANCH   5   6
ATOM      6  C   UNL     1     -15.596   8.872 -21.297  1.00  0.00     0.006 C 
BRANCH   6   7
ATOM      7  C   UNL     1     -16.781   8.110 -21.905  1.00  0.00     0.053 C 
BRANCH   7   8
ATOM      8  C   UNL     1     -18.071   8.605 -21.330  1.00  0.00     0.041 C 
ATOM      9  O   UNL     1     -18.096   9.667 -20.653  1.00  0.00    -0.550 OA
ATOM     10  O   UNL     1     -19.253   7.922 -21.583  1.00  0.00    -0.550 OA
ENDBRANCH   7   8
ENDBRANCH   6   7
ENDBRANCH   5   6
ENDBRANCH   4   5
ENDBRANCH   3   4
ENDBRANCH   2   3
ENDBRANCH   1   2
BRANCH   1  11
ATOM     11  C   UNL     1     -13.677   4.184 -23.310  1.00  0.00     0.000 C 
BRANCH  11  12
ATOM     12  C   UNL     1     -14.568   2.934 -23.266  1.00  0.00    -0.000 C 
BRANCH  12  13
ATOM     13  C   UNL     1     -14.097   1.897 -22.229  1.00  0.00    -0.000 C 
BRANCH  13  14
ATOM     14  C   UNL     1     -14.977   1.785 -20.970  1.00  0.00    -0.000 C 
BRANCH  14  15
ATOM     15  C   UNL     1     -16.354   2.444 -21.139  1.00  0.00    -0.000 C 
BRANCH  15  16
ATOM     16  C   UNL     1     -16.606   3.480 -20.038  1.00  0.00    -0.000 C 
BRANCH  16  17
ATOM     17  C   UNL     1     -17.471   4.635 -20.558  1.00  0.00    -0.003 C 
ATOM     18  C   UNL     1     -17.767   4.474 -22.047  1.00  0.00     0.004 C 
ENDBRANCH  16  17
ENDBRANCH  15  16
ENDBRANCH  14  15
ENDBRANCH  13  14
ENDBRANCH  12  13
ENDBRANCH  11  12
ENDBRANCH   1  11
TORSDOF 14
ENDMDL
MODEL 4
REMARK VINA RESULT:    -4.996      4.415      6.654
REMARK INTER + INTRA:         -11.373
REMARK INTER:                  -8.722
REMARK INTRA:                  -2.651
REMARK UNBOUND:                -2.288
REMARK SMILES CCCCCCCCCCCCCCCC(=O)[O-]
REMARK SMILES IDX 9 1 10 2 11 3 12 4 13 5 14 6 15 7 16 8 17 9 18 10 8 11 7 12
REMARK SMILES IDX 6 13 5 14 4 15 3 16 2 17 1 18
REMARK H PARENT
REMARK Flexibility Score: inf
ROOT
ATOM      1  C   UNL     1     -15.460   5.979 -19.824  1.00  0.00     0.000 C 
ENDROOT
BRANCH   1   2
ATOM      2  C   UNL     1     -16.747   5.356 -20.394  1.00  0.00     0.000 C 
BRANCH   2   3
ATOM      3  C   UNL     1     -17.539   6.257 -21.366  1.00  0.00     0.000 C 
BRANCH   3   4
ATOM      4  C   UNL     1     -17.373   7.771 -21.136  1.00  0.00     0.000 C 
BRANCH   4   5
ATOM      5  C   UNL     1     -16.585   8.509 -22.233  1.00  0.00     0.000 C 
BRANCH   5   6
ATOM      6  C   UNL     1     -15.234   9.081 -21.750  1.00  0.00     0.006 C 
BRANCH   6   7
ATOM      7  C   UNL     1     -15.313   9.653 -20.329  1.00  0.00     0.053 C 
BRANCH   7   8
ATOM      8  C   UNL     1     -13.954   9.688 -19.703  1.00  0.00     0.041 C 
ATOM      9  O   UNL     1     -13.086   8.833 -20.026  1.00  0.00    -0.550 OA
ATOM     10  O   UNL     1     -13.628  10.693 -18.803  1.00  0.00    -0.550 OA
ENDBRANCH   7   8
ENDBRANCH   6   7
ENDBRANCH   5   6
ENDBRANCH   4   5
ENDBRANCH   3   4
ENDBRANCH   2   3
ENDBRANCH   1   2
BRANCH   1  11
ATOM     11  C   UNL     1     -14.187   5.273 -20.315  1.00  0.00     0.000 C 
BRANCH  11  12
ATOM     12  C   UNL     1     -13.774   5.789 -21.701  1.00  0.00    -0.000 C 
BRANCH  12  13
ATOM     13  C   UNL     1     -13.769   4.687 -22.775  1.00  0.00    -0.000 C 
BRANCH  13  14
ATOM     14  C   UNL     1     -15.055   4.589 -23.618  1.00  0.00    -0.000 C 
BRANCH  14  15
ATOM     15  C   UNL     1     -15.809   3.268 -23.414  1.00  0.00    -0.000 C 
BRANCH  15  16
ATOM     16  C   UNL     1     -15.006   2.308 -22.527  1.00  0.00    -0.000 C 
BRANCH  16  17
ATOM     17  C   UNL     1     -15.817   1.891 -21.295  1.00  0.00    -0.003 C 
ATOM     18  C   UNL     1     -14.910   1.682 -20.084  1.00  0.00     0.004 C 
ENDBRANCH  16  17
ENDBRANCH  15  16
ENDBRANCH  14  15
ENDBRANCH  13  14
ENDBRANCH  12  13
ENDBRANCH  11  12
ENDBRANCH   1  11
TORSDOF 14
ENDMDL
MODEL 5
REMARK VINA RESULT:    -4.962      4.504      6.794
REMARK INTER + INTRA:         -11.312
REMARK INTER:                  -8.925
REMARK INTRA:                  -2.387
REMARK UNBOUND:                -2.288
REMARK SMILES CCCCCCCCCCCCCCCC(=O)[O-]
REMARK SMILES IDX 9 1 10 2 11 3 12 4 13 5 14 6 15 7 16 8 17 9 18 10 8 11 7 12
REMARK SMILES IDX 6 13 5 14 4 15 3 16 2 17 1 18
REMARK H PARENT
REMARK Flexibility Score: inf
ROOT
ATOM      1  C   UNL     1     -15.528   5.910 -24.463  1.00  0.00     0.000 C 
ENDROOT
BRANCH   1   2
ATOM      2  C   UNL     1     -14.920   4.763 -23.635  1.00  0.00     0.000 C 
BRANCH   2   3
ATOM      3  C   UNL     1     -13.712   5.155 -22.758  1.00  0.00     0.000 C 
BRANCH   3   4
ATOM      4  C   UNL     1     -14.020   5.323 -21.259  1.00  0.00     0.000 C 
BRANCH   4   5
ATOM      5  C   UNL     1     -13.656   6.701 -20.674  1.00  0.00     0.000 C 
BRANCH   5   6
ATOM      6  C   UNL     1     -14.881   7.598 -20.390  1.00  0.00     0.006 C 
BRANCH   6   7
ATOM      7  C   UNL     1     -14.717   9.013 -20.959  1.00  0.00     0.053 C 
BRANCH   7   8
ATOM      8  C   UNL     1     -14.296   9.963 -19.882  1.00  0.00     0.041 C 
ATOM      9  O   UNL     1     -15.134  10.756 -19.374  1.00  0.00    -0.550 OA
ATOM     10  O   UNL     1     -12.993   9.939 -19.402  1.00  0.00    -0.550 OA
ENDBRANCH   7   8
ENDBRANCH   6   7
ENDBRANCH   5   6
ENDBRANCH   4   5
ENDBRANCH   3   4
ENDBRANCH   2   3
ENDBRANCH   1   2
BRANCH   1  11
ATOM     11  C   UNL     1     -16.545   6.745 -23.672  1.00  0.00     0.000 C 
BRANCH  11  12
ATOM     12  C   UNL     1     -17.645   5.851 -23.081  1.00  0.00    -0.000 C 
BRANCH  12  13
ATOM     13  C   UNL     1     -17.806   6.024 -21.559  1.00  0.00    -0.000 C 
BRANCH  13  14
ATOM     14  C   UNL     1     -17.478   4.774 -20.722  1.00  0.00    -0.000 C 
BRANCH  14  15
ATOM     15  C   UNL     1     -17.763   3.461 -21.464  1.00  0.00    -0.000 C 
BRANCH  15  16
ATOM     16  C   UNL     1     -16.536   2.542 -21.446  1.00  0.00    -0.000 C 
BRANCH  16  17
ATOM     17  C   UNL     1     -15.852   2.565 -20.074  1.00  0.00    -0.003 C 
ATOM     18  C   UNL     1     -14.454   1.956 -20.145  1.00  0.00     0.004 C 
ENDBRANCH  16  17
ENDBRANCH  15  16
ENDBRANCH  14  15
ENDBRANCH  13  14
ENDBRANCH  12  13
ENDBRANCH  11  12
ENDBRANCH   1  11
TORSDOF 14
ENDMDL
MODEL 6
REMARK VINA RESULT:    -4.948      4.649      6.657
REMARK INTER + INTRA:         -11.285
REMARK INTER:                  -9.431
REMARK INTRA:                  -1.854
REMARK UNBOUND:                -2.288
REMARK SMILES CCCCCCCCCCCCCCCC(=O)[O-]
REMARK SMILES IDX 9 1 10 2 11 3 12 4 13 5 14 6 15 7 16 8 17 9 18 10 8 11 7 12
REMARK SMILES IDX 6 13 5 14 4 15 3 16 2 17 1 18
REMARK H PARENT
REMARK Flexibility Score: inf
ROOT
ATOM      1  C   UNL     1     -15.222   2.333 -19.473  1.00  0.00     0.000 C 
ENDROOT
BRANCH   1   2
ATOM      2  C   UNL     1     -16.336   3.263 -19.984  1.00  0.00     0.000 C 
BRANCH   2   3
ATOM      3  C   UNL     1     -15.888   4.700 -20.324  1.00  0.00     0.000 C 
BRANCH   3   4
ATOM      4  C   UNL     1     -14.365   4.931 -20.310  1.00  0.00     0.000 C 
BRANCH   4   5
ATOM      5  C   UNL     1     -13.905   6.249 -20.960  1.00  0.00     0.000 C 
BRANCH   5   6
ATOM      6  C   UNL     1     -14.602   7.502 -20.385  1.00  0.00     0.006 C 
BRANCH   6   7
ATOM      7  C   UNL     1     -13.616   8.639 -20.089  1.00  0.00     0.053 C 
BRANCH   7   8
ATOM      8  C   UNL     1     -14.351   9.873 -19.671  1.00  0.00     0.041 C 
ATOM      9  O   UNL     1     -15.558  10.033 -19.998  1.00  0.00    -0.550 OA
ATOM     10  O   UNL     1     -13.722  10.823 -18.878  1.00  0.00    -0.550 OA
ENDBRANCH   7   8
ENDBRANCH   6   7
ENDBRANCH   5   6
ENDBRANCH   4   5
ENDBRANCH   3   4
ENDBRANCH   2   3
ENDBRANCH   1   2
BRANCH   1  11
ATOM     11  C   UNL     1     -15.021   1.096 -20.360  1.00  0.00     0.000 C 
BRANCH  11  12
ATOM     12  C   UNL     1     -13.787   1.260 -21.259  1.00  0.00    -0.000 C 
BRANCH  12  13
ATOM     13  C   UNL     1     -14.144   1.398 -22.750  1.00  0.00    -0.000 C 
BRANCH  13  14
ATOM     14  C   UNL     1     -14.317   2.845 -23.250  1.00  0.00    -0.000 C 
BRANCH  14  15
ATOM     15  C   UNL     1     -15.582   3.040 -24.098  1.00  0.00    -0.000 C 
BRANCH  15  16
ATOM     16  C   UNL     1     -16.835   2.615 -23.323  1.00  0.00    -0.000 C 
BRANCH  16  17
ATOM     17  C   UNL     1     -17.453   1.350 -23.929  1.00  0.00    -0.003 C 
ATOM     18  C   UNL     1     -17.838   0.350 -22.842  1.00  0.00     0.004 C 
ENDBRANCH  16  17
ENDBRANCH  15  16
ENDBRANCH  14  15
ENDBRANCH  13  14
ENDBRANCH  12  13
ENDBRANCH  11  12
ENDBRANCH   1  11
TORSDOF 14
ENDMDL
MODEL 7
REMARK VINA RESULT:    -4.946      4.228      6.757
REMARK INTER + INTRA:         -11.282
REMARK INTER:                  -8.854
REMARK INTRA:                  -2.428
REMARK UNBOUND:                -2.288
REMARK SMILES CCCCCCCCCCCCCCCC(=O)[O-]
REMARK SMILES IDX 9 1 10 2 11 3 12 4 13 5 14 6 15 7 16 8 17 9 18 10 8 11 7 12
REMARK SMILES IDX 6 13 5 14 4 15 3 16 2 17 1 18
REMARK H PARENT
REMARK Flexibility Score: inf
ROOT
ATOM      1  C   UNL     1     -13.916   4.738 -22.737  1.00  0.00     0.000 C 
ENDROOT
BRANCH   1   2
ATOM      2  C   UNL     1     -13.785   5.895 -21.730  1.00  0.00     0.000 C 
BRANCH   2   3
ATOM      3  C   UNL     1     -14.430   5.642 -20.351  1.00  0.00     0.000 C 
BRANCH   3   4
ATOM      4  C   UNL     1     -15.464   6.694 -19.910  1.00  0.00     0.000 C 
BRANCH   4   5
ATOM      5  C   UNL     1     -16.884   6.479 -20.467  1.00  0.00     0.000 C 
BRANCH   5   6
ATOM      6  C   UNL     1     -17.445   7.702 -21.226  1.00  0.00     0.006 C 
BRANCH   6   7
ATOM      7  C   UNL     1     -17.079   7.687 -22.716  1.00  0.00     0.053 C 
BRANCH   7   8
ATOM      8  C   UNL     1     -16.091   8.769 -23.022  1.00  0.00     0.041 C 
ATOM      9  O   UNL     1     -15.986   9.217 -24.195  1.00  0.00    -0.550 OA
ATOM     10  O   UNL     1     -15.324   9.318 -22.004  1.00  0.00    -0.550 OA
ENDBRANCH   7   8
ENDBRANCH   6   7
ENDBRANCH   5   6
ENDBRANCH   4   5
ENDBRANCH   3   4
ENDBRANCH   2   3
ENDBRANCH   1   2
BRANCH   1  11
ATOM     11  C   UNL     1     -15.019   4.973 -23.779  1.00  0.00     0.000 C 
BRANCH  11  12
ATOM     12  C   UNL     1     -15.939   3.748 -23.889  1.00  0.00    -0.000 C 
BRANCH  12  13
ATOM     13  C   UNL     1     -17.363   4.018 -23.371  1.00  0.00    -0.000 C 
BRANCH  13  14
ATOM     14  C   UNL     1     -17.691   3.390 -22.004  1.00  0.00    -0.000 C 
BRANCH  14  15
ATOM     15  C   UNL     1     -16.551   2.524 -21.451  1.00  0.00    -0.000 C 
BRANCH  15  16
ATOM     16  C   UNL     1     -16.270   2.857 -19.981  1.00  0.00    -0.000 C 
BRANCH  16  17
ATOM     17  C   UNL     1     -15.055   2.080 -19.463  1.00  0.00    -0.003 C 
ATOM     18  C   UNL     1     -14.788   0.842 -20.316  1.00  0.00     0.004 C 
ENDBRANCH  16  17
ENDBRANCH  15  16
ENDBRANCH  14  15
ENDBRANCH  13  14
ENDBRANCH  12  13
ENDBRANCH  11  12
ENDBRANCH   1  11
TORSDOF 14
ENDMDL
MODEL 8
REMARK VINA RESULT:    -4.934      2.308      4.449
REMARK INTER + INTRA:         -11.260
REMARK INTER:                  -8.762
REMARK INTRA:                  -2.498
REMARK UNBOUND:                -2.288
REMARK SMILES CCCCCCCCCCCCCCCC(=O)[O-]
REMARK SMILES IDX 9 1 10 2 11 3 12 4 13 5 14 6 15 7 16 8 17 9 18 10 8 11 7 12
REMARK SMILES IDX 6 13 5 14 4 15 3 16 2 17 1 18
REMARK H PARENT
REMARK Flexibility Score: inf
ROOT
ATOM      1  C   UNL     1     -13.798   5.282 -22.055  1.00  0.00     0.000 C 
ENDROOT
BRANCH   1   2
ATOM      2  C   UNL     1     -14.973   5.843 -22.876  1.00  0.00     0.000 C 
BRANCH   2   3
ATOM      3  C   UNL     1     -16.210   4.923 -22.965  1.00  0.00     0.000 C 
BRANCH   3   4
ATOM      4  C   UNL     1     -17.410   5.356 -22.102  1.00  0.00     0.000 C 
BRANCH   4   5
ATOM      5  C   UNL     1     -17.216   5.168 -20.586  1.00  0.00     0.000 C 
BRANCH   5   6
ATOM      6  C   UNL     1     -17.275   3.694 -20.130  1.00  0.00     0.006 C 
BRANCH   6   7
ATOM      7  C   UNL     1     -15.893   3.136 -19.766  1.00  0.00     0.053 C 
BRANCH   7   8
ATOM      8  C   UNL     1     -15.591   1.917 -20.578  1.00  0.00     0.041 C 
ATOM      9  O   UNL     1     -16.229   1.689 -21.641  1.00  0.00    -0.550 OA
ATOM     10  O   UNL     1     -14.571   1.057 -20.191  1.00  0.00    -0.550 OA
ENDBRANCH   7   8
ENDBRANCH   6   7
ENDBRANCH   5   6
ENDBRANCH   4   5
ENDBRANCH   3   4
ENDBRANCH   2   3
ENDBRANCH   1   2
BRANCH   1  11
ATOM     11  C   UNL     1     -13.703   5.896 -20.651  1.00  0.00     0.000 C 
BRANCH  11  12
ATOM     12  C   UNL     1     -12.880   7.193 -20.674  1.00  0.00    -0.000 C 
BRANCH  12  13
ATOM     13  C   UNL     1     -13.709   8.437 -20.306  1.00  0.00    -0.000 C 
BRANCH  13  14
ATOM     14  C   UNL     1     -15.155   8.150 -19.859  1.00  0.00    -0.000 C 
BRANCH  14  15
ATOM     15  C   UNL     1     -16.199   8.941 -20.659  1.00  0.00    -0.000 C 
BRANCH  15  16
ATOM     16  C   UNL     1     -15.805   9.035 -22.137  1.00  0.00    -0.000 C 
BRANCH  16  17
ATOM     17  C   UNL     1     -17.042   8.984 -23.041  1.00  0.00    -0.003 C 
ATOM     18  C   UNL     1     -18.324   8.908 -22.216  1.00  0.00     0.004 C 
ENDBRANCH  16  17
ENDBRANCH  15  16
ENDBRANCH  14  15
ENDBRANCH  13  14
ENDBRANCH  12  13
ENDBRANCH  11  12
ENDBRANCH   1  11
TORSDOF 14
ENDMDL
MODEL 9
REMARK VINA RESULT:    -4.897      1.781      3.361
REMARK INTER + INTRA:         -11.192
REMARK INTER:                  -8.617
REMARK INTRA:                  -2.575
REMARK UNBOUND:                -2.288
REMARK SMILES CCCCCCCCCCCCCCCC(=O)[O-]
REMARK SMILES IDX 9 1 10 2 11 3 12 4 13 5 14 6 15 7 16 8 17 9 18 10 8 11 7 12
REMARK SMILES IDX 6 13 5 14 4 15 3 16 2 17 1 18
REMARK H PARENT
REMARK Flexibility Score: inf
ROOT
ATOM      1  C   UNL     1     -16.869   3.888 -22.981  1.00  0.00     0.000 C 
ENDROOT
BRANCH   1   2
ATOM      2  C   UNL     1     -17.379   3.250 -21.677  1.00  0.00     0.000 C 
BRANCH   2   3
ATOM      3  C   UNL     1     -16.762   3.820 -20.382  1.00  0.00     0.000 C 
BRANCH   3   4
ATOM      4  C   UNL     1     -16.006   2.797 -19.513  1.00  0.00     0.000 C 
BRANCH   4   5
ATOM      5  C   UNL     1     -14.726   2.226 -20.151  1.00  0.00     0.000 C 
BRANCH   5   6
ATOM      6  C   UNL     1     -14.788   0.705 -20.413  1.00  0.00     0.006 C 
BRANCH   6   7
ATOM      7  C   UNL     1     -14.116   0.309 -21.734  1.00  0.00     0.053 C 
BRANCH   7   8
ATOM      8  C   UNL     1     -15.076  -0.438 -22.605  1.00  0.00     0.041 C 
ATOM      9  O   UNL     1     -14.649  -1.241 -23.477  1.00  0.00    -0.550 OA
ATOM     10  O   UNL     1     -16.444  -0.288 -22.421  1.00  0.00    -0.550 OA
ENDBRANCH   7   8
ENDBRANCH   6   7
ENDBRANCH   5   6
ENDBRANCH   4   5
ENDBRANCH   3   4
ENDBRANCH   2   3
ENDBRANCH   1   2
BRANCH   1  11
ATOM     11  C   UNL     1     -15.645   3.164 -23.562  1.00  0.00     0.000 C 
BRANCH  11  12
ATOM     12  C   UNL     1     -14.366   3.983 -23.338  1.00  0.00    -0.000 C 
BRANCH  12  13
ATOM     13  C   UNL     1     -14.649   5.425 -22.876  1.00  0.00    -0.000 C 
BRANCH  13  14
ATOM     14  C   UNL     1     -13.936   5.847 -21.579  1.00  0.00    -0.000 C 
BRANCH  14  15
ATOM     15  C   UNL     1     -14.697   6.928 -20.798  1.00  0.00    -0.000 C 
BRANCH  15  16
ATOM     16  C   UNL     1     -15.760   7.595 -21.677  1.00  0.00    -0.000 C 
BRANCH  16  17
ATOM     17  C   UNL     1     -17.104   7.682 -20.944  1.00  0.00    -0.003 C 
ATOM     18  C   UNL     1     -18.215   7.014 -21.750  1.00  0.00     0.004 C 
ENDBRANCH  16  17
ENDBRANCH  15  16
ENDBRANCH  14  15
ENDBRANCH  13  14
ENDBRANCH  12  13
ENDBRANCH  11  12
ENDBRANCH   1  11
TORSDOF 14
ENDMDL
