MODEL 1
REMARK VINA RESULT:    20.175      0.000      0.000
REMARK INTER + INTRA:          27.271
REMARK INTER:                  27.251
REMARK INTRA:                   0.020
REMARK UNBOUND:                 0.020
REMARK SMILES O=c1c(-c2ccc(O)cc2)coc2c([C@@H]3O[C@@H](CO)[C@@H](O)[C@H](O)[C@H]3O)c(O)ccc12
REMARK SMILES IDX 3 1 11 2 12 3 13 4 30 5 2 6 1 7 29 8 28 9 26 10 14 11 4 12
REMARK SMILES IDX 5 13 6 14 7 15 10 16 9 17 8 18 15 20 24 21 16 22 22 23 17 24
REMARK SMILES IDX 20 25 25 26 23 28 18 30 19 31 21 33 27 35
REMARK H PARENT 8 19 25 27 23 29 19 32 21 34 27 36
REMARK Flexibility Score: inf
ROOT
ATOM      1  C   UNL     1      21.400   6.055   6.921  1.00  0.00     0.065 A 
ATOM      2  C   UNL     1      21.638   7.125   6.020  1.00  0.00     0.208 A 
ATOM      3  O   UNL     1      21.234   8.370   6.333  1.00  0.00    -0.463 OA
ATOM      4  C   UNL     1      20.885   8.703   7.639  1.00  0.00     0.147 A 
ATOM      5  C   UNL     1      20.756   7.669   8.620  1.00  0.00     0.066 A 
ATOM      6  C   UNL     1      20.796   6.323   8.194  1.00  0.00     0.200 A 
ATOM      7  O   UNL     1      20.396   5.388   8.949  1.00  0.00    -0.288 OA
ATOM      8  C   UNL     1      21.102   7.989   9.949  1.00  0.00     0.020 A 
ATOM      9  C   UNL     1      21.482   9.282  10.311  1.00  0.00     0.047 A 
ATOM     10  C   UNL     1      21.163  10.317   9.463  1.00  0.00     0.125 A 
ATOM     11  C   UNL     1      20.885  10.083   8.059  1.00  0.00     0.069 A 
ENDROOT
BRANCH   1  12
ATOM     12  C   UNL     1      21.741   4.731   6.486  1.00  0.00    -0.011 A 
ATOM     13  C   UNL     1      22.653   4.620   5.413  1.00  0.00     0.013 A 
ATOM     14  C   UNL     1      23.440   3.463   5.259  1.00  0.00     0.047 A 
ATOM     15  C   UNL     1      23.130   2.327   6.007  1.00  0.00     0.115 A 
ATOM     16  C   UNL     1      21.293   3.537   7.111  1.00  0.00     0.013 A 
ATOM     17  C   UNL     1      22.029   2.349   6.904  1.00  0.00     0.047 A 
BRANCH  15  18
ATOM     18  O   UNL     1      24.023   1.204   5.949  1.00  0.00    -0.508 OA
ATOM     19  H   UNL     1      24.813   1.096   6.605  1.00  0.00     0.293 HD
ENDBRANCH  15  18
ENDBRANCH   1  12
BRANCH  11  20
ATOM     20  C   UNL     1      20.921  11.329   7.130  1.00  0.00     0.188 C 
ATOM     21  C   UNL     1      20.426  11.236   5.645  1.00  0.00     0.179 C 
ATOM     22  O   UNL     1      20.346  12.471   7.795  1.00  0.00    -0.362 OA
ATOM     23  C   UNL     1      18.862  11.336   5.539  1.00  0.00     0.177 C 
ATOM     24  C   UNL     1      18.940  12.479   7.837  1.00  0.00     0.176 C 
ATOM     25  C   UNL     1      18.196  11.486   6.902  1.00  0.00     0.177 C 
BRANCH  21  26
ATOM     26  O   UNL     1      20.973  12.337   4.941  1.00  0.00    -0.387 OA
ATOM     27  H   UNL     1      20.898  13.148   5.536  1.00  0.00     0.211 HD
ENDBRANCH  21  26
BRANCH  23  28
ATOM     28  O   UNL     1      18.302  10.226   4.877  1.00  0.00    -0.387 OA
ATOM     29  H   UNL     1      18.902  10.082   4.096  1.00  0.00     0.211 HD
ENDBRANCH  23  28
BRANCH  24  30
ATOM     30  C   UNL     1      18.328  13.986   7.856  1.00  0.00     0.191 C 
BRANCH  30  31
ATOM     31  O   UNL     1      17.071  13.920   8.561  1.00  0.00    -0.394 OA
ATOM     32  H   UNL     1      16.573  14.783   8.443  1.00  0.00     0.210 HD
ENDBRANCH  30  31
ENDBRANCH  24  30
BRANCH  25  33
ATOM     33  O   UNL     1      16.876  11.951   6.668  1.00  0.00    -0.388 OA
ATOM     34  H   UNL     1      16.559  12.496   7.432  1.00  0.00     0.211 HD
ENDBRANCH  25  33
ENDBRANCH  11  20
BRANCH  10  35
ATOM     35  O   UNL     1      20.820  11.501  10.078  1.00  0.00    -0.507 OA
ATOM     36  H   UNL     1      20.437  11.569  11.050  1.00  0.00     0.293 HD
ENDBRANCH  10  35
TORSDOF 9
ENDMDL
