MODEL 1
REMARK VINA RESULT:    -4.766      0.000      0.000
REMARK INTER + INTRA:         -10.899
REMARK INTER:                  -8.946
REMARK INTRA:                  -1.953
REMARK UNBOUND:                -1.953
REMARK SMILES O=C([O-])CCCCCCCCCCCCCCC(=O)[O-]
REMARK SMILES IDX 10 1 9 2 8 3 7 4 6 5 5 6 4 7 2 8 1 9 3 10 11 11 12 12 13 13
REMARK SMILES IDX 14 14 15 15 16 16 17 17 18 18 19 19 20 20
REMARK H PARENT
REMARK Flexibility Score: inf
ROOT
ATOM      1  C   UNL     1     -23.800  18.043 -21.949  1.00  0.00     0.000 C 
ENDROOT
BRANCH   1   2
ATOM      2  C   UNL     1     -23.987  17.507 -23.378  1.00  0.00     0.000 C 
BRANCH   2   3
ATOM      3  C   UNL     1     -23.239  18.342 -24.427  1.00  0.00     0.000 C 
BRANCH   3   4
ATOM      4  C   UNL     1     -22.210  17.487 -25.177  1.00  0.00     0.000 C 
BRANCH   4   5
ATOM      5  C   UNL     1     -20.780  17.939 -24.857  1.00  0.00     0.000 C 
BRANCH   5   6
ATOM      6  C   UNL     1     -20.161  17.067 -23.755  1.00  0.00     0.006 C 
BRANCH   6   7
ATOM      7  C   UNL     1     -20.744  15.647 -23.742  1.00  0.00     0.053 C 
BRANCH   7   8
ATOM      8  C   UNL     1     -20.855  15.107 -22.349  1.00  0.00     0.041 C 
ATOM      9  O   UNL     1     -19.817  14.838 -21.689  1.00  0.00    -0.550 OA
ATOM     10  O   UNL     1     -22.105  14.930 -21.769  1.00  0.00    -0.550 OA
ENDBRANCH   7   8
ENDBRANCH   6   7
ENDBRANCH   5   6
ENDBRANCH   4   5
ENDBRANCH   3   4
ENDBRANCH   2   3
ENDBRANCH   1   2
BRANCH   1  11
ATOM     11  C   UNL     1     -22.640  19.045 -21.842  1.00  0.00     0.000 C 
BRANCH  11  12
ATOM     12  C   UNL     1     -23.078  20.404 -21.267  1.00  0.00     0.000 C 
BRANCH  12  13
ATOM     13  C   UNL     1     -23.955  21.232 -22.231  1.00  0.00     0.000 C 
BRANCH  13  14
ATOM     14  C   UNL     1     -23.119  22.186 -23.102  1.00  0.00     0.000 C 
BRANCH  14  15
ATOM     15  C   UNL     1     -23.080  21.747 -24.583  1.00  0.00     0.000 C 
BRANCH  15  16
ATOM     16  C   UNL     1     -21.686  21.877 -25.225  1.00  0.00     0.006 C 
BRANCH  16  17
ATOM     17  C   UNL     1     -20.988  23.214 -24.941  1.00  0.00     0.053 C 
BRANCH  17  18
ATOM     18  C   UNL     1     -21.091  24.155 -26.103  1.00  0.00     0.041 C 
ATOM     19  O   UNL     1     -22.162  24.781 -26.323  1.00  0.00    -0.550 OA
ATOM     20  O   UNL     1     -19.994  24.358 -26.931  1.00  0.00    -0.550 OA
ENDBRANCH  17  18
ENDBRANCH  16  17
ENDBRANCH  15  16
ENDBRANCH  14  15
ENDBRANCH  13  14
ENDBRANCH  12  13
ENDBRANCH  11  12
ENDBRANCH   1  11
TORSDOF 15
ENDMDL
MODEL 2
REMARK VINA RESULT:    -4.740      0.842      7.138
REMARK INTER + INTRA:         -10.849
REMARK INTER:                  -8.694
REMARK INTRA:                  -2.155
REMARK UNBOUND:                -1.953
REMARK SMILES O=C([O-])CCCCCCCCCCCCCCC(=O)[O-]
REMARK SMILES IDX 10 1 9 2 8 3 7 4 6 5 5 6 4 7 2 8 1 9 3 10 11 11 12 12 13 13
REMARK SMILES IDX 14 14 15 15 16 16 17 17 18 18 19 19 20 20
REMARK H PARENT
REMARK Flexibility Score: inf
ROOT
ATOM      1  C   UNL     1     -23.630  18.496 -22.214  1.00  0.00     0.000 C 
ENDROOT
BRANCH   1   2
ATOM      2  C   UNL     1     -22.850  19.751 -22.639  1.00  0.00     0.000 C 
BRANCH   2   3
ATOM      3  C   UNL     1     -23.576  21.053 -22.269  1.00  0.00     0.000 C 
BRANCH   3   4
ATOM      4  C   UNL     1     -23.188  22.187 -23.225  1.00  0.00     0.000 C 
BRANCH   4   5
ATOM      5  C   UNL     1     -22.870  21.645 -24.624  1.00  0.00     0.000 C 
BRANCH   5   6
ATOM      6  C   UNL     1     -21.511  22.164 -25.119  1.00  0.00     0.006 C 
BRANCH   6   7
ATOM      7  C   UNL     1     -21.335  23.667 -24.861  1.00  0.00     0.053 C 
BRANCH   7   8
ATOM      8  C   UNL     1     -21.868  24.490 -25.993  1.00  0.00     0.041 C 
ATOM      9  O   UNL     1     -21.287  24.482 -27.111  1.00  0.00    -0.550 OA
ATOM     10  O   UNL     1     -23.023  25.241 -25.824  1.00  0.00    -0.550 OA
ENDBRANCH   7   8
ENDBRANCH   6   7
ENDBRANCH   5   6
ENDBRANCH   4   5
ENDBRANCH   3   4
ENDBRANCH   2   3
ENDBRANCH   1   2
BRANCH   1  11
ATOM     11  C   UNL     1     -23.862  17.523 -23.380  1.00  0.00     0.000 C 
BRANCH  11  12
ATOM     12  C   UNL     1     -23.580  18.159 -24.752  1.00  0.00     0.000 C 
BRANCH  12  13
ATOM     13  C   UNL     1     -22.517  17.405 -25.580  1.00  0.00     0.000 C 
BRANCH  13  14
ATOM     14  C   UNL     1     -21.257  18.255 -25.819  1.00  0.00     0.000 C 
BRANCH  14  15
ATOM     15  C   UNL     1     -20.277  18.200 -24.625  1.00  0.00     0.000 C 
BRANCH  15  16
ATOM     16  C   UNL     1     -20.123  16.793 -24.020  1.00  0.00     0.006 C 
BRANCH  16  17
ATOM     17  C   UNL     1     -20.397  16.727 -22.511  1.00  0.00     0.053 C 
BRANCH  17  18
ATOM     18  C   UNL     1     -20.863  15.367 -22.088  1.00  0.00     0.041 C 
ATOM     19  O   UNL     1     -21.446  15.209 -20.983  1.00  0.00    -0.550 OA
ATOM     20  O   UNL     1     -20.674  14.276 -22.927  1.00  0.00    -0.550 OA
ENDBRANCH  17  18
ENDBRANCH  16  17
ENDBRANCH  15  16
ENDBRANCH  14  15
ENDBRANCH  13  14
ENDBRANCH  12  13
ENDBRANCH  11  12
ENDBRANCH   1  11
TORSDOF 15
ENDMDL
MODEL 3
REMARK VINA RESULT:    -4.645      1.295      7.126
REMARK INTER + INTRA:         -10.672
REMARK INTER:                  -8.603
REMARK INTRA:                  -2.069
REMARK UNBOUND:                -1.953
REMARK SMILES O=C([O-])CCCCCCCCCCCCCCC(=O)[O-]
REMARK SMILES IDX 10 1 9 2 8 3 7 4 6 5 5 6 4 7 2 8 1 9 3 10 11 11 12 12 13 13
REMARK SMILES IDX 14 14 15 15 16 16 17 17 18 18 19 19 20 20
REMARK H PARENT
REMARK Flexibility Score: inf
ROOT
ATOM      1  C   UNL     1     -24.064  17.618 -23.093  1.00  0.00     0.000 C 
ENDROOT
BRANCH   1   2
ATOM      2  C   UNL     1     -23.807  18.250 -21.715  1.00  0.00     0.000 C 
BRANCH   2   3
ATOM      3  C   UNL     1     -22.800  19.408 -21.773  1.00  0.00     0.000 C 
BRANCH   3   4
ATOM      4  C   UNL     1     -23.410  20.696 -21.208  1.00  0.00     0.000 C 
BRANCH   4   5
ATOM      5  C   UNL     1     -23.954  21.587 -22.331  1.00  0.00     0.000 C 
BRANCH   5   6
ATOM      6  C   UNL     1     -22.937  22.673 -22.714  1.00  0.00     0.006 C 
BRANCH   6   7
ATOM      7  C   UNL     1     -23.100  23.134 -24.168  1.00  0.00     0.053 C 
BRANCH   7   8
ATOM      8  C   UNL     1     -21.956  22.683 -25.025  1.00  0.00     0.041 C 
ATOM      9  O   UNL     1     -21.235  23.530 -25.616  1.00  0.00    -0.550 OA
ATOM     10  O   UNL     1     -21.666  21.331 -25.143  1.00  0.00    -0.550 OA
ENDBRANCH   7   8
ENDBRANCH   6   7
ENDBRANCH   5   6
ENDBRANCH   4   5
ENDBRANCH   3   4
ENDBRANCH   2   3
ENDBRANCH   1   2
BRANCH   1  11
ATOM     11  C   UNL     1     -23.326  18.349 -24.225  1.00  0.00     0.000 C 
BRANCH  11  12
ATOM     12  C   UNL     1     -22.808  17.392 -25.313  1.00  0.00     0.000 C 
BRANCH  12  13
ATOM     13  C   UNL     1     -21.319  17.602 -25.666  1.00  0.00     0.000 C 
BRANCH  13  14
ATOM     14  C   UNL     1     -20.485  18.015 -24.441  1.00  0.00     0.000 C 
BRANCH  14  15
ATOM     15  C   UNL     1     -19.868  16.799 -23.714  1.00  0.00     0.000 C 
BRANCH  15  16
ATOM     16  C   UNL     1     -20.573  16.452 -22.390  1.00  0.00     0.006 C 
BRANCH  16  17
ATOM     17  C   UNL     1     -21.212  15.056 -22.366  1.00  0.00     0.053 C 
BRANCH  17  18
ATOM     18  C   UNL     1     -21.829  14.748 -21.036  1.00  0.00     0.041 C 
ATOM     19  O   UNL     1     -23.034  15.036 -20.811  1.00  0.00    -0.550 OA
ATOM     20  O   UNL     1     -21.078  14.121 -20.050  1.00  0.00    -0.550 OA
ENDBRANCH  17  18
ENDBRANCH  16  17
ENDBRANCH  15  16
ENDBRANCH  14  15
ENDBRANCH  13  14
ENDBRANCH  12  13
ENDBRANCH  11  12
ENDBRANCH   1  11
TORSDOF 15
ENDMDL
MODEL 4
REMARK VINA RESULT:    -4.627      1.485      2.066
REMARK INTER + INTRA:         -10.638
REMARK INTER:                  -8.748
REMARK INTRA:                  -1.890
REMARK UNBOUND:                -1.953
REMARK SMILES O=C([O-])CCCCCCCCCCCCCCC(=O)[O-]
REMARK SMILES IDX 10 1 9 2 8 3 7 4 6 5 5 6 4 7 2 8 1 9 3 10 11 11 12 12 13 13
REMARK SMILES IDX 14 14 15 15 16 16 17 17 18 18 19 19 20 20
REMARK H PARENT
REMARK Flexibility Score: inf
ROOT
ATOM      1  C   UNL     1     -24.155  17.362 -23.255  1.00  0.00     0.000 C 
ENDROOT
BRANCH   1   2
ATOM      2  C   UNL     1     -23.610  17.900 -24.588  1.00  0.00     0.000 C 
BRANCH   2   3
ATOM      3  C   UNL     1     -22.323  17.190 -25.033  1.00  0.00     0.000 C 
BRANCH   3   4
ATOM      4  C   UNL     1     -21.085  18.019 -24.667  1.00  0.00     0.000 C 
BRANCH   4   5
ATOM      5  C   UNL     1     -20.133  17.221 -23.769  1.00  0.00     0.000 C 
BRANCH   5   6
ATOM      6  C   UNL     1     -20.780  15.905 -23.312  1.00  0.00     0.006 C 
BRANCH   6   7
ATOM      7  C   UNL     1     -21.036  15.879 -21.799  1.00  0.00     0.053 C 
BRANCH   7   8
ATOM      8  C   UNL     1     -20.674  14.554 -21.199  1.00  0.00     0.041 C 
ATOM      9  O   UNL     1     -21.195  14.187 -20.113  1.00  0.00    -0.550 OA
ATOM     10  O   UNL     1     -19.786  13.713 -21.855  1.00  0.00    -0.550 OA
ENDBRANCH   7   8
ENDBRANCH   6   7
ENDBRANCH   5   6
ENDBRANCH   4   5
ENDBRANCH   3   4
ENDBRANCH   2   3
ENDBRANCH   1   2
BRANCH   1  11
ATOM     11  C   UNL     1     -24.367  18.472 -22.214  1.00  0.00     0.000 C 
BRANCH  11  12
ATOM     12  C   UNL     1     -23.046  18.997 -21.626  1.00  0.00     0.000 C 
BRANCH  12  13
ATOM     13  C   UNL     1     -23.024  20.528 -21.419  1.00  0.00     0.000 C 
BRANCH  13  14
ATOM     14  C   UNL     1     -23.604  21.285 -22.626  1.00  0.00     0.000 C 
BRANCH  14  15
ATOM     15  C   UNL     1     -22.653  21.267 -23.843  1.00  0.00     0.000 C 
BRANCH  15  16
ATOM     16  C   UNL     1     -22.421  22.657 -24.463  1.00  0.00     0.006 C 
BRANCH  16  17
ATOM     17  C   UNL     1     -22.613  23.821 -23.480  1.00  0.00     0.053 C 
BRANCH  17  18
ATOM     18  C   UNL     1     -21.394  24.689 -23.400  1.00  0.00     0.041 C 
ATOM     19  O   UNL     1     -20.395  24.452 -24.129  1.00  0.00    -0.550 OA
ATOM     20  O   UNL     1     -21.371  25.776 -22.536  1.00  0.00    -0.550 OA
ENDBRANCH  17  18
ENDBRANCH  16  17
ENDBRANCH  15  16
ENDBRANCH  14  15
ENDBRANCH  13  14
ENDBRANCH  12  13
ENDBRANCH  11  12
ENDBRANCH   1  11
TORSDOF 15
ENDMDL
MODEL 5
REMARK VINA RESULT:    -4.610      2.745      6.823
REMARK INTER + INTRA:         -10.606
REMARK INTER:                  -8.728
REMARK INTRA:                  -1.878
REMARK UNBOUND:                -1.953
REMARK SMILES O=C([O-])CCCCCCCCCCCCCCC(=O)[O-]
REMARK SMILES IDX 10 1 9 2 8 3 7 4 6 5 5 6 4 7 2 8 1 9 3 10 11 11 12 12 13 13
REMARK SMILES IDX 14 14 15 15 16 16 17 17 18 18 19 19 20 20
REMARK H PARENT
REMARK Flexibility Score: inf
ROOT
ATOM      1  C   UNL     1     -24.744  18.421 -22.280  1.00  0.00     0.000 C 
ENDROOT
BRANCH   1   2
ATOM      2  C   UNL     1     -24.328  19.693 -21.523  1.00  0.00     0.000 C 
BRANCH   2   3
ATOM      3  C   UNL     1     -23.232  20.485 -22.250  1.00  0.00     0.000 C 
BRANCH   3   4
ATOM      4  C   UNL     1     -22.870  19.822 -23.585  1.00  0.00     0.000 C 
BRANCH   4   5
ATOM      5  C   UNL     1     -22.483  20.871 -24.635  1.00  0.00     0.000 C 
BRANCH   5   6
ATOM      6  C   UNL     1     -21.481  20.294 -25.645  1.00  0.00     0.006 C 
BRANCH   6   7
ATOM      7  C   UNL     1     -20.992  18.896 -25.244  1.00  0.00     0.053 C 
BRANCH   7   8
ATOM      8  C   UNL     1     -21.469  17.845 -26.200  1.00  0.00     0.041 C 
ATOM      9  O   UNL     1     -22.025  16.801 -25.769  1.00  0.00    -0.550 OA
ATOM     10  O   UNL     1     -21.328  18.035 -27.568  1.00  0.00    -0.550 OA
ENDBRANCH   7   8
ENDBRANCH   6   7
ENDBRANCH   5   6
ENDBRANCH   4   5
ENDBRANCH   3   4
ENDBRANCH   2   3
ENDBRANCH   1   2
BRANCH   1  11
ATOM     11  C   UNL     1     -25.016  17.237 -21.339  1.00  0.00     0.000 C 
BRANCH  11  12
ATOM     12  C   UNL     1     -23.801  16.306 -21.187  1.00  0.00     0.000 C 
BRANCH  12  13
ATOM     13  C   UNL     1     -22.821  16.365 -22.379  1.00  0.00     0.000 C 
BRANCH  13  14
ATOM     14  C   UNL     1     -21.480  17.015 -21.995  1.00  0.00     0.000 C 
BRANCH  14  15
ATOM     15  C   UNL     1     -20.269  16.139 -22.386  1.00  0.00     0.000 C 
BRANCH  15  16
ATOM     16  C   UNL     1     -20.664  14.757 -22.939  1.00  0.00     0.006 C 
BRANCH  16  17
ATOM     17  C   UNL     1     -20.236  13.581 -22.049  1.00  0.00     0.053 C 
BRANCH  17  18
ATOM     18  C   UNL     1     -21.283  13.243 -21.031  1.00  0.00     0.041 C 
ATOM     19  O   UNL     1     -22.160  12.375 -21.284  1.00  0.00    -0.550 OA
ATOM     20  O   UNL     1     -21.276  13.872 -19.793  1.00  0.00    -0.550 OA
ENDBRANCH  17  18
ENDBRANCH  16  17
ENDBRANCH  15  16
ENDBRANCH  14  15
ENDBRANCH  13  14
ENDBRANCH  12  13
ENDBRANCH  11  12
ENDBRANCH   1  11
TORSDOF 15
ENDMDL
MODEL 6
REMARK VINA RESULT:    -4.567      2.647      3.636
REMARK INTER + INTRA:         -10.525
REMARK INTER:                  -8.850
REMARK INTRA:                  -1.674
REMARK UNBOUND:                -1.953
REMARK SMILES O=C([O-])CCCCCCCCCCCCCCC(=O)[O-]
REMARK SMILES IDX 10 1 9 2 8 3 7 4 6 5 5 6 4 7 2 8 1 9 3 10 11 11 12 12 13 13
REMARK SMILES IDX 14 14 15 15 16 16 17 17 18 18 19 19 20 20
REMARK H PARENT
REMARK Flexibility Score: inf
ROOT
ATOM      1  C   UNL     1     -22.841  19.778 -21.258  1.00  0.00     0.000 C 
ENDROOT
BRANCH   1   2
ATOM      2  C   UNL     1     -23.853  18.900 -22.012  1.00  0.00     0.000 C 
BRANCH   2   3
ATOM      3  C   UNL     1     -23.318  17.488 -22.295  1.00  0.00     0.000 C 
BRANCH   3   4
ATOM      4  C   UNL     1     -21.802  17.422 -22.077  1.00  0.00     0.000 C 
BRANCH   4   5
ATOM      5  C   UNL     1     -21.376  16.035 -21.581  1.00  0.00     0.000 C 
BRANCH   5   6
ATOM      6  C   UNL     1     -20.920  15.149 -22.749  1.00  0.00     0.006 C 
BRANCH   6   7
ATOM      7  C   UNL     1     -20.202  13.880 -22.270  1.00  0.00     0.053 C 
BRANCH   7   8
ATOM      8  C   UNL     1     -21.028  13.115 -21.281  1.00  0.00     0.041 C 
ATOM      9  O   UNL     1     -22.078  12.527 -21.653  1.00  0.00    -0.550 OA
ATOM     10  O   UNL     1     -20.622  13.026 -19.956  1.00  0.00    -0.550 OA
ENDBRANCH   7   8
ENDBRANCH   6   7
ENDBRANCH   5   6
ENDBRANCH   4   5
ENDBRANCH   3   4
ENDBRANCH   2   3
ENDBRANCH   1   2
BRANCH   1  11
ATOM     11  C   UNL     1     -23.337  21.220 -21.069  1.00  0.00     0.000 C 
BRANCH  11  12
ATOM     12  C   UNL     1     -23.976  21.802 -22.343  1.00  0.00     0.000 C 
BRANCH  12  13
ATOM     13  C   UNL     1     -23.010  22.667 -23.181  1.00  0.00     0.000 C 
BRANCH  13  14
ATOM     14  C   UNL     1     -23.009  22.263 -24.666  1.00  0.00     0.000 C 
BRANCH  14  15
ATOM     15  C   UNL     1     -21.813  21.353 -25.025  1.00  0.00     0.000 C 
BRANCH  15  16
ATOM     16  C   UNL     1     -22.140  19.850 -24.946  1.00  0.00     0.006 C 
BRANCH  16  17
ATOM     17  C   UNL     1     -21.009  18.936 -25.439  1.00  0.00     0.053 C 
BRANCH  17  18
ATOM     18  C   UNL     1     -21.531  17.795 -26.258  1.00  0.00     0.041 C 
ATOM     19  O   UNL     1     -22.063  16.800 -25.698  1.00  0.00    -0.550 OA
ATOM     20  O   UNL     1     -21.452  17.842 -27.644  1.00  0.00    -0.550 OA
ENDBRANCH  17  18
ENDBRANCH  16  17
ENDBRANCH  15  16
ENDBRANCH  14  15
ENDBRANCH  13  14
ENDBRANCH  12  13
ENDBRANCH  11  12
ENDBRANCH   1  11
TORSDOF 15
ENDMDL
MODEL 7
REMARK VINA RESULT:    -4.519      2.949      5.810
REMARK INTER + INTRA:         -10.435
REMARK INTER:                  -8.471
REMARK INTRA:                  -1.965
REMARK UNBOUND:                -1.953
REMARK SMILES O=C([O-])CCCCCCCCCCCCCCC(=O)[O-]
REMARK SMILES IDX 10 1 9 2 8 3 7 4 6 5 5 6 4 7 2 8 1 9 3 10 11 11 12 12 13 13
REMARK SMILES IDX 14 14 15 15 16 16 17 17 18 18 19 19 20 20
REMARK H PARENT
REMARK Flexibility Score: inf
ROOT
ATOM      1  C   UNL     1     -24.389  15.660 -20.494  1.00  0.00     0.000 C 
ENDROOT
BRANCH   1   2
ATOM      2  C   UNL     1     -24.668  17.060 -21.064  1.00  0.00     0.000 C 
BRANCH   2   3
ATOM      3  C   UNL     1     -24.392  17.151 -22.572  1.00  0.00     0.000 C 
BRANCH   3   4
ATOM      4  C   UNL     1     -23.746  18.495 -22.932  1.00  0.00     0.000 C 
BRANCH   4   5
ATOM      5  C   UNL     1     -22.880  19.016 -21.778  1.00  0.00     0.000 C 
BRANCH   5   6
ATOM      6  C   UNL     1     -23.216  20.480 -21.456  1.00  0.00     0.006 C 
BRANCH   6   7
ATOM      7  C   UNL     1     -23.275  21.353 -22.717  1.00  0.00     0.053 C 
BRANCH   7   8
ATOM      8  C   UNL     1     -23.196  22.812 -22.386  1.00  0.00     0.041 C 
ATOM      9  O   UNL     1     -23.259  23.194 -21.187  1.00  0.00    -0.550 OA
ATOM     10  O   UNL     1     -23.022  23.747 -23.398  1.00  0.00    -0.550 OA
ENDBRANCH   7   8
ENDBRANCH   6   7
ENDBRANCH   5   6
ENDBRANCH   4   5
ENDBRANCH   3   4
ENDBRANCH   2   3
ENDBRANCH   1   2
BRANCH   1  11
ATOM     11  C   UNL     1     -23.387  14.864 -21.345  1.00  0.00     0.000 C 
BRANCH  11  12
ATOM     12  C   UNL     1     -22.132  14.452 -20.557  1.00  0.00     0.000 C 
BRANCH  12  13
ATOM     13  C   UNL     1     -20.812  14.700 -21.320  1.00  0.00     0.000 C 
BRANCH  13  14
ATOM     14  C   UNL     1     -20.824  16.036 -22.082  1.00  0.00     0.000 C 
BRANCH  14  15
ATOM     15  C   UNL     1     -20.325  15.887 -23.537  1.00  0.00     0.000 C 
BRANCH  15  16
ATOM     16  C   UNL     1     -21.080  16.779 -24.540  1.00  0.00     0.006 C 
BRANCH  16  17
ATOM     17  C   UNL     1     -20.417  18.142 -24.788  1.00  0.00     0.053 C 
BRANCH  17  18
ATOM     18  C   UNL     1     -21.090  18.895 -25.895  1.00  0.00     0.041 C 
ATOM     19  O   UNL     1     -21.579  20.036 -25.684  1.00  0.00    -0.550 OA
ATOM     20  O   UNL     1     -21.155  18.345 -27.170  1.00  0.00    -0.550 OA
ENDBRANCH  17  18
ENDBRANCH  16  17
ENDBRANCH  15  16
ENDBRANCH  14  15
ENDBRANCH  13  14
ENDBRANCH  12  13
ENDBRANCH  11  12
ENDBRANCH   1  11
TORSDOF 15
ENDMDL
MODEL 8
REMARK VINA RESULT:    -4.510      2.939      4.702
REMARK INTER + INTRA:         -10.419
REMARK INTER:                  -8.321
REMARK INTRA:                  -2.097
REMARK UNBOUND:                -1.953
REMARK SMILES O=C([O-])CCCCCCCCCCCCCCC(=O)[O-]
REMARK SMILES IDX 10 1 9 2 8 3 7 4 6 5 5 6 4 7 2 8 1 9 3 10 11 11 12 12 13 13
REMARK SMILES IDX 14 14 15 15 16 16 17 17 18 18 19 19 20 20
REMARK H PARENT
REMARK Flexibility Score: inf
ROOT
ATOM      1  C   UNL     1     -23.246  23.641 -20.889  1.00  0.00     0.000 C 
ENDROOT
BRANCH   1   2
ATOM      2  C   UNL     1     -23.490  22.229 -20.333  1.00  0.00     0.000 C 
BRANCH   2   3
ATOM      3  C   UNL     1     -24.713  21.546 -20.963  1.00  0.00     0.000 C 
BRANCH   3   4
ATOM      4  C   UNL     1     -24.342  20.170 -21.529  1.00  0.00     0.000 C 
BRANCH   4   5
ATOM      5  C   UNL     1     -22.823  19.960 -21.517  1.00  0.00     0.000 C 
BRANCH   5   6
ATOM      6  C   UNL     1     -22.475  18.465 -21.557  1.00  0.00     0.006 C 
BRANCH   6   7
ATOM      7  C   UNL     1     -23.726  17.578 -21.609  1.00  0.00     0.053 C 
BRANCH   7   8
ATOM      8  C   UNL     1     -23.375  16.121 -21.591  1.00  0.00     0.041 C 
ATOM      9  O   UNL     1     -22.192  15.752 -21.814  1.00  0.00    -0.550 OA
ATOM     10  O   UNL     1     -24.348  15.175 -21.296  1.00  0.00    -0.550 OA
ENDBRANCH   7   8
ENDBRANCH   6   7
ENDBRANCH   5   6
ENDBRANCH   4   5
ENDBRANCH   3   4
ENDBRANCH   2   3
ENDBRANCH   1   2
BRANCH   1  11
ATOM     11  C   UNL     1     -24.239  24.016 -22.001  1.00  0.00     0.000 C 
BRANCH  11  12
ATOM     12  C   UNL     1     -23.555  24.228 -23.363  1.00  0.00     0.000 C 
BRANCH  12  13
ATOM     13  C   UNL     1     -22.432  23.211 -23.658  1.00  0.00     0.000 C 
BRANCH  13  14
ATOM     14  C   UNL     1     -22.885  22.115 -24.638  1.00  0.00     0.000 C 
BRANCH  14  15
ATOM     15  C   UNL     1     -21.724  21.184 -25.055  1.00  0.00     0.000 C 
BRANCH  15  16
ATOM     16  C   UNL     1     -22.087  19.688 -25.002  1.00  0.00     0.006 C 
BRANCH  16  17
ATOM     17  C   UNL     1     -21.021  18.763 -25.606  1.00  0.00     0.053 C 
BRANCH  17  18
ATOM     18  C   UNL     1     -20.889  17.486 -24.832  1.00  0.00     0.041 C 
ATOM     19  O   UNL     1     -21.649  16.513 -25.076  1.00  0.00    -0.550 OA
ATOM     20  O   UNL     1     -19.907  17.363 -23.857  1.00  0.00    -0.550 OA
ENDBRANCH  17  18
ENDBRANCH  16  17
ENDBRANCH  15  16
ENDBRANCH  14  15
ENDBRANCH  13  14
ENDBRANCH  12  13
ENDBRANCH  11  12
ENDBRANCH   1  11
TORSDOF 15
ENDMDL
MODEL 9
REMARK VINA RESULT:    -4.490      2.184      6.474
REMARK INTER + INTRA:         -10.381
REMARK INTER:                  -8.600
REMARK INTRA:                  -1.781
REMARK UNBOUND:                -1.953
REMARK SMILES O=C([O-])CCCCCCCCCCCCCCC(=O)[O-]
REMARK SMILES IDX 10 1 9 2 8 3 7 4 6 5 5 6 4 7 2 8 1 9 3 10 11 11 12 12 13 13
REMARK SMILES IDX 14 14 15 15 16 16 17 17 18 18 19 19 20 20
REMARK H PARENT
REMARK Flexibility Score: inf
ROOT
ATOM      1  C   UNL     1     -22.970  19.529 -22.677  1.00  0.00     0.000 C 
ENDROOT
BRANCH   1   2
ATOM      2  C   UNL     1     -22.877  20.083 -21.246  1.00  0.00     0.000 C 
BRANCH   2   3
ATOM      3  C   UNL     1     -23.829  21.264 -21.004  1.00  0.00     0.000 C 
BRANCH   3   4
ATOM      4  C   UNL     1     -23.762  22.269 -22.160  1.00  0.00     0.000 C 
BRANCH   4   5
ATOM      5  C   UNL     1     -23.002  23.535 -21.747  1.00  0.00     0.000 C 
BRANCH   5   6
ATOM      6  C   UNL     1     -22.409  24.246 -22.972  1.00  0.00     0.006 C 
BRANCH   6   7
ATOM      7  C   UNL     1     -22.131  23.275 -24.128  1.00  0.00     0.053 C 
BRANCH   7   8
ATOM      8  C   UNL     1     -21.105  23.819 -25.075  1.00  0.00     0.041 C 
ATOM      9  O   UNL     1     -21.449  24.226 -26.216  1.00  0.00    -0.550 OA
ATOM     10  O   UNL     1     -19.776  23.907 -24.685  1.00  0.00    -0.550 OA
ENDBRANCH   7   8
ENDBRANCH   6   7
ENDBRANCH   5   6
ENDBRANCH   4   5
ENDBRANCH   3   4
ENDBRANCH   2   3
ENDBRANCH   1   2
BRANCH   1  11
ATOM     11  C   UNL     1     -23.891  18.304 -22.776  1.00  0.00     0.000 C 
BRANCH  11  12
ATOM     12  C   UNL     1     -23.588  17.242 -21.705  1.00  0.00     0.000 C 
BRANCH  12  13
ATOM     13  C   UNL     1     -22.685  16.095 -22.207  1.00  0.00     0.000 C 
BRANCH  13  14
ATOM     14  C   UNL     1     -21.271  16.162 -21.604  1.00  0.00     0.000 C 
BRANCH  14  15
ATOM     15  C   UNL     1     -20.227  16.693 -22.611  1.00  0.00     0.000 C 
BRANCH  15  16
ATOM     16  C   UNL     1     -20.696  16.623 -24.076  1.00  0.00     0.006 C 
BRANCH  16  17
ATOM     17  C   UNL     1     -20.484  17.923 -24.864  1.00  0.00     0.053 C 
BRANCH  17  18
ATOM     18  C   UNL     1     -21.345  17.979 -26.089  1.00  0.00     0.041 C 
ATOM     19  O   UNL     1     -20.850  18.302 -27.201  1.00  0.00    -0.550 OA
ATOM     20  O   UNL     1     -22.692  17.651 -26.006  1.00  0.00    -0.550 OA
ENDBRANCH  17  18
ENDBRANCH  16  17
ENDBRANCH  15  16
ENDBRANCH  14  15
ENDBRANCH  13  14
ENDBRANCH  12  13
ENDBRANCH  11  12
ENDBRANCH   1  11
TORSDOF 15
ENDMDL
