MODEL 1
REMARK VINA RESULT:    -5.847      0.000      0.000
REMARK INTER + INTRA:          -8.777
REMARK INTER:                  -7.898
REMARK INTRA:                  -0.879
REMARK UNBOUND:                -0.879
REMARK SMILES CC(=O)CCC=C(C)CCC=C(C)C
REMARK SMILES IDX 7 1 6 2 8 3 9 4 10 5 11 6 13 7 12 8 14 9 5 10 4 11 2 12 3 13
REMARK SMILES IDX 1 14
REMARK H PARENT
REMARK Flexibility Score: inf
ROOT
ATOM      1  C   UNL     1     -24.100  21.537 -32.166  1.00  0.00    -0.077 C 
ATOM      2  C   UNL     1     -25.203  21.479 -32.946  1.00  0.00    -0.028 C 
ATOM      3  C   UNL     1     -23.734  22.860 -31.543  1.00  0.00     0.039 C 
ENDROOT
BRANCH   1   4
ATOM      4  C   UNL     1     -23.198  20.339 -31.920  1.00  0.00     0.034 C 
BRANCH   4   5
ATOM      5  C   UNL     1     -23.377  19.769 -30.505  1.00  0.00     0.032 C 
BRANCH   5   6
ATOM      6  C   UNL     1     -24.734  19.129 -30.324  1.00  0.00    -0.028 C 
ATOM      7  C   UNL     1     -24.005  16.921 -31.256  1.00  0.00     0.039 C 
ATOM      8  C   UNL     1     -25.039  17.863 -30.684  1.00  0.00    -0.080 C 
ATOM      9  C   UNL     1     -26.454  17.382 -30.487  1.00  0.00     0.039 C 
ENDBRANCH   5   6
ENDBRANCH   4   5
ENDBRANCH   1   4
BRANCH   2  10
ATOM     10  C   UNL     1     -25.744  20.224 -33.590  1.00  0.00     0.035 C 
BRANCH  10  11
ATOM     11  C   UNL     1     -27.156  20.439 -34.151  1.00  0.00     0.079 C 
BRANCH  11  12
ATOM     12  C   UNL     1     -28.165  19.553 -33.467  1.00  0.00     0.130 C 
ATOM     13  O   UNL     1     -27.944  18.356 -33.362  1.00  0.00    -0.300 OA
ATOM     14  C   UNL     1     -29.419  20.124 -32.878  1.00  0.00     0.087 C 
ENDBRANCH  11  12
ENDBRANCH  10  11
ENDBRANCH   2  10
TORSDOF 6
ENDMDL
MODEL 2
REMARK VINA RESULT:    -5.728      1.594      4.338
REMARK INTER + INTRA:          -8.617
REMARK INTER:                  -7.715
REMARK INTRA:                  -0.901
REMARK UNBOUND:                -0.879
REMARK SMILES CC(=O)CCC=C(C)CCC=C(C)C
REMARK SMILES IDX 7 1 6 2 8 3 9 4 10 5 11 6 13 7 12 8 14 9 5 10 4 11 2 12 3 13
REMARK SMILES IDX 1 14
REMARK H PARENT
REMARK Flexibility Score: inf
ROOT
ATOM      1  C   UNL     1     -23.963  20.401 -31.983  1.00  0.00    -0.077 C 
ATOM      2  C   UNL     1     -24.016  19.471 -31.003  1.00  0.00    -0.028 C 
ATOM      3  C   UNL     1     -23.665  21.828 -31.599  1.00  0.00     0.039 C 
ENDROOT
BRANCH   1   4
ATOM      4  C   UNL     1     -24.225  20.077 -33.444  1.00  0.00     0.034 C 
BRANCH   4   5
ATOM      5  C   UNL     1     -25.587  20.609 -33.913  1.00  0.00     0.032 C 
BRANCH   5   6
ATOM      6  C   UNL     1     -26.720  19.704 -33.491  1.00  0.00    -0.028 C 
ATOM      7  C   UNL     1     -28.409  21.553 -33.452  1.00  0.00     0.039 C 
ATOM      8  C   UNL     1     -27.983  20.117 -33.250  1.00  0.00    -0.080 C 
ATOM      9  C   UNL     1     -28.995  19.102 -32.784  1.00  0.00     0.039 C 
ENDBRANCH   5   6
ENDBRANCH   4   5
ENDBRANCH   1   4
BRANCH   2  10
ATOM     10  C   UNL     1     -24.239  17.993 -31.221  1.00  0.00     0.035 C 
BRANCH  10  11
ATOM     11  C   UNL     1     -25.575  17.527 -30.630  1.00  0.00     0.079 C 
BRANCH  11  12
ATOM     12  C   UNL     1     -25.653  16.025 -30.549  1.00  0.00     0.130 C 
ATOM     13  O   UNL     1     -26.738  15.471 -30.632  1.00  0.00    -0.300 OA
ATOM     14  C   UNL     1     -24.413  15.195 -30.409  1.00  0.00     0.087 C 
ENDBRANCH  11  12
ENDBRANCH  10  11
ENDBRANCH   2  10
TORSDOF 6
ENDMDL
MODEL 3
REMARK VINA RESULT:    -5.683      1.364      2.087
REMARK INTER + INTRA:          -8.556
REMARK INTER:                  -7.468
REMARK INTRA:                  -1.087
REMARK UNBOUND:                -0.879
REMARK SMILES CC(=O)CCC=C(C)CCC=C(C)C
REMARK SMILES IDX 7 1 6 2 8 3 9 4 10 5 11 6 13 7 12 8 14 9 5 10 4 11 2 12 3 13
REMARK SMILES IDX 1 14
REMARK H PARENT
REMARK Flexibility Score: inf
ROOT
ATOM      1  C   UNL     1     -25.088  20.287 -33.669  1.00  0.00    -0.077 C 
ATOM      2  C   UNL     1     -26.375  20.006 -33.973  1.00  0.00    -0.028 C 
ATOM      3  C   UNL     1     -24.017  19.869 -34.643  1.00  0.00     0.039 C 
ENDROOT
BRANCH   1   4
ATOM      4  C   UNL     1     -24.674  20.971 -32.376  1.00  0.00     0.034 C 
BRANCH   4   5
ATOM      5  C   UNL     1     -23.977  19.999 -31.413  1.00  0.00     0.032 C 
BRANCH   5   6
ATOM      6  C   UNL     1     -24.934  18.967 -30.864  1.00  0.00    -0.028 C 
ATOM      7  C   UNL     1     -23.544  17.026 -31.622  1.00  0.00     0.039 C 
ATOM      8  C   UNL     1     -24.769  17.631 -30.976  1.00  0.00    -0.080 C 
ATOM      9  C   UNL     1     -25.839  16.727 -30.421  1.00  0.00     0.039 C 
ENDBRANCH   5   6
ENDBRANCH   4   5
ENDBRANCH   1   4
BRANCH   2  10
ATOM     10  C   UNL     1     -27.570  20.410 -33.141  1.00  0.00     0.035 C 
BRANCH  10  11
ATOM     11  C   UNL     1     -28.485  19.214 -32.845  1.00  0.00     0.079 C 
BRANCH  11  12
ATOM     12  C   UNL     1     -29.935  19.621 -32.808  1.00  0.00     0.130 C 
ATOM     13  O   UNL     1     -30.414  20.057 -31.772  1.00  0.00    -0.300 OA
ATOM     14  C   UNL     1     -30.792  19.537 -34.035  1.00  0.00     0.087 C 
ENDBRANCH  11  12
ENDBRANCH  10  11
ENDBRANCH   2  10
TORSDOF 6
ENDMDL
MODEL 4
REMARK VINA RESULT:    -5.578      1.204      1.647
REMARK INTER + INTRA:          -8.414
REMARK INTER:                  -7.850
REMARK INTRA:                  -0.564
REMARK UNBOUND:                -0.879
REMARK SMILES CC(=O)CCC=C(C)CCC=C(C)C
REMARK SMILES IDX 7 1 6 2 8 3 9 4 10 5 11 6 13 7 12 8 14 9 5 10 4 11 2 12 3 13
REMARK SMILES IDX 1 14
REMARK H PARENT
REMARK Flexibility Score: inf
ROOT
ATOM      1  C   UNL     1     -24.318  20.096 -32.126  1.00  0.00    -0.077 C 
ATOM      2  C   UNL     1     -24.942  20.779 -33.113  1.00  0.00    -0.028 C 
ATOM      3  C   UNL     1     -23.334  20.837 -31.258  1.00  0.00     0.039 C 
ENDROOT
BRANCH   1   4
ATOM      4  C   UNL     1     -24.539  18.613 -31.880  1.00  0.00     0.034 C 
BRANCH   4   5
ATOM      5  C   UNL     1     -25.113  18.345 -30.480  1.00  0.00     0.032 C 
BRANCH   5   6
ATOM      6  C   UNL     1     -25.885  17.048 -30.428  1.00  0.00    -0.028 C 
ATOM      7  C   UNL     1     -23.831  15.622 -30.571  1.00  0.00     0.039 C 
ATOM      8  C   UNL     1     -25.327  15.820 -30.498  1.00  0.00    -0.080 C 
ATOM      9  C   UNL     1     -26.235  14.617 -30.486  1.00  0.00     0.039 C 
ENDBRANCH   5   6
ENDBRANCH   4   5
ENDBRANCH   1   4
BRANCH   2  10
ATOM     10  C   UNL     1     -25.999  20.206 -34.028  1.00  0.00     0.035 C 
BRANCH  10  11
ATOM     11  C   UNL     1     -27.410  20.632 -33.600  1.00  0.00     0.079 C 
BRANCH  11  12
ATOM     12  C   UNL     1     -28.297  19.440 -33.352  1.00  0.00     0.130 C 
ATOM     13  O   UNL     1     -27.799  18.331 -33.233  1.00  0.00    -0.300 OA
ATOM     14  C   UNL     1     -29.781  19.598 -33.209  1.00  0.00     0.087 C 
ENDBRANCH  11  12
ENDBRANCH  10  11
ENDBRANCH   2  10
TORSDOF 6
ENDMDL
MODEL 5
REMARK VINA RESULT:    -5.508      2.719      5.611
REMARK INTER + INTRA:          -8.320
REMARK INTER:                  -7.739
REMARK INTRA:                  -0.581
REMARK UNBOUND:                -0.879
REMARK SMILES CC(=O)CCC=C(C)CCC=C(C)C
REMARK SMILES IDX 7 1 6 2 8 3 9 4 10 5 11 6 13 7 12 8 14 9 5 10 4 11 2 12 3 13
REMARK SMILES IDX 1 14
REMARK H PARENT
REMARK Flexibility Score: inf
ROOT
ATOM      1  C   UNL     1     -24.017  20.108 -32.265  1.00  0.00    -0.077 C 
ATOM      2  C   UNL     1     -23.701  21.183 -31.507  1.00  0.00    -0.028 C 
ATOM      3  C   UNL     1     -23.824  18.735 -31.673  1.00  0.00     0.039 C 
ENDROOT
BRANCH   1   4
ATOM      4  C   UNL     1     -24.521  20.224 -33.694  1.00  0.00     0.034 C 
BRANCH   4   5
ATOM      5  C   UNL     1     -26.015  19.884 -33.802  1.00  0.00     0.032 C 
BRANCH   5   6
ATOM      6  C   UNL     1     -26.887  21.028 -33.341  1.00  0.00    -0.028 C 
ATOM      7  C   UNL     1     -29.023  19.865 -33.939  1.00  0.00     0.039 C 
ATOM      8  C   UNL     1     -28.235  21.047 -33.424  1.00  0.00    -0.080 C 
ATOM      9  C   UNL     1     -28.965  22.285 -32.969  1.00  0.00     0.039 C 
ENDBRANCH   5   6
ENDBRANCH   4   5
ENDBRANCH   1   4
BRANCH   2  10
ATOM     10  C   UNL     1     -23.893  22.623 -31.923  1.00  0.00     0.035 C 
BRANCH  10  11
ATOM     11  C   UNL     1     -23.270  23.592 -30.910  1.00  0.00     0.079 C 
BRANCH  11  12
ATOM     12  C   UNL     1     -22.859  24.886 -31.563  1.00  0.00     0.130 C 
ATOM     13  O   UNL     1     -23.646  25.474 -32.289  1.00  0.00    -0.300 OA
ATOM     14  C   UNL     1     -21.510  25.487 -31.303  1.00  0.00     0.087 C 
ENDBRANCH  11  12
ENDBRANCH  10  11
ENDBRANCH   2  10
TORSDOF 6
ENDMDL
MODEL 6
REMARK VINA RESULT:    -5.373      1.540      3.706
REMARK INTER + INTRA:          -8.137
REMARK INTER:                  -7.326
REMARK INTRA:                  -0.811
REMARK UNBOUND:                -0.879
REMARK SMILES CC(=O)CCC=C(C)CCC=C(C)C
REMARK SMILES IDX 7 1 6 2 8 3 9 4 10 5 11 6 13 7 12 8 14 9 5 10 4 11 2 12 3 13
REMARK SMILES IDX 1 14
REMARK H PARENT
REMARK Flexibility Score: inf
ROOT
ATOM      1  C   UNL     1     -26.096  18.751 -32.018  1.00  0.00    -0.077 C 
ATOM      2  C   UNL     1     -27.422  18.487 -32.017  1.00  0.00    -0.028 C 
ATOM      3  C   UNL     1     -25.271  18.269 -30.853  1.00  0.00     0.039 C 
ENDROOT
BRANCH   1   4
ATOM      4  C   UNL     1     -25.412  19.540 -33.121  1.00  0.00     0.034 C 
BRANCH   4   5
ATOM      5  C   UNL     1     -23.978  19.935 -32.737  1.00  0.00     0.032 C 
BRANCH   5   6
ATOM      6  C   UNL     1     -23.859  21.412 -32.448  1.00  0.00    -0.028 C 
ATOM      7  C   UNL     1     -23.139  21.064 -30.075  1.00  0.00     0.039 C 
ATOM      8  C   UNL     1     -23.514  21.935 -31.252  1.00  0.00    -0.080 C 
ATOM      9  C   UNL     1     -23.489  23.434 -31.103  1.00  0.00     0.039 C 
ENDBRANCH   5   6
ENDBRANCH   4   5
ENDBRANCH   1   4
BRANCH   2  10
ATOM     10  C   UNL     1     -28.377  18.841 -33.133  1.00  0.00     0.035 C 
BRANCH  10  11
ATOM     11  C   UNL     1     -29.177  20.110 -32.812  1.00  0.00     0.079 C 
BRANCH  11  12
ATOM     12  C   UNL     1     -28.596  21.320 -33.497  1.00  0.00     0.130 C 
ATOM     13  O   UNL     1     -27.976  21.183 -34.541  1.00  0.00    -0.300 OA
ATOM     14  C   UNL     1     -28.800  22.696 -32.939  1.00  0.00     0.087 C 
ENDBRANCH  11  12
ENDBRANCH  10  11
ENDBRANCH   2  10
TORSDOF 6
ENDMDL
MODEL 7
REMARK VINA RESULT:    -5.318      2.262      4.087
REMARK INTER + INTRA:          -8.062
REMARK INTER:                  -7.624
REMARK INTRA:                  -0.438
REMARK UNBOUND:                -0.879
REMARK SMILES CC(=O)CCC=C(C)CCC=C(C)C
REMARK SMILES IDX 7 1 6 2 8 3 9 4 10 5 11 6 13 7 12 8 14 9 5 10 4 11 2 12 3 13
REMARK SMILES IDX 1 14
REMARK H PARENT
REMARK Flexibility Score: inf
ROOT
ATOM      1  C   UNL     1     -26.333  19.134 -32.463  1.00  0.00    -0.077 C 
ATOM      2  C   UNL     1     -25.953  20.237 -33.146  1.00  0.00    -0.028 C 
ATOM      3  C   UNL     1     -27.798  18.783 -32.431  1.00  0.00     0.039 C 
ENDROOT
BRANCH   1   4
ATOM      4  C   UNL     1     -25.355  18.257 -31.699  1.00  0.00     0.034 C 
BRANCH   4   5
ATOM      5  C   UNL     1     -25.903  17.853 -30.322  1.00  0.00     0.032 C 
BRANCH   5   6
ATOM      6  C   UNL     1     -26.374  16.417 -30.304  1.00  0.00    -0.028 C 
ATOM      7  C   UNL     1     -24.064  15.479 -30.549  1.00  0.00     0.039 C 
ATOM      8  C   UNL     1     -25.565  15.343 -30.435  1.00  0.00    -0.080 C 
ATOM      9  C   UNL     1     -26.189  13.972 -30.450  1.00  0.00     0.039 C 
ENDBRANCH   5   6
ENDBRANCH   4   5
ENDBRANCH   1   4
BRANCH   2  10
ATOM     10  C   UNL     1     -24.524  20.693 -33.331  1.00  0.00     0.035 C 
BRANCH  10  11
ATOM     11  C   UNL     1     -24.056  21.575 -32.166  1.00  0.00     0.079 C 
BRANCH  11  12
ATOM     12  C   UNL     1     -23.090  20.844 -31.270  1.00  0.00     0.130 C 
ATOM     13  O   UNL     1     -22.053  20.398 -31.737  1.00  0.00    -0.300 OA
ATOM     14  C   UNL     1     -23.362  20.689 -29.805  1.00  0.00     0.087 C 
ENDBRANCH  11  12
ENDBRANCH  10  11
ENDBRANCH   2  10
TORSDOF 6
ENDMDL
MODEL 8
REMARK VINA RESULT:    -5.215      3.070      5.971
REMARK INTER + INTRA:          -7.923
REMARK INTER:                  -7.532
REMARK INTRA:                  -0.391
REMARK UNBOUND:                -0.879
REMARK SMILES CC(=O)CCC=C(C)CCC=C(C)C
REMARK SMILES IDX 7 1 6 2 8 3 9 4 10 5 11 6 13 7 12 8 14 9 5 10 4 11 2 12 3 13
REMARK SMILES IDX 1 14
REMARK H PARENT
REMARK Flexibility Score: inf
ROOT
ATOM      1  C   UNL     1     -24.293  15.716 -30.642  1.00  0.00    -0.077 C 
ATOM      2  C   UNL     1     -25.051  14.652 -30.291  1.00  0.00    -0.028 C 
ATOM      3  C   UNL     1     -22.822  15.493 -30.891  1.00  0.00     0.039 C 
ENDROOT
BRANCH   1   4
ATOM      4  C   UNL     1     -24.849  17.124 -30.761  1.00  0.00     0.034 C 
BRANCH   4   5
ATOM      5  C   UNL     1     -23.983  18.007 -31.672  1.00  0.00     0.032 C 
BRANCH   5   6
ATOM      6  C   UNL     1     -23.681  19.344 -31.038  1.00  0.00    -0.028 C 
ATOM      7  C   UNL     1     -24.386  20.650 -33.056  1.00  0.00     0.039 C 
ATOM      8  C   UNL     1     -23.828  20.536 -31.656  1.00  0.00    -0.080 C 
ATOM      9  C   UNL     1     -23.435  21.786 -30.910  1.00  0.00     0.039 C 
ENDBRANCH   5   6
ENDBRANCH   4   5
ENDBRANCH   1   4
BRANCH   2  10
ATOM     10  C   UNL     1     -26.545  14.689 -30.069  1.00  0.00     0.035 C 
BRANCH  10  11
ATOM     11  C   UNL     1     -27.136  13.277 -29.963  1.00  0.00     0.079 C 
BRANCH  11  12
ATOM     12  C   UNL     1     -28.572  13.311 -29.507  1.00  0.00     0.130 C 
ATOM     13  O   UNL     1     -29.418  13.836 -30.213  1.00  0.00    -0.300 OA
ATOM     14  C   UNL     1     -28.986  12.672 -28.215  1.00  0.00     0.087 C 
ENDBRANCH  11  12
ENDBRANCH  10  11
ENDBRANCH   2  10
TORSDOF 6
ENDMDL
MODEL 9
REMARK VINA RESULT:    -5.123      3.684      6.051
REMARK INTER + INTRA:          -7.799
REMARK INTER:                  -7.309
REMARK INTRA:                  -0.490
REMARK UNBOUND:                -0.879
REMARK SMILES CC(=O)CCC=C(C)CCC=C(C)C
REMARK SMILES IDX 7 1 6 2 8 3 9 4 10 5 11 6 13 7 12 8 14 9 5 10 4 11 2 12 3 13
REMARK SMILES IDX 1 14
REMARK H PARENT
REMARK Flexibility Score: inf
ROOT
ATOM      1  C   UNL     1     -24.831  15.673 -30.470  1.00  0.00    -0.077 C 
ATOM      2  C   UNL     1     -24.435  16.890 -30.909  1.00  0.00    -0.028 C 
ATOM      3  C   UNL     1     -23.807  14.568 -30.411  1.00  0.00     0.039 C 
ENDROOT
BRANCH   1   4
ATOM      4  C   UNL     1     -26.263  15.364 -30.070  1.00  0.00     0.034 C 
BRANCH   4   5
ATOM      5  C   UNL     1     -26.593  13.873 -30.230  1.00  0.00     0.032 C 
BRANCH   5   6
ATOM      6  C   UNL     1     -27.926  13.522 -29.611  1.00  0.00    -0.028 C 
ATOM      7  C   UNL     1     -27.030  11.518 -28.404  1.00  0.00     0.039 C 
ATOM      8  C   UNL     1     -28.145  12.453 -28.816  1.00  0.00    -0.080 C 
ATOM      9  C   UNL     1     -29.544  12.204 -28.315  1.00  0.00     0.039 C 
ENDBRANCH   5   6
ENDBRANCH   4   5
ENDBRANCH   1   4
BRANCH   2  10
ATOM     10  C   UNL     1     -25.314  18.117 -30.969  1.00  0.00     0.035 C 
BRANCH  10  11
ATOM     11  C   UNL     1     -24.817  19.119 -32.019  1.00  0.00     0.079 C 
BRANCH  11  12
ATOM     12  C   UNL     1     -23.481  19.703 -31.639  1.00  0.00     0.130 C 
ATOM     13  O   UNL     1     -22.532  19.586 -32.399  1.00  0.00    -0.300 OA
ATOM     14  C   UNL     1     -23.307  20.461 -30.358  1.00  0.00     0.087 C 
ENDBRANCH  11  12
ENDBRANCH  10  11
ENDBRANCH   2  10
TORSDOF 6
ENDMDL
