MODEL 1
REMARK VINA RESULT:    -5.861      0.000      0.000
REMARK INTER + INTRA:          -6.565
REMARK INTER:                  -6.374
REMARK INTRA:                  -0.190
REMARK UNBOUND:                -0.190
REMARK SMILES Cc1ccc(C(C)C)c(O)c1
REMARK SMILES IDX 1 1 2 2 11 3 9 4 5 5 4 6 3 7 10 8 6 10 7 11 8 12
REMARK H PARENT 10 9
REMARK Flexibility Score: inf
ROOT
ATOM      1  C   UNL     1      -7.338   8.437 -11.505  1.00  0.00     0.044 C 
ATOM      2  C   UNL     1      -6.724   8.651 -12.858  1.00  0.00    -0.047 A 
ATOM      3  C   UNL     1      -5.636   9.519 -13.011  1.00  0.00     0.049 A 
ATOM      4  C   UNL     1      -5.080   9.754 -14.277  1.00  0.00     0.119 A 
ATOM      5  C   UNL     1      -5.623   9.119 -15.415  1.00  0.00    -0.004 A 
ATOM      6  C   UNL     1      -6.730   8.263 -15.252  1.00  0.00     0.008 A 
ATOM      7  C   UNL     1      -7.278   8.037 -13.988  1.00  0.00     0.004 A 
ENDROOT
BRANCH   4   8
ATOM      8  O   UNL     1      -3.991  10.616 -14.399  1.00  0.00    -0.508 OA
ATOM      9  H   UNL     1      -4.111  11.622 -14.440  1.00  0.00     0.293 HD
ENDBRANCH   4   8
BRANCH   5  10
ATOM     10  C   UNL     1      -5.038   9.356 -16.800  1.00  0.00     0.017 C 
ATOM     11  C   UNL     1      -6.125   9.279 -17.880  1.00  0.00     0.012 C 
ATOM     12  C   UNL     1      -3.897   8.375 -17.095  1.00  0.00     0.012 C 
ENDBRANCH   5  10
TORSDOF 2
ENDMDL
MODEL 2
REMARK VINA RESULT:    -5.857      1.960      2.682
REMARK INTER + INTRA:          -6.561
REMARK INTER:                  -6.360
REMARK INTRA:                  -0.200
REMARK UNBOUND:                -0.190
REMARK SMILES Cc1ccc(C(C)C)c(O)c1
REMARK SMILES IDX 1 1 2 2 11 3 9 4 5 5 4 6 3 7 10 8 6 10 7 11 8 12
REMARK H PARENT 10 9
REMARK Flexibility Score: inf
ROOT
ATOM      1  C   UNL     1     -10.080   7.627 -14.500  1.00  0.00     0.044 C 
ATOM      2  C   UNL     1      -8.697   8.211 -14.507  1.00  0.00    -0.047 A 
ATOM      3  C   UNL     1      -8.492   9.546 -14.137  1.00  0.00     0.049 A 
ATOM      4  C   UNL     1      -7.208  10.111 -14.177  1.00  0.00     0.119 A 
ATOM      5  C   UNL     1      -6.108   9.334 -14.603  1.00  0.00    -0.004 A 
ATOM      6  C   UNL     1      -6.330   7.999 -14.992  1.00  0.00     0.008 A 
ATOM      7  C   UNL     1      -7.612   7.446 -14.951  1.00  0.00     0.004 A 
ENDROOT
BRANCH   4   8
ATOM      8  O   UNL     1      -7.031  11.440 -13.794  1.00  0.00    -0.508 OA
ATOM      9  H   UNL     1      -7.299  12.208 -14.398  1.00  0.00     0.293 HD
ENDBRANCH   4   8
BRANCH   5  10
ATOM     10  C   UNL     1      -4.705   9.923 -14.655  1.00  0.00     0.017 C 
ATOM     11  C   UNL     1      -3.985   9.521 -15.949  1.00  0.00     0.012 C 
ATOM     12  C   UNL     1      -3.889   9.519 -13.422  1.00  0.00     0.012 C 
ENDBRANCH   5  10
TORSDOF 2
ENDMDL
MODEL 3
REMARK VINA RESULT:    -5.690      1.828      4.188
REMARK INTER + INTRA:          -6.379
REMARK INTER:                  -6.179
REMARK INTRA:                  -0.200
REMARK UNBOUND:                -0.190
REMARK SMILES Cc1ccc(C(C)C)c(O)c1
REMARK SMILES IDX 1 1 2 2 11 3 9 4 5 5 4 6 3 7 10 8 6 10 7 11 8 12
REMARK H PARENT 10 9
REMARK Flexibility Score: inf
ROOT
ATOM      1  C   UNL     1      -4.288   8.387 -16.758  1.00  0.00     0.044 C 
ATOM      2  C   UNL     1      -5.349   8.942 -15.853  1.00  0.00    -0.047 A 
ATOM      3  C   UNL     1      -5.354  10.302 -15.522  1.00  0.00     0.049 A 
ATOM      4  C   UNL     1      -6.320  10.823 -14.648  1.00  0.00     0.119 A 
ATOM      5  C   UNL     1      -7.295   9.969 -14.084  1.00  0.00    -0.004 A 
ATOM      6  C   UNL     1      -7.267   8.599 -14.409  1.00  0.00     0.008 A 
ATOM      7  C   UNL     1      -6.301   8.090 -15.279  1.00  0.00     0.004 A 
ENDROOT
BRANCH   4   8
ATOM      8  O   UNL     1      -6.308  12.183 -14.341  1.00  0.00    -0.508 OA
ATOM      9  H   UNL     1      -7.165  12.718 -14.261  1.00  0.00     0.293 HD
ENDBRANCH   4   8
BRANCH   5  10
ATOM     10  C   UNL     1      -8.354  10.509 -13.132  1.00  0.00     0.017 C 
ATOM     11  C   UNL     1      -7.982  10.221 -11.672  1.00  0.00     0.012 C 
ATOM     12  C   UNL     1      -9.740   9.946 -13.470  1.00  0.00     0.012 C 
ENDBRANCH   5  10
TORSDOF 2
ENDMDL
MODEL 4
REMARK VINA RESULT:    -5.514      1.173      4.170
REMARK INTER + INTRA:          -6.188
REMARK INTER:                  -5.988
REMARK INTRA:                  -0.200
REMARK UNBOUND:                -0.190
REMARK SMILES Cc1ccc(C(C)C)c(O)c1
REMARK SMILES IDX 1 1 2 2 11 3 9 4 5 5 4 6 3 7 10 8 6 10 7 11 8 12
REMARK H PARENT 10 9
REMARK Flexibility Score: inf
ROOT
ATOM      1  C   UNL     1      -4.157   8.789 -16.981  1.00  0.00     0.044 C 
ATOM      2  C   UNL     1      -4.907   8.879 -15.683  1.00  0.00    -0.047 A 
ATOM      3  C   UNL     1      -4.309   9.464 -14.561  1.00  0.00     0.049 A 
ATOM      4  C   UNL     1      -4.988   9.518 -13.334  1.00  0.00     0.119 A 
ATOM      5  C   UNL     1      -6.285   8.969 -13.221  1.00  0.00    -0.004 A 
ATOM      6  C   UNL     1      -6.868   8.366 -14.352  1.00  0.00     0.008 A 
ATOM      7  C   UNL     1      -6.183   8.315 -15.568  1.00  0.00     0.004 A 
ENDROOT
BRANCH   4   8
ATOM      8  O   UNL     1      -4.373  10.114 -12.234  1.00  0.00    -0.508 OA
ATOM      9  H   UNL     1      -3.814   9.577 -11.581  1.00  0.00     0.293 HD
ENDBRANCH   4   8
BRANCH   5  10
ATOM     10  C   UNL     1      -7.043   9.016 -11.901  1.00  0.00     0.017 C 
ATOM     11  C   UNL     1      -7.845   7.726 -11.681  1.00  0.00     0.012 C 
ATOM     12  C   UNL     1      -7.950  10.249 -11.827  1.00  0.00     0.012 C 
ENDBRANCH   5  10
TORSDOF 2
ENDMDL
MODEL 5
REMARK VINA RESULT:    -5.437      1.395      4.171
REMARK INTER + INTRA:          -6.104
REMARK INTER:                  -5.908
REMARK INTRA:                  -0.196
REMARK UNBOUND:                -0.190
REMARK SMILES Cc1ccc(C(C)C)c(O)c1
REMARK SMILES IDX 1 1 2 2 11 3 9 4 5 5 4 6 3 7 10 8 6 10 7 11 8 12
REMARK H PARENT 10 9
REMARK Flexibility Score: inf
ROOT
ATOM      1  C   UNL     1      -6.203   9.985 -18.415  1.00  0.00     0.044 C 
ATOM      2  C   UNL     1      -6.106   9.923 -16.919  1.00  0.00    -0.047 A 
ATOM      3  C   UNL     1      -6.066  11.102 -16.164  1.00  0.00     0.049 A 
ATOM      4  C   UNL     1      -5.938  11.054 -14.768  1.00  0.00     0.119 A 
ATOM      5  C   UNL     1      -5.837   9.808 -14.111  1.00  0.00    -0.004 A 
ATOM      6  C   UNL     1      -5.858   8.630 -14.882  1.00  0.00     0.008 A 
ATOM      7  C   UNL     1      -5.985   8.687 -16.271  1.00  0.00     0.004 A 
ENDROOT
BRANCH   4   8
ATOM      8  O   UNL     1      -5.909  12.243 -14.040  1.00  0.00    -0.508 OA
ATOM      9  H   UNL     1      -5.266  12.379 -13.268  1.00  0.00     0.293 HD
ENDBRANCH   4   8
BRANCH   5  10
ATOM     10  C   UNL     1      -5.697   9.728 -12.597  1.00  0.00     0.017 C 
ATOM     11  C   UNL     1      -4.350   9.111 -12.198  1.00  0.00     0.012 C 
ATOM     12  C   UNL     1      -6.864   8.955 -11.973  1.00  0.00     0.012 C 
ENDBRANCH   5  10
TORSDOF 2
ENDMDL
MODEL 6
REMARK VINA RESULT:    -5.188      2.114      2.672
REMARK INTER + INTRA:          -5.833
REMARK INTER:                  -5.636
REMARK INTRA:                  -0.197
REMARK UNBOUND:                -0.190
REMARK SMILES Cc1ccc(C(C)C)c(O)c1
REMARK SMILES IDX 1 1 2 2 11 3 9 4 5 5 4 6 3 7 10 8 6 10 7 11 8 12
REMARK H PARENT 10 9
REMARK Flexibility Score: inf
ROOT
ATOM      1  C   UNL     1      -8.885  10.577 -12.056  1.00  0.00     0.044 C 
ATOM      2  C   UNL     1      -8.069  10.094 -13.220  1.00  0.00    -0.047 A 
ATOM      3  C   UNL     1      -8.068   8.738 -13.568  1.00  0.00     0.049 A 
ATOM      4  C   UNL     1      -7.279   8.272 -14.630  1.00  0.00     0.119 A 
ATOM      5  C   UNL     1      -6.466   9.173 -15.354  1.00  0.00    -0.004 A 
ATOM      6  C   UNL     1      -6.460  10.531 -14.981  1.00  0.00     0.008 A 
ATOM      7  C   UNL     1      -7.248  10.985 -13.922  1.00  0.00     0.004 A 
ENDROOT
BRANCH   4   8
ATOM      8  O   UNL     1      -7.303   6.918 -14.962  1.00  0.00    -0.508 OA
ATOM      9  H   UNL     1      -7.282   6.195 -14.251  1.00  0.00     0.293 HD
ENDBRANCH   4   8
BRANCH   5  10
ATOM     10  C   UNL     1      -5.600   8.693 -16.511  1.00  0.00     0.017 C 
ATOM     11  C   UNL     1      -4.137   9.110 -16.315  1.00  0.00     0.012 C 
ATOM     12  C   UNL     1      -6.142   9.197 -17.854  1.00  0.00     0.012 C 
ENDBRANCH   5  10
TORSDOF 2
ENDMDL
MODEL 7
REMARK VINA RESULT:    -5.183      2.030      4.876
REMARK INTER + INTRA:          -5.828
REMARK INTER:                  -5.627
REMARK INTRA:                  -0.200
REMARK UNBOUND:                -0.190
REMARK SMILES Cc1ccc(C(C)C)c(O)c1
REMARK SMILES IDX 1 1 2 2 11 3 9 4 5 5 4 6 3 7 10 8 6 10 7 11 8 12
REMARK H PARENT 10 9
REMARK Flexibility Score: inf
ROOT
ATOM      1  C   UNL     1      -4.963   8.403 -16.539  1.00  0.00     0.044 C 
ATOM      2  C   UNL     1      -5.719   8.410 -15.242  1.00  0.00    -0.047 A 
ATOM      3  C   UNL     1      -6.959   7.768 -15.144  1.00  0.00     0.049 A 
ATOM      4  C   UNL     1      -7.690   7.801 -13.946  1.00  0.00     0.119 A 
ATOM      5  C   UNL     1      -7.179   8.497 -12.828  1.00  0.00    -0.004 A 
ATOM      6  C   UNL     1      -5.940   9.155 -12.945  1.00  0.00     0.008 A 
ATOM      7  C   UNL     1      -5.221   9.118 -14.141  1.00  0.00     0.004 A 
ENDROOT
BRANCH   4   8
ATOM      8  O   UNL     1      -8.918   7.146 -13.873  1.00  0.00    -0.508 OA
ATOM      9  H   UNL     1      -9.785   7.654 -13.738  1.00  0.00     0.293 HD
ENDBRANCH   4   8
BRANCH   5  10
ATOM     10  C   UNL     1      -7.952   8.548 -11.517  1.00  0.00     0.017 C 
ATOM     11  C   UNL     1      -7.970   9.970 -10.942  1.00  0.00     0.012 C 
ATOM     12  C   UNL     1      -7.385   7.549 -10.501  1.00  0.00     0.012 C 
ENDBRANCH   5  10
TORSDOF 2
ENDMDL
MODEL 8
REMARK VINA RESULT:    -5.179      1.744      2.439
REMARK INTER + INTRA:          -5.823
REMARK INTER:                  -5.623
REMARK INTRA:                  -0.200
REMARK UNBOUND:                -0.190
REMARK SMILES Cc1ccc(C(C)C)c(O)c1
REMARK SMILES IDX 1 1 2 2 11 3 9 4 5 5 4 6 3 7 10 8 6 10 7 11 8 12
REMARK H PARENT 10 9
REMARK Flexibility Score: inf
ROOT
ATOM      1  C   UNL     1      -7.551   8.428 -11.085  1.00  0.00     0.044 C 
ATOM      2  C   UNL     1      -7.090   8.638 -12.498  1.00  0.00    -0.047 A 
ATOM      3  C   UNL     1      -7.973   8.437 -13.567  1.00  0.00     0.049 A 
ATOM      4  C   UNL     1      -7.540   8.594 -14.892  1.00  0.00     0.119 A 
ATOM      5  C   UNL     1      -6.200   8.950 -15.159  1.00  0.00    -0.004 A 
ATOM      6  C   UNL     1      -5.316   9.130 -14.077  1.00  0.00     0.008 A 
ATOM      7  C   UNL     1      -5.756   8.970 -12.762  1.00  0.00     0.004 A 
ENDROOT
BRANCH   4   8
ATOM      8  O   UNL     1      -8.442   8.396 -15.937  1.00  0.00    -0.508 OA
ATOM      9  H   UNL     1      -8.879   9.173 -16.418  1.00  0.00     0.293 HD
ENDBRANCH   4   8
BRANCH   5  10
ATOM     10  C   UNL     1      -5.705   9.127 -16.588  1.00  0.00     0.017 C 
ATOM     11  C   UNL     1      -4.319   8.496 -16.776  1.00  0.00     0.012 C 
ATOM     12  C   UNL     1      -5.696  10.606 -16.992  1.00  0.00     0.012 C 
ENDBRANCH   5  10
TORSDOF 2
ENDMDL
MODEL 9
REMARK VINA RESULT:    -5.041      3.356      5.358
REMARK INTER + INTRA:          -5.674
REMARK INTER:                  -5.498
REMARK INTRA:                  -0.176
REMARK UNBOUND:                -0.190
REMARK SMILES Cc1ccc(C(C)C)c(O)c1
REMARK SMILES IDX 1 1 2 2 11 3 9 4 5 5 4 6 3 7 10 8 6 10 7 11 8 12
REMARK H PARENT 10 9
REMARK Flexibility Score: inf
ROOT
ATOM      1  C   UNL     1      -5.751   8.148 -15.640  1.00  0.00     0.044 C 
ATOM      2  C   UNL     1      -7.000   8.600 -14.942  1.00  0.00    -0.047 A 
ATOM      3  C   UNL     1      -8.234   8.017 -15.253  1.00  0.00     0.049 A 
ATOM      4  C   UNL     1      -9.412   8.459 -14.632  1.00  0.00     0.119 A 
ATOM      5  C   UNL     1      -9.361   9.511 -13.691  1.00  0.00    -0.004 A 
ATOM      6  C   UNL     1      -8.117  10.104 -13.401  1.00  0.00     0.008 A 
ATOM      7  C   UNL     1      -6.950   9.657 -14.025  1.00  0.00     0.004 A 
ENDROOT
BRANCH   4   8
ATOM      8  O   UNL     1     -10.626   7.854 -14.953  1.00  0.00    -0.508 OA
ATOM      9  H   UNL     1     -10.823   7.519 -15.890  1.00  0.00     0.293 HD
ENDBRANCH   4   8
BRANCH   5  10
ATOM     10  C   UNL     1     -10.625  10.010 -13.003  1.00  0.00     0.017 C 
ATOM     11  C   UNL     1     -10.499  11.491 -12.624  1.00  0.00     0.012 C 
ATOM     12  C   UNL     1     -10.963   9.154 -11.777  1.00  0.00     0.012 C 
ENDBRANCH   5  10
TORSDOF 2
ENDMDL
