MODEL 1
REMARK VINA RESULT:    -2.730      0.000      0.000
REMARK INTER + INTRA:          -4.349
REMARK INTER:                  -4.166
REMARK INTRA:                  -0.184
REMARK UNBOUND:                -0.184
REMARK SMILES CC1=CCC[C@@H](C)C(=O)C[C@H](C(C)C)C(=O)C1
REMARK SMILES IDX 8 1 9 2 6 3 7 4 5 5 4 6 3 7 2 8 1 9 10 11 11 12 15 13 16 14
REMARK SMILES IDX 17 15 12 17 13 18 14 19
REMARK H PARENT
REMARK Flexibility Score: 70.00
ROOT
ATOM      1  C   UNL     1     101.155   4.176  76.507  1.00  0.00     0.136 C 
ATOM      2  O   UNL     1     102.033   4.546  75.741  1.00  0.00    -0.299 OA
ENDROOT
BRANCH   1   3
ATOM      3  C   UNL     1     100.586   2.773  76.305  1.00  0.00     0.053 C 
ATOM      4  C   UNL     1     101.720   1.751  76.478  1.00  0.00     0.016 C 
BRANCH   3   5
ATOM      5  C   UNL     1      99.847   2.504  74.968  1.00  0.00     0.015 C 
BRANCH   5   6
ATOM      6  C   UNL     1      98.347   2.886  74.979  1.00  0.00     0.028 C 
BRANCH   6   7
ATOM      7  C   UNL     1      98.116   4.228  74.320  1.00  0.00    -0.028 C 
ATOM      8  C   UNL     1      97.909   5.399  74.966  1.00  0.00    -0.070 CG0
ATOM      9  C   UNL     1      97.759   6.647  74.132  1.00  0.00     0.039 C 
ATOM     10  G   UNL     1      97.806   5.508  76.476  1.00  0.00     0.000 G0
ENDBRANCH   6   7
ENDBRANCH   5   6
ENDBRANCH   3   5
ENDBRANCH   1   3
BRANCH   1  11
ATOM     11  C   UNL     1     100.676   5.156  77.561  1.00  0.00     0.087 C 
BRANCH  11  12
ATOM     12  C   UNL     1     100.221   6.528  76.986  1.00  0.00     0.066 C 
BRANCH  12  13
ATOM     13  C   UNL     1      98.705   6.630  77.030  1.00  0.00     0.140 C 
ATOM     14  O   UNL     1      98.179   7.628  77.502  1.00  0.00    -0.299 OA
BRANCH  13  15
ATOM     15  C   UNL     1      97.823   5.542  76.477  1.00  0.00     0.106 CG0
ATOM     16  G   UNL     1      97.928   5.423  74.968  1.00  0.00     0.000 G0
ENDBRANCH  13  15
ENDBRANCH  12  13
BRANCH  12  17
ATOM     17  C   UNL     1     100.894   7.775  77.652  1.00  0.00    -0.006 C 
ATOM     18  C   UNL     1     101.604   7.429  78.974  1.00  0.00     0.008 C 
ATOM     19  C   UNL     1     101.915   8.419  76.695  1.00  0.00     0.008 C 
ENDBRANCH  12  17
ENDBRANCH  11  12
ENDBRANCH   1  11
TORSDOF 1
ENDMDL
MODEL 2
REMARK VINA RESULT:    -2.697     17.065     19.499
REMARK INTER + INTRA:          -4.299
REMARK INTER:                  -4.199
REMARK INTRA:                  -0.101
REMARK UNBOUND:                -0.184
REMARK SMILES CC1=CCC[C@@H](C)C(=O)C[C@H](C(C)C)C(=O)C1
REMARK SMILES IDX 8 1 9 2 6 3 7 4 5 5 4 6 3 7 2 8 1 9 10 11 11 12 15 13 16 14
REMARK SMILES IDX 17 15 12 17 13 18 14 19
REMARK H PARENT
REMARK Flexibility Score: 70.00
ROOT
ATOM      1  C   UNL     1     112.212  -5.016  67.344  1.00  0.00     0.136 C 
ATOM      2  O   UNL     1     113.159  -4.263  67.166  1.00  0.00    -0.299 OA
ENDROOT
BRANCH   1   3
ATOM      3  C   UNL     1     111.374  -4.811  68.605  1.00  0.00     0.053 C 
ATOM      4  C   UNL     1     111.573  -3.371  69.101  1.00  0.00     0.016 C 
BRANCH   3   5
ATOM      5  C   UNL     1     111.618  -5.801  69.775  1.00  0.00     0.015 C 
BRANCH   5   6
ATOM      6  C   UNL     1     110.491  -6.843  69.975  1.00  0.00     0.028 C 
BRANCH   6   7
ATOM      7  C   UNL     1     109.429  -6.717  68.906  1.00  0.00    -0.028 C 
ATOM      8  C   UNL     1     109.235  -7.579  67.881  1.00  0.00    -0.070 CG0
ATOM      9  C   UNL     1     108.080  -7.317  66.948  1.00  0.00     0.039 C 
ATOM     10  G   UNL     1     110.130  -8.777  67.622  1.00  0.00     0.000 G0
ENDBRANCH   6   7
ENDBRANCH   5   6
ENDBRANCH   3   5
ENDBRANCH   1   3
BRANCH   1  11
ATOM     11  C   UNL     1     111.980  -6.114  66.324  1.00  0.00     0.087 C 
BRANCH  11  12
ATOM     12  C   UNL     1     112.337  -7.538  66.838  1.00  0.00     0.066 C 
BRANCH  12  13
ATOM     13  C   UNL     1     111.179  -8.488  66.574  1.00  0.00     0.140 C 
ATOM     14  O   UNL     1     111.094  -9.053  65.493  1.00  0.00    -0.299 OA
BRANCH  13  15
ATOM     15  C   UNL     1     110.140  -8.780  67.625  1.00  0.00     0.106 CG0
ATOM     16  G   UNL     1     109.244  -7.588  67.900  1.00  0.00     0.000 G0
ENDBRANCH  13  15
ENDBRANCH  12  13
BRANCH  12  17
ATOM     17  C   UNL     1     113.683  -8.117  66.288  1.00  0.00    -0.006 C 
ATOM     18  C   UNL     1     114.271  -7.266  65.147  1.00  0.00     0.008 C 
ATOM     19  C   UNL     1     114.729  -8.228  67.414  1.00  0.00     0.008 C 
ENDBRANCH  12  17
ENDBRANCH  11  12
ENDBRANCH   1  11
TORSDOF 1
ENDMDL
MODEL 3
REMARK VINA RESULT:    -2.642      2.368      5.063
REMARK INTER + INTRA:          -4.216
REMARK INTER:                  -3.892
REMARK INTRA:                  -0.325
REMARK UNBOUND:                -0.184
REMARK SMILES CC1=CCC[C@@H](C)C(=O)C[C@H](C(C)C)C(=O)C1
REMARK SMILES IDX 8 1 9 2 6 3 7 4 5 5 4 6 3 7 2 8 1 9 10 11 11 12 15 13 16 14
REMARK SMILES IDX 17 15 12 17 13 18 14 19
REMARK H PARENT
REMARK Flexibility Score: 70.00
ROOT
ATOM      1  C   UNL     1     100.488   3.148  77.206  1.00  0.00     0.136 C 
ATOM      2  O   UNL     1     100.526   2.686  78.337  1.00  0.00    -0.299 OA
ENDROOT
BRANCH   1   3
ATOM      3  C   UNL     1      99.767   4.481  77.011  1.00  0.00     0.053 C 
ATOM      4  C   UNL     1     100.446   5.542  77.889  1.00  0.00     0.016 C 
BRANCH   3   5
ATOM      5  C   UNL     1      98.237   4.493  77.273  1.00  0.00     0.015 C 
BRANCH   5   6
ATOM      6  C   UNL     1      97.392   3.838  76.154  1.00  0.00     0.028 C 
BRANCH   6   7
ATOM      7  C   UNL     1      97.842   4.297  74.785  1.00  0.00    -0.028 C 
ATOM      8  C   UNL     1      98.210   3.489  73.763  1.00  0.00    -0.070 CG0
ATOM      9  C   UNL     1      98.571   4.135  72.448  1.00  0.00     0.039 C 
ATOM     10  G   UNL     1      98.293   1.979  73.886  1.00  0.00     0.000 G0
ENDBRANCH   6   7
ENDBRANCH   5   6
ENDBRANCH   3   5
ENDBRANCH   1   3
BRANCH   1  11
ATOM     11  C   UNL     1     101.118   2.339  76.089  1.00  0.00     0.087 C 
BRANCH  11  12
ATOM     12  C   UNL     1     100.217   1.188  75.557  1.00  0.00     0.066 C 
BRANCH  12  13
ATOM     13  C   UNL     1      99.739   1.513  74.151  1.00  0.00     0.140 C 
ATOM     14  O   UNL     1     100.506   1.384  73.206  1.00  0.00    -0.299 OA
BRANCH  13  15
ATOM     15  C   UNL     1      98.329   1.964  73.879  1.00  0.00     0.106 CG0
ATOM     16  G   UNL     1      98.215   3.473  73.767  1.00  0.00     0.000 G0
ENDBRANCH  13  15
ENDBRANCH  12  13
BRANCH  12  17
ATOM     17  C   UNL     1     100.863  -0.236  75.623  1.00  0.00    -0.006 C 
ATOM     18  C   UNL     1     101.568  -0.506  76.965  1.00  0.00     0.008 C 
ATOM     19  C   UNL     1      99.800  -1.328  75.393  1.00  0.00     0.008 C 
ENDBRANCH  12  17
ENDBRANCH  11  12
ENDBRANCH   1  11
TORSDOF 1
ENDMDL
MODEL 4
REMARK VINA RESULT:    -2.570      2.184      5.192
REMARK INTER + INTRA:          -4.105
REMARK INTER:                  -4.275
REMARK INTRA:                   0.170
REMARK UNBOUND:                -0.184
REMARK SMILES CC1=CCC[C@@H](C)C(=O)C[C@H](C(C)C)C(=O)C1
REMARK SMILES IDX 8 1 9 2 6 3 7 4 5 5 4 6 3 7 2 8 1 9 10 11 11 12 15 13 16 14
REMARK SMILES IDX 17 15 12 17 13 18 14 19
REMARK H PARENT
REMARK Flexibility Score: 70.00
ROOT
ATOM      1  C   UNL     1      99.813   6.871  78.171  1.00  0.00     0.136 C 
ATOM      2  O   UNL     1      98.972   7.725  77.932  1.00  0.00    -0.299 OA
ENDROOT
BRANCH   1   3
ATOM      3  C   UNL     1     101.012   7.278  79.025  1.00  0.00     0.053 C 
ATOM      4  C   UNL     1     100.803   8.721  79.509  1.00  0.00     0.016 C 
BRANCH   3   5
ATOM      5  C   UNL     1     102.413   7.149  78.371  1.00  0.00     0.015 C 
BRANCH   5   6
ATOM      6  C   UNL     1     102.431   7.404  76.845  1.00  0.00     0.028 C 
BRANCH   6   7
ATOM      7  C   UNL     1     103.398   6.477  76.143  1.00  0.00    -0.028 C 
ATOM      8  C   UNL     1     103.158   5.185  75.818  1.00  0.00    -0.070 CG0
ATOM      9  C   UNL     1     104.228   4.437  75.062  1.00  0.00     0.039 C 
ATOM     10  G   UNL     1     101.880   4.458  76.192  1.00  0.00     0.000 G0
ENDBRANCH   6   7
ENDBRANCH   5   6
ENDBRANCH   3   5
ENDBRANCH   1   3
BRANCH   1  11
ATOM     11  C   UNL     1      99.618   5.496  77.561  1.00  0.00     0.087 C 
BRANCH  11  12
ATOM     12  C   UNL     1      99.460   5.509  76.013  1.00  0.00     0.066 C 
BRANCH  12  13
ATOM     13  C   UNL     1     100.701   4.919  75.362  1.00  0.00     0.140 C 
ATOM     14  O   UNL     1     100.767   4.842  74.143  1.00  0.00    -0.299 OA
BRANCH  13  15
ATOM     15  C   UNL     1     101.876   4.449  76.179  1.00  0.00     0.106 CG0
ATOM     16  G   UNL     1     103.159   5.170  75.814  1.00  0.00     0.000 G0
ENDBRANCH  13  15
ENDBRANCH  12  13
BRANCH  12  17
ATOM     17  C   UNL     1      98.158   4.822  75.480  1.00  0.00    -0.006 C 
ATOM     18  C   UNL     1      98.105   3.319  75.806  1.00  0.00     0.008 C 
ATOM     19  C   UNL     1      96.906   5.501  76.066  1.00  0.00     0.008 C 
ENDBRANCH  12  17
ENDBRANCH  11  12
ENDBRANCH   1  11
TORSDOF 1
ENDMDL
MODEL 5
REMARK VINA RESULT:    -2.520     14.717     17.065
REMARK INTER + INTRA:          -4.030
REMARK INTER:                  -4.058
REMARK INTRA:                   0.028
REMARK UNBOUND:                -0.184
REMARK SMILES CC1=CCC[C@@H](C)C(=O)C[C@H](C(C)C)C(=O)C1
REMARK SMILES IDX 8 1 9 2 6 3 7 4 5 5 4 6 3 7 2 8 1 9 10 11 11 12 15 13 16 14
REMARK SMILES IDX 17 15 12 17 13 18 14 19
REMARK H PARENT
REMARK Flexibility Score: 70.00
ROOT
ATOM      1  C   UNL     1     108.365  -7.674  68.160  1.00  0.00     0.136 C 
ATOM      2  O   UNL     1     108.026  -8.846  68.095  1.00  0.00    -0.299 OA
ENDROOT
BRANCH   1   3
ATOM      3  C   UNL     1     109.631  -7.261  67.411  1.00  0.00     0.053 C 
ATOM      4  C   UNL     1     109.352  -7.325  65.902  1.00  0.00     0.016 C 
BRANCH   3   5
ATOM      5  C   UNL     1     110.924  -8.056  67.733  1.00  0.00     0.015 C 
BRANCH   5   6
ATOM      6  C   UNL     1     111.766  -7.463  68.888  1.00  0.00     0.028 C 
BRANCH   6   7
ATOM      7  C   UNL     1     111.618  -5.960  68.962  1.00  0.00    -0.028 C 
ATOM      8  C   UNL     1     110.960  -5.278  69.929  1.00  0.00    -0.070 CG0
ATOM      9  C   UNL     1     110.974  -3.772  69.864  1.00  0.00     0.039 C 
ATOM     10  G   UNL     1     110.202  -5.957  71.055  1.00  0.00     0.000 G0
ENDBRANCH   6   7
ENDBRANCH   5   6
ENDBRANCH   3   5
ENDBRANCH   1   3
BRANCH   1  11
ATOM     11  C   UNL     1     107.528  -6.742  69.015  1.00  0.00     0.087 C 
BRANCH  11  12
ATOM     12  C   UNL     1     107.794  -6.876  70.542  1.00  0.00     0.066 C 
BRANCH  12  13
ATOM     13  C   UNL     1     108.730  -5.771  71.003  1.00  0.00     0.140 C 
ATOM     14  O   UNL     1     108.268  -4.697  71.364  1.00  0.00    -0.299 OA
BRANCH  13  15
ATOM     15  C   UNL     1     110.222  -5.968  71.057  1.00  0.00     0.106 CG0
ATOM     16  G   UNL     1     110.940  -5.269  69.918  1.00  0.00     0.000 G0
ENDBRANCH  13  15
ENDBRANCH  12  13
BRANCH  12  17
ATOM     17  C   UNL     1     106.506  -6.937  71.430  1.00  0.00    -0.006 C 
ATOM     18  C   UNL     1     105.246  -6.471  70.678  1.00  0.00     0.008 C 
ATOM     19  C   UNL     1     106.271  -8.367  71.952  1.00  0.00     0.008 C 
ENDBRANCH  12  17
ENDBRANCH  11  12
ENDBRANCH   1  11
TORSDOF 1
ENDMDL
MODEL 6
REMARK VINA RESULT:    -2.464      2.497      5.116
REMARK INTER + INTRA:          -3.943
REMARK INTER:                  -3.627
REMARK INTRA:                  -0.316
REMARK UNBOUND:                -0.184
REMARK SMILES CC1=CCC[C@@H](C)C(=O)C[C@H](C(C)C)C(=O)C1
REMARK SMILES IDX 8 1 9 2 6 3 7 4 5 5 4 6 3 7 2 8 1 9 10 11 11 12 15 13 16 14
REMARK SMILES IDX 17 15 12 17 13 18 14 19
REMARK H PARENT
REMARK Flexibility Score: 70.00
ROOT
ATOM      1  C   UNL     1     100.793   0.842  73.918  1.00  0.00     0.136 C 
ATOM      2  O   UNL     1     100.963   0.017  73.033  1.00  0.00    -0.299 OA
ENDROOT
BRANCH   1   3
ATOM      3  C   UNL     1     101.390   0.540  75.291  1.00  0.00     0.053 C 
ATOM      4  C   UNL     1     100.446  -0.415  76.039  1.00  0.00     0.016 C 
BRANCH   3   5
ATOM      5  C   UNL     1     101.717   1.758  76.195  1.00  0.00     0.015 C 
BRANCH   5   6
ATOM      6  C   UNL     1     100.573   2.167  77.153  1.00  0.00     0.028 C 
BRANCH   6   7
ATOM      7  C   UNL     1     100.337   3.661  77.121  1.00  0.00    -0.028 C 
ATOM      8  C   UNL     1      99.196   4.271  76.723  1.00  0.00    -0.070 CG0
ATOM      9  C   UNL     1      99.129   5.775  76.821  1.00  0.00     0.039 C 
ATOM     10  G   UNL     1      98.000   3.518  76.172  1.00  0.00     0.000 G0
ENDBRANCH   6   7
ENDBRANCH   5   6
ENDBRANCH   3   5
ENDBRANCH   1   3
BRANCH   1  11
ATOM     11  C   UNL     1      99.966   2.071  73.591  1.00  0.00     0.087 C 
BRANCH  11  12
ATOM     12  C   UNL     1      98.489   1.984  74.071  1.00  0.00     0.066 C 
BRANCH  12  13
ATOM     13  C   UNL     1      98.065   3.310  74.681  1.00  0.00     0.140 C 
ATOM     14  O   UNL     1      97.745   4.238  73.951  1.00  0.00    -0.299 OA
BRANCH  13  15
ATOM     15  C   UNL     1      97.998   3.509  76.172  1.00  0.00     0.106 CG0
ATOM     16  G   UNL     1      99.196   4.269  76.709  1.00  0.00     0.000 G0
ENDBRANCH  13  15
ENDBRANCH  12  13
BRANCH  12  17
ATOM     17  C   UNL     1      97.471   1.509  72.981  1.00  0.00    -0.006 C 
ATOM     18  C   UNL     1      97.955   1.805  71.549  1.00  0.00     0.008 C 
ATOM     19  C   UNL     1      97.200  -0.002  73.110  1.00  0.00     0.008 C 
ENDBRANCH  12  17
ENDBRANCH  11  12
ENDBRANCH   1  11
TORSDOF 1
ENDMDL
MODEL 7
REMARK VINA RESULT:    -2.447      1.696      4.201
REMARK INTER + INTRA:          -3.917
REMARK INTER:                  -3.858
REMARK INTRA:                  -0.060
REMARK UNBOUND:                -0.184
REMARK SMILES CC1=CCC[C@@H](C)C(=O)C[C@H](C(C)C)C(=O)C1
REMARK SMILES IDX 8 1 9 2 6 3 7 4 5 5 4 6 3 7 2 8 1 9 10 11 11 12 15 13 16 14
REMARK SMILES IDX 17 15 12 17 13 18 14 19
REMARK H PARENT
REMARK Flexibility Score: 70.00
ROOT
ATOM      1  C   UNL     1     101.600   7.256  77.285  1.00  0.00     0.136 C 
ATOM      2  O   UNL     1     102.179   7.170  78.358  1.00  0.00    -0.299 OA
ENDROOT
BRANCH   1   3
ATOM      3  C   UNL     1     100.392   8.188  77.205  1.00  0.00     0.053 C 
ATOM      4  C   UNL     1     100.758   9.524  77.869  1.00  0.00     0.016 C 
BRANCH   3   5
ATOM      5  C   UNL     1      99.061   7.660  77.802  1.00  0.00     0.015 C 
BRANCH   5   6
ATOM      6  C   UNL     1      97.868   7.679  76.816  1.00  0.00     0.028 C 
BRANCH   6   7
ATOM      7  C   UNL     1      97.515   6.283  76.354  1.00  0.00    -0.028 C 
ATOM      8  C   UNL     1      98.091   5.623  75.322  1.00  0.00    -0.070 CG0
ATOM      9  C   UNL     1      97.644   4.209  75.051  1.00  0.00     0.039 C 
ATOM     10  G   UNL     1      99.144   6.245  74.423  1.00  0.00     0.000 G0
ENDBRANCH   6   7
ENDBRANCH   5   6
ENDBRANCH   3   5
ENDBRANCH   1   3
BRANCH   1  11
ATOM     11  C   UNL     1     102.101   6.396  76.140  1.00  0.00     0.087 C 
BRANCH  11  12
ATOM     12  C   UNL     1     101.159   5.210  75.782  1.00  0.00     0.066 C 
BRANCH  12  13
ATOM     13  C   UNL     1     100.453   5.491  74.466  1.00  0.00     0.140 C 
ATOM     14  O   UNL     1     100.941   5.086  73.419  1.00  0.00    -0.299 OA
BRANCH  13  15
ATOM     15  C   UNL     1      99.143   6.231  74.412  1.00  0.00     0.106 CG0
ATOM     16  G   UNL     1      98.092   5.613  75.315  1.00  0.00     0.000 G0
ENDBRANCH  13  15
ENDBRANCH  12  13
BRANCH  12  17
ATOM     17  C   UNL     1     101.849   3.805  75.769  1.00  0.00    -0.006 C 
ATOM     18  C   UNL     1     103.366   3.888  76.015  1.00  0.00     0.008 C 
ATOM     19  C   UNL     1     101.224   2.881  76.832  1.00  0.00     0.008 C 
ENDBRANCH  12  17
ENDBRANCH  11  12
ENDBRANCH   1  11
TORSDOF 1
ENDMDL
MODEL 8
REMARK VINA RESULT:    -2.440      1.993      4.627
REMARK INTER + INTRA:          -3.908
REMARK INTER:                  -3.680
REMARK INTRA:                  -0.228
REMARK UNBOUND:                -0.184
REMARK SMILES CC1=CCC[C@@H](C)C(=O)C[C@H](C(C)C)C(=O)C1
REMARK SMILES IDX 8 1 9 2 6 3 7 4 5 5 4 6 3 7 2 8 1 9 10 11 11 12 15 13 16 14
REMARK SMILES IDX 17 15 12 17 13 18 14 19
REMARK H PARENT
REMARK Flexibility Score: 70.00
ROOT
ATOM      1  C   UNL     1     100.620   6.619  73.584  1.00  0.00     0.136 C 
ATOM      2  O   UNL     1     101.149   6.171  72.578  1.00  0.00    -0.299 OA
ENDROOT
BRANCH   1   3
ATOM      3  C   UNL     1     101.527   7.252  74.638  1.00  0.00     0.053 C 
ATOM      4  C   UNL     1     102.535   8.172  73.932  1.00  0.00     0.016 C 
BRANCH   3   5
ATOM      5  C   UNL     1     102.285   6.282  75.582  1.00  0.00     0.015 C 
BRANCH   5   6
ATOM      6  C   UNL     1     101.813   6.327  77.056  1.00  0.00     0.028 C 
BRANCH   6   7
ATOM      7  C   UNL     1     100.892   7.500  77.303  1.00  0.00    -0.028 C 
ATOM      8  C   UNL     1      99.548   7.432  77.448  1.00  0.00    -0.070 CG0
ATOM      9  C   UNL     1      98.805   8.709  77.751  1.00  0.00     0.039 C 
ATOM     10  G   UNL     1      98.762   6.142  77.303  1.00  0.00     0.000 G0
ENDBRANCH   6   7
ENDBRANCH   5   6
ENDBRANCH   3   5
ENDBRANCH   1   3
BRANCH   1  11
ATOM     11  C   UNL     1      99.117   6.468  73.721  1.00  0.00     0.087 C 
BRANCH  11  12
ATOM     12  C   UNL     1      98.683   5.392  74.757  1.00  0.00     0.066 C 
BRANCH  12  13
ATOM     13  C   UNL     1      98.043   6.063  75.961  1.00  0.00     0.140 C 
ATOM     14  O   UNL     1      96.914   6.526  75.868  1.00  0.00    -0.299 OA
BRANCH  13  15
ATOM     15  C   UNL     1      98.750   6.149  77.288  1.00  0.00     0.106 CG0
ATOM     16  G   UNL     1      99.538   7.436  77.441  1.00  0.00     0.000 G0
ENDBRANCH  13  15
ENDBRANCH  12  13
BRANCH  12  17
ATOM     17  C   UNL     1      97.766   4.260  74.183  1.00  0.00    -0.006 C 
ATOM     18  C   UNL     1      97.869   4.134  72.652  1.00  0.00     0.008 C 
ATOM     19  C   UNL     1      98.117   2.900  74.817  1.00  0.00     0.008 C 
ENDBRANCH  12  17
ENDBRANCH  11  12
ENDBRANCH   1  11
TORSDOF 1
ENDMDL
MODEL 9
REMARK VINA RESULT:    -2.407      2.231      3.136
REMARK INTER + INTRA:          -3.858
REMARK INTER:                  -3.680
REMARK INTRA:                  -0.178
REMARK UNBOUND:                -0.184
REMARK SMILES CC1=CCC[C@@H](C)C(=O)C[C@H](C(C)C)C(=O)C1
REMARK SMILES IDX 8 1 9 2 6 3 7 4 5 5 4 6 3 7 2 8 1 9 10 11 11 12 15 13 16 14
REMARK SMILES IDX 17 15 12 17 13 18 14 19
REMARK H PARENT
REMARK Flexibility Score: 70.00
ROOT
ATOM      1  C   UNL     1     102.567   6.498  76.104  1.00  0.00     0.136 C 
ATOM      2  O   UNL     1     102.960   7.602  75.756  1.00  0.00    -0.299 OA
ENDROOT
BRANCH   1   3
ATOM      3  C   UNL     1     102.557   5.388  75.055  1.00  0.00     0.053 C 
ATOM      4  C   UNL     1     103.962   5.273  74.446  1.00  0.00     0.016 C 
BRANCH   3   5
ATOM      5  C   UNL     1     101.508   5.510  73.918  1.00  0.00     0.015 C 
BRANCH   5   6
ATOM      6  C   UNL     1     100.277   4.586  74.083  1.00  0.00     0.028 C 
BRANCH   6   7
ATOM      7  C   UNL     1     100.594   3.401  74.967  1.00  0.00    -0.028 C 
ATOM      8  C   UNL     1     100.120   3.203  76.220  1.00  0.00    -0.070 CG0
ATOM      9  C   UNL     1     100.502   1.924  76.924  1.00  0.00     0.039 C 
ATOM     10  G   UNL     1      99.247   4.208  76.946  1.00  0.00     0.000 G0
ENDBRANCH   6   7
ENDBRANCH   5   6
ENDBRANCH   3   5
ENDBRANCH   1   3
BRANCH   1  11
ATOM     11  C   UNL     1     102.080   6.338  77.532  1.00  0.00     0.087 C 
BRANCH  11  12
ATOM     12  C   UNL     1     100.533   6.390  77.680  1.00  0.00     0.066 C 
BRANCH  12  13
ATOM     13  C   UNL     1      99.996   5.000  77.984  1.00  0.00     0.140 C 
ATOM     14  O   UNL     1     100.157   4.519  79.097  1.00  0.00    -0.299 OA
BRANCH  13  15
ATOM     15  C   UNL     1      99.238   4.203  76.956  1.00  0.00     0.106 CG0
ATOM     16  G   UNL     1     100.122   3.205  76.231  1.00  0.00     0.000 G0
ENDBRANCH  13  15
ENDBRANCH  12  13
BRANCH  12  17
ATOM     17  C   UNL     1     100.007   7.440  78.715  1.00  0.00    -0.006 C 
ATOM     18  C   UNL     1     101.128   8.339  79.268  1.00  0.00     0.008 C 
ATOM     19  C   UNL     1      98.923   8.333  78.083  1.00  0.00     0.008 C 
ENDBRANCH  12  17
ENDBRANCH  11  12
ENDBRANCH   1  11
TORSDOF 1
ENDMDL
