MODEL 1
REMARK VINA RESULT:    -4.392      0.000      0.000
REMARK INTER + INTRA:          -5.369
REMARK INTER:                  -5.034
REMARK INTRA:                  -0.335
REMARK UNBOUND:                -0.335
REMARK SMILES COc1ccc(C(C)=O)c(O)c1
REMARK SMILES IDX 6 1 10 2 12 3 3 4 4 5 5 6 7 7 8 8 9 9 11 10 2 12 1 13
REMARK H PARENT 11 11
REMARK Flexibility Score: inf
ROOT
ATOM      1  C   UNL     1      18.341  29.233  28.907  1.00  0.00     0.059 A 
ATOM      2  C   UNL     1      18.460  30.635  29.057  1.00  0.00     0.130 A 
ATOM      3  C   UNL     1      18.372  31.212  30.333  1.00  0.00     0.093 A 
ATOM      4  C   UNL     1      18.151  30.424  31.466  1.00  0.00     0.122 A 
ATOM      5  C   UNL     1      18.013  29.034  31.316  1.00  0.00     0.047 A 
ATOM      6  C   UNL     1      18.105  28.449  30.052  1.00  0.00     0.019 A 
ENDROOT
BRANCH   1   7
ATOM      7  C   UNL     1      18.443  28.558  27.586  1.00  0.00     0.163 C 
ATOM      8  C   UNL     1      17.520  27.450  27.176  1.00  0.00     0.093 C 
ATOM      9  O   UNL     1      19.334  28.922  26.772  1.00  0.00    -0.294 OA
ENDBRANCH   1   7
BRANCH   2  10
ATOM     10  O   UNL     1      18.643  31.460  27.948  1.00  0.00    -0.507 OA
ATOM     11  H   UNL     1      19.560  31.794  27.677  1.00  0.00     0.293 HD
ENDBRANCH   2  10
BRANCH   4  12
ATOM     12  O   UNL     1      18.070  31.059  32.714  1.00  0.00    -0.497 OA
ATOM     13  C   UNL     1      16.966  30.941  33.606  1.00  0.00     0.278 C 
ENDBRANCH   4  12
TORSDOF 3
ENDMDL
MODEL 2
REMARK VINA RESULT:    -4.332      0.938      4.534
REMARK INTER + INTRA:          -5.300
REMARK INTER:                  -4.959
REMARK INTRA:                  -0.341
REMARK UNBOUND:                -0.335
REMARK SMILES COc1ccc(C(C)=O)c(O)c1
REMARK SMILES IDX 6 1 10 2 12 3 3 4 4 5 5 6 7 7 8 8 9 9 11 10 2 12 1 13
REMARK H PARENT 11 11
REMARK Flexibility Score: inf
ROOT
ATOM      1  C   UNL     1      18.142  30.136  30.952  1.00  0.00     0.059 A 
ATOM      2  C   UNL     1      18.379  30.879  29.772  1.00  0.00     0.130 A 
ATOM      3  C   UNL     1      18.476  30.219  28.537  1.00  0.00     0.093 A 
ATOM      4  C   UNL     1      18.357  28.828  28.453  1.00  0.00     0.122 A 
ATOM      5  C   UNL     1      18.141  28.088  29.626  1.00  0.00     0.047 A 
ATOM      6  C   UNL     1      18.037  28.736  30.860  1.00  0.00     0.019 A 
ENDROOT
BRANCH   1   7
ATOM      7  C   UNL     1      18.011  30.776  32.288  1.00  0.00     0.163 C 
ATOM      8  C   UNL     1      16.896  30.443  33.234  1.00  0.00     0.093 C 
ATOM      9  O   UNL     1      18.863  31.632  32.650  1.00  0.00    -0.294 OA
ENDBRANCH   1   7
BRANCH   2  10
ATOM     10  O   UNL     1      18.541  32.262  29.818  1.00  0.00    -0.507 OA
ATOM     11  H   UNL     1      18.694  32.810  28.979  1.00  0.00     0.293 HD
ENDBRANCH   2  10
BRANCH   4  12
ATOM     12  O   UNL     1      18.466  28.225  27.191  1.00  0.00    -0.497 OA
ATOM     13  C   UNL     1      18.013  26.910  26.887  1.00  0.00     0.278 C 
ENDBRANCH   4  12
TORSDOF 3
ENDMDL
MODEL 3
REMARK VINA RESULT:    -4.329      2.610      5.176
REMARK INTER + INTRA:          -5.296
REMARK INTER:                  -4.968
REMARK INTRA:                  -0.328
REMARK UNBOUND:                -0.335
REMARK SMILES COc1ccc(C(C)=O)c(O)c1
REMARK SMILES IDX 6 1 10 2 12 3 3 4 4 5 5 6 7 7 8 8 9 9 11 10 2 12 1 13
REMARK H PARENT 11 11
REMARK Flexibility Score: inf
ROOT
ATOM      1  C   UNL     1      18.496  28.450  28.722  1.00  0.00     0.059 A 
ATOM      2  C   UNL     1      19.014  27.463  29.592  1.00  0.00     0.130 A 
ATOM      3  C   UNL     1      19.094  26.128  29.167  1.00  0.00     0.093 A 
ATOM      4  C   UNL     1      18.653  25.750  27.896  1.00  0.00     0.122 A 
ATOM      5  C   UNL     1      18.121  26.726  27.038  1.00  0.00     0.047 A 
ATOM      6  C   UNL     1      18.042  28.059  27.449  1.00  0.00     0.019 A 
ENDROOT
BRANCH   1   7
ATOM      7  C   UNL     1      18.401  29.885  29.104  1.00  0.00     0.163 C 
ATOM      8  C   UNL     1      18.640  30.996  28.126  1.00  0.00     0.093 C 
ATOM      9  O   UNL     1      18.108  30.190  30.292  1.00  0.00    -0.294 OA
ENDBRANCH   1   7
BRANCH   2  10
ATOM     10  O   UNL     1      19.428  27.792  30.882  1.00  0.00    -0.507 OA
ATOM     11  H   UNL     1      19.017  27.361  31.701  1.00  0.00     0.293 HD
ENDBRANCH   2  10
BRANCH   4  12
ATOM     12  O   UNL     1      18.756  24.400  27.529  1.00  0.00    -0.497 OA
ATOM     13  C   UNL     1      18.902  23.325  28.452  1.00  0.00     0.278 C 
ENDBRANCH   4  12
TORSDOF 3
ENDMDL
MODEL 4
REMARK VINA RESULT:    -4.318      1.665      2.355
REMARK INTER + INTRA:          -5.284
REMARK INTER:                  -4.959
REMARK INTRA:                  -0.325
REMARK UNBOUND:                -0.335
REMARK SMILES COc1ccc(C(C)=O)c(O)c1
REMARK SMILES IDX 6 1 10 2 12 3 3 4 4 5 5 6 7 7 8 8 9 9 11 10 2 12 1 13
REMARK H PARENT 11 11
REMARK Flexibility Score: inf
ROOT
ATOM      1  C   UNL     1      18.358  29.214  28.308  1.00  0.00     0.059 A 
ATOM      2  C   UNL     1      18.312  28.841  29.672  1.00  0.00     0.130 A 
ATOM      3  C   UNL     1      18.350  29.828  30.668  1.00  0.00     0.093 A 
ATOM      4  C   UNL     1      18.449  31.183  30.336  1.00  0.00     0.122 A 
ATOM      5  C   UNL     1      18.513  31.552  28.983  1.00  0.00     0.047 A 
ATOM      6  C   UNL     1      18.470  30.578  27.983  1.00  0.00     0.019 A 
ENDROOT
BRANCH   1   7
ATOM      7  C   UNL     1      18.304  28.218  27.204  1.00  0.00     0.163 C 
ATOM      8  C   UNL     1      19.403  28.077  26.194  1.00  0.00     0.093 C 
ATOM      9  O   UNL     1      17.302  27.459  27.104  1.00  0.00    -0.294 OA
ENDBRANCH   1   7
BRANCH   2  10
ATOM     10  O   UNL     1      18.253  27.500  30.045  1.00  0.00    -0.507 OA
ATOM     11  H   UNL     1      18.964  27.076  30.629  1.00  0.00     0.293 HD
ENDBRANCH   2  10
BRANCH   4  12
ATOM     12  O   UNL     1      18.484  32.123  31.377  1.00  0.00    -0.497 OA
ATOM     13  C   UNL     1      17.756  32.002  32.594  1.00  0.00     0.278 C 
ENDBRANCH   4  12
TORSDOF 3
ENDMDL
MODEL 5
REMARK VINA RESULT:    -4.282      2.869      5.401
REMARK INTER + INTRA:          -5.242
REMARK INTER:                  -4.906
REMARK INTRA:                  -0.336
REMARK UNBOUND:                -0.335
REMARK SMILES COc1ccc(C(C)=O)c(O)c1
REMARK SMILES IDX 6 1 10 2 12 3 3 4 4 5 5 6 7 7 8 8 9 9 11 10 2 12 1 13
REMARK H PARENT 11 11
REMARK Flexibility Score: inf
ROOT
ATOM      1  C   UNL     1      18.491  27.566  29.091  1.00  0.00     0.059 A 
ATOM      2  C   UNL     1      17.920  27.109  27.881  1.00  0.00     0.130 A 
ATOM      3  C   UNL     1      18.183  25.807  27.430  1.00  0.00     0.093 A 
ATOM      4  C   UNL     1      19.020  24.951  28.153  1.00  0.00     0.122 A 
ATOM      5  C   UNL     1      19.603  25.410  29.345  1.00  0.00     0.047 A 
ATOM      6  C   UNL     1      19.342  26.703  29.805  1.00  0.00     0.019 A 
ENDROOT
BRANCH   1   7
ATOM      7  C   UNL     1      18.237  28.929  29.632  1.00  0.00     0.163 C 
ATOM      8  C   UNL     1      17.884  29.171  31.069  1.00  0.00     0.093 C 
ATOM      9  O   UNL     1      18.321  29.925  28.863  1.00  0.00    -0.294 OA
ENDBRANCH   1   7
BRANCH   2  10
ATOM     10  O   UNL     1      17.111  27.944  27.111  1.00  0.00    -0.507 OA
ATOM     11  H   UNL     1      16.510  27.581  26.382  1.00  0.00     0.293 HD
ENDBRANCH   2  10
BRANCH   4  12
ATOM     12  O   UNL     1      19.247  23.661  27.651  1.00  0.00    -0.497 OA
ATOM     13  C   UNL     1      19.026  22.462  28.387  1.00  0.00     0.278 C 
ENDBRANCH   4  12
TORSDOF 3
ENDMDL
MODEL 6
REMARK VINA RESULT:    -4.273      2.267      5.308
REMARK INTER + INTRA:          -5.233
REMARK INTER:                  -4.909
REMARK INTRA:                  -0.324
REMARK UNBOUND:                -0.335
REMARK SMILES COc1ccc(C(C)=O)c(O)c1
REMARK SMILES IDX 6 1 10 2 12 3 3 4 4 5 5 6 7 7 8 8 9 9 11 10 2 12 1 13
REMARK H PARENT 11 11
REMARK Flexibility Score: inf
ROOT
ATOM      1  C   UNL     1      18.681  28.431  33.045  1.00  0.00     0.059 A 
ATOM      2  C   UNL     1      17.967  29.307  32.194  1.00  0.00     0.130 A 
ATOM      3  C   UNL     1      18.052  29.153  30.802  1.00  0.00     0.093 A 
ATOM      4  C   UNL     1      18.848  28.153  30.235  1.00  0.00     0.122 A 
ATOM      5  C   UNL     1      19.572  27.295  31.079  1.00  0.00     0.047 A 
ATOM      6  C   UNL     1      19.490  27.436  32.466  1.00  0.00     0.019 A 
ENDROOT
BRANCH   1   7
ATOM      7  C   UNL     1      18.620  28.530  34.528  1.00  0.00     0.163 C 
ATOM      8  C   UNL     1      19.783  28.176  35.406  1.00  0.00     0.093 C 
ATOM      9  O   UNL     1      17.557  28.925  35.078  1.00  0.00    -0.294 OA
ENDBRANCH   1   7
BRANCH   2  10
ATOM     10  O   UNL     1      17.194  30.341  32.718  1.00  0.00    -0.507 OA
ATOM     11  H   UNL     1      16.193  30.390  32.565  1.00  0.00     0.293 HD
ENDBRANCH   2  10
BRANCH   4  12
ATOM     12  O   UNL     1      18.894  28.051  28.837  1.00  0.00    -0.497 OA
ATOM     13  C   UNL     1      18.323  29.000  27.942  1.00  0.00     0.278 C 
ENDBRANCH   4  12
TORSDOF 3
ENDMDL
MODEL 7
REMARK VINA RESULT:    -4.242      3.402      4.607
REMARK INTER + INTRA:          -5.197
REMARK INTER:                  -4.902
REMARK INTRA:                  -0.295
REMARK UNBOUND:                -0.335
REMARK SMILES COc1ccc(C(C)=O)c(O)c1
REMARK SMILES IDX 6 1 10 2 12 3 3 4 4 5 5 6 7 7 8 8 9 9 11 10 2 12 1 13
REMARK H PARENT 11 11
REMARK Flexibility Score: inf
ROOT
ATOM      1  C   UNL     1      18.655  28.507  33.582  1.00  0.00     0.059 A 
ATOM      2  C   UNL     1      18.455  29.315  32.438  1.00  0.00     0.130 A 
ATOM      3  C   UNL     1      17.645  30.457  32.521  1.00  0.00     0.093 A 
ATOM      4  C   UNL     1      17.013  30.806  33.719  1.00  0.00     0.122 A 
ATOM      5  C   UNL     1      17.195  29.994  34.850  1.00  0.00     0.047 A 
ATOM      6  C   UNL     1      18.004  28.858  34.779  1.00  0.00     0.019 A 
ENDROOT
BRANCH   1   7
ATOM      7  C   UNL     1      19.516  27.294  33.565  1.00  0.00     0.163 C 
ATOM      8  C   UNL     1      20.175  26.758  34.800  1.00  0.00     0.093 C 
ATOM      9  O   UNL     1      19.704  26.684  32.477  1.00  0.00    -0.294 OA
ENDBRANCH   1   7
BRANCH   2  10
ATOM     10  O   UNL     1      19.036  28.980  31.216  1.00  0.00    -0.507 OA
ATOM     11  H   UNL     1      19.791  28.308  31.149  1.00  0.00     0.293 HD
ENDBRANCH   2  10
BRANCH   4  12
ATOM     12  O   UNL     1      16.213  31.958  33.739  1.00  0.00    -0.497 OA
ATOM     13  C   UNL     1      16.281  32.966  34.742  1.00  0.00     0.278 C 
ENDBRANCH   4  12
TORSDOF 3
ENDMDL
MODEL 8
REMARK VINA RESULT:    -4.174      2.347      5.700
REMARK INTER + INTRA:          -5.119
REMARK INTER:                  -4.815
REMARK INTRA:                  -0.304
REMARK UNBOUND:                -0.335
REMARK SMILES COc1ccc(C(C)=O)c(O)c1
REMARK SMILES IDX 6 1 10 2 12 3 3 4 4 5 5 6 7 7 8 8 9 9 11 10 2 12 1 13
REMARK H PARENT 11 11
REMARK Flexibility Score: inf
ROOT
ATOM      1  C   UNL     1      18.355  28.807  33.150  1.00  0.00     0.059 A 
ATOM      2  C   UNL     1      19.213  27.719  32.867  1.00  0.00     0.130 A 
ATOM      3  C   UNL     1      19.467  27.356  31.536  1.00  0.00     0.093 A 
ATOM      4  C   UNL     1      18.871  28.045  30.476  1.00  0.00     0.122 A 
ATOM      5  C   UNL     1      18.004  29.113  30.756  1.00  0.00     0.047 A 
ATOM      6  C   UNL     1      17.749  29.486  32.077  1.00  0.00     0.019 A 
ENDROOT
BRANCH   1   7
ATOM      7  C   UNL     1      18.058  29.253  34.538  1.00  0.00     0.163 C 
ATOM      8  C   UNL     1      16.785  29.955  34.902  1.00  0.00     0.093 C 
ATOM      9  O   UNL     1      18.901  29.036  35.451  1.00  0.00    -0.294 OA
ENDBRANCH   1   7
BRANCH   2  10
ATOM     10  O   UNL     1      19.797  26.981  33.896  1.00  0.00    -0.507 OA
ATOM     11  H   UNL     1      19.731  27.272  34.865  1.00  0.00     0.293 HD
ENDBRANCH   2  10
BRANCH   4  12
ATOM     12  O   UNL     1      19.162  27.635  29.166  1.00  0.00    -0.497 OA
ATOM     13  C   UNL     1      18.189  27.186  28.229  1.00  0.00     0.278 C 
ENDBRANCH   4  12
TORSDOF 3
ENDMDL
MODEL 9
REMARK VINA RESULT:    -4.161      2.522      3.291
REMARK INTER + INTRA:          -5.104
REMARK INTER:                  -4.761
REMARK INTRA:                  -0.342
REMARK UNBOUND:                -0.335
REMARK SMILES COc1ccc(C(C)=O)c(O)c1
REMARK SMILES IDX 6 1 10 2 12 3 3 4 4 5 5 6 7 7 8 8 9 9 11 10 2 12 1 13
REMARK H PARENT 11 11
REMARK Flexibility Score: inf
ROOT
ATOM      1  C   UNL     1      18.352  28.506  30.866  1.00  0.00     0.059 A 
ATOM      2  C   UNL     1      19.138  27.739  31.758  1.00  0.00     0.130 A 
ATOM      3  C   UNL     1      19.142  28.045  33.127  1.00  0.00     0.093 A 
ATOM      4  C   UNL     1      18.390  29.112  33.629  1.00  0.00     0.122 A 
ATOM      5  C   UNL     1      17.624  29.885  32.742  1.00  0.00     0.047 A 
ATOM      6  C   UNL     1      17.609  29.586  31.377  1.00  0.00     0.019 A 
ENDROOT
BRANCH   1   7
ATOM      7  C   UNL     1      18.290  28.222  29.407  1.00  0.00     0.163 C 
ATOM      8  C   UNL     1      18.384  29.304  28.373  1.00  0.00     0.093 C 
ATOM      9  O   UNL     1      18.156  27.032  29.014  1.00  0.00    -0.294 OA
ENDBRANCH   1   7
BRANCH   2  10
ATOM     10  O   UNL     1      19.932  26.692  31.293  1.00  0.00    -0.507 OA
ATOM     11  H   UNL     1      19.557  25.960  30.701  1.00  0.00     0.293 HD
ENDBRANCH   2  10
BRANCH   4  12
ATOM     12  O   UNL     1      18.436  29.370  35.007  1.00  0.00    -0.497 OA
ATOM     13  C   UNL     1      19.483  28.939  35.870  1.00  0.00     0.278 C 
ENDBRANCH   4  12
TORSDOF 3
ENDMDL
