MODEL 1
REMARK VINA RESULT:    -4.193      0.000      0.000
REMARK INTER + INTRA:          -5.006
REMARK INTER:                  -4.806
REMARK INTRA:                  -0.200
REMARK UNBOUND:                -0.200
REMARK SMILES CC=Cc1ccc(O)c(OC)c1
REMARK SMILES IDX 4 1 12 2 9 3 7 4 6 5 5 6 3 7 1 8 2 9 10 10 11 11 8 12
REMARK H PARENT 8 13
REMARK Flexibility Score: inf
ROOT
ATOM      1  C   UNL     1     106.719 106.809 103.014  1.00  0.00    -0.022 A 
ATOM      2  C   UNL     1     106.299 107.223 104.286  1.00  0.00     0.058 A 
ATOM      3  C   UNL     1     105.311 108.219 104.427  1.00  0.00     0.161 A 
ATOM      4  C   UNL     1     104.732 108.779 103.274  1.00  0.00     0.157 A 
ATOM      5  C   UNL     1     105.132 108.344 102.007  1.00  0.00     0.051 A 
ATOM      6  C   UNL     1     106.112 107.358 101.875  1.00  0.00     0.012 A 
ENDROOT
BRANCH   1   7
ATOM      7  C   UNL     1     107.738 105.744 102.903  1.00  0.00     0.003 C 
ATOM      8  C   UNL     1     106.077 103.896 102.561  1.00  0.00     0.035 C 
ATOM      9  C   UNL     1     107.462 104.445 102.724  1.00  0.00    -0.030 C 
ENDBRANCH   1   7
BRANCH   3  10
ATOM     10  O   UNL     1     104.882 108.667 105.687  1.00  0.00    -0.493 OA
ATOM     11  C   UNL     1     104.685 107.828 106.819  1.00  0.00     0.278 C 
ENDBRANCH   3  10
BRANCH   4  12
ATOM     12  O   UNL     1     103.752 109.768 103.367  1.00  0.00    -0.504 OA
ATOM     13  H   UNL     1     103.732 110.569 102.747  1.00  0.00     0.293 HD
ENDBRANCH   4  12
TORSDOF 3
ENDMDL
MODEL 2
REMARK VINA RESULT:    -4.187      2.942      3.441
REMARK INTER + INTRA:          -4.998
REMARK INTER:                  -4.827
REMARK INTRA:                  -0.171
REMARK UNBOUND:                -0.200
REMARK SMILES CC=Cc1ccc(O)c(OC)c1
REMARK SMILES IDX 4 1 12 2 9 3 7 4 6 5 5 6 3 7 1 8 2 9 10 10 11 11 8 12
REMARK H PARENT 8 13
REMARK Flexibility Score: inf
ROOT
ATOM      1  C   UNL     1     105.164 106.736 103.019  1.00  0.00    -0.022 A 
ATOM      2  C   UNL     1     104.745 106.309 104.287  1.00  0.00     0.058 A 
ATOM      3  C   UNL     1     103.755 105.315 104.420  1.00  0.00     0.161 A 
ATOM      4  C   UNL     1     103.204 104.736 103.262  1.00  0.00     0.157 A 
ATOM      5  C   UNL     1     103.644 105.142 101.999  1.00  0.00     0.051 A 
ATOM      6  C   UNL     1     104.625 106.129 101.875  1.00  0.00     0.012 A 
ENDROOT
BRANCH   1   7
ATOM      7  C   UNL     1     106.223 107.761 102.917  1.00  0.00     0.003 C 
ATOM      8  C   UNL     1     108.052 106.125 102.396  1.00  0.00     0.035 C 
ATOM      9  C   UNL     1     107.512 107.498 102.663  1.00  0.00    -0.030 C 
ENDBRANCH   1   7
BRANCH   3  10
ATOM     10  O   UNL     1     103.301 104.880 105.676  1.00  0.00    -0.493 OA
ATOM     11  C   UNL     1     104.145 104.610 106.790  1.00  0.00     0.278 C 
ENDBRANCH   3  10
BRANCH   4  12
ATOM     12  O   UNL     1     102.220 103.750 103.346  1.00  0.00    -0.504 OA
ATOM     13  H   UNL     1     101.960 103.177 102.553  1.00  0.00     0.293 HD
ENDBRANCH   4  12
TORSDOF 3
ENDMDL
MODEL 3
REMARK VINA RESULT:    -4.177      2.920      3.412
REMARK INTER + INTRA:          -4.987
REMARK INTER:                  -4.801
REMARK INTRA:                  -0.186
REMARK UNBOUND:                -0.200
REMARK SMILES CC=Cc1ccc(O)c(OC)c1
REMARK SMILES IDX 4 1 12 2 9 3 7 4 6 5 5 6 3 7 1 8 2 9 10 10 11 11 8 12
REMARK H PARENT 8 13
REMARK Flexibility Score: inf
ROOT
ATOM      1  C   UNL     1     106.784 105.257 103.027  1.00  0.00    -0.022 A 
ATOM      2  C   UNL     1     107.195 105.701 104.292  1.00  0.00     0.058 A 
ATOM      3  C   UNL     1     108.185 106.696 104.417  1.00  0.00     0.161 A 
ATOM      4  C   UNL     1     108.745 107.257 103.255  1.00  0.00     0.157 A 
ATOM      5  C   UNL     1     108.312 106.833 101.995  1.00  0.00     0.051 A 
ATOM      6  C   UNL     1     107.332 105.846 101.879  1.00  0.00     0.012 A 
ENDROOT
BRANCH   1   7
ATOM      7  C   UNL     1     105.724 104.231 102.933  1.00  0.00     0.003 C 
ATOM      8  C   UNL     1     103.881 105.872 102.481  1.00  0.00     0.035 C 
ATOM      9  C   UNL     1     104.429 104.496 102.713  1.00  0.00    -0.030 C 
ENDBRANCH   1   7
BRANCH   3  10
ATOM     10  O   UNL     1     108.630 107.148 105.670  1.00  0.00    -0.493 OA
ATOM     11  C   UNL     1     107.830 107.188 106.847  1.00  0.00     0.278 C 
ENDBRANCH   3  10
BRANCH   4  12
ATOM     12  O   UNL     1     109.729 108.243 103.332  1.00  0.00    -0.504 OA
ATOM     13  H   UNL     1     110.668 108.098 102.981  1.00  0.00     0.293 HD
ENDBRANCH   4  12
TORSDOF 3
ENDMDL
MODEL 4
REMARK VINA RESULT:    -4.149      3.313      4.869
REMARK INTER + INTRA:          -4.955
REMARK INTER:                  -4.752
REMARK INTRA:                  -0.203
REMARK UNBOUND:                -0.200
REMARK SMILES CC=Cc1ccc(O)c(OC)c1
REMARK SMILES IDX 4 1 12 2 9 3 7 4 6 5 5 6 3 7 1 8 2 9 10 10 11 11 8 12
REMARK H PARENT 8 13
REMARK Flexibility Score: inf
ROOT
ATOM      1  C   UNL     1     105.207 105.176 103.034  1.00  0.00    -0.022 A 
ATOM      2  C   UNL     1     105.637 104.722 104.290  1.00  0.00     0.058 A 
ATOM      3  C   UNL     1     106.635 103.733 104.393  1.00  0.00     0.161 A 
ATOM      4  C   UNL     1     107.215 103.218 103.219  1.00  0.00     0.157 A 
ATOM      5  C   UNL     1     106.806 103.693 101.970  1.00  0.00     0.051 A 
ATOM      6  C   UNL     1     105.815 104.673 101.875  1.00  0.00     0.012 A 
ENDROOT
BRANCH   1   7
ATOM      7  C   UNL     1     104.177 106.234 102.965  1.00  0.00     0.003 C 
ATOM      8  C   UNL     1     105.819 108.109 102.683  1.00  0.00     0.035 C 
ATOM      9  C   UNL     1     104.440 107.541 102.831  1.00  0.00    -0.030 C 
ENDBRANCH   1   7
BRANCH   3  10
ATOM     10  O   UNL     1     107.073 103.245 105.635  1.00  0.00    -0.493 OA
ATOM     11  C   UNL     1     107.457 104.064 106.735  1.00  0.00     0.278 C 
ENDBRANCH   3  10
BRANCH   4  12
ATOM     12  O   UNL     1     108.205 102.236 103.275  1.00  0.00    -0.504 OA
ATOM     13  H   UNL     1     109.040 102.342 103.838  1.00  0.00     0.293 HD
ENDBRANCH   4  12
TORSDOF 3
ENDMDL
MODEL 5
REMARK VINA RESULT:    -4.047      2.101      3.116
REMARK INTER + INTRA:          -4.838
REMARK INTER:                  -4.612
REMARK INTRA:                  -0.226
REMARK UNBOUND:                -0.200
REMARK SMILES CC=Cc1ccc(O)c(OC)c1
REMARK SMILES IDX 4 1 12 2 9 3 7 4 6 5 5 6 3 7 1 8 2 9 10 10 11 11 8 12
REMARK H PARENT 8 13
REMARK Flexibility Score: inf
ROOT
ATOM      1  C   UNL     1     105.824 107.028 103.003  1.00  0.00    -0.022 A 
ATOM      2  C   UNL     1     105.732 107.301 104.376  1.00  0.00     0.058 A 
ATOM      3  C   UNL     1     106.890 107.348 105.179  1.00  0.00     0.161 A 
ATOM      4  C   UNL     1     108.147 107.139 104.583  1.00  0.00     0.157 A 
ATOM      5  C   UNL     1     108.239 106.896 103.209  1.00  0.00     0.051 A 
ATOM      6  C   UNL     1     107.087 106.850 102.420  1.00  0.00     0.012 A 
ENDROOT
BRANCH   1   7
ATOM      7  C   UNL     1     104.592 107.013 102.187  1.00  0.00     0.003 C 
ATOM      8  C   UNL     1     104.099 104.588 102.594  1.00  0.00     0.035 C 
ATOM      9  C   UNL     1     103.831 105.930 101.982  1.00  0.00    -0.030 C 
ENDBRANCH   1   7
BRANCH   3  10
ATOM     10  O   UNL     1     106.827 107.601 106.559  1.00  0.00    -0.493 OA
ATOM     11  C   UNL     1     105.645 107.970 107.260  1.00  0.00     0.278 C 
ENDBRANCH   3  10
BRANCH   4  12
ATOM     12  O   UNL     1     109.318 107.175 105.340  1.00  0.00    -0.504 OA
ATOM     13  H   UNL     1     109.965 107.953 105.298  1.00  0.00     0.293 HD
ENDBRANCH   4  12
TORSDOF 3
ENDMDL
MODEL 6
REMARK VINA RESULT:    -4.005      3.239      3.649
REMARK INTER + INTRA:          -4.790
REMARK INTER:                  -4.584
REMARK INTRA:                  -0.206
REMARK UNBOUND:                -0.200
REMARK SMILES CC=Cc1ccc(O)c(OC)c1
REMARK SMILES IDX 4 1 12 2 9 3 7 4 6 5 5 6 3 7 1 8 2 9 10 10 11 11 8 12
REMARK H PARENT 8 13
REMARK Flexibility Score: inf
ROOT
ATOM      1  C   UNL     1     106.969 105.319 103.431  1.00  0.00    -0.022 A 
ATOM      2  C   UNL     1     106.877 105.026 104.799  1.00  0.00     0.058 A 
ATOM      3  C   UNL     1     107.606 105.775 105.744  1.00  0.00     0.161 A 
ATOM      4  C   UNL     1     108.415 106.837 105.302  1.00  0.00     0.157 A 
ATOM      5  C   UNL     1     108.482 107.146 103.940  1.00  0.00     0.051 A 
ATOM      6  C   UNL     1     107.758 106.399 103.009  1.00  0.00     0.012 A 
ENDROOT
BRANCH   1   7
ATOM      7  C   UNL     1     106.170 104.530 102.470  1.00  0.00     0.003 C 
ATOM      8  C   UNL     1     107.809 102.636 102.335  1.00  0.00     0.035 C 
ATOM      9  C   UNL     1     106.544 103.348 101.961  1.00  0.00    -0.030 C 
ENDBRANCH   1   7
BRANCH   3  10
ATOM     10  O   UNL     1     107.548 105.494 107.119  1.00  0.00    -0.493 OA
ATOM     11  C   UNL     1     107.817 104.221 107.697  1.00  0.00     0.278 C 
ENDBRANCH   3  10
BRANCH   4  12
ATOM     12  O   UNL     1     109.155 107.604 106.203  1.00  0.00    -0.504 OA
ATOM     13  H   UNL     1     108.730 108.060 107.001  1.00  0.00     0.293 HD
ENDBRANCH   4  12
TORSDOF 3
ENDMDL
MODEL 7
REMARK VINA RESULT:    -3.987      2.941      3.512
REMARK INTER + INTRA:          -4.770
REMARK INTER:                  -4.537
REMARK INTRA:                  -0.233
REMARK UNBOUND:                -0.200
REMARK SMILES CC=Cc1ccc(O)c(OC)c1
REMARK SMILES IDX 4 1 12 2 9 3 7 4 6 5 5 6 3 7 1 8 2 9 10 10 11 11 8 12
REMARK H PARENT 8 13
REMARK Flexibility Score: inf
ROOT
ATOM      1  C   UNL     1     106.110 104.901 103.044  1.00  0.00    -0.022 A 
ATOM      2  C   UNL     1     106.230 104.725 104.430  1.00  0.00     0.058 A 
ATOM      3  C   UNL     1     105.086 104.711 105.253  1.00  0.00     0.161 A 
ATOM      4  C   UNL     1     103.816 104.854 104.665  1.00  0.00     0.157 A 
ATOM      5  C   UNL     1     103.697 104.999 103.280  1.00  0.00     0.051 A 
ATOM      6  C   UNL     1     104.835 105.014 102.471  1.00  0.00     0.012 A 
ENDROOT
BRANCH   1   7
ATOM      7  C   UNL     1     107.329 104.884 102.208  1.00  0.00     0.003 C 
ATOM      8  C   UNL     1     107.735 107.354 102.376  1.00  0.00     0.035 C 
ATOM      9  C   UNL     1     108.045 105.971 101.887  1.00  0.00    -0.030 C 
ENDBRANCH   1   7
BRANCH   3  10
ATOM     10  O   UNL     1     105.174 104.554 106.646  1.00  0.00    -0.493 OA
ATOM     11  C   UNL     1     106.325 104.075 107.334  1.00  0.00     0.278 C 
ENDBRANCH   3  10
BRANCH   4  12
ATOM     12  O   UNL     1     102.657 104.847 105.443  1.00  0.00    -0.504 OA
ATOM     13  H   UNL     1     102.593 104.333 106.314  1.00  0.00     0.293 HD
ENDBRANCH   4  12
TORSDOF 3
ENDMDL
MODEL 8
REMARK VINA RESULT:    -3.965      2.740      4.257
REMARK INTER + INTRA:          -4.744
REMARK INTER:                  -4.517
REMARK INTRA:                  -0.227
REMARK UNBOUND:                -0.200
REMARK SMILES CC=Cc1ccc(O)c(OC)c1
REMARK SMILES IDX 4 1 12 2 9 3 7 4 6 5 5 6 3 7 1 8 2 9 10 10 11 11 8 12
REMARK H PARENT 8 13
REMARK Flexibility Score: inf
ROOT
ATOM      1  C   UNL     1     106.972 106.179 102.993  1.00  0.00    -0.022 A 
ATOM      2  C   UNL     1     107.242 106.280 104.366  1.00  0.00     0.058 A 
ATOM      3  C   UNL     1     107.293 105.125 105.173  1.00  0.00     0.161 A 
ATOM      4  C   UNL     1     107.091 103.865 104.583  1.00  0.00     0.157 A 
ATOM      5  C   UNL     1     106.852 103.766 103.209  1.00  0.00     0.051 A 
ATOM      6  C   UNL     1     106.801 104.913 102.415  1.00  0.00     0.012 A 
ENDROOT
BRANCH   1   7
ATOM      7  C   UNL     1     106.952 107.408 102.171  1.00  0.00     0.003 C 
ATOM      8  C   UNL     1     104.524 107.892 102.573  1.00  0.00     0.035 C 
ATOM      9  C   UNL     1     105.866 108.163 101.961  1.00  0.00    -0.030 C 
ENDBRANCH   1   7
BRANCH   3  10
ATOM     10  O   UNL     1     107.544 105.195 106.554  1.00  0.00    -0.493 OA
ATOM     11  C   UNL     1     107.973 106.366 107.239  1.00  0.00     0.278 C 
ENDBRANCH   3  10
BRANCH   4  12
ATOM     12  O   UNL     1     107.131 102.697 105.345  1.00  0.00    -0.504 OA
ATOM     13  H   UNL     1     107.660 102.632 106.207  1.00  0.00     0.293 HD
ENDBRANCH   4  12
TORSDOF 3
ENDMDL
MODEL 9
REMARK VINA RESULT:    -3.942      1.466      1.986
REMARK INTER + INTRA:          -4.718
REMARK INTER:                  -4.481
REMARK INTRA:                  -0.237
REMARK UNBOUND:                -0.200
REMARK SMILES CC=Cc1ccc(O)c(OC)c1
REMARK SMILES IDX 4 1 12 2 9 3 7 4 6 5 5 6 3 7 1 8 2 9 10 10 11 11 8 12
REMARK H PARENT 8 13
REMARK Flexibility Score: inf
ROOT
ATOM      1  C   UNL     1     104.890 105.878 103.215  1.00  0.00    -0.022 A 
ATOM      2  C   UNL     1     104.793 105.794 104.612  1.00  0.00     0.058 A 
ATOM      3  C   UNL     1     104.782 106.961 105.402  1.00  0.00     0.161 A 
ATOM      4  C   UNL     1     104.849 108.217 104.773  1.00  0.00     0.157 A 
ATOM      5  C   UNL     1     104.916 108.299 103.379  1.00  0.00     0.051 A 
ATOM      6  C   UNL     1     104.927 107.139 102.602  1.00  0.00     0.012 A 
ENDROOT
BRANCH   1   7
ATOM      7  C   UNL     1     104.871 104.635 102.416  1.00  0.00     0.003 C 
ATOM      8  C   UNL     1     107.360 104.322 102.454  1.00  0.00     0.035 C 
ATOM      9  C   UNL     1     105.964 103.949 102.054  1.00  0.00    -0.030 C 
ENDBRANCH   1   7
BRANCH   3  10
ATOM     10  O   UNL     1     104.704 106.908 106.804  1.00  0.00    -0.493 OA
ATOM     11  C   UNL     1     103.939 105.957 107.536  1.00  0.00     0.278 C 
ENDBRANCH   3  10
BRANCH   4  12
ATOM     12  O   UNL     1     104.843 109.397 105.517  1.00  0.00    -0.504 OA
ATOM     13  H   UNL     1     105.156 110.280 105.132  1.00  0.00     0.293 HD
ENDBRANCH   4  12
TORSDOF 3
ENDMDL
