MODEL 1
REMARK VINA RESULT:    -5.049      0.000      0.000
REMARK INTER + INTRA:          -5.834
REMARK INTER:                  -5.787
REMARK INTRA:                  -0.047
REMARK UNBOUND:                -0.047
REMARK SMILES O=C([O-])c1cc(O)c(O)c(O)c1
REMARK SMILES IDX 4 1 5 2 12 3 6 4 10 5 8 6 2 7 1 8 3 9 7 10 11 12 9 14
REMARK H PARENT 7 11 11 13 9 15
REMARK Flexibility Score: inf
ROOT
ATOM      1  C   UNL     1     -24.771  12.146  55.576  1.00  0.00     0.005 A 
ATOM      2  C   UNL     1     -25.786  12.715  56.363  1.00  0.00     0.060 A 
ATOM      3  C   UNL     1     -24.109  10.999  56.043  1.00  0.00     0.060 A 
ATOM      4  C   UNL     1     -26.136  12.151  57.594  1.00  0.00     0.162 A 
ATOM      5  C   UNL     1     -24.453  10.428  57.276  1.00  0.00     0.162 A 
ATOM      6  C   UNL     1     -25.470  11.004  58.055  1.00  0.00     0.200 A 
ENDROOT
BRANCH   1   7
ATOM      7  C   UNL     1     -24.408  12.750  54.275  1.00  0.00     0.072 C 
ATOM      8  O   UNL     1     -23.213  13.059  54.023  1.00  0.00    -0.545 OA
ATOM      9  O   UNL     1     -25.382  12.987  53.311  1.00  0.00    -0.545 OA
ENDBRANCH   1   7
BRANCH   4  10
ATOM     10  O   UNL     1     -27.150  12.746  58.344  1.00  0.00    -0.504 OA
ATOM     11  H   UNL     1     -26.957  13.288  59.178  1.00  0.00     0.293 HD
ENDBRANCH   4  10
BRANCH   5  12
ATOM     12  O   UNL     1     -23.788   9.289  57.729  1.00  0.00    -0.504 OA
ATOM     13  H   UNL     1     -22.783   9.192  57.644  1.00  0.00     0.293 HD
ENDBRANCH   5  12
BRANCH   6  14
ATOM     14  O   UNL     1     -25.825  10.448  59.285  1.00  0.00    -0.502 OA
ATOM     15  H   UNL     1     -25.588   9.496  59.537  1.00  0.00     0.293 HD
ENDBRANCH   6  14
TORSDOF 4
ENDMDL
MODEL 2
REMARK VINA RESULT:    -5.046      0.047      2.430
REMARK INTER + INTRA:          -5.831
REMARK INTER:                  -5.784
REMARK INTRA:                  -0.047
REMARK UNBOUND:                -0.047
REMARK SMILES O=C([O-])c1cc(O)c(O)c(O)c1
REMARK SMILES IDX 4 1 5 2 12 3 6 4 10 5 8 6 2 7 1 8 3 9 7 10 11 12 9 14
REMARK H PARENT 7 11 11 13 9 15
REMARK Flexibility Score: inf
ROOT
ATOM      1  C   UNL     1     -24.774  12.119  55.594  1.00  0.00     0.005 A 
ATOM      2  C   UNL     1     -24.119  10.976  56.083  1.00  0.00     0.060 A 
ATOM      3  C   UNL     1     -25.800  12.696  56.361  1.00  0.00     0.060 A 
ATOM      4  C   UNL     1     -24.477  10.419  57.314  1.00  0.00     0.162 A 
ATOM      5  C   UNL     1     -26.166  12.143  57.596  1.00  0.00     0.162 A 
ATOM      6  C   UNL     1     -25.504  11.001  58.076  1.00  0.00     0.200 A 
ENDROOT
BRANCH   1   7
ATOM      7  C   UNL     1     -24.387  12.701  54.290  1.00  0.00     0.072 C 
ATOM      8  O   UNL     1     -23.187  13.001  54.054  1.00  0.00    -0.545 OA
ATOM      9  O   UNL     1     -25.344  12.925  53.306  1.00  0.00    -0.545 OA
ENDBRANCH   1   7
BRANCH   4  10
ATOM     10  O   UNL     1     -23.801   9.285  57.764  1.00  0.00    -0.504 OA
ATOM     11  H   UNL     1     -24.220   8.363  57.743  1.00  0.00     0.293 HD
ENDBRANCH   4  10
BRANCH   5  12
ATOM     12  O   UNL     1     -27.186  12.725  58.348  1.00  0.00    -0.504 OA
ATOM     13  H   UNL     1     -28.152  12.436  58.246  1.00  0.00     0.293 HD
ENDBRANCH   5  12
BRANCH   6  14
ATOM     14  O   UNL     1     -25.856  10.438  59.304  1.00  0.00    -0.502 OA
ATOM     15  H   UNL     1     -25.945   9.437  59.434  1.00  0.00     0.293 HD
ENDBRANCH   6  14
TORSDOF 4
ENDMDL
MODEL 3
REMARK VINA RESULT:    -5.037      4.072      6.466
REMARK INTER + INTRA:          -5.821
REMARK INTER:                  -5.770
REMARK INTRA:                  -0.051
REMARK UNBOUND:                -0.047
REMARK SMILES O=C([O-])c1cc(O)c(O)c(O)c1
REMARK SMILES IDX 4 1 5 2 12 3 6 4 10 5 8 6 2 7 1 8 3 9 7 10 11 12 9 14
REMARK H PARENT 7 11 11 13 9 15
REMARK Flexibility Score: inf
ROOT
ATOM      1  C   UNL     1     -26.204  14.676  54.116  1.00  0.00     0.005 A 
ATOM      2  C   UNL     1     -26.609  14.735  52.772  1.00  0.00     0.060 A 
ATOM      3  C   UNL     1     -26.470  15.770  54.956  1.00  0.00     0.060 A 
ATOM      4  C   UNL     1     -27.268  15.863  52.273  1.00  0.00     0.162 A 
ATOM      5  C   UNL     1     -27.129  16.905  54.464  1.00  0.00     0.162 A 
ATOM      6  C   UNL     1     -27.530  16.954  53.118  1.00  0.00     0.200 A 
ENDROOT
BRANCH   1   7
ATOM      7  C   UNL     1     -25.508  13.478  54.634  1.00  0.00     0.072 C 
ATOM      8  O   UNL     1     -25.625  13.140  55.842  1.00  0.00    -0.545 OA
ATOM      9  O   UNL     1     -24.713  12.706  53.793  1.00  0.00    -0.545 OA
ENDBRANCH   1   7
BRANCH   4  10
ATOM     10  O   UNL     1     -27.654  15.881  50.933  1.00  0.00    -0.504 OA
ATOM     11  H   UNL     1     -27.224  15.281  50.239  1.00  0.00     0.293 HD
ENDBRANCH   4  10
BRANCH   5  12
ATOM     12  O   UNL     1     -27.387  17.985  55.308  1.00  0.00    -0.504 OA
ATOM     13  H   UNL     1     -28.111  17.944  56.016  1.00  0.00     0.293 HD
ENDBRANCH   5  12
BRANCH   6  14
ATOM     14  O   UNL     1     -28.188  18.076  52.612  1.00  0.00    -0.502 OA
ATOM     15  H   UNL     1     -27.902  19.020  52.843  1.00  0.00     0.293 HD
ENDBRANCH   6  14
TORSDOF 4
ENDMDL
MODEL 4
REMARK VINA RESULT:    -5.001     10.789     12.396
REMARK INTER + INTRA:          -5.779
REMARK INTER:                  -5.726
REMARK INTRA:                  -0.053
REMARK UNBOUND:                -0.047
REMARK SMILES O=C([O-])c1cc(O)c(O)c(O)c1
REMARK SMILES IDX 4 1 5 2 12 3 6 4 10 5 8 6 2 7 1 8 3 9 7 10 11 12 9 14
REMARK H PARENT 7 11 11 13 9 15
REMARK Flexibility Score: inf
ROOT
ATOM      1  C   UNL     1     -33.805  15.711  51.539  1.00  0.00     0.005 A 
ATOM      2  C   UNL     1     -34.964  15.135  52.086  1.00  0.00     0.060 A 
ATOM      3  C   UNL     1     -33.918  16.504  50.385  1.00  0.00     0.060 A 
ATOM      4  C   UNL     1     -36.214  15.345  51.495  1.00  0.00     0.162 A 
ATOM      5  C   UNL     1     -35.167  16.719  49.787  1.00  0.00     0.162 A 
ATOM      6  C   UNL     1     -36.320  16.138  50.341  1.00  0.00     0.200 A 
ENDROOT
BRANCH   1   7
ATOM      7  C   UNL     1     -32.487  15.482  52.173  1.00  0.00     0.072 C 
ATOM      8  O   UNL     1     -31.466  16.098  51.767  1.00  0.00    -0.545 OA
ATOM      9  O   UNL     1     -32.358  14.583  53.226  1.00  0.00    -0.545 OA
ENDBRANCH   1   7
BRANCH   4  10
ATOM     10  O   UNL     1     -37.340  14.755  52.070  1.00  0.00    -0.504 OA
ATOM     11  H   UNL     1     -37.331  14.377  53.010  1.00  0.00     0.293 HD
ENDBRANCH   4  10
BRANCH   5  12
ATOM     12  O   UNL     1     -35.266  17.508  48.640  1.00  0.00    -0.504 OA
ATOM     13  H   UNL     1     -34.688  18.331  48.511  1.00  0.00     0.293 HD
ENDBRANCH   5  12
BRANCH   6  14
ATOM     14  O   UNL     1     -37.571  16.342  49.757  1.00  0.00    -0.502 OA
ATOM     15  H   UNL     1     -38.144  17.149  49.974  1.00  0.00     0.293 HD
ENDBRANCH   6  14
TORSDOF 4
ENDMDL
MODEL 5
REMARK VINA RESULT:    -5.000      4.035      6.241
REMARK INTER + INTRA:          -5.779
REMARK INTER:                  -5.729
REMARK INTRA:                  -0.050
REMARK UNBOUND:                -0.047
REMARK SMILES O=C([O-])c1cc(O)c(O)c(O)c1
REMARK SMILES IDX 4 1 5 2 12 3 6 4 10 5 8 6 2 7 1 8 3 9 7 10 11 12 9 14
REMARK H PARENT 7 11 11 13 9 15
REMARK Flexibility Score: inf
ROOT
ATOM      1  C   UNL     1     -26.148  14.665  54.212  1.00  0.00     0.005 A 
ATOM      2  C   UNL     1     -26.376  15.800  55.007  1.00  0.00     0.060 A 
ATOM      3  C   UNL     1     -26.594  14.666  52.880  1.00  0.00     0.060 A 
ATOM      4  C   UNL     1     -27.036  16.917  54.486  1.00  0.00     0.162 A 
ATOM      5  C   UNL     1     -27.257  15.781  52.349  1.00  0.00     0.162 A 
ATOM      6  C   UNL     1     -27.480  16.911  53.153  1.00  0.00     0.200 A 
ENDROOT
BRANCH   1   7
ATOM      7  C   UNL     1     -25.448  13.489  54.773  1.00  0.00     0.072 C 
ATOM      8  O   UNL     1     -25.632  13.145  55.971  1.00  0.00    -0.545 OA
ATOM      9  O   UNL     1     -24.576  12.744  53.986  1.00  0.00    -0.545 OA
ENDBRANCH   1   7
BRANCH   4  10
ATOM     10  O   UNL     1     -27.243  18.024  55.309  1.00  0.00    -0.504 OA
ATOM     11  H   UNL     1     -26.568  18.777  55.381  1.00  0.00     0.293 HD
ENDBRANCH   4  10
BRANCH   5  12
ATOM     12  O   UNL     1     -27.696  15.769  51.025  1.00  0.00    -0.504 OA
ATOM     13  H   UNL     1     -27.833  16.628  50.504  1.00  0.00     0.293 HD
ENDBRANCH   5  12
BRANCH   6  14
ATOM     14  O   UNL     1     -28.140  18.030  52.641  1.00  0.00    -0.502 OA
ATOM     15  H   UNL     1     -28.900  18.482  53.134  1.00  0.00     0.293 HD
ENDBRANCH   6  14
TORSDOF 4
ENDMDL
MODEL 6
REMARK VINA RESULT:    -5.000     10.756     12.359
REMARK INTER + INTRA:          -5.777
REMARK INTER:                  -5.725
REMARK INTRA:                  -0.053
REMARK UNBOUND:                -0.047
REMARK SMILES O=C([O-])c1cc(O)c(O)c(O)c1
REMARK SMILES IDX 4 1 5 2 12 3 6 4 10 5 8 6 2 7 1 8 3 9 7 10 11 12 9 14
REMARK H PARENT 7 11 11 13 9 15
REMARK Flexibility Score: inf
ROOT
ATOM      1  C   UNL     1     -33.737  15.727  51.489  1.00  0.00     0.005 A 
ATOM      2  C   UNL     1     -33.877  16.526  50.342  1.00  0.00     0.060 A 
ATOM      3  C   UNL     1     -34.881  15.133  52.049  1.00  0.00     0.060 A 
ATOM      4  C   UNL     1     -35.132  16.730  49.761  1.00  0.00     0.162 A 
ATOM      5  C   UNL     1     -36.143  15.333  51.473  1.00  0.00     0.162 A 
ATOM      6  C   UNL     1     -36.272  16.134  50.326  1.00  0.00     0.200 A 
ENDROOT
BRANCH   1   7
ATOM      7  C   UNL     1     -32.404  15.518  52.096  1.00  0.00     0.072 C 
ATOM      8  O   UNL     1     -31.395  16.125  51.649  1.00  0.00    -0.545 OA
ATOM      9  O   UNL     1     -32.246  14.648  53.169  1.00  0.00    -0.545 OA
ENDBRANCH   1   7
BRANCH   4  10
ATOM     10  O   UNL     1     -35.227  17.530  48.623  1.00  0.00    -0.504 OA
ATOM     11  H   UNL     1     -34.930  18.499  48.617  1.00  0.00     0.293 HD
ENDBRANCH   4  10
BRANCH   5  12
ATOM     12  O   UNL     1     -37.271  14.738  52.038  1.00  0.00    -0.504 OA
ATOM     13  H   UNL     1     -37.758  13.978  51.576  1.00  0.00     0.293 HD
ENDBRANCH   5  12
BRANCH   6  14
ATOM     14  O   UNL     1     -37.522  16.343  49.740  1.00  0.00    -0.502 OA
ATOM     15  H   UNL     1     -38.182  17.020  50.102  1.00  0.00     0.293 HD
ENDBRANCH   6  14
TORSDOF 4
ENDMDL
MODEL 7
REMARK VINA RESULT:    -4.956      4.338      6.132
REMARK INTER + INTRA:          -5.728
REMARK INTER:                  -5.675
REMARK INTRA:                  -0.053
REMARK UNBOUND:                -0.047
REMARK SMILES O=C([O-])c1cc(O)c(O)c(O)c1
REMARK SMILES IDX 4 1 5 2 12 3 6 4 10 5 8 6 2 7 1 8 3 9 7 10 11 12 9 14
REMARK H PARENT 7 11 11 13 9 15
REMARK Flexibility Score: inf
ROOT
ATOM      1  C   UNL     1     -26.716  14.580  52.976  1.00  0.00     0.005 A 
ATOM      2  C   UNL     1     -26.229  14.665  54.291  1.00  0.00     0.060 A 
ATOM      3  C   UNL     1     -27.348  15.699  52.411  1.00  0.00     0.060 A 
ATOM      4  C   UNL     1     -26.368  15.843  55.031  1.00  0.00     0.162 A 
ATOM      5  C   UNL     1     -27.492  16.885  53.145  1.00  0.00     0.162 A 
ATOM      6  C   UNL     1     -27.001  16.959  54.460  1.00  0.00     0.200 A 
ENDROOT
BRANCH   1   7
ATOM      7  C   UNL     1     -26.563  13.328  52.203  1.00  0.00     0.072 C 
ATOM      8  O   UNL     1     -25.925  12.353  52.682  1.00  0.00    -0.545 OA
ATOM      9  O   UNL     1     -27.123  13.209  50.936  1.00  0.00    -0.545 OA
ENDBRANCH   1   7
BRANCH   4  10
ATOM     10  O   UNL     1     -25.870  15.887  56.333  1.00  0.00    -0.504 OA
ATOM     11  H   UNL     1     -24.934  15.575  56.563  1.00  0.00     0.293 HD
ENDBRANCH   4  10
BRANCH   5  12
ATOM     12  O   UNL     1     -28.123  17.990  52.573  1.00  0.00    -0.504 OA
ATOM     13  H   UNL     1     -27.634  18.867  52.433  1.00  0.00     0.293 HD
ENDBRANCH   5  12
BRANCH   6  14
ATOM     14  O   UNL     1     -27.137  18.132  55.204  1.00  0.00    -0.502 OA
ATOM     15  H   UNL     1     -27.119  18.135  56.217  1.00  0.00     0.293 HD
ENDBRANCH   6  14
TORSDOF 4
ENDMDL
MODEL 8
REMARK VINA RESULT:    -4.955      4.345      5.872
REMARK INTER + INTRA:          -5.727
REMARK INTER:                  -5.674
REMARK INTRA:                  -0.053
REMARK UNBOUND:                -0.047
REMARK SMILES O=C([O-])c1cc(O)c(O)c(O)c1
REMARK SMILES IDX 4 1 5 2 12 3 6 4 10 5 8 6 2 7 1 8 3 9 7 10 11 12 9 14
REMARK H PARENT 7 11 11 13 9 15
REMARK Flexibility Score: inf
ROOT
ATOM      1  C   UNL     1     -26.681  14.597  52.980  1.00  0.00     0.005 A 
ATOM      2  C   UNL     1     -27.329  15.713  52.425  1.00  0.00     0.060 A 
ATOM      3  C   UNL     1     -26.182  14.682  54.291  1.00  0.00     0.060 A 
ATOM      4  C   UNL     1     -27.478  16.893  53.160  1.00  0.00     0.162 A 
ATOM      5  C   UNL     1     -26.326  15.861  55.035  1.00  0.00     0.162 A 
ATOM      6  C   UNL     1     -26.976  16.971  54.470  1.00  0.00     0.200 A 
ENDROOT
BRANCH   1   7
ATOM      7  C   UNL     1     -26.529  13.354  52.193  1.00  0.00     0.072 C 
ATOM      8  O   UNL     1     -25.852  12.390  52.641  1.00  0.00    -0.545 OA
ATOM      9  O   UNL     1     -27.131  13.231  50.946  1.00  0.00    -0.545 OA
ENDBRANCH   1   7
BRANCH   4  10
ATOM     10  O   UNL     1     -28.127  17.978  52.572  1.00  0.00    -0.504 OA
ATOM     11  H   UNL     1     -29.132  17.998  52.440  1.00  0.00     0.293 HD
ENDBRANCH   4  10
BRANCH   5  12
ATOM     12  O   UNL     1     -25.826  15.933  56.335  1.00  0.00    -0.504 OA
ATOM     13  H   UNL     1     -26.379  16.309  57.097  1.00  0.00     0.293 HD
ENDBRANCH   5  12
BRANCH   6  14
ATOM     14  O   UNL     1     -27.128  18.153  55.198  1.00  0.00    -0.502 OA
ATOM     15  H   UNL     1     -27.345  18.154  56.187  1.00  0.00     0.293 HD
ENDBRANCH   6  14
TORSDOF 4
ENDMDL
MODEL 9
REMARK VINA RESULT:    -4.906      1.514      3.101
REMARK INTER + INTRA:          -5.670
REMARK INTER:                  -5.622
REMARK INTRA:                  -0.048
REMARK UNBOUND:                -0.047
REMARK SMILES O=C([O-])c1cc(O)c(O)c(O)c1
REMARK SMILES IDX 4 1 5 2 12 3 6 4 10 5 8 6 2 7 1 8 3 9 7 10 11 12 9 14
REMARK H PARENT 7 11 11 13 9 15
REMARK Flexibility Score: inf
ROOT
ATOM      1  C   UNL     1     -25.979  12.697  56.455  1.00  0.00     0.005 A 
ATOM      2  C   UNL     1     -25.076  12.042  55.600  1.00  0.00     0.060 A 
ATOM      3  C   UNL     1     -26.147  12.216  57.764  1.00  0.00     0.060 A 
ATOM      4  C   UNL     1     -24.354  10.929  56.040  1.00  0.00     0.162 A 
ATOM      5  C   UNL     1     -25.427  11.100  58.213  1.00  0.00     0.162 A 
ATOM      6  C   UNL     1     -24.528  10.453  57.350  1.00  0.00     0.200 A 
ENDROOT
BRANCH   1   7
ATOM      7  C   UNL     1     -26.738  13.874  55.979  1.00  0.00     0.072 C 
ATOM      8  O   UNL     1     -27.391  13.823  54.904  1.00  0.00    -0.545 OA
ATOM      9  O   UNL     1     -26.740  15.056  56.713  1.00  0.00    -0.545 OA
ENDBRANCH   1   7
BRANCH   4  10
ATOM     10  O   UNL     1     -23.468  10.308  55.160  1.00  0.00    -0.504 OA
ATOM     11  H   UNL     1     -23.778   9.645  54.459  1.00  0.00     0.293 HD
ENDBRANCH   4  10
BRANCH   5  12
ATOM     12  O   UNL     1     -25.604  10.632  59.515  1.00  0.00    -0.504 OA
ATOM     13  H   UNL     1     -24.815  10.444  60.123  1.00  0.00     0.293 HD
ENDBRANCH   5  12
BRANCH   6  14
ATOM     14  O   UNL     1     -23.803   9.340  57.781  1.00  0.00    -0.502 OA
ATOM     15  H   UNL     1     -22.857   9.156  57.469  1.00  0.00     0.293 HD
ENDBRANCH   6  14
TORSDOF 4
ENDMDL
