MODEL 1
REMARK VINA RESULT:    81.179      0.000      0.000
REMARK INTER + INTRA:         122.189
REMARK INTER:                 119.145
REMARK INTRA:                   3.044
REMARK UNBOUND:                 3.044
REMARK SMILES Cc1cc2c(C(C)C)c(O)c(O)c(C=O)c2c(O)c1-c1c(C)cc2c(C(C)C)c(O)c(O)c(C=O)c2c1O
REMARK SMILES IDX 1 1 2 2 3 3 4 4 16 5 13 6 11 7 9 8 5 9 17 10 19 11 20 12
REMARK SMILES IDX 37 13 21 14 36 15 23 16 22 17 24 18 33 19 25 20 31 21 29 22
REMARK SMILES IDX 38 23 34 25 35 26 26 27 27 28 28 29 32 30 30 32 18 34 6 36
REMARK SMILES IDX 7 37 8 38 14 39 15 40 10 41 12 43
REMARK H PARENT 38 24 32 31 30 33 18 35 10 42 12 44
REMARK Flexibility Score: inf
ROOT
ATOM      1  C   UNL     1       1.050   9.977  33.322  1.00  0.00     0.045 C 
ATOM      2  C   UNL     1       0.875   8.485  33.456  1.00  0.00    -0.039 A 
ATOM      3  C   UNL     1       1.229   7.654  32.391  1.00  0.00     0.013 A 
ATOM      4  C   UNL     1       1.063   6.253  32.452  1.00  0.00    -0.006 A 
ATOM      5  C   UNL     1       0.662   5.669  33.687  1.00  0.00     0.039 A 
ATOM      6  C   UNL     1       0.751   4.257  33.842  1.00  0.00     0.072 A 
ATOM      7  C   UNL     1       1.168   3.454  32.763  1.00  0.00     0.169 A 
ATOM      8  C   UNL     1       1.418   4.028  31.500  1.00  0.00     0.162 A 
ATOM      9  C   UNL     1       1.305   5.425  31.315  1.00  0.00     0.008 A 
ATOM     10  C   UNL     1       0.172   6.521  34.720  1.00  0.00     0.132 A 
ATOM     11  C   UNL     1       0.299   7.922  34.607  1.00  0.00     0.031 A 
ENDROOT
BRANCH  11  12
ATOM     12  C   UNL     1      -0.170   8.803  35.709  1.00  0.00     0.031 A 
ATOM     13  C   UNL     1       0.292   8.599  37.026  1.00  0.00     0.132 A 
ATOM     14  C   UNL     1      -1.105   9.816  35.440  1.00  0.00    -0.039 A 
ATOM     15  C   UNL     1      -0.136   9.456  38.085  1.00  0.00     0.039 A 
ATOM     16  C   UNL     1      -1.586  10.605  36.486  1.00  0.00     0.013 A 
ATOM     17  C   UNL     1      -1.642  10.028  34.045  1.00  0.00     0.045 C 
ATOM     18  C   UNL     1      -1.096  10.477  37.805  1.00  0.00    -0.006 A 
ATOM     19  C   UNL     1       0.322   9.292  39.426  1.00  0.00     0.072 A 
ATOM     20  C   UNL     1      -1.573  11.321  38.855  1.00  0.00     0.008 A 
ATOM     21  C   UNL     1      -0.301  10.001  40.471  1.00  0.00     0.169 A 
ATOM     22  C   UNL     1      -1.264  10.976  40.189  1.00  0.00     0.162 A 
BRANCH  13  23
ATOM     23  O   UNL     1       1.147   7.523  37.291  1.00  0.00    -0.507 OA
ATOM     24  H   UNL     1       1.596   6.967  36.575  1.00  0.00     0.293 HD
ENDBRANCH  13  23
BRANCH  19  25
ATOM     25  C   UNL     1       1.467   8.425  39.771  1.00  0.00     0.264 C 
ATOM     26  O   UNL     1       1.425   7.694  40.796  1.00  0.00    -0.298 OA
ENDBRANCH  19  25
BRANCH  20  27
ATOM     27  C   UNL     1      -2.439  12.563  38.572  1.00  0.00     0.017 C 
ATOM     28  C   UNL     1      -1.580  13.717  38.046  1.00  0.00     0.012 C 
ATOM     29  C   UNL     1      -3.638  12.289  37.644  1.00  0.00     0.012 C 
ENDBRANCH  20  27
BRANCH  21  30
ATOM     30  O   UNL     1       0.040   9.782  41.811  1.00  0.00    -0.504 OA
ATOM     31  H   UNL     1       0.879   9.305  42.112  1.00  0.00     0.293 HD
ENDBRANCH  21  30
BRANCH  22  32
ATOM     32  O   UNL     1      -1.917  11.615  41.245  1.00  0.00    -0.504 OA
ATOM     33  H   UNL     1      -2.834  11.340  41.576  1.00  0.00     0.293 HD
ENDBRANCH  22  32
ENDBRANCH  11  12
BRANCH  10  34
ATOM     34  O   UNL     1      -0.476   5.975  35.834  1.00  0.00    -0.507 OA
ATOM     35  H   UNL     1      -0.809   6.524  36.616  1.00  0.00     0.293 HD
ENDBRANCH  10  34
BRANCH   9  36
ATOM     36  C   UNL     1       1.435   6.023  29.901  1.00  0.00     0.017 C 
ATOM     37  C   UNL     1       0.640   5.200  28.883  1.00  0.00     0.012 C 
ATOM     38  C   UNL     1       1.071   7.519  29.824  1.00  0.00     0.012 C 
ENDBRANCH   9  36
BRANCH   6  39
ATOM     39  C   UNL     1       0.576   3.600  35.160  1.00  0.00     0.264 C 
ATOM     40  O   UNL     1       1.005   2.434  35.366  1.00  0.00    -0.298 OA
ENDBRANCH   6  39
BRANCH   8  41
ATOM     41  O   UNL     1       1.796   3.234  30.414  1.00  0.00    -0.504 OA
ATOM     42  H   UNL     1       1.163   2.701  29.837  1.00  0.00     0.293 HD
ENDBRANCH   8  41
BRANCH   7  43
ATOM     43  O   UNL     1       1.355   2.084  32.993  1.00  0.00    -0.504 OA
ATOM     44  H   UNL     1       1.563   1.671  33.890  1.00  0.00     0.293 HD
ENDBRANCH   7  43
TORSDOF 11
ENDMDL
MODEL 2
REMARK VINA RESULT:    81.249      2.417      9.333
REMARK INTER + INTRA:         122.292
REMARK INTER:                 119.345
REMARK INTRA:                   2.947
REMARK UNBOUND:                 3.044
REMARK SMILES Cc1cc2c(C(C)C)c(O)c(O)c(C=O)c2c(O)c1-c1c(C)cc2c(C(C)C)c(O)c(O)c(C=O)c2c1O
REMARK SMILES IDX 1 1 2 2 3 3 4 4 16 5 13 6 11 7 9 8 5 9 17 10 19 11 20 12
REMARK SMILES IDX 37 13 21 14 36 15 23 16 22 17 24 18 33 19 25 20 31 21 29 22
REMARK SMILES IDX 38 23 34 25 35 26 26 27 27 28 28 29 32 30 30 32 18 34 6 36
REMARK SMILES IDX 7 37 8 38 14 39 15 40 10 41 12 43
REMARK H PARENT 38 24 32 31 30 33 18 35 10 42 12 44
REMARK Flexibility Score: inf
ROOT
ATOM      1  C   UNL     1       1.779   7.744  37.895  1.00  0.00     0.045 C 
ATOM      2  C   UNL     1       0.666   8.762  37.886  1.00  0.00    -0.039 A 
ATOM      3  C   UNL     1       0.310   9.401  39.076  1.00  0.00     0.013 A 
ATOM      4  C   UNL     1      -0.740  10.343  39.130  1.00  0.00    -0.006 A 
ATOM      5  C   UNL     1      -1.348  10.755  37.910  1.00  0.00     0.039 A 
ATOM      6  C   UNL     1      -2.210  11.887  37.918  1.00  0.00     0.072 A 
ATOM      7  C   UNL     1      -2.501  12.544  39.129  1.00  0.00     0.169 A 
ATOM      8  C   UNL     1      -2.014  12.036  40.351  1.00  0.00     0.162 A 
ATOM      9  C   UNL     1      -1.182  10.894  40.370  1.00  0.00     0.008 A 
ATOM     10  C   UNL     1      -1.082  10.007  36.726  1.00  0.00     0.132 A 
ATOM     11  C   UNL     1      -0.064   9.029  36.715  1.00  0.00     0.031 A 
ENDROOT
BRANCH  11  12
ATOM     12  C   UNL     1       0.242   8.286  35.465  1.00  0.00     0.031 A 
ATOM     13  C   UNL     1       0.366   8.977  34.241  1.00  0.00     0.132 A 
ATOM     14  C   UNL     1       0.369   6.888  35.499  1.00  0.00    -0.039 A 
ATOM     15  C   UNL     1       0.683   8.272  33.039  1.00  0.00     0.039 A 
ATOM     16  C   UNL     1       0.601   6.188  34.315  1.00  0.00     0.013 A 
ATOM     17  C   UNL     1       0.203   6.124  36.790  1.00  0.00     0.045 C 
ATOM     18  C   UNL     1       0.800   6.849  33.081  1.00  0.00    -0.006 A 
ATOM     19  C   UNL     1       0.833   8.938  31.787  1.00  0.00     0.072 A 
ATOM     20  C   UNL     1       1.074   6.116  31.886  1.00  0.00     0.008 A 
ATOM     21  C   UNL     1       0.910   8.186  30.599  1.00  0.00     0.169 A 
ATOM     22  C   UNL     1       0.990   6.791  30.649  1.00  0.00     0.162 A 
BRANCH  13  23
ATOM     23  O   UNL     1       0.138  10.358  34.210  1.00  0.00    -0.507 OA
ATOM     24  H   UNL     1      -0.751  10.779  33.973  1.00  0.00     0.293 HD
ENDBRANCH  13  23
BRANCH  19  25
ATOM     25  C   UNL     1       0.953  10.407  31.680  1.00  0.00     0.264 C 
ATOM     26  O   UNL     1      -0.003  11.091  31.226  1.00  0.00    -0.298 OA
ENDBRANCH  19  25
BRANCH  20  27
ATOM     27  C   UNL     1       1.418   4.615  31.912  1.00  0.00     0.017 C 
ATOM     28  C   UNL     1       2.934   4.404  31.982  1.00  0.00     0.012 C 
ATOM     29  C   UNL     1       0.692   3.828  33.019  1.00  0.00     0.012 C 
ENDBRANCH  20  27
BRANCH  21  30
ATOM     30  O   UNL     1       0.940   8.803  29.342  1.00  0.00    -0.504 OA
ATOM     31  H   UNL     1       0.956   8.302  28.464  1.00  0.00     0.293 HD
ENDBRANCH  21  30
BRANCH  22  32
ATOM     32  O   UNL     1       0.995   6.065  29.455  1.00  0.00    -0.504 OA
ATOM     33  H   UNL     1       0.379   5.280  29.283  1.00  0.00     0.293 HD
ENDBRANCH  22  32
ENDBRANCH  11  12
BRANCH  10  34
ATOM     34  O   UNL     1      -1.856  10.207  35.577  1.00  0.00    -0.507 OA
ATOM     35  H   UNL     1      -2.868  10.205  35.573  1.00  0.00     0.293 HD
ENDBRANCH  10  34
BRANCH   9  36
ATOM     36  C   UNL     1      -0.778  10.263  41.716  1.00  0.00     0.017 C 
ATOM     37  C   UNL     1      -1.285   8.822  41.820  1.00  0.00     0.012 C 
ATOM     38  C   UNL     1       0.731  10.352  42.016  1.00  0.00     0.012 C 
ENDBRANCH   9  36
BRANCH   6  39
ATOM     39  C   UNL     1      -2.694  12.513  36.663  1.00  0.00     0.264 C 
ATOM     40  O   UNL     1      -2.584  13.754  36.474  1.00  0.00    -0.298 OA
ENDBRANCH   6  39
BRANCH   8  41
ATOM     41  O   UNL     1      -2.330  12.660  41.562  1.00  0.00    -0.504 OA
ATOM     42  H   UNL     1      -1.797  12.574  42.414  1.00  0.00     0.293 HD
ENDBRANCH   8  41
BRANCH   7  43
ATOM     43  O   UNL     1      -3.257  13.722  39.076  1.00  0.00    -0.504 OA
ATOM     44  H   UNL     1      -3.712  14.154  39.867  1.00  0.00     0.293 HD
ENDBRANCH   7  43
TORSDOF 11
ENDMDL
MODEL 3
REMARK VINA RESULT:    81.409      1.954      9.058
REMARK INTER + INTRA:         122.526
REMARK INTER:                 116.447
REMARK INTRA:                   6.079
REMARK UNBOUND:                 3.044
REMARK SMILES Cc1cc2c(C(C)C)c(O)c(O)c(C=O)c2c(O)c1-c1c(C)cc2c(C(C)C)c(O)c(O)c(C=O)c2c1O
REMARK SMILES IDX 1 1 2 2 3 3 4 4 16 5 13 6 11 7 9 8 5 9 17 10 19 11 20 12
REMARK SMILES IDX 37 13 21 14 36 15 23 16 22 17 24 18 33 19 25 20 31 21 29 22
REMARK SMILES IDX 38 23 34 25 35 26 26 27 27 28 28 29 32 30 30 32 18 34 6 36
REMARK SMILES IDX 7 37 8 38 14 39 15 40 10 41 12 43
REMARK H PARENT 38 24 32 31 30 33 18 35 10 42 12 44
REMARK Flexibility Score: inf
ROOT
ATOM      1  C   UNL     1      -2.342  10.200  34.416  1.00  0.00     0.045 C 
ATOM      2  C   UNL     1      -1.726  10.132  35.792  1.00  0.00    -0.039 A 
ATOM      3  C   UNL     1      -2.185  10.991  36.792  1.00  0.00     0.013 A 
ATOM      4  C   UNL     1      -1.628  10.989  38.090  1.00  0.00    -0.006 A 
ATOM      5  C   UNL     1      -0.677   9.982  38.419  1.00  0.00     0.039 A 
ATOM      6  C   UNL     1      -0.313   9.799  39.783  1.00  0.00     0.072 A 
ATOM      7  C   UNL     1      -0.841  10.648  40.774  1.00  0.00     0.169 A 
ATOM      8  C   UNL     1      -1.664  11.736  40.418  1.00  0.00     0.162 A 
ATOM      9  C   UNL     1      -2.014  11.956  39.066  1.00  0.00     0.008 A 
ATOM     10  C   UNL     1      -0.113   9.202  37.367  1.00  0.00     0.132 A 
ATOM     11  C   UNL     1      -0.653   9.267  36.065  1.00  0.00     0.031 A 
ENDROOT
BRANCH  11  12
ATOM     12  C   UNL     1      -0.092   8.416  34.983  1.00  0.00     0.031 A 
ATOM     13  C   UNL     1       0.112   8.951  33.693  1.00  0.00     0.132 A 
ATOM     14  C   UNL     1       0.197   7.066  35.239  1.00  0.00    -0.039 A 
ATOM     15  C   UNL     1       0.671   8.146  32.655  1.00  0.00     0.039 A 
ATOM     16  C   UNL     1       0.671   6.256  34.206  1.00  0.00     0.013 A 
ATOM     17  C   UNL     1      -0.048   6.462  36.600  1.00  0.00     0.045 C 
ATOM     18  C   UNL     1       0.953   6.771  32.920  1.00  0.00    -0.006 A 
ATOM     19  C   UNL     1       0.907   8.656  31.344  1.00  0.00     0.072 A 
ATOM     20  C   UNL     1       1.474   5.932  31.886  1.00  0.00     0.008 A 
ATOM     21  C   UNL     1       1.235   7.773  30.297  1.00  0.00     0.169 A 
ATOM     22  C   UNL     1       1.477   6.421  30.562  1.00  0.00     0.162 A 
BRANCH  13  23
ATOM     23  O   UNL     1      -0.276  10.271  33.432  1.00  0.00    -0.507 OA
ATOM     24  H   UNL     1       0.283  11.081  33.665  1.00  0.00     0.293 HD
ENDBRANCH  13  23
BRANCH  19  25
ATOM     25  C   UNL     1       0.862  10.101  31.036  1.00  0.00     0.264 C 
ATOM     26  O   UNL     1      -0.245  10.682  30.878  1.00  0.00    -0.298 OA
ENDBRANCH  19  25
BRANCH  20  27
ATOM     27  C   UNL     1       1.990   4.511  32.174  1.00  0.00     0.017 C 
ATOM     28  C   UNL     1       3.512   4.509  32.353  1.00  0.00     0.012 C 
ATOM     29  C   UNL     1       1.287   3.819  33.358  1.00  0.00     0.012 C 
ENDBRANCH  20  27
BRANCH  21  30
ATOM     30  O   UNL     1       1.361   8.218  28.976  1.00  0.00    -0.504 OA
ATOM     31  H   UNL     1       0.986   7.728  28.174  1.00  0.00     0.293 HD
ENDBRANCH  21  30
BRANCH  22  32
ATOM     32  O   UNL     1       1.731   5.553  29.498  1.00  0.00    -0.504 OA
ATOM     33  H   UNL     1       1.072   4.850  29.188  1.00  0.00     0.293 HD
ENDBRANCH  22  32
ENDBRANCH  11  12
BRANCH  10  34
ATOM     34  O   UNL     1       1.007   8.399  37.609  1.00  0.00    -0.507 OA
ATOM     35  H   UNL     1       1.853   8.431  37.055  1.00  0.00     0.293 HD
ENDBRANCH  10  34
BRANCH   9  36
ATOM     36  C   UNL     1      -2.788  13.227  38.672  1.00  0.00     0.017 C 
ATOM     37  C   UNL     1      -3.183  14.035  39.913  1.00  0.00     0.012 C 
ATOM     38  C   UNL     1      -2.057  14.105  37.638  1.00  0.00     0.012 C 
ENDBRANCH   9  36
BRANCH   6  39
ATOM     39  C   UNL     1       0.486   8.632  40.231  1.00  0.00     0.264 C 
ATOM     40  O   UNL     1       1.120   8.661  41.319  1.00  0.00    -0.298 OA
ENDBRANCH   6  39
BRANCH   8  41
ATOM     41  O   UNL     1      -2.162  12.606  41.392  1.00  0.00    -0.504 OA
ATOM     42  H   UNL     1      -1.885  13.569  41.506  1.00  0.00     0.293 HD
ENDBRANCH   8  41
BRANCH   7  43
ATOM     43  O   UNL     1      -0.550  10.360  42.114  1.00  0.00    -0.504 OA
ATOM     44  H   UNL     1       0.348  10.053  42.459  1.00  0.00     0.293 HD
ENDBRANCH   7  43
TORSDOF 11
ENDMDL
MODEL 4
REMARK VINA RESULT:    81.792      1.623      9.031
REMARK INTER + INTRA:         123.089
REMARK INTER:                 121.368
REMARK INTRA:                   1.720
REMARK UNBOUND:                 3.044
REMARK SMILES Cc1cc2c(C(C)C)c(O)c(O)c(C=O)c2c(O)c1-c1c(C)cc2c(C(C)C)c(O)c(O)c(C=O)c2c1O
REMARK SMILES IDX 1 1 2 2 3 3 4 4 16 5 13 6 11 7 9 8 5 9 17 10 19 11 20 12
REMARK SMILES IDX 37 13 21 14 36 15 23 16 22 17 24 18 33 19 25 20 31 21 29 22
REMARK SMILES IDX 38 23 34 25 35 26 26 27 27 28 28 29 32 30 30 32 18 34 6 36
REMARK SMILES IDX 7 37 8 38 14 39 15 40 10 41 12 43
REMARK H PARENT 38 24 32 31 30 33 18 35 10 42 12 44
REMARK Flexibility Score: inf
ROOT
ATOM      1  C   UNL     1       2.192   7.773  36.646  1.00  0.00     0.045 C 
ATOM      2  C   UNL     1       1.017   8.678  36.922  1.00  0.00    -0.039 A 
ATOM      3  C   UNL     1       0.768   9.099  38.231  1.00  0.00     0.013 A 
ATOM      4  C   UNL     1      -0.332   9.924  38.551  1.00  0.00    -0.006 A 
ATOM      5  C   UNL     1      -1.116  10.455  37.487  1.00  0.00     0.039 A 
ATOM      6  C   UNL     1      -2.049  11.492  37.771  1.00  0.00     0.072 A 
ATOM      7  C   UNL     1      -2.232  11.933  39.096  1.00  0.00     0.169 A 
ATOM      8  C   UNL     1      -1.561  11.297  40.159  1.00  0.00     0.162 A 
ATOM      9  C   UNL     1      -0.652  10.244  39.904  1.00  0.00     0.008 A 
ATOM     10  C   UNL     1      -0.947   9.917  36.178  1.00  0.00     0.132 A 
ATOM     11  C   UNL     1       0.128   9.048  35.898  1.00  0.00     0.031 A 
ENDROOT
BRANCH  11  12
ATOM     12  C   UNL     1       0.328   8.528  34.520  1.00  0.00     0.031 A 
ATOM     13  C   UNL     1       0.242   7.143  34.264  1.00  0.00     0.132 A 
ATOM     14  C   UNL     1       0.642   9.417  33.480  1.00  0.00    -0.039 A 
ATOM     15  C   UNL     1       0.410   6.638  32.939  1.00  0.00     0.039 A 
ATOM     16  C   UNL     1       0.884   8.920  32.198  1.00  0.00     0.013 A 
ATOM     17  C   UNL     1       0.776  10.898  33.737  1.00  0.00     0.045 C 
ATOM     18  C   UNL     1       0.739   7.548  31.888  1.00  0.00    -0.006 A 
ATOM     19  C   UNL     1       0.313   5.247  32.640  1.00  0.00     0.072 A 
ATOM     20  C   UNL     1       0.954   7.065  30.561  1.00  0.00     0.008 A 
ATOM     21  C   UNL     1       0.716   4.774  31.376  1.00  0.00     0.169 A 
ATOM     22  C   UNL     1       1.069   5.672  30.363  1.00  0.00     0.162 A 
BRANCH  13  23
ATOM     23  O   UNL     1       0.027   6.263  35.333  1.00  0.00    -0.507 OA
ATOM     24  H   UNL     1       0.761   5.921  35.939  1.00  0.00     0.293 HD
ENDBRANCH  13  23
BRANCH  19  25
ATOM     25  C   UNL     1      -0.237   4.267  33.598  1.00  0.00     0.264 C 
ATOM     26  O   UNL     1       0.488   3.338  34.044  1.00  0.00    -0.298 OA
ENDBRANCH  19  25
BRANCH  20  27
ATOM     27  C   UNL     1       1.100   8.018  29.360  1.00  0.00     0.017 C 
ATOM     28  C   UNL     1       0.601   9.422  29.716  1.00  0.00     0.012 C 
ATOM     29  C   UNL     1       2.522   8.063  28.769  1.00  0.00     0.012 C 
ENDBRANCH  20  27
BRANCH  21  30
ATOM     30  O   UNL     1       0.746   3.405  31.082  1.00  0.00    -0.504 OA
ATOM     31  H   UNL     1       0.892   2.680  31.771  1.00  0.00     0.293 HD
ENDBRANCH  21  30
BRANCH  22  32
ATOM     32  O   UNL     1       1.531   5.175  29.143  1.00  0.00    -0.504 OA
ATOM     33  H   UNL     1       1.136   4.358  28.693  1.00  0.00     0.293 HD
ENDBRANCH  22  32
ENDBRANCH  11  12
BRANCH  10  34
ATOM     34  O   UNL     1      -1.872  10.214  35.170  1.00  0.00    -0.507 OA
ATOM     35  H   UNL     1      -2.668   9.631  34.947  1.00  0.00     0.293 HD
ENDBRANCH  10  34
BRANCH   9  36
ATOM     36  C   UNL     1      -0.039   9.460  41.080  1.00  0.00     0.017 C 
ATOM     37  C   UNL     1       1.074  10.268  41.754  1.00  0.00     0.012 C 
ATOM     38  C   UNL     1      -1.076   8.965  42.105  1.00  0.00     0.012 C 
ENDBRANCH   9  36
BRANCH   6  39
ATOM     39  C   UNL     1      -2.730  12.250  36.693  1.00  0.00     0.264 C 
ATOM     40  O   UNL     1      -3.190  13.404  36.903  1.00  0.00    -0.298 OA
ENDBRANCH   6  39
BRANCH   8  41
ATOM     41  O   UNL     1      -1.765  11.704  41.481  1.00  0.00    -0.504 OA
ATOM     42  H   UNL     1      -1.683  12.651  41.815  1.00  0.00     0.293 HD
ENDBRANCH   8  41
BRANCH   7  43
ATOM     43  O   UNL     1      -3.071  13.034  39.315  1.00  0.00    -0.504 OA
ATOM     44  H   UNL     1      -3.518  13.575  38.589  1.00  0.00     0.293 HD
ENDBRANCH   7  43
TORSDOF 11
ENDMDL
MODEL 5
REMARK VINA RESULT:    82.722      0.654      8.595
REMARK INTER + INTRA:         124.453
REMARK INTER:                 121.506
REMARK INTRA:                   2.947
REMARK UNBOUND:                 3.044
REMARK SMILES Cc1cc2c(C(C)C)c(O)c(O)c(C=O)c2c(O)c1-c1c(C)cc2c(C(C)C)c(O)c(O)c(C=O)c2c1O
REMARK SMILES IDX 1 1 2 2 3 3 4 4 16 5 13 6 11 7 9 8 5 9 17 10 19 11 20 12
REMARK SMILES IDX 37 13 21 14 36 15 23 16 22 17 24 18 33 19 25 20 31 21 29 22
REMARK SMILES IDX 38 23 34 25 35 26 26 27 27 28 28 29 32 30 30 32 18 34 6 36
REMARK SMILES IDX 7 37 8 38 14 39 15 40 10 41 12 43
REMARK H PARENT 38 24 32 31 30 33 18 35 10 42 12 44
REMARK Flexibility Score: inf
ROOT
ATOM      1  C   UNL     1      -2.229  10.000  34.078  1.00  0.00     0.045 C 
ATOM      2  C   UNL     1      -1.507   9.869  35.396  1.00  0.00    -0.039 A 
ATOM      3  C   UNL     1      -1.919  10.644  36.483  1.00  0.00     0.013 A 
ATOM      4  C   UNL     1      -1.264  10.580  37.733  1.00  0.00    -0.006 A 
ATOM      5  C   UNL     1      -0.255   9.593  37.923  1.00  0.00     0.039 A 
ATOM      6  C   UNL     1       0.218   9.339  39.240  1.00  0.00     0.072 A 
ATOM      7  C   UNL     1      -0.262  10.100  40.323  1.00  0.00     0.169 A 
ATOM      8  C   UNL     1      -1.147  11.174  40.102  1.00  0.00     0.162 A 
ATOM      9  C   UNL     1      -1.607  11.466  38.798  1.00  0.00     0.008 A 
ATOM     10  C   UNL     1       0.253   8.906  36.782  1.00  0.00     0.132 A 
ATOM     11  C   UNL     1      -0.387   9.032  35.531  1.00  0.00     0.031 A 
ENDROOT
BRANCH  11  12
ATOM     12  C   UNL     1       0.119   8.276  34.355  1.00  0.00     0.031 A 
ATOM     13  C   UNL     1       0.230   6.870  34.410  1.00  0.00     0.132 A 
ATOM     14  C   UNL     1       0.523   8.969  33.203  1.00  0.00    -0.039 A 
ATOM     15  C   UNL     1       0.694   6.135  33.277  1.00  0.00     0.039 A 
ATOM     16  C   UNL     1       1.050   8.260  32.122  1.00  0.00     0.013 A 
ATOM     17  C   UNL     1       0.449  10.475  33.135  1.00  0.00     0.045 C 
ATOM     18  C   UNL     1       1.113   6.848  32.113  1.00  0.00    -0.006 A 
ATOM     19  C   UNL     1       0.803   4.713  33.290  1.00  0.00     0.072 A 
ATOM     20  C   UNL     1       1.620   6.139  30.980  1.00  0.00     0.008 A 
ATOM     21  C   UNL     1       1.481   4.054  32.246  1.00  0.00     0.169 A 
ATOM     22  C   UNL     1       1.918   4.767  31.125  1.00  0.00     0.162 A 
BRANCH  13  23
ATOM     23  O   UNL     1      -0.083   6.207  35.603  1.00  0.00    -0.507 OA
ATOM     24  H   UNL     1       0.592   5.709  36.167  1.00  0.00     0.293 HD
ENDBRANCH  13  23
BRANCH  19  25
ATOM     25  C   UNL     1       0.193   3.880  34.347  1.00  0.00     0.264 C 
ATOM     26  O   UNL     1       0.269   2.624  34.290  1.00  0.00    -0.298 OA
ENDBRANCH  19  25
BRANCH  20  27
ATOM     27  C   UNL     1       1.884   6.837  29.633  1.00  0.00     0.017 C 
ATOM     28  C   UNL     1       1.269   6.041  28.478  1.00  0.00     0.012 C 
ATOM     29  C   UNL     1       1.438   8.311  29.597  1.00  0.00     0.012 C 
ENDBRANCH  20  27
BRANCH  21  30
ATOM     30  O   UNL     1       1.712   2.673  32.279  1.00  0.00    -0.504 OA
ATOM     31  H   UNL     1       2.160   2.155  31.536  1.00  0.00     0.293 HD
ENDBRANCH  21  30
BRANCH  22  32
ATOM     32  O   UNL     1       2.649   4.103  30.137  1.00  0.00    -0.504 OA
ATOM     33  H   UNL     1       3.019   4.567  29.316  1.00  0.00     0.293 HD
ENDBRANCH  22  32
ENDBRANCH  11  12
BRANCH  10  34
ATOM     34  O   UNL     1       1.416   8.134  36.886  1.00  0.00    -0.507 OA
ATOM     35  H   UNL     1       1.958   7.823  36.090  1.00  0.00     0.293 HD
ENDBRANCH  10  34
BRANCH   9  36
ATOM     36  C   UNL     1      -2.454  12.728  38.549  1.00  0.00     0.017 C 
ATOM     37  C   UNL     1      -1.600  13.853  37.955  1.00  0.00     0.012 C 
ATOM     38  C   UNL     1      -3.716  12.473  37.702  1.00  0.00     0.012 C 
ENDBRANCH   9  36
BRANCH   6  39
ATOM     39  C   UNL     1       1.091   8.179  39.549  1.00  0.00     0.264 C 
ATOM     40  O   UNL     1       1.381   7.885  40.739  1.00  0.00    -0.298 OA
ENDBRANCH   6  39
BRANCH   8  41
ATOM     41  O   UNL     1      -1.600  11.960  41.167  1.00  0.00    -0.504 OA
ATOM     42  H   UNL     1      -2.547  11.980  41.511  1.00  0.00     0.293 HD
ENDBRANCH   8  41
BRANCH   7  43
ATOM     43  O   UNL     1       0.142   9.739  41.615  1.00  0.00    -0.504 OA
ATOM     44  H   UNL     1       0.358   8.799  41.912  1.00  0.00     0.293 HD
ENDBRANCH   7  43
TORSDOF 11
ENDMDL
MODEL 6
REMARK VINA RESULT:    82.832      1.636      3.250
REMARK INTER + INTRA:         124.615
REMARK INTER:                 123.089
REMARK INTRA:                   1.526
REMARK UNBOUND:                 3.044
REMARK SMILES Cc1cc2c(C(C)C)c(O)c(O)c(C=O)c2c(O)c1-c1c(C)cc2c(C(C)C)c(O)c(O)c(C=O)c2c1O
REMARK SMILES IDX 1 1 2 2 3 3 4 4 16 5 13 6 11 7 9 8 5 9 17 10 19 11 20 12
REMARK SMILES IDX 37 13 21 14 36 15 23 16 22 17 24 18 33 19 25 20 31 21 29 22
REMARK SMILES IDX 38 23 34 25 35 26 26 27 27 28 28 29 32 30 30 32 18 34 6 36
REMARK SMILES IDX 7 37 8 38 14 39 15 40 10 41 12 43
REMARK H PARENT 38 24 32 31 30 33 18 35 10 42 12 44
REMARK Flexibility Score: inf
ROOT
ATOM      1  C   UNL     1       1.001  10.841  33.985  1.00  0.00     0.045 C 
ATOM      2  C   UNL     1       0.815   9.363  33.747  1.00  0.00    -0.039 A 
ATOM      3  C   UNL     1       1.050   8.838  32.475  1.00  0.00     0.013 A 
ATOM      4  C   UNL     1       0.867   7.467  32.189  1.00  0.00    -0.006 A 
ATOM      5  C   UNL     1       0.578   6.581  33.265  1.00  0.00     0.039 A 
ATOM      6  C   UNL     1       0.658   5.178  33.042  1.00  0.00     0.072 A 
ATOM      7  C   UNL     1       0.955   4.683  31.757  1.00  0.00     0.169 A 
ATOM      8  C   UNL     1       1.090   5.566  30.667  1.00  0.00     0.162 A 
ATOM      9  C   UNL     1       0.984   6.963  30.859  1.00  0.00     0.008 A 
ATOM     10  C   UNL     1       0.205   7.133  34.526  1.00  0.00     0.132 A 
ATOM     11  C   UNL     1       0.343   8.517  34.766  1.00  0.00     0.031 A 
ENDROOT
BRANCH  11  12
ATOM     12  C   UNL     1      -0.002   9.081  36.097  1.00  0.00     0.031 A 
ATOM     13  C   UNL     1      -1.089   9.970  36.232  1.00  0.00     0.132 A 
ATOM     14  C   UNL     1       0.784   8.756  37.215  1.00  0.00    -0.039 A 
ATOM     15  C   UNL     1      -1.440  10.497  37.511  1.00  0.00     0.039 A 
ATOM     16  C   UNL     1       0.491   9.331  38.453  1.00  0.00     0.013 A 
ATOM     17  C   UNL     1       1.974   7.837  37.089  1.00  0.00     0.045 C 
ATOM     18  C   UNL     1      -0.630  10.170  38.641  1.00  0.00    -0.006 A 
ATOM     19  C   UNL     1      -2.543  11.385  37.688  1.00  0.00     0.072 A 
ATOM     20  C   UNL     1      -0.935  10.719  39.926  1.00  0.00     0.008 A 
ATOM     21  C   UNL     1      -2.708  12.061  38.913  1.00  0.00     0.169 A 
ATOM     22  C   UNL     1      -1.887  11.757  40.005  1.00  0.00     0.162 A 
BRANCH  13  23
ATOM     23  O   UNL     1      -1.798  10.359  35.088  1.00  0.00    -0.507 OA
ATOM     24  H   UNL     1      -2.263   9.713  34.464  1.00  0.00     0.293 HD
ENDBRANCH  13  23
BRANCH  19  25
ATOM     25  C   UNL     1      -3.561  11.602  36.641  1.00  0.00     0.264 C 
ATOM     26  O   UNL     1      -4.785  11.467  36.906  1.00  0.00    -0.298 OA
ENDBRANCH  19  25
BRANCH  20  27
ATOM     27  C   UNL     1      -0.229  10.235  41.206  1.00  0.00     0.017 C 
ATOM     28  C   UNL     1      -0.719   8.839  41.604  1.00  0.00     0.012 C 
ATOM     29  C   UNL     1       1.309  10.287  41.128  1.00  0.00     0.012 C 
ENDBRANCH  20  27
BRANCH  21  30
ATOM     30  O   UNL     1      -3.707  13.026  39.089  1.00  0.00    -0.504 OA
ATOM     31  H   UNL     1      -4.474  13.171  38.447  1.00  0.00     0.293 HD
ENDBRANCH  21  30
BRANCH  22  32
ATOM     32  O   UNL     1      -2.025  12.491  41.185  1.00  0.00    -0.504 OA
ATOM     33  H   UNL     1      -2.913  12.855  41.510  1.00  0.00     0.293 HD
ENDBRANCH  22  32
ENDBRANCH  11  12
BRANCH  10  34
ATOM     34  O   UNL     1      -0.342   6.314  35.520  1.00  0.00    -0.507 OA
ATOM     35  H   UNL     1      -0.713   6.661  36.395  1.00  0.00     0.293 HD
ENDBRANCH  10  34
BRANCH   9  36
ATOM     36  C   UNL     1       0.987   7.906  29.642  1.00  0.00     0.017 C 
ATOM     37  C   UNL     1       0.608   9.332  30.053  1.00  0.00     0.012 C 
ATOM     38  C   UNL     1       2.302   7.882  28.840  1.00  0.00     0.012 C 
ENDBRANCH   9  36
BRANCH   6  39
ATOM     39  C   UNL     1       0.599   4.202  34.158  1.00  0.00     0.264 C 
ATOM     40  O   UNL     1       0.250   3.008  33.957  1.00  0.00    -0.298 OA
ENDBRANCH   6  39
BRANCH   8  41
ATOM     41  O   UNL     1       1.348   5.082  29.381  1.00  0.00    -0.504 OA
ATOM     42  H   UNL     1       1.298   5.628  28.535  1.00  0.00     0.293 HD
ENDBRANCH   8  41
BRANCH   7  43
ATOM     43  O   UNL     1       1.140   3.303  31.608  1.00  0.00    -0.504 OA
ATOM     44  H   UNL     1       1.360   2.839  30.738  1.00  0.00     0.293 HD
ENDBRANCH   7  43
TORSDOF 11
ENDMDL
