MODEL 1
REMARK VINA RESULT:    -6.016      0.000      0.000
REMARK INTER + INTRA:          -6.630
REMARK INTER:                  -6.367
REMARK INTRA:                  -0.263
REMARK UNBOUND:                -0.263
REMARK SMILES O=c1cc(-c2ccccc2)oc2ccccc12
REMARK SMILES IDX 4 1 3 2 2 3 1 4 17 5 16 6 15 7 14 8 13 9 12 10 11 11 5 12
REMARK SMILES IDX 8 13 7 14 9 15 6 16 10 17
REMARK H PARENT
REMARK Flexibility Score: inf
ROOT
ATOM      1  C   UNL     1      -3.836 -29.665  -3.178  1.00  0.00     0.138 A 
ATOM      2  C   UNL     1      -3.141 -29.907  -4.381  1.00  0.00     0.100 A 
ATOM      3  C   UNL     1      -3.814 -30.478  -5.464  1.00  0.00     0.193 A 
ATOM      4  O   UNL     1      -3.192 -30.694  -6.539  1.00  0.00    -0.289 OA
ATOM      5  C   UNL     1      -5.172 -30.802  -5.338  1.00  0.00     0.065 A 
ATOM      6  C   UNL     1      -5.909 -31.379  -6.388  1.00  0.00     0.016 A 
ATOM      7  C   UNL     1      -7.262 -31.682  -6.209  1.00  0.00     0.001 A 
ATOM      8  C   UNL     1      -7.888 -31.416  -4.988  1.00  0.00     0.004 A 
ATOM      9  C   UNL     1      -7.163 -30.842  -3.939  1.00  0.00     0.048 A 
ATOM     10  C   UNL     1      -5.808 -30.535  -4.107  1.00  0.00     0.138 A 
ATOM     11  O   UNL     1      -5.128 -29.989  -3.103  1.00  0.00    -0.456 OA
ENDROOT
BRANCH   1  12
ATOM     12  C   UNL     1      -3.192 -29.058  -1.973  1.00  0.00     0.017 A 
ATOM     13  C   UNL     1      -1.902 -27.886   0.248  1.00  0.00     0.000 A 
ATOM     14  C   UNL     1      -3.132 -28.523   0.411  1.00  0.00     0.001 A 
ATOM     15  C   UNL     1      -1.311 -27.827  -1.014  1.00  0.00     0.001 A 
ATOM     16  C   UNL     1      -3.775 -29.106  -0.686  1.00  0.00     0.012 A 
ATOM     17  C   UNL     1      -1.947 -28.408  -2.114  1.00  0.00     0.012 A 
ENDBRANCH   1  12
TORSDOF 1
ENDMDL
MODEL 2
REMARK VINA RESULT:    -5.930      5.205      9.082
REMARK INTER + INTRA:          -6.540
REMARK INTER:                  -6.311
REMARK INTRA:                  -0.229
REMARK UNBOUND:                -0.263
REMARK SMILES O=c1cc(-c2ccccc2)oc2ccccc12
REMARK SMILES IDX 4 1 3 2 2 3 1 4 17 5 16 6 15 7 14 8 13 9 12 10 11 11 5 12
REMARK SMILES IDX 8 13 7 14 9 15 6 16 10 17
REMARK H PARENT
REMARK Flexibility Score: inf
ROOT
ATOM      1  C   UNL     1       0.075 -25.912  -0.279  1.00  0.00     0.138 A 
ATOM      2  C   UNL     1      -0.071 -24.527  -0.496  1.00  0.00     0.100 A 
ATOM      3  C   UNL     1       1.063 -23.737  -0.702  1.00  0.00     0.193 A 
ATOM      4  O   UNL     1       0.932 -22.499  -0.896  1.00  0.00    -0.289 OA
ATOM      5  C   UNL     1       2.331 -24.335  -0.687  1.00  0.00     0.065 A 
ATOM      6  C   UNL     1       3.513 -23.599  -0.886  1.00  0.00     0.016 A 
ATOM      7  C   UNL     1       4.753 -24.245  -0.861  1.00  0.00     0.001 A 
ATOM      8  C   UNL     1       4.824 -25.623  -0.638  1.00  0.00     0.004 A 
ATOM      9  C   UNL     1       3.654 -26.362  -0.440  1.00  0.00     0.048 A 
ATOM     10  C   UNL     1       2.408 -25.726  -0.462  1.00  0.00     0.138 A 
ATOM     11  O   UNL     1       1.302 -26.438  -0.272  1.00  0.00    -0.456 OA
ENDROOT
BRANCH   1  12
ATOM     12  C   UNL     1      -1.084 -26.828  -0.051  1.00  0.00     0.017 A 
ATOM     13  C   UNL     1      -3.290 -28.514   0.462  1.00  0.00     0.000 A 
ATOM     14  C   UNL     1      -2.545 -28.674  -0.706  1.00  0.00     0.001 A 
ATOM     15  C   UNL     1      -2.944 -27.518   1.376  1.00  0.00     0.001 A 
ATOM     16  C   UNL     1      -1.451 -27.842  -0.965  1.00  0.00     0.012 A 
ATOM     17  C   UNL     1      -1.852 -26.683   1.124  1.00  0.00     0.012 A 
ENDBRANCH   1  12
TORSDOF 1
ENDMDL
MODEL 3
REMARK VINA RESULT:    -5.892      1.603      3.006
REMARK INTER + INTRA:          -6.499
REMARK INTER:                  -6.235
REMARK INTRA:                  -0.265
REMARK UNBOUND:                -0.263
REMARK SMILES O=c1cc(-c2ccccc2)oc2ccccc12
REMARK SMILES IDX 4 1 3 2 2 3 1 4 17 5 16 6 15 7 14 8 13 9 12 10 11 11 5 12
REMARK SMILES IDX 8 13 7 14 9 15 6 16 10 17
REMARK H PARENT
REMARK Flexibility Score: inf
ROOT
ATOM      1  C   UNL     1      -3.089 -28.861  -1.532  1.00  0.00     0.138 A 
ATOM      2  C   UNL     1      -4.274 -29.478  -1.082  1.00  0.00     0.100 A 
ATOM      3  C   UNL     1      -5.089 -30.154  -1.993  1.00  0.00     0.193 A 
ATOM      4  O   UNL     1      -6.149 -30.706  -1.590  1.00  0.00    -0.289 OA
ATOM      5  C   UNL     1      -4.717 -30.207  -3.344  1.00  0.00     0.065 A 
ATOM      6  C   UNL     1      -5.492 -30.869  -4.313  1.00  0.00     0.016 A 
ATOM      7  C   UNL     1      -5.074 -30.893  -5.647  1.00  0.00     0.001 A 
ATOM      8  C   UNL     1      -3.887 -30.257  -6.024  1.00  0.00     0.004 A 
ATOM      9  C   UNL     1      -3.111 -29.597  -5.067  1.00  0.00     0.048 A 
ATOM     10  C   UNL     1      -3.520 -29.568  -3.729  1.00  0.00     0.138 A 
ATOM     11  O   UNL     1      -2.774 -28.937  -2.827  1.00  0.00    -0.456 OA
ENDROOT
BRANCH   1  12
ATOM     12  C   UNL     1      -2.161 -28.119  -0.625  1.00  0.00     0.017 A 
ATOM     13  C   UNL     1      -0.344 -26.717   1.019  1.00  0.00     0.000 A 
ATOM     14  C   UNL     1      -1.599 -27.074   1.512  1.00  0.00     0.001 A 
ATOM     15  C   UNL     1       0.012 -27.053  -0.287  1.00  0.00     0.001 A 
ATOM     16  C   UNL     1      -2.503 -27.769   0.702  1.00  0.00     0.012 A 
ATOM     17  C   UNL     1      -0.886 -27.747  -1.102  1.00  0.00     0.012 A 
ENDBRANCH   1  12
TORSDOF 1
ENDMDL
MODEL 4
REMARK VINA RESULT:    -5.869      2.084      6.350
REMARK INTER + INTRA:          -6.475
REMARK INTER:                  -6.217
REMARK INTRA:                  -0.258
REMARK UNBOUND:                -0.263
REMARK SMILES O=c1cc(-c2ccccc2)oc2ccccc12
REMARK SMILES IDX 4 1 3 2 2 3 1 4 17 5 16 6 15 7 14 8 13 9 12 10 11 11 5 12
REMARK SMILES IDX 8 13 7 14 9 15 6 16 10 17
REMARK H PARENT
REMARK Flexibility Score: inf
ROOT
ATOM      1  C   UNL     1      -3.500 -29.722  -2.699  1.00  0.00     0.138 A 
ATOM      2  C   UNL     1      -4.452 -29.892  -1.672  1.00  0.00     0.100 A 
ATOM      3  C   UNL     1      -4.254 -29.269  -0.438  1.00  0.00     0.193 A 
ATOM      4  O   UNL     1      -5.105 -29.421   0.479  1.00  0.00    -0.289 OA
ATOM      5  C   UNL     1      -3.111 -28.483  -0.238  1.00  0.00     0.065 A 
ATOM      6  C   UNL     1      -2.851 -27.828   0.979  1.00  0.00     0.016 A 
ATOM      7  C   UNL     1      -1.695 -27.055   1.126  1.00  0.00     0.001 A 
ATOM      8  C   UNL     1      -0.793 -26.931   0.065  1.00  0.00     0.004 A 
ATOM      9  C   UNL     1      -1.044 -27.578  -1.149  1.00  0.00     0.048 A 
ATOM     10  C   UNL     1      -2.197 -28.354  -1.306  1.00  0.00     0.138 A 
ATOM     11  O   UNL     1      -2.427 -28.965  -2.464  1.00  0.00    -0.456 OA
ENDROOT
BRANCH   1  12
ATOM     12  C   UNL     1      -3.635 -30.353  -4.048  1.00  0.00     0.017 A 
ATOM     13  C   UNL     1      -3.838 -31.473  -6.631  1.00  0.00     0.000 A 
ATOM     14  C   UNL     1      -4.444 -32.105  -5.546  1.00  0.00     0.001 A 
ATOM     15  C   UNL     1      -3.130 -30.287  -6.438  1.00  0.00     0.001 A 
ATOM     16  C   UNL     1      -4.347 -31.555  -4.264  1.00  0.00     0.012 A 
ATOM     17  C   UNL     1      -3.029 -29.730  -5.160  1.00  0.00     0.012 A 
ENDBRANCH   1  12
TORSDOF 1
ENDMDL
MODEL 5
REMARK VINA RESULT:    -5.842      4.665      7.668
REMARK INTER + INTRA:          -6.447
REMARK INTER:                  -6.226
REMARK INTRA:                  -0.220
REMARK UNBOUND:                -0.263
REMARK SMILES O=c1cc(-c2ccccc2)oc2ccccc12
REMARK SMILES IDX 4 1 3 2 2 3 1 4 17 5 16 6 15 7 14 8 13 9 12 10 11 11 5 12
REMARK SMILES IDX 8 13 7 14 9 15 6 16 10 17
REMARK H PARENT
REMARK Flexibility Score: inf
ROOT
ATOM      1  C   UNL     1       1.015 -26.176   0.151  1.00  0.00     0.138 A 
ATOM      2  C   UNL     1       0.493 -26.050   1.455  1.00  0.00     0.100 A 
ATOM      3  C   UNL     1      -0.734 -26.640   1.767  1.00  0.00     0.193 A 
ATOM      4  O   UNL     1      -1.200 -26.527   2.933  1.00  0.00    -0.289 OA
ATOM      5  C   UNL     1      -1.430 -27.348   0.777  1.00  0.00     0.065 A 
ATOM      6  C   UNL     1      -2.669 -27.966   1.024  1.00  0.00     0.016 A 
ATOM      7  C   UNL     1      -3.321 -28.661   0.001  1.00  0.00     0.001 A 
ATOM      8  C   UNL     1      -2.745 -28.745  -1.271  1.00  0.00     0.004 A 
ATOM      9  C   UNL     1      -1.513 -28.134  -1.524  1.00  0.00     0.048 A 
ATOM     10  C   UNL     1      -0.853 -27.436  -0.507  1.00  0.00     0.138 A 
ATOM     11  O   UNL     1       0.318 -26.859  -0.759  1.00  0.00    -0.456 OA
ENDROOT
BRANCH   1  12
ATOM     12  C   UNL     1       2.319 -25.575  -0.266  1.00  0.00     0.017 A 
ATOM     13  C   UNL     1       4.736 -24.363  -1.077  1.00  0.00     0.000 A 
ATOM     14  C   UNL     1       4.738 -25.672  -0.598  1.00  0.00     0.001 A 
ATOM     15  C   UNL     1       3.538 -23.652  -1.154  1.00  0.00     0.001 A 
ATOM     16  C   UNL     1       3.544 -26.279  -0.195  1.00  0.00     0.012 A 
ATOM     17  C   UNL     1       2.340 -24.251  -0.753  1.00  0.00     0.012 A 
ENDBRANCH   1  12
TORSDOF 1
ENDMDL
MODEL 6
REMARK VINA RESULT:    -5.710      4.816      9.217
REMARK INTER + INTRA:          -6.307
REMARK INTER:                  -6.042
REMARK INTRA:                  -0.265
REMARK UNBOUND:                -0.263
REMARK SMILES O=c1cc(-c2ccccc2)oc2ccccc12
REMARK SMILES IDX 4 1 3 2 2 3 1 4 17 5 16 6 15 7 14 8 13 9 12 10 11 11 5 12
REMARK SMILES IDX 8 13 7 14 9 15 6 16 10 17
REMARK H PARENT
REMARK Flexibility Score: inf
ROOT
ATOM      1  C   UNL     1       0.141 -26.806   0.360  1.00  0.00     0.138 A 
ATOM      2  C   UNL     1       0.258 -26.254   1.652  1.00  0.00     0.100 A 
ATOM      3  C   UNL     1       1.426 -25.576   2.008  1.00  0.00     0.193 A 
ATOM      4  O   UNL     1       1.531 -25.082   3.163  1.00  0.00    -0.289 OA
ATOM      5  C   UNL     1       2.465 -25.455   1.075  1.00  0.00     0.065 A 
ATOM      6  C   UNL     1       3.667 -24.786   1.369  1.00  0.00     0.016 A 
ATOM      7  C   UNL     1       4.672 -24.694   0.401  1.00  0.00     0.001 A 
ATOM      8  C   UNL     1       4.488 -25.267  -0.861  1.00  0.00     0.004 A 
ATOM      9  C   UNL     1       3.297 -25.933  -1.161  1.00  0.00     0.048 A 
ATOM     10  C   UNL     1       2.285 -26.031  -0.200  1.00  0.00     0.138 A 
ATOM     11  O   UNL     1       1.155 -26.667  -0.496  1.00  0.00    -0.456 OA
ENDROOT
BRANCH   1  12
ATOM     12  C   UNL     1      -1.073 -27.547  -0.103  1.00  0.00     0.017 A 
ATOM     13  C   UNL     1      -3.330 -28.945  -1.064  1.00  0.00     0.000 A 
ATOM     14  C   UNL     1      -3.243 -28.603   0.285  1.00  0.00     0.001 A 
ATOM     15  C   UNL     1      -2.300 -28.596  -1.937  1.00  0.00     0.001 A 
ATOM     16  C   UNL     1      -2.127 -27.910   0.767  1.00  0.00     0.012 A 
ATOM     17  C   UNL     1      -1.182 -27.903  -1.463  1.00  0.00     0.012 A 
ENDBRANCH   1  12
TORSDOF 1
ENDMDL
MODEL 7
REMARK VINA RESULT:    -5.669      2.257      6.814
REMARK INTER + INTRA:          -6.263
REMARK INTER:                  -6.000
REMARK INTRA:                  -0.263
REMARK UNBOUND:                -0.263
REMARK SMILES O=c1cc(-c2ccccc2)oc2ccccc12
REMARK SMILES IDX 4 1 3 2 2 3 1 4 17 5 16 6 15 7 14 8 13 9 12 10 11 11 5 12
REMARK SMILES IDX 8 13 7 14 9 15 6 16 10 17
REMARK H PARENT
REMARK Flexibility Score: inf
ROOT
ATOM      1  C   UNL     1      -7.306 -30.421  -5.546  1.00  0.00     0.138 A 
ATOM      2  C   UNL     1      -7.498 -30.225  -4.163  1.00  0.00     0.100 A 
ATOM      3  C   UNL     1      -6.389 -30.115  -3.321  1.00  0.00     0.193 A 
ATOM      4  O   UNL     1      -6.561 -29.939  -2.085  1.00  0.00    -0.289 OA
ATOM      5  C   UNL     1      -5.100 -30.202  -3.865  1.00  0.00     0.065 A 
ATOM      6  C   UNL     1      -3.941 -30.100  -3.074  1.00  0.00     0.016 A 
ATOM      7  C   UNL     1      -2.678 -30.194  -3.667  1.00  0.00     0.001 A 
ATOM      8  C   UNL     1      -2.562 -30.390  -5.046  1.00  0.00     0.004 A 
ATOM      9  C   UNL     1      -3.708 -30.492  -5.840  1.00  0.00     0.048 A 
ATOM     10  C   UNL     1      -4.977 -30.400  -5.256  1.00  0.00     0.138 A 
ATOM     11  O   UNL     1      -6.061 -30.498  -6.020  1.00  0.00    -0.456 OA
ENDROOT
BRANCH   1  12
ATOM     12  C   UNL     1      -8.437 -30.549  -6.517  1.00  0.00     0.017 A 
ATOM     13  C   UNL     1     -10.510 -30.773  -8.419  1.00  0.00     0.000 A 
ATOM     14  C   UNL     1     -10.789 -30.921  -7.061  1.00  0.00     0.001 A 
ATOM     15  C   UNL     1      -9.204 -30.515  -8.836  1.00  0.00     0.001 A 
ATOM     16  C   UNL     1      -9.766 -30.811  -6.113  1.00  0.00     0.012 A 
ATOM     17  C   UNL     1      -8.177 -30.403  -7.896  1.00  0.00     0.012 A 
ENDBRANCH   1  12
TORSDOF 1
ENDMDL
MODEL 8
REMARK VINA RESULT:    -5.539      3.006      5.436
REMARK INTER + INTRA:          -6.126
REMARK INTER:                  -5.899
REMARK INTRA:                  -0.228
REMARK UNBOUND:                -0.263
REMARK SMILES O=c1cc(-c2ccccc2)oc2ccccc12
REMARK SMILES IDX 4 1 3 2 2 3 1 4 17 5 16 6 15 7 14 8 13 9 12 10 11 11 5 12
REMARK SMILES IDX 8 13 7 14 9 15 6 16 10 17
REMARK H PARENT
REMARK Flexibility Score: inf
ROOT
ATOM      1  C   UNL     1      -1.110 -27.363  -0.068  1.00  0.00     0.138 A 
ATOM      2  C   UNL     1      -2.016 -27.699   0.960  1.00  0.00     0.100 A 
ATOM      3  C   UNL     1      -3.150 -28.457   0.659  1.00  0.00     0.193 A 
ATOM      4  O   UNL     1      -3.959 -28.757   1.578  1.00  0.00    -0.289 OA
ATOM      5  C   UNL     1      -3.371 -28.872  -0.662  1.00  0.00     0.065 A 
ATOM      6  C   UNL     1      -4.492 -29.637  -1.033  1.00  0.00     0.016 A 
ATOM      7  C   UNL     1      -4.665 -30.025  -2.365  1.00  0.00     0.001 A 
ATOM      8  C   UNL     1      -3.726 -29.655  -3.333  1.00  0.00     0.004 A 
ATOM      9  C   UNL     1      -2.609 -28.896  -2.973  1.00  0.00     0.048 A 
ATOM     10  C   UNL     1      -2.427 -28.502  -1.642  1.00  0.00     0.138 A 
ATOM     11  O   UNL     1      -1.361 -27.780  -1.310  1.00  0.00    -0.456 OA
ENDROOT
BRANCH   1  12
ATOM     12  C   UNL     1       0.126 -26.556   0.168  1.00  0.00     0.017 A 
ATOM     13  C   UNL     1       2.422 -24.961   0.561  1.00  0.00     0.000 A 
ATOM     14  C   UNL     1       2.366 -26.248   1.095  1.00  0.00     0.001 A 
ATOM     15  C   UNL     1       1.342 -24.463  -0.167  1.00  0.00     0.001 A 
ATOM     16  C   UNL     1       1.231 -27.043   0.904  1.00  0.00     0.012 A 
ATOM     17  C   UNL     1       0.205 -25.251  -0.364  1.00  0.00     0.012 A 
ENDBRANCH   1  12
TORSDOF 1
ENDMDL
MODEL 9
REMARK VINA RESULT:    -5.530      2.381      4.500
REMARK INTER + INTRA:          -6.117
REMARK INTER:                  -5.851
REMARK INTRA:                  -0.265
REMARK UNBOUND:                -0.263
REMARK SMILES O=c1cc(-c2ccccc2)oc2ccccc12
REMARK SMILES IDX 4 1 3 2 2 3 1 4 17 5 16 6 15 7 14 8 13 9 12 10 11 11 5 12
REMARK SMILES IDX 8 13 7 14 9 15 6 16 10 17
REMARK H PARENT
REMARK Flexibility Score: inf
ROOT
ATOM      1  C   UNL     1      -6.596 -30.438  -5.074  1.00  0.00     0.138 A 
ATOM      2  C   UNL     1      -7.734 -30.402  -4.242  1.00  0.00     0.100 A 
ATOM      3  C   UNL     1      -9.007 -30.487  -4.810  1.00  0.00     0.193 A 
ATOM      4  O   UNL     1     -10.024 -30.456  -4.067  1.00  0.00    -0.289 OA
ATOM      5  C   UNL     1      -9.134 -30.606  -6.202  1.00  0.00     0.065 A 
ATOM      6  C   UNL     1     -10.385 -30.695  -6.839  1.00  0.00     0.016 A 
ATOM      7  C   UNL     1     -10.455 -30.813  -8.230  1.00  0.00     0.001 A 
ATOM      8  C   UNL     1      -9.285 -30.840  -8.994  1.00  0.00     0.004 A 
ATOM      9  C   UNL     1      -8.038 -30.752  -8.369  1.00  0.00     0.048 A 
ATOM     10  C   UNL     1      -7.956 -30.634  -6.977  1.00  0.00     0.138 A 
ATOM     11  O   UNL     1      -6.765 -30.551  -6.393  1.00  0.00    -0.456 OA
ENDROOT
BRANCH   1  12
ATOM     12  C   UNL     1      -5.199 -30.352  -4.548  1.00  0.00     0.017 A 
ATOM     13  C   UNL     1      -2.597 -30.170  -3.469  1.00  0.00     0.000 A 
ATOM     14  C   UNL     1      -2.773 -30.470  -4.819  1.00  0.00     0.001 A 
ATOM     15  C   UNL     1      -3.708 -29.961  -2.652  1.00  0.00     0.001 A 
ATOM     16  C   UNL     1      -4.060 -30.562  -5.359  1.00  0.00     0.012 A 
ATOM     17  C   UNL     1      -4.997 -30.050  -3.184  1.00  0.00     0.012 A 
ENDBRANCH   1  12
TORSDOF 1
ENDMDL
