MODEL 1
REMARK VINA RESULT:    -4.494      0.000      0.000
REMARK INTER + INTRA:          -6.225
REMARK INTER:                  -6.071
REMARK INTRA:                  -0.154
REMARK UNBOUND:                -0.154
REMARK SMILES [NH3+]CCCC[C@@H]([NH3+])C(=O)[O-]
REMARK SMILES IDX 4 1 3 2 2 3 1 4 5 8 6 9 7 10 8 14 9 15 10 16
REMARK H PARENT 1 5 1 6 1 7 7 11 7 12 7 13
REMARK Flexibility Score: inf
ROOT
ATOM      1  C   UNL     1     -24.611  -7.873  14.704  1.00  0.00     0.012 C 
ENDROOT
BRANCH   1   2
ATOM      2  C   UNL     1     -26.035  -7.437  14.341  1.00  0.00     0.061 C 
BRANCH   2   3
ATOM      3  C   UNL     1     -26.680  -6.649  15.489  1.00  0.00     0.258 C 
BRANCH   3   4
ATOM      4  N   UNL     1     -28.134  -6.813  15.485  1.00  0.00    -0.358 N 
ATOM      5  H   UNL     1     -28.560  -6.098  16.116  1.00  0.00     0.344 HD
ATOM      6  H   UNL     1     -28.507  -6.677  14.518  1.00  0.00     0.344 HD
ATOM      7  H   UNL     1     -28.388  -7.766  15.832  1.00  0.00     0.344 HD
ENDBRANCH   3   4
ENDBRANCH   2   3
ENDBRANCH   1   2
BRANCH   1   8
ATOM      8  C   UNL     1     -23.630  -6.694  14.600  1.00  0.00     0.072 C 
BRANCH   8   9
ATOM      9  C   UNL     1     -22.777  -6.528  15.875  1.00  0.00     0.227 C 
BRANCH   9  10
ATOM     10  N   UNL     1     -21.356  -6.739  15.573  1.00  0.00    -0.350 N 
ATOM     11  H   UNL     1     -20.794  -6.794  16.454  1.00  0.00     0.345 HD
ATOM     12  H   UNL     1     -21.235  -7.628  15.033  1.00  0.00     0.345 HD
ATOM     13  H   UNL     1     -20.997  -5.951  14.987  1.00  0.00     0.345 HD
ENDBRANCH   9  10
BRANCH   9  14
ATOM     14  C   UNL     1     -22.980  -5.169  16.495  1.00  0.00     0.099 C 
ATOM     15  O   UNL     1     -23.492  -4.233  15.827  1.00  0.00    -0.544 OA
ATOM     16  O   UNL     1     -22.611  -4.946  17.815  1.00  0.00    -0.544 OA
ENDBRANCH   9  14
ENDBRANCH   8   9
ENDBRANCH   1   8
TORSDOF 7
ENDMDL
MODEL 2
REMARK VINA RESULT:    -4.388      1.841      2.031
REMARK INTER + INTRA:          -6.081
REMARK INTER:                  -5.949
REMARK INTRA:                  -0.133
REMARK UNBOUND:                -0.154
REMARK SMILES [NH3+]CCCC[C@@H]([NH3+])C(=O)[O-]
REMARK SMILES IDX 4 1 3 2 2 3 1 4 5 8 6 9 7 10 8 14 9 15 10 16
REMARK H PARENT 1 5 1 6 1 7 7 11 7 12 7 13
REMARK Flexibility Score: inf
ROOT
ATOM      1  C   UNL     1     -24.897  -7.129  14.713  1.00  0.00     0.012 C 
ENDROOT
BRANCH   1   2
ATOM      2  C   UNL     1     -26.287  -7.774  14.656  1.00  0.00     0.061 C 
BRANCH   2   3
ATOM      3  C   UNL     1     -27.391  -6.722  14.825  1.00  0.00     0.258 C 
BRANCH   3   4
ATOM      4  N   UNL     1     -27.826  -6.208  13.526  1.00  0.00    -0.358 N 
ATOM      5  H   UNL     1     -27.391  -5.271  13.366  1.00  0.00     0.344 HD
ATOM      6  H   UNL     1     -27.524  -6.856  12.764  1.00  0.00     0.344 HD
ATOM      7  H   UNL     1     -28.867  -6.104  13.512  1.00  0.00     0.344 HD
ENDBRANCH   3   4
ENDBRANCH   2   3
ENDBRANCH   1   2
BRANCH   1   8
ATOM      8  C   UNL     1     -24.867  -5.975  15.728  1.00  0.00     0.072 C 
BRANCH   8   9
ATOM      9  C   UNL     1     -23.560  -5.157  15.645  1.00  0.00     0.227 C 
BRANCH   9  10
ATOM     10  N   UNL     1     -23.802  -3.762  16.033  1.00  0.00    -0.350 N 
ATOM     11  H   UNL     1     -23.466  -3.108  15.288  1.00  0.00     0.345 HD
ATOM     12  H   UNL     1     -24.825  -3.609  16.190  1.00  0.00     0.345 HD
ATOM     13  H   UNL     1     -23.300  -3.550  16.926  1.00  0.00     0.345 HD
ENDBRANCH   9  10
BRANCH   9  14
ATOM     14  C   UNL     1     -22.485  -5.759  16.513  1.00  0.00     0.099 C 
ATOM     15  O   UNL     1     -22.319  -5.358  17.695  1.00  0.00    -0.544 OA
ATOM     16  O   UNL     1     -21.674  -6.770  16.013  1.00  0.00    -0.544 OA
ENDBRANCH   9  14
ENDBRANCH   8   9
ENDBRANCH   1   8
TORSDOF 7
ENDMDL
MODEL 3
REMARK VINA RESULT:    -4.286      1.949      2.166
REMARK INTER + INTRA:          -5.943
REMARK INTER:                  -5.860
REMARK INTRA:                  -0.083
REMARK UNBOUND:                -0.154
REMARK SMILES [NH3+]CCCC[C@@H]([NH3+])C(=O)[O-]
REMARK SMILES IDX 4 1 3 2 2 3 1 4 5 8 6 9 7 10 8 14 9 15 10 16
REMARK H PARENT 1 5 1 6 1 7 7 11 7 12 7 13
REMARK Flexibility Score: inf
ROOT
ATOM      1  C   UNL     1     -25.835  -7.004  15.114  1.00  0.00     0.012 C 
ENDROOT
BRANCH   1   2
ATOM      2  C   UNL     1     -26.446  -8.101  14.235  1.00  0.00     0.061 C 
BRANCH   2   3
ATOM      3  C   UNL     1     -26.965  -9.266  15.089  1.00  0.00     0.258 C 
BRANCH   3   4
ATOM      4  N   UNL     1     -28.059  -8.830  15.958  1.00  0.00    -0.358 N 
ATOM      5  H   UNL     1     -28.937  -9.321  15.673  1.00  0.00     0.344 HD
ATOM      6  H   UNL     1     -27.845  -9.070  16.953  1.00  0.00     0.344 HD
ATOM      7  H   UNL     1     -28.202  -7.799  15.865  1.00  0.00     0.344 HD
ENDBRANCH   3   4
ENDBRANCH   2   3
ENDBRANCH   1   2
BRANCH   1   8
ATOM      8  C   UNL     1     -24.344  -6.808  14.794  1.00  0.00     0.072 C 
BRANCH   8   9
ATOM      9  C   UNL     1     -23.762  -5.546  15.466  1.00  0.00     0.227 C 
BRANCH   9  10
ATOM     10  N   UNL     1     -24.775  -4.900  16.309  1.00  0.00    -0.350 N 
ATOM     11  H   UNL     1     -25.040  -3.966  15.918  1.00  0.00     0.345 HD
ATOM     12  H   UNL     1     -25.628  -5.503  16.366  1.00  0.00     0.345 HD
ATOM     13  H   UNL     1     -24.402  -4.772  17.278  1.00  0.00     0.345 HD
ENDBRANCH   9  10
BRANCH   9  14
ATOM     14  C   UNL     1     -22.541  -5.879  16.285  1.00  0.00     0.099 C 
ATOM     15  O   UNL     1     -22.359  -5.340  17.409  1.00  0.00    -0.544 OA
ATOM     16  O   UNL     1     -21.612  -6.793  15.805  1.00  0.00    -0.544 OA
ENDBRANCH   9  14
ENDBRANCH   8   9
ENDBRANCH   1   8
TORSDOF 7
ENDMDL
MODEL 4
REMARK VINA RESULT:    -4.076      3.219      4.661
REMARK INTER + INTRA:          -5.660
REMARK INTER:                  -5.517
REMARK INTRA:                  -0.143
REMARK UNBOUND:                -0.154
REMARK SMILES [NH3+]CCCC[C@@H]([NH3+])C(=O)[O-]
REMARK SMILES IDX 4 1 3 2 2 3 1 4 5 8 6 9 7 10 8 14 9 15 10 16
REMARK H PARENT 1 5 1 6 1 7 7 11 7 12 7 13
REMARK Flexibility Score: inf
ROOT
ATOM      1  C   UNL     1     -23.482  -6.716  14.936  1.00  0.00     0.012 C 
ENDROOT
BRANCH   1   2
ATOM      2  C   UNL     1     -24.228  -5.646  15.741  1.00  0.00     0.061 C 
BRANCH   2   3
ATOM      3  C   UNL     1     -23.252  -4.621  16.333  1.00  0.00     0.258 C 
BRANCH   3   4
ATOM      4  N   UNL     1     -23.314  -3.356  15.599  1.00  0.00    -0.358 N 
ATOM      5  H   UNL     1     -24.286  -2.976  15.655  1.00  0.00     0.344 HD
ATOM      6  H   UNL     1     -22.654  -2.664  16.022  1.00  0.00     0.344 HD
ATOM      7  H   UNL     1     -23.069  -3.512  14.595  1.00  0.00     0.344 HD
ENDBRANCH   3   4
ENDBRANCH   2   3
ENDBRANCH   1   2
BRANCH   1   8
ATOM      8  C   UNL     1     -24.442  -7.819  14.462  1.00  0.00     0.072 C 
BRANCH   8   9
ATOM      9  C   UNL     1     -25.909  -7.341  14.425  1.00  0.00     0.227 C 
BRANCH   9  10
ATOM     10  N   UNL     1     -26.313  -7.029  13.048  1.00  0.00    -0.350 N 
ATOM     11  H   UNL     1     -25.490  -7.065  12.404  1.00  0.00     0.345 HD
ATOM     12  H   UNL     1     -27.033  -7.717  12.725  1.00  0.00     0.345 HD
ATOM     13  H   UNL     1     -26.736  -6.073  13.011  1.00  0.00     0.345 HD
ENDBRANCH   9  10
BRANCH   9  14
ATOM     14  C   UNL     1     -26.834  -8.373  15.017  1.00  0.00     0.099 C 
ATOM     15  O   UNL     1     -27.772  -8.027  15.783  1.00  0.00    -0.544 OA
ATOM     16  O   UNL     1     -26.661  -9.717  14.711  1.00  0.00    -0.544 OA
ENDBRANCH   9  14
ENDBRANCH   8   9
ENDBRANCH   1   8
TORSDOF 7
ENDMDL
MODEL 5
REMARK VINA RESULT:    -4.059      3.046      4.195
REMARK INTER + INTRA:          -5.637
REMARK INTER:                  -5.490
REMARK INTRA:                  -0.147
REMARK UNBOUND:                -0.154
REMARK SMILES [NH3+]CCCC[C@@H]([NH3+])C(=O)[O-]
REMARK SMILES IDX 4 1 3 2 2 3 1 4 5 8 6 9 7 10 8 14 9 15 10 16
REMARK H PARENT 1 5 1 6 1 7 7 11 7 12 7 13
REMARK Flexibility Score: inf
ROOT
ATOM      1  C   UNL     1     -22.689  -6.548  15.513  1.00  0.00     0.012 C 
ENDROOT
BRANCH   1   2
ATOM      2  C   UNL     1     -23.422  -5.308  16.038  1.00  0.00     0.061 C 
BRANCH   2   3
ATOM      3  C   UNL     1     -22.940  -4.939  17.448  1.00  0.00     0.258 C 
BRANCH   3   4
ATOM      4  N   UNL     1     -24.066  -4.558  18.302  1.00  0.00    -0.358 N 
ATOM      5  H   UNL     1     -24.769  -4.039  17.728  1.00  0.00     0.344 HD
ATOM      6  H   UNL     1     -24.518  -5.412  18.701  1.00  0.00     0.344 HD
ATOM      7  H   UNL     1     -23.735  -3.937  19.075  1.00  0.00     0.344 HD
ENDBRANCH   3   4
ENDBRANCH   2   3
ENDBRANCH   1   2
BRANCH   1   8
ATOM      8  C   UNL     1     -23.664  -7.507  14.811  1.00  0.00     0.072 C 
BRANCH   8   9
ATOM      9  C   UNL     1     -24.935  -6.788  14.312  1.00  0.00     0.227 C 
BRANCH   9  10
ATOM     10  N   UNL     1     -24.931  -6.694  12.847  1.00  0.00    -0.350 N 
ATOM     11  H   UNL     1     -25.536  -5.903  12.525  1.00  0.00     0.345 HD
ATOM     12  H   UNL     1     -23.954  -6.542  12.504  1.00  0.00     0.345 HD
ATOM     13  H   UNL     1     -25.287  -7.587  12.434  1.00  0.00     0.345 HD
ENDBRANCH   9  10
BRANCH   9  14
ATOM     14  C   UNL     1     -26.181  -7.493  14.784  1.00  0.00     0.099 C 
ATOM     15  O   UNL     1     -27.174  -6.833  15.189  1.00  0.00    -0.544 OA
ATOM     16  O   UNL     1     -26.242  -8.880  14.765  1.00  0.00    -0.544 OA
ENDBRANCH   9  14
ENDBRANCH   8   9
ENDBRANCH   1   8
TORSDOF 7
ENDMDL
MODEL 6
REMARK VINA RESULT:    -4.036      3.016      4.896
REMARK INTER + INTRA:          -5.605
REMARK INTER:                  -5.398
REMARK INTRA:                  -0.207
REMARK UNBOUND:                -0.154
REMARK SMILES [NH3+]CCCC[C@@H]([NH3+])C(=O)[O-]
REMARK SMILES IDX 4 1 3 2 2 3 1 4 5 8 6 9 7 10 8 14 9 15 10 16
REMARK H PARENT 1 5 1 6 1 7 7 11 7 12 7 13
REMARK Flexibility Score: inf
ROOT
ATOM      1  C   UNL     1     -26.659  -6.403  15.757  1.00  0.00     0.012 C 
ENDROOT
BRANCH   1   2
ATOM      2  C   UNL     1     -25.675  -5.528  16.543  1.00  0.00     0.061 C 
BRANCH   2   3
ATOM      3  C   UNL     1     -24.343  -5.386  15.795  1.00  0.00     0.258 C 
BRANCH   3   4
ATOM      4  N   UNL     1     -23.749  -4.070  16.030  1.00  0.00    -0.358 N 
ATOM      5  H   UNL     1     -22.769  -4.195  16.372  1.00  0.00     0.344 HD
ATOM      6  H   UNL     1     -23.729  -3.521  15.140  1.00  0.00     0.344 HD
ATOM      7  H   UNL     1     -24.298  -3.553  16.754  1.00  0.00     0.344 HD
ENDBRANCH   3   4
ENDBRANCH   2   3
ENDBRANCH   1   2
BRANCH   1   8
ATOM      8  C   UNL     1     -25.929  -7.220  14.679  1.00  0.00     0.072 C 
BRANCH   8   9
ATOM      9  C   UNL     1     -26.692  -7.231  13.337  1.00  0.00     0.227 C 
BRANCH   9  10
ATOM     10  N   UNL     1     -27.723  -6.186  13.324  1.00  0.00    -0.350 N 
ATOM     11  H   UNL     1     -28.618  -6.554  12.927  1.00  0.00     0.345 HD
ATOM     12  H   UNL     1     -27.894  -5.843  14.298  1.00  0.00     0.345 HD
ATOM     13  H   UNL     1     -27.400  -5.376  12.746  1.00  0.00     0.345 HD
ENDBRANCH   9  10
BRANCH   9  14
ATOM     14  C   UNL     1     -25.752  -7.048  12.174  1.00  0.00     0.099 C 
ATOM     15  O   UNL     1     -24.534  -6.793  12.370  1.00  0.00    -0.544 OA
ATOM     16  O   UNL     1     -26.224  -7.170  10.873  1.00  0.00    -0.544 OA
ENDBRANCH   9  14
ENDBRANCH   8   9
ENDBRANCH   1   8
TORSDOF 7
ENDMDL
MODEL 7
REMARK VINA RESULT:    -3.932      3.482      5.472
REMARK INTER + INTRA:          -5.465
REMARK INTER:                  -5.377
REMARK INTRA:                  -0.088
REMARK UNBOUND:                -0.154
REMARK SMILES [NH3+]CCCC[C@@H]([NH3+])C(=O)[O-]
REMARK SMILES IDX 4 1 3 2 2 3 1 4 5 8 6 9 7 10 8 14 9 15 10 16
REMARK H PARENT 1 5 1 6 1 7 7 11 7 12 7 13
REMARK Flexibility Score: inf
ROOT
ATOM      1  C   UNL     1     -25.035  -7.070  14.446  1.00  0.00     0.012 C 
ENDROOT
BRANCH   1   2
ATOM      2  C   UNL     1     -23.963  -6.300  15.226  1.00  0.00     0.061 C 
BRANCH   2   3
ATOM      3  C   UNL     1     -22.623  -7.047  15.205  1.00  0.00     0.258 C 
BRANCH   3   4
ATOM      4  N   UNL     1     -21.591  -6.290  15.913  1.00  0.00    -0.358 N 
ATOM      5  H   UNL     1     -21.604  -5.300  15.578  1.00  0.00     0.344 HD
ATOM      6  H   UNL     1     -21.779  -6.302  16.942  1.00  0.00     0.344 HD
ATOM      7  H   UNL     1     -20.648  -6.700  15.720  1.00  0.00     0.344 HD
ENDBRANCH   3   4
ENDBRANCH   2   3
ENDBRANCH   1   2
BRANCH   1   8
ATOM      8  C   UNL     1     -24.798  -6.963  12.931  1.00  0.00     0.072 C 
BRANCH   8   9
ATOM      9  C   UNL     1     -26.106  -7.105  12.123  1.00  0.00     0.227 C 
BRANCH   9  10
ATOM     10  N   UNL     1     -27.203  -6.396  12.792  1.00  0.00    -0.350 N 
ATOM     11  H   UNL     1     -26.845  -5.846  13.608  1.00  0.00     0.345 HD
ATOM     12  H   UNL     1     -27.670  -5.746  12.118  1.00  0.00     0.345 HD
ATOM     13  H   UNL     1     -27.916  -7.083  13.128  1.00  0.00     0.345 HD
ENDBRANCH   9  10
BRANCH   9  14
ATOM     14  C   UNL     1     -25.936  -6.591  10.716  1.00  0.00     0.099 C 
ATOM     15  O   UNL     1     -26.091  -7.360   9.732  1.00  0.00    -0.544 OA
ATOM     16  O   UNL     1     -25.616  -5.256  10.499  1.00  0.00    -0.544 OA
ENDBRANCH   9  14
ENDBRANCH   8   9
ENDBRANCH   1   8
TORSDOF 7
ENDMDL
MODEL 8
REMARK VINA RESULT:    -3.925      2.657      3.223
REMARK INTER + INTRA:          -5.455
REMARK INTER:                  -5.348
REMARK INTRA:                  -0.107
REMARK UNBOUND:                -0.154
REMARK SMILES [NH3+]CCCC[C@@H]([NH3+])C(=O)[O-]
REMARK SMILES IDX 4 1 3 2 2 3 1 4 5 8 6 9 7 10 8 14 9 15 10 16
REMARK H PARENT 1 5 1 6 1 7 7 11 7 12 7 13
REMARK Flexibility Score: inf
ROOT
ATOM      1  C   UNL     1     -23.913  -6.814  14.561  1.00  0.00     0.012 C 
ENDROOT
BRANCH   1   2
ATOM      2  C   UNL     1     -22.965  -7.882  15.120  1.00  0.00     0.061 C 
BRANCH   2   3
ATOM      3  C   UNL     1     -23.640  -9.260  15.146  1.00  0.00     0.258 C 
BRANCH   3   4
ATOM      4  N   UNL     1     -22.644 -10.329  15.201  1.00  0.00    -0.358 N 
ATOM      5  H   UNL     1     -23.112 -11.218  15.491  1.00  0.00     0.344 HD
ATOM      6  H   UNL     1     -22.212 -10.466  14.259  1.00  0.00     0.344 HD
ATOM      7  H   UNL     1     -21.903 -10.094  15.900  1.00  0.00     0.344 HD
ENDBRANCH   3   4
ENDBRANCH   2   3
ENDBRANCH   1   2
BRANCH   1   8
ATOM      8  C   UNL     1     -24.391  -5.865  15.671  1.00  0.00     0.072 C 
BRANCH   8   9
ATOM      9  C   UNL     1     -23.247  -4.987  16.222  1.00  0.00     0.227 C 
BRANCH   9  10
ATOM     10  N   UNL     1     -23.364  -3.614  15.716  1.00  0.00    -0.350 N 
ATOM     11  H   UNL     1     -24.288  -3.470  15.246  1.00  0.00     0.345 HD
ATOM     12  H   UNL     1     -23.271  -2.935  16.506  1.00  0.00     0.345 HD
ATOM     13  H   UNL     1     -22.598  -3.423  15.030  1.00  0.00     0.345 HD
ENDBRANCH   9  10
BRANCH   9  14
ATOM     14  C   UNL     1     -23.238  -4.986  17.730  1.00  0.00     0.099 C 
ATOM     15  O   UNL     1     -22.155  -5.101  18.362  1.00  0.00    -0.544 OA
ATOM     16  O   UNL     1     -24.429  -4.848  18.430  1.00  0.00    -0.544 OA
ENDBRANCH   9  14
ENDBRANCH   8   9
ENDBRANCH   1   8
TORSDOF 7
ENDMDL
MODEL 9
REMARK VINA RESULT:    -3.885      4.283      5.028
REMARK INTER + INTRA:          -5.402
REMARK INTER:                  -5.310
REMARK INTRA:                  -0.091
REMARK UNBOUND:                -0.154
REMARK SMILES [NH3+]CCCC[C@@H]([NH3+])C(=O)[O-]
REMARK SMILES IDX 4 1 3 2 2 3 1 4 5 8 6 9 7 10 8 14 9 15 10 16
REMARK H PARENT 1 5 1 6 1 7 7 11 7 12 7 13
REMARK Flexibility Score: inf
ROOT
ATOM      1  C   UNL     1     -25.934  -7.317  11.316  1.00  0.00     0.012 C 
ENDROOT
BRANCH   1   2
ATOM      2  C   UNL     1     -25.495  -6.093  10.505  1.00  0.00     0.061 C 
BRANCH   2   3
ATOM      3  C   UNL     1     -25.618  -6.357   8.998  1.00  0.00     0.258 C 
BRANCH   3   4
ATOM      4  N   UNL     1     -24.592  -5.626   8.254  1.00  0.00    -0.358 N 
ATOM      5  H   UNL     1     -23.698  -6.166   8.285  1.00  0.00     0.344 HD
ATOM      6  H   UNL     1     -24.885  -5.513   7.256  1.00  0.00     0.344 HD
ATOM      7  H   UNL     1     -24.436  -4.687   8.686  1.00  0.00     0.344 HD
ENDBRANCH   3   4
ENDBRANCH   2   3
ENDBRANCH   1   2
BRANCH   1   8
ATOM      8  C   UNL     1     -26.589  -6.895  12.641  1.00  0.00     0.072 C 
BRANCH   8   9
ATOM      9  C   UNL     1     -25.844  -7.460  13.869  1.00  0.00     0.227 C 
BRANCH   9  10
ATOM     10  N   UNL     1     -24.555  -6.780  14.045  1.00  0.00    -0.350 N 
ATOM     11  H   UNL     1     -24.402  -6.532  15.050  1.00  0.00     0.345 HD
ATOM     12  H   UNL     1     -23.778  -7.403  13.723  1.00  0.00     0.345 HD
ATOM     13  H   UNL     1     -24.533  -5.907  13.469  1.00  0.00     0.345 HD
ENDBRANCH   9  10
BRANCH   9  14
ATOM     14  C   UNL     1     -26.676  -7.330  15.119  1.00  0.00     0.099 C 
ATOM     15  O   UNL     1     -27.432  -8.269  15.484  1.00  0.00    -0.544 OA
ATOM     16  O   UNL     1     -26.604  -6.172  15.883  1.00  0.00    -0.544 OA
ENDBRANCH   9  14
ENDBRANCH   8   9
ENDBRANCH   1   8
TORSDOF 7
ENDMDL
