MODEL 1
REMARK VINA RESULT:    -3.427      0.000      0.000
REMARK INTER + INTRA:          -5.108
REMARK INTER:                  -4.629
REMARK INTRA:                  -0.479
REMARK UNBOUND:                -0.479
REMARK SMILES CCCCCCC=CC(=O)[O-]
REMARK SMILES IDX 5 1 6 2 7 3 8 4 9 5 10 6 11 7 4 8 3 9 2 10 1 11
REMARK H PARENT
REMARK Flexibility Score: inf
ROOT
ATOM      1  C   UNL     1      61.921  34.425  59.961  1.00  0.00     0.004 C 
ENDROOT
BRANCH   1   2
ATOM      2  C   UNL     1      61.057  33.285  60.515  1.00  0.00     0.027 C 
BRANCH   2   3
ATOM      3  C   UNL     1      61.892  32.087  60.862  1.00  0.00    -0.025 C 
ATOM      4  C   UNL     1      63.208  32.058  60.619  1.00  0.00     0.020 C 
BRANCH   4   5
ATOM      5  C   UNL     1      64.044  30.890  60.939  1.00  0.00     0.064 C 
ATOM      6  O   UNL     1      65.239  30.816  60.544  1.00  0.00    -0.545 OA
ATOM      7  O   UNL     1      63.508  29.852  61.687  1.00  0.00    -0.545 OA
ENDBRANCH   4   5
ENDBRANCH   2   3
ENDBRANCH   1   2
BRANCH   1   8
ATOM      8  C   UNL     1      61.512  35.772  60.576  1.00  0.00     0.000 C 
BRANCH   8   9
ATOM      9  C   UNL     1      62.645  36.422  61.387  1.00  0.00    -0.000 C 
BRANCH   9  10
ATOM     10  C   UNL     1      63.875  35.512  61.517  1.00  0.00    -0.003 C 
ATOM     11  C   UNL     1      65.147  36.333  61.707  1.00  0.00     0.004 C 
ENDBRANCH   9  10
ENDBRANCH   8   9
ENDBRANCH   1   8
TORSDOF 6
ENDMDL
MODEL 2
REMARK VINA RESULT:    -3.409     13.100     14.009
REMARK INTER + INTRA:          -5.085
REMARK INTER:                  -4.768
REMARK INTRA:                  -0.316
REMARK UNBOUND:                -0.479
REMARK SMILES CCCCCCC=CC(=O)[O-]
REMARK SMILES IDX 5 1 6 2 7 3 8 4 9 5 10 6 11 7 4 8 3 9 2 10 1 11
REMARK H PARENT
REMARK Flexibility Score: inf
ROOT
ATOM      1  C   UNL     1      58.062  29.255  49.855  1.00  0.00     0.004 C 
ENDROOT
BRANCH   1   2
ATOM      2  C   UNL     1      59.218  28.619  49.073  1.00  0.00     0.027 C 
BRANCH   2   3
ATOM      3  C   UNL     1      59.285  27.138  49.310  1.00  0.00    -0.025 C 
ATOM      4  C   UNL     1      60.369  26.563  49.845  1.00  0.00     0.020 C 
BRANCH   4   5
ATOM      5  C   UNL     1      60.461  25.113  50.073  1.00  0.00     0.064 C 
ATOM      6  O   UNL     1      59.433  24.424  50.315  1.00  0.00    -0.545 OA
ATOM      7  O   UNL     1      61.702  24.492  50.022  1.00  0.00    -0.545 OA
ENDBRANCH   4   5
ENDBRANCH   2   3
ENDBRANCH   1   2
BRANCH   1   8
ATOM      8  C   UNL     1      56.949  28.229  50.121  1.00  0.00     0.000 C 
BRANCH   8   9
ATOM      9  C   UNL     1      55.663  28.876  50.659  1.00  0.00    -0.000 C 
BRANCH   9  10
ATOM     10  C   UNL     1      54.394  28.256  50.056  1.00  0.00    -0.003 C 
ATOM     11  C   UNL     1      54.623  26.798  49.673  1.00  0.00     0.004 C 
ENDBRANCH   9  10
ENDBRANCH   8   9
ENDBRANCH   1   8
TORSDOF 6
ENDMDL
MODEL 3
REMARK VINA RESULT:    -3.377     13.327     14.456
REMARK INTER + INTRA:          -5.040
REMARK INTER:                  -4.402
REMARK INTRA:                  -0.639
REMARK UNBOUND:                -0.479
REMARK SMILES CCCCCCC=CC(=O)[O-]
REMARK SMILES IDX 5 1 6 2 7 3 8 4 9 5 10 6 11 7 4 8 3 9 2 10 1 11
REMARK H PARENT
REMARK Flexibility Score: inf
ROOT
ATOM      1  C   UNL     1      58.669  29.374  49.469  1.00  0.00     0.004 C 
ENDROOT
BRANCH   1   2
ATOM      2  C   UNL     1      57.833  28.949  50.684  1.00  0.00     0.027 C 
BRANCH   2   3
ATOM      3  C   UNL     1      56.420  28.633  50.289  1.00  0.00    -0.025 C 
ATOM      4  C   UNL     1      56.009  27.372  50.112  1.00  0.00     0.020 C 
BRANCH   4   5
ATOM      5  C   UNL     1      54.632  27.040  49.711  1.00  0.00     0.064 C 
ATOM      6  O   UNL     1      54.304  25.856  49.428  1.00  0.00    -0.545 OA
ATOM      7  O   UNL     1      53.680  28.047  49.643  1.00  0.00    -0.545 OA
ENDBRANCH   4   5
ENDBRANCH   2   3
ENDBRANCH   1   2
BRANCH   1   8
ATOM      8  C   UNL     1      59.583  28.230  49.005  1.00  0.00     0.000 C 
BRANCH   8   9
ATOM      9  C   UNL     1      60.019  27.315  50.161  1.00  0.00    -0.000 C 
BRANCH   9  10
ATOM     10  C   UNL     1      59.971  25.826  49.786  1.00  0.00    -0.003 C 
ATOM     11  C   UNL     1      58.878  25.100  50.563  1.00  0.00     0.004 C 
ENDBRANCH   9  10
ENDBRANCH   8   9
ENDBRANCH   1   8
TORSDOF 6
ENDMDL
MODEL 4
REMARK VINA RESULT:    -3.373     12.930     14.261
REMARK INTER + INTRA:          -5.035
REMARK INTER:                  -4.744
REMARK INTRA:                  -0.291
REMARK UNBOUND:                -0.479
REMARK SMILES CCCCCCC=CC(=O)[O-]
REMARK SMILES IDX 5 1 6 2 7 3 8 4 9 5 10 6 11 7 4 8 3 9 2 10 1 11
REMARK H PARENT
REMARK Flexibility Score: inf
ROOT
ATOM      1  C   UNL     1      56.813  28.215  50.289  1.00  0.00     0.004 C 
ENDROOT
BRANCH   1   2
ATOM      2  C   UNL     1      57.865  29.195  49.754  1.00  0.00     0.027 C 
BRANCH   2   3
ATOM      3  C   UNL     1      59.248  28.621  49.862  1.00  0.00    -0.025 C 
ATOM      4  C   UNL     1      59.506  27.351  49.528  1.00  0.00     0.020 C 
BRANCH   4   5
ATOM      5  C   UNL     1      60.851  26.764  49.639  1.00  0.00     0.064 C 
ATOM      6  O   UNL     1      61.013  25.576  50.028  1.00  0.00    -0.545 OA
ATOM      7  O   UNL     1      61.960  27.532  49.309  1.00  0.00    -0.545 OA
ENDBRANCH   4   5
ENDBRANCH   2   3
ENDBRANCH   1   2
BRANCH   1   8
ATOM      8  C   UNL     1      55.442  28.897  50.414  1.00  0.00     0.000 C 
BRANCH   8   9
ATOM      9  C   UNL     1      54.278  27.955  50.068  1.00  0.00    -0.000 C 
BRANCH   9  10
ATOM     10  C   UNL     1      54.753  26.542  49.695  1.00  0.00    -0.003 C 
ATOM     11  C   UNL     1      53.623  25.732  49.067  1.00  0.00     0.004 C 
ENDBRANCH   9  10
ENDBRANCH   8   9
ENDBRANCH   1   8
TORSDOF 6
ENDMDL
MODEL 5
REMARK VINA RESULT:    -3.372      1.496      2.491
REMARK INTER + INTRA:          -5.034
REMARK INTER:                  -4.540
REMARK INTRA:                  -0.494
REMARK UNBOUND:                -0.479
REMARK SMILES CCCCCCC=CC(=O)[O-]
REMARK SMILES IDX 5 1 6 2 7 3 8 4 9 5 10 6 11 7 4 8 3 9 2 10 1 11
REMARK H PARENT
REMARK Flexibility Score: inf
ROOT
ATOM      1  C   UNL     1      60.791  31.885  60.943  1.00  0.00     0.004 C 
ENDROOT
BRANCH   1   2
ATOM      2  C   UNL     1      61.466  30.881  61.886  1.00  0.00     0.027 C 
BRANCH   2   3
ATOM      3  C   UNL     1      62.909  30.679  61.522  1.00  0.00    -0.025 C 
ATOM      4  C   UNL     1      63.412  29.457  61.313  1.00  0.00     0.020 C 
BRANCH   4   5
ATOM      5  C   UNL     1      64.825  29.234  60.969  1.00  0.00     0.064 C 
ATOM      6  O   UNL     1      65.320  28.075  60.965  1.00  0.00    -0.545 OA
ATOM      7  O   UNL     1      65.628  30.319  60.643  1.00  0.00    -0.545 OA
ENDBRANCH   4   5
ENDBRANCH   2   3
ENDBRANCH   1   2
BRANCH   1   8
ATOM      8  C   UNL     1      61.833  32.784  60.261  1.00  0.00     0.000 C 
BRANCH   8   9
ATOM      9  C   UNL     1      61.509  34.280  60.404  1.00  0.00    -0.000 C 
BRANCH   9  10
ATOM     10  C   UNL     1      62.679  35.085  60.988  1.00  0.00    -0.003 C 
ATOM     11  C   UNL     1      63.942  34.234  61.075  1.00  0.00     0.004 C 
ENDBRANCH   9  10
ENDBRANCH   8   9
ENDBRANCH   1   8
TORSDOF 6
ENDMDL
MODEL 6
REMARK VINA RESULT:    -3.359     13.003     14.111
REMARK INTER + INTRA:          -5.017
REMARK INTER:                  -4.725
REMARK INTRA:                  -0.292
REMARK UNBOUND:                -0.479
REMARK SMILES CCCCCCC=CC(=O)[O-]
REMARK SMILES IDX 5 1 6 2 7 3 8 4 9 5 10 6 11 7 4 8 3 9 2 10 1 11
REMARK H PARENT
REMARK Flexibility Score: inf
ROOT
ATOM      1  C   UNL     1      57.141  28.223  50.196  1.00  0.00     0.004 C 
ENDROOT
BRANCH   1   2
ATOM      2  C   UNL     1      58.121  29.225  49.573  1.00  0.00     0.027 C 
BRANCH   2   3
ATOM      3  C   UNL     1      59.421  28.564  49.215  1.00  0.00    -0.025 C 
ATOM      4  C   UNL     1      59.997  27.669  50.026  1.00  0.00     0.020 C 
BRANCH   4   5
ATOM      5  C   UNL     1      61.276  27.018  49.701  1.00  0.00     0.064 C 
ATOM      6  O   UNL     1      62.213  27.660  49.153  1.00  0.00    -0.545 OA
ATOM      7  O   UNL     1      61.455  25.675  50.002  1.00  0.00    -0.545 OA
ENDBRANCH   4   5
ENDBRANCH   2   3
ENDBRANCH   1   2
BRANCH   1   8
ATOM      8  C   UNL     1      55.783  28.886  50.475  1.00  0.00     0.000 C 
BRANCH   8   9
ATOM      9  C   UNL     1      54.601  27.925  50.270  1.00  0.00    -0.000 C 
BRANCH   9  10
ATOM     10  C   UNL     1      55.042  26.549  49.749  1.00  0.00    -0.003 C 
ATOM     11  C   UNL     1      53.899  25.845  49.025  1.00  0.00     0.004 C 
ENDBRANCH   9  10
ENDBRANCH   8   9
ENDBRANCH   1   8
TORSDOF 6
ENDMDL
MODEL 7
REMARK VINA RESULT:    -3.350      2.711      4.719
REMARK INTER + INTRA:          -5.004
REMARK INTER:                  -4.582
REMARK INTRA:                  -0.423
REMARK UNBOUND:                -0.479
REMARK SMILES CCCCCCC=CC(=O)[O-]
REMARK SMILES IDX 5 1 6 2 7 3 8 4 9 5 10 6 11 7 4 8 3 9 2 10 1 11
REMARK H PARENT
REMARK Flexibility Score: inf
ROOT
ATOM      1  C   UNL     1      61.804  32.537  60.407  1.00  0.00     0.004 C 
ENDROOT
BRANCH   1   2
ATOM      2  C   UNL     1      61.191  33.942  60.340  1.00  0.00     0.027 C 
BRANCH   2   3
ATOM      3  C   UNL     1      62.220  34.998  60.622  1.00  0.00    -0.025 C 
ATOM      4  C   UNL     1      63.461  34.680  61.010  1.00  0.00     0.020 C 
BRANCH   4   5
ATOM      5  C   UNL     1      64.480  35.699  61.305  1.00  0.00     0.064 C 
ATOM      6  O   UNL     1      65.256  36.124  60.406  1.00  0.00    -0.545 OA
ATOM      7  O   UNL     1      64.591  36.201  62.594  1.00  0.00    -0.545 OA
ENDBRANCH   4   5
ENDBRANCH   2   3
ENDBRANCH   1   2
BRANCH   1   8
ATOM      8  C   UNL     1      61.012  31.638  61.369  1.00  0.00     0.000 C 
BRANCH   8   9
ATOM      9  C   UNL     1      61.839  30.452  61.889  1.00  0.00    -0.000 C 
BRANCH   9  10
ATOM     10  C   UNL     1      63.334  30.587  61.562  1.00  0.00    -0.003 C 
ATOM     11  C   UNL     1      63.922  29.250  61.124  1.00  0.00     0.004 C 
ENDBRANCH   9  10
ENDBRANCH   8   9
ENDBRANCH   1   8
TORSDOF 6
ENDMDL
MODEL 8
REMARK VINA RESULT:    -3.308     13.406     14.915
REMARK INTER + INTRA:          -4.948
REMARK INTER:                  -4.512
REMARK INTRA:                  -0.436
REMARK UNBOUND:                -0.479
REMARK SMILES CCCCCCC=CC(=O)[O-]
REMARK SMILES IDX 5 1 6 2 7 3 8 4 9 5 10 6 11 7 4 8 3 9 2 10 1 11
REMARK H PARENT
REMARK Flexibility Score: inf
ROOT
ATOM      1  C   UNL     1      54.214  29.014  50.173  1.00  0.00     0.004 C 
ENDROOT
BRANCH   1   2
ATOM      2  C   UNL     1      55.386  28.516  51.029  1.00  0.00     0.027 C 
BRANCH   2   3
ATOM      3  C   UNL     1      56.704  28.918  50.433  1.00  0.00    -0.025 C 
ATOM      4  C   UNL     1      57.607  28.006  50.055  1.00  0.00     0.020 C 
BRANCH   4   5
ATOM      5  C   UNL     1      58.910  28.378  49.481  1.00  0.00     0.064 C 
ATOM      6  O   UNL     1      59.799  27.510  49.266  1.00  0.00    -0.545 OA
ATOM      7  O   UNL     1      59.166  29.707  49.172  1.00  0.00    -0.545 OA
ENDBRANCH   4   5
ENDBRANCH   2   3
ENDBRANCH   1   2
BRANCH   1   8
ATOM      8  C   UNL     1      53.302  27.848  49.761  1.00  0.00     0.000 C 
BRANCH   8   9
ATOM      9  C   UNL     1      54.090  26.576  49.409  1.00  0.00    -0.000 C 
BRANCH   9  10
ATOM     10  C   UNL     1      53.276  25.294  49.640  1.00  0.00    -0.003 C 
ATOM     11  C   UNL     1      52.954  25.107  51.119  1.00  0.00     0.004 C 
ENDBRANCH   9  10
ENDBRANCH   8   9
ENDBRANCH   1   8
TORSDOF 6
ENDMDL
MODEL 9
REMARK VINA RESULT:    -3.281      1.187      1.359
REMARK INTER + INTRA:          -4.912
REMARK INTER:                  -4.516
REMARK INTRA:                  -0.396
REMARK UNBOUND:                -0.479
REMARK SMILES CCCCCCC=CC(=O)[O-]
REMARK SMILES IDX 5 1 6 2 7 3 8 4 9 5 10 6 11 7 4 8 3 9 2 10 1 11
REMARK H PARENT
REMARK Flexibility Score: inf
ROOT
ATOM      1  C   UNL     1      61.774  33.254  59.952  1.00  0.00     0.004 C 
ENDROOT
BRANCH   1   2
ATOM      2  C   UNL     1      60.924  32.566  61.029  1.00  0.00     0.027 C 
BRANCH   2   3
ATOM      3  C   UNL     1      61.367  31.148  61.248  1.00  0.00    -0.025 C 
ATOM      4  C   UNL     1      62.660  30.805  61.207  1.00  0.00     0.020 C 
BRANCH   4   5
ATOM      5  C   UNL     1      63.116  29.420  61.406  1.00  0.00     0.064 C 
ATOM      6  O   UNL     1      64.315  29.092  61.196  1.00  0.00    -0.545 OA
ATOM      7  O   UNL     1      62.210  28.458  61.831  1.00  0.00    -0.545 OA
ENDBRANCH   4   5
ENDBRANCH   2   3
ENDBRANCH   1   2
BRANCH   1   8
ATOM      8  C   UNL     1      61.518  34.768  59.937  1.00  0.00     0.000 C 
BRANCH   8   9
ATOM      9  C   UNL     1      62.350  35.520  60.988  1.00  0.00    -0.000 C 
BRANCH   9  10
ATOM     10  C   UNL     1      63.765  34.943  61.145  1.00  0.00    -0.003 C 
ATOM     11  C   UNL     1      64.654  35.882  61.955  1.00  0.00     0.004 C 
ENDBRANCH   9  10
ENDBRANCH   8   9
ENDBRANCH   1   8
TORSDOF 6
ENDMDL
