MODEL 1
REMARK VINA RESULT:    -4.273      0.000      0.000
REMARK INTER + INTRA:          -9.169
REMARK INTER:                  -7.271
REMARK INTRA:                  -1.898
REMARK UNBOUND:                -1.898
REMARK SMILES CCCCCCCCCCCCCC(=O)[O-]
REMARK SMILES IDX 8 1 9 2 10 3 11 4 12 5 13 6 14 7 15 8 16 9 7 10 6 11 5 12
REMARK SMILES IDX 4 13 3 14 2 15 1 16
REMARK H PARENT
REMARK Flexibility Score: inf
ROOT
ATOM      1  C   UNL     1     -35.180  20.370 -29.631  1.00  0.00     0.000 C 
ENDROOT
BRANCH   1   2
ATOM      2  C   UNL     1     -34.962  21.482 -28.587  1.00  0.00     0.000 C 
BRANCH   2   3
ATOM      3  C   UNL     1     -36.139  22.471 -28.528  1.00  0.00     0.000 C 
BRANCH   3   4
ATOM      4  C   UNL     1     -37.281  22.089 -29.482  1.00  0.00     0.000 C 
BRANCH   4   5
ATOM      5  C   UNL     1     -38.670  22.376 -28.892  1.00  0.00     0.006 C 
BRANCH   5   6
ATOM      6  C   UNL     1     -39.775  21.841 -29.808  1.00  0.00     0.053 C 
BRANCH   6   7
ATOM      7  C   UNL     1     -40.895  22.827 -29.910  1.00  0.00     0.041 C 
ATOM      8  O   UNL     1     -41.774  22.697 -30.802  1.00  0.00    -0.550 OA
ATOM      9  O   UNL     1     -40.997  23.862 -28.988  1.00  0.00    -0.550 OA
ENDBRANCH   6   7
ENDBRANCH   5   6
ENDBRANCH   4   5
ENDBRANCH   3   4
ENDBRANCH   2   3
ENDBRANCH   1   2
BRANCH   1  10
ATOM     10  C   UNL     1     -34.955  18.946 -29.088  1.00  0.00     0.000 C 
BRANCH  10  11
ATOM     11  C   UNL     1     -35.804  18.655 -27.838  1.00  0.00    -0.000 C 
BRANCH  11  12
ATOM     12  C   UNL     1     -37.080  17.860 -28.163  1.00  0.00    -0.000 C 
BRANCH  12  13
ATOM     13  C   UNL     1     -38.274  18.764 -28.503  1.00  0.00    -0.000 C 
BRANCH  13  14
ATOM     14  C   UNL     1     -39.005  18.262 -29.754  1.00  0.00    -0.000 C 
BRANCH  14  15
ATOM     15  C   UNL     1     -38.036  18.101 -30.930  1.00  0.00    -0.003 C 
ATOM     16  C   UNL     1     -37.990  19.365 -31.784  1.00  0.00     0.004 C 
ENDBRANCH  14  15
ENDBRANCH  13  14
ENDBRANCH  12  13
ENDBRANCH  11  12
ENDBRANCH  10  11
ENDBRANCH   1  10
TORSDOF 12
ENDMDL
MODEL 2
REMARK VINA RESULT:    -4.125      4.487      6.518
REMARK INTER + INTRA:          -8.917
REMARK INTER:                  -7.735
REMARK INTRA:                  -1.182
REMARK UNBOUND:                -1.898
REMARK SMILES CCCCCCCCCCCCCC(=O)[O-]
REMARK SMILES IDX 8 1 9 2 10 3 11 4 12 5 13 6 14 7 15 8 16 9 7 10 6 11 5 12
REMARK SMILES IDX 4 13 3 14 2 15 1 16
REMARK H PARENT
REMARK Flexibility Score: inf
ROOT
ATOM      1  C   UNL     1     -36.340  18.969 -28.246  1.00  0.00     0.000 C 
ENDROOT
BRANCH   1   2
ATOM      2  C   UNL     1     -35.212  18.238 -28.998  1.00  0.00     0.000 C 
BRANCH   2   3
ATOM      3  C   UNL     1     -35.581  17.935 -30.461  1.00  0.00     0.000 C 
BRANCH   3   4
ATOM      4  C   UNL     1     -35.425  16.448 -30.815  1.00  0.00     0.000 C 
BRANCH   4   5
ATOM      5  C   UNL     1     -36.684  15.626 -30.500  1.00  0.00     0.006 C 
BRANCH   5   6
ATOM      6  C   UNL     1     -36.334  14.382 -29.679  1.00  0.00     0.053 C 
BRANCH   6   7
ATOM      7  C   UNL     1     -36.771  13.142 -30.394  1.00  0.00     0.041 C 
ATOM      8  O   UNL     1     -37.981  12.796 -30.381  1.00  0.00    -0.550 OA
ATOM      9  O   UNL     1     -35.849  12.395 -31.117  1.00  0.00    -0.550 OA
ENDBRANCH   6   7
ENDBRANCH   5   6
ENDBRANCH   4   5
ENDBRANCH   3   4
ENDBRANCH   2   3
ENDBRANCH   1   2
BRANCH   1  10
ATOM     10  C   UNL     1     -37.667  18.189 -28.193  1.00  0.00     0.000 C 
BRANCH  10  11
ATOM     11  C   UNL     1     -38.656  18.642 -29.281  1.00  0.00    -0.000 C 
BRANCH  11  12
ATOM     12  C   UNL     1     -39.536  19.818 -28.827  1.00  0.00    -0.000 C 
BRANCH  12  13
ATOM     13  C   UNL     1     -39.364  21.064 -29.710  1.00  0.00    -0.000 C 
BRANCH  13  14
ATOM     14  C   UNL     1     -38.513  22.125 -29.002  1.00  0.00    -0.000 C 
BRANCH  14  15
ATOM     15  C   UNL     1     -37.150  22.282 -29.685  1.00  0.00    -0.003 C 
ATOM     16  C   UNL     1     -36.048  22.545 -28.662  1.00  0.00     0.004 C 
ENDBRANCH  14  15
ENDBRANCH  13  14
ENDBRANCH  12  13
ENDBRANCH  11  12
ENDBRANCH  10  11
ENDBRANCH   1  10
TORSDOF 12
ENDMDL
MODEL 3
REMARK VINA RESULT:    -4.032      4.296      6.431
REMARK INTER + INTRA:          -8.758
REMARK INTER:                  -7.227
REMARK INTRA:                  -1.531
REMARK UNBOUND:                -1.898
REMARK SMILES CCCCCCCCCCCCCC(=O)[O-]
REMARK SMILES IDX 8 1 9 2 10 3 11 4 12 5 13 6 14 7 15 8 16 9 7 10 6 11 5 12
REMARK SMILES IDX 4 13 3 14 2 15 1 16
REMARK H PARENT
REMARK Flexibility Score: inf
ROOT
ATOM      1  C   UNL     1     -38.667  18.679 -29.418  1.00  0.00     0.000 C 
ENDROOT
BRANCH   1   2
ATOM      2  C   UNL     1     -37.651  18.360 -28.304  1.00  0.00     0.000 C 
BRANCH   2   3
ATOM      3  C   UNL     1     -36.231  18.132 -28.851  1.00  0.00     0.000 C 
BRANCH   3   4
ATOM      4  C   UNL     1     -36.219  17.833 -30.358  1.00  0.00     0.000 C 
BRANCH   4   5
ATOM      5  C   UNL     1     -35.795  16.391 -30.676  1.00  0.00     0.006 C 
BRANCH   5   6
ATOM      6  C   UNL     1     -36.882  15.396 -30.257  1.00  0.00     0.053 C 
BRANCH   6   7
ATOM      7  C   UNL     1     -36.304  14.025 -30.099  1.00  0.00     0.041 C 
ATOM      8  O   UNL     1     -36.612  13.319 -29.104  1.00  0.00    -0.550 OA
ATOM      9  O   UNL     1     -35.465  13.507 -31.078  1.00  0.00    -0.550 OA
ENDBRANCH   6   7
ENDBRANCH   5   6
ENDBRANCH   4   5
ENDBRANCH   3   4
ENDBRANCH   2   3
ENDBRANCH   1   2
BRANCH   1  10
ATOM     10  C   UNL     1     -39.541  19.915 -29.135  1.00  0.00     0.000 C 
BRANCH  10  11
ATOM     11  C   UNL     1     -39.046  21.165 -29.884  1.00  0.00    -0.000 C 
BRANCH  11  12
ATOM     12  C   UNL     1     -38.520  22.254 -28.934  1.00  0.00    -0.000 C 
BRANCH  12  13
ATOM     13  C   UNL     1     -36.993  22.413 -29.000  1.00  0.00    -0.000 C 
BRANCH  13  14
ATOM     14  C   UNL     1     -36.432  21.800 -30.288  1.00  0.00    -0.000 C 
BRANCH  14  15
ATOM     15  C   UNL     1     -35.006  21.282 -30.076  1.00  0.00    -0.003 C 
ATOM     16  C   UNL     1     -34.369  20.863 -31.398  1.00  0.00     0.004 C 
ENDBRANCH  14  15
ENDBRANCH  13  14
ENDBRANCH  12  13
ENDBRANCH  11  12
ENDBRANCH  10  11
ENDBRANCH   1  10
TORSDOF 12
ENDMDL
MODEL 4
REMARK VINA RESULT:    -3.994      2.936      3.703
REMARK INTER + INTRA:          -8.695
REMARK INTER:                  -7.278
REMARK INTRA:                  -1.417
REMARK UNBOUND:                -1.898
REMARK SMILES CCCCCCCCCCCCCC(=O)[O-]
REMARK SMILES IDX 8 1 9 2 10 3 11 4 12 5 13 6 14 7 15 8 16 9 7 10 6 11 5 12
REMARK SMILES IDX 4 13 3 14 2 15 1 16
REMARK H PARENT
REMARK Flexibility Score: inf
ROOT
ATOM      1  C   UNL     1     -34.345  20.925 -31.583  1.00  0.00     0.000 C 
ENDROOT
BRANCH   1   2
ATOM      2  C   UNL     1     -35.711  21.621 -31.443  1.00  0.00     0.000 C 
BRANCH   2   3
ATOM      3  C   UNL     1     -36.804  20.947 -32.289  1.00  0.00     0.000 C 
BRANCH   3   4
ATOM      4  C   UNL     1     -37.852  20.220 -31.432  1.00  0.00     0.000 C 
BRANCH   4   5
ATOM      5  C   UNL     1     -37.803  20.636 -29.954  1.00  0.00     0.006 C 
BRANCH   5   6
ATOM      6  C   UNL     1     -39.205  20.635 -29.338  1.00  0.00     0.053 C 
BRANCH   6   7
ATOM      7  C   UNL     1     -39.469  19.340 -28.635  1.00  0.00     0.041 C 
ATOM      8  O   UNL     1     -40.651  18.947 -28.454  1.00  0.00    -0.550 OA
ATOM      9  O   UNL     1     -38.407  18.542 -28.227  1.00  0.00    -0.550 OA
ENDBRANCH   6   7
ENDBRANCH   5   6
ENDBRANCH   4   5
ENDBRANCH   3   4
ENDBRANCH   2   3
ENDBRANCH   1   2
BRANCH   1  10
ATOM     10  C   UNL     1     -34.004  19.970 -30.423  1.00  0.00     0.000 C 
BRANCH  10  11
ATOM     11  C   UNL     1     -34.242  18.495 -30.790  1.00  0.00    -0.000 C 
BRANCH  11  12
ATOM     12  C   UNL     1     -35.334  17.840 -29.928  1.00  0.00    -0.000 C 
BRANCH  12  13
ATOM     13  C   UNL     1     -36.356  17.053 -30.762  1.00  0.00    -0.000 C 
BRANCH  13  14
ATOM     14  C   UNL     1     -36.843  15.811 -30.005  1.00  0.00    -0.000 C 
BRANCH  14  15
ATOM     15  C   UNL     1     -36.007  14.580 -30.374  1.00  0.00    -0.003 C 
ATOM     16  C   UNL     1     -36.726  13.290 -29.987  1.00  0.00     0.004 C 
ENDBRANCH  14  15
ENDBRANCH  13  14
ENDBRANCH  12  13
ENDBRANCH  11  12
ENDBRANCH  10  11
ENDBRANCH   1  10
TORSDOF 12
ENDMDL
MODEL 5
REMARK VINA RESULT:    -3.969      1.295      3.706
REMARK INTER + INTRA:          -8.652
REMARK INTER:                  -6.848
REMARK INTRA:                  -1.804
REMARK UNBOUND:                -1.898
REMARK SMILES CCCCCCCCCCCCCC(=O)[O-]
REMARK SMILES IDX 8 1 9 2 10 3 11 4 12 5 13 6 14 7 15 8 16 9 7 10 6 11 5 12
REMARK SMILES IDX 4 13 3 14 2 15 1 16
REMARK H PARENT
REMARK Flexibility Score: inf
ROOT
ATOM      1  C   UNL     1     -36.738  16.802 -29.607  1.00  0.00     0.000 C 
ENDROOT
BRANCH   1   2
ATOM      2  C   UNL     1     -37.374  17.039 -30.990  1.00  0.00     0.000 C 
BRANCH   2   3
ATOM      3  C   UNL     1     -38.341  18.236 -30.995  1.00  0.00     0.000 C 
BRANCH   3   4
ATOM      4  C   UNL     1     -37.824  19.410 -31.839  1.00  0.00     0.000 C 
BRANCH   4   5
ATOM      5  C   UNL     1     -38.272  20.776 -31.297  1.00  0.00     0.006 C 
BRANCH   5   6
ATOM      6  C   UNL     1     -38.990  20.622 -29.954  1.00  0.00     0.053 C 
BRANCH   6   7
ATOM      7  C   UNL     1     -39.656  21.905 -29.565  1.00  0.00     0.041 C 
ATOM      8  O   UNL     1     -39.080  22.707 -28.785  1.00  0.00    -0.550 OA
ATOM      9  O   UNL     1     -40.893  22.237 -30.106  1.00  0.00    -0.550 OA
ENDBRANCH   6   7
ENDBRANCH   5   6
ENDBRANCH   4   5
ENDBRANCH   3   4
ENDBRANCH   2   3
ENDBRANCH   1   2
BRANCH   1  10
ATOM     10  C   UNL     1     -37.264  17.741 -28.505  1.00  0.00     0.000 C 
BRANCH  10  11
ATOM     11  C   UNL     1     -36.149  18.607 -27.892  1.00  0.00    -0.000 C 
BRANCH  11  12
ATOM     12  C   UNL     1     -35.165  19.137 -28.948  1.00  0.00    -0.000 C 
BRANCH  12  13
ATOM     13  C   UNL     1     -34.610  20.526 -28.598  1.00  0.00    -0.000 C 
BRANCH  13  14
ATOM     14  C   UNL     1     -35.667  21.613 -28.823  1.00  0.00    -0.000 C 
BRANCH  14  15
ATOM     15  C   UNL     1     -35.107  22.760 -29.670  1.00  0.00    -0.003 C 
ATOM     16  C   UNL     1     -35.028  22.371 -31.144  1.00  0.00     0.004 C 
ENDBRANCH  14  15
ENDBRANCH  13  14
ENDBRANCH  12  13
ENDBRANCH  11  12
ENDBRANCH  10  11
ENDBRANCH   1  10
TORSDOF 12
ENDMDL
MODEL 6
REMARK VINA RESULT:    -3.935      3.592      5.279
REMARK INTER + INTRA:          -8.594
REMARK INTER:                  -6.699
REMARK INTRA:                  -1.895
REMARK UNBOUND:                -1.898
REMARK SMILES CCCCCCCCCCCCCC(=O)[O-]
REMARK SMILES IDX 8 1 9 2 10 3 11 4 12 5 13 6 14 7 15 8 16 9 7 10 6 11 5 12
REMARK SMILES IDX 4 13 3 14 2 15 1 16
REMARK H PARENT
REMARK Flexibility Score: inf
ROOT
ATOM      1  C   UNL     1     -35.380  21.036 -28.694  1.00  0.00     0.000 C 
ENDROOT
BRANCH   1   2
ATOM      2  C   UNL     1     -34.406  19.958 -28.183  1.00  0.00     0.000 C 
BRANCH   2   3
ATOM      3  C   UNL     1     -35.135  18.735 -27.601  1.00  0.00     0.000 C 
BRANCH   3   4
ATOM      4  C   UNL     1     -36.580  18.611 -28.109  1.00  0.00     0.000 C 
BRANCH   4   5
ATOM      5  C   UNL     1     -36.872  17.242 -28.743  1.00  0.00     0.006 C 
BRANCH   5   6
ATOM      6  C   UNL     1     -36.711  17.299 -30.265  1.00  0.00     0.053 C 
BRANCH   6   7
ATOM      7  C   UNL     1     -35.426  16.655 -30.682  1.00  0.00     0.041 C 
ATOM      8  O   UNL     1     -35.407  15.444 -31.025  1.00  0.00    -0.550 OA
ATOM      9  O   UNL     1     -34.259  17.407 -30.740  1.00  0.00    -0.550 OA
ENDBRANCH   6   7
ENDBRANCH   5   6
ENDBRANCH   4   5
ENDBRANCH   3   4
ENDBRANCH   2   3
ENDBRANCH   1   2
BRANCH   1  10
ATOM     10  C   UNL     1     -35.077  21.532 -30.120  1.00  0.00     0.000 C 
BRANCH  10  11
ATOM     11  C   UNL     1     -35.614  20.576 -31.200  1.00  0.00    -0.000 C 
BRANCH  11  12
ATOM     12  C   UNL     1     -36.775  21.184 -32.004  1.00  0.00    -0.000 C 
BRANCH  12  13
ATOM     13  C   UNL     1     -38.061  20.349 -31.913  1.00  0.00    -0.000 C 
BRANCH  13  14
ATOM     14  C   UNL     1     -38.592  20.312 -30.475  1.00  0.00    -0.000 C 
BRANCH  14  15
ATOM     15  C   UNL     1     -39.400  21.574 -30.153  1.00  0.00    -0.003 C 
ATOM     16  C   UNL     1     -38.829  22.300 -28.938  1.00  0.00     0.004 C 
ENDBRANCH  14  15
ENDBRANCH  13  14
ENDBRANCH  12  13
ENDBRANCH  11  12
ENDBRANCH  10  11
ENDBRANCH   1  10
TORSDOF 12
ENDMDL
MODEL 7
REMARK VINA RESULT:    -3.899      3.479      5.169
REMARK INTER + INTRA:          -8.532
REMARK INTER:                  -6.705
REMARK INTRA:                  -1.827
REMARK UNBOUND:                -1.898
REMARK SMILES CCCCCCCCCCCCCC(=O)[O-]
REMARK SMILES IDX 8 1 9 2 10 3 11 4 12 5 13 6 14 7 15 8 16 9 7 10 6 11 5 12
REMARK SMILES IDX 4 13 3 14 2 15 1 16
REMARK H PARENT
REMARK Flexibility Score: inf
ROOT
ATOM      1  C   UNL     1     -34.496  21.918 -30.120  1.00  0.00     0.000 C 
ENDROOT
BRANCH   1   2
ATOM      2  C   UNL     1     -34.987  21.697 -28.677  1.00  0.00     0.000 C 
BRANCH   2   3
ATOM      3  C   UNL     1     -34.412  20.414 -28.051  1.00  0.00     0.000 C 
BRANCH   3   4
ATOM      4  C   UNL     1     -34.032  19.361 -29.104  1.00  0.00     0.000 C 
BRANCH   4   5
ATOM      5  C   UNL     1     -35.116  18.290 -29.293  1.00  0.00     0.006 C 
BRANCH   5   6
ATOM      6  C   UNL     1     -35.009  17.641 -30.676  1.00  0.00     0.053 C 
BRANCH   6   7
ATOM      7  C   UNL     1     -35.885  16.430 -30.757  1.00  0.00     0.041 C 
ATOM      8  O   UNL     1     -35.375  15.279 -30.761  1.00  0.00    -0.550 OA
ATOM      9  O   UNL     1     -37.267  16.572 -30.775  1.00  0.00    -0.550 OA
ENDBRANCH   6   7
ENDBRANCH   5   6
ENDBRANCH   4   5
ENDBRANCH   3   4
ENDBRANCH   2   3
ENDBRANCH   1   2
BRANCH   1  10
ATOM     10  C   UNL     1     -35.616  22.265 -31.119  1.00  0.00     0.000 C 
BRANCH  10  11
ATOM     11  C   UNL     1     -36.127  21.028 -31.879  1.00  0.00    -0.000 C 
BRANCH  11  12
ATOM     12  C   UNL     1     -37.660  20.921 -31.872  1.00  0.00    -0.000 C 
BRANCH  12  13
ATOM     13  C   UNL     1     -38.171  19.766 -30.997  1.00  0.00    -0.000 C 
BRANCH  13  14
ATOM     14  C   UNL     1     -38.210  20.173 -29.519  1.00  0.00    -0.000 C 
BRANCH  14  15
ATOM     15  C   UNL     1     -38.716  19.021 -28.644  1.00  0.00    -0.003 C 
ATOM     16  C   UNL     1     -40.236  19.064 -28.501  1.00  0.00     0.004 C 
ENDBRANCH  14  15
ENDBRANCH  13  14
ENDBRANCH  12  13
ENDBRANCH  11  12
ENDBRANCH  10  11
ENDBRANCH   1  10
TORSDOF 12
ENDMDL
MODEL 8
REMARK VINA RESULT:    -3.874     13.947     15.361
REMARK INTER + INTRA:          -8.489
REMARK INTER:                  -6.980
REMARK INTRA:                  -1.509
REMARK UNBOUND:                -1.898
REMARK SMILES CCCCCCCCCCCCCC(=O)[O-]
REMARK SMILES IDX 8 1 9 2 10 3 11 4 12 5 13 6 14 7 15 8 16 9 7 10 6 11 5 12
REMARK SMILES IDX 4 13 3 14 2 15 1 16
REMARK H PARENT
REMARK Flexibility Score: inf
ROOT
ATOM      1  C   UNL     1     -47.989   9.259 -29.668  1.00  0.00     0.000 C 
ENDROOT
BRANCH   1   2
ATOM      2  C   UNL     1     -47.791  10.718 -29.216  1.00  0.00     0.000 C 
BRANCH   2   3
ATOM      3  C   UNL     1     -49.034  11.587 -29.476  1.00  0.00     0.000 C 
BRANCH   3   4
ATOM      4  C   UNL     1     -49.542  11.475 -30.921  1.00  0.00     0.000 C 
BRANCH   4   5
ATOM      5  C   UNL     1     -50.769  12.360 -31.191  1.00  0.00     0.006 C 
BRANCH   5   6
ATOM      6  C   UNL     1     -50.747  13.610 -30.306  1.00  0.00     0.053 C 
BRANCH   6   7
ATOM      7  C   UNL     1     -50.972  14.839 -31.129  1.00  0.00     0.041 C 
ATOM      8  O   UNL     1     -52.099  15.401 -31.133  1.00  0.00    -0.550 OA
ATOM      9  O   UNL     1     -49.923  15.393 -31.852  1.00  0.00    -0.550 OA
ENDBRANCH   6   7
ENDBRANCH   5   6
ENDBRANCH   4   5
ENDBRANCH   3   4
ENDBRANCH   2   3
ENDBRANCH   1   2
BRANCH   1  10
ATOM     10  C   UNL     1     -46.743   8.628 -30.317  1.00  0.00     0.000 C 
BRANCH  10  11
ATOM     11  C   UNL     1     -46.846   8.575 -31.852  1.00  0.00    -0.000 C 
BRANCH  11  12
ATOM     12  C   UNL     1     -47.306   7.201 -32.366  1.00  0.00    -0.000 C 
BRANCH  12  13
ATOM     13  C   UNL     1     -48.480   7.299 -33.353  1.00  0.00    -0.000 C 
BRANCH  13  14
ATOM     14  C   UNL     1     -49.053   8.721 -33.385  1.00  0.00    -0.000 C 
BRANCH  14  15
ATOM     15  C   UNL     1     -50.555   8.716 -33.080  1.00  0.00    -0.003 C 
ATOM     16  C   UNL     1     -50.845   8.038 -31.743  1.00  0.00     0.004 C 
ENDBRANCH  14  15
ENDBRANCH  13  14
ENDBRANCH  12  13
ENDBRANCH  11  12
ENDBRANCH  10  11
ENDBRANCH   1  10
TORSDOF 12
ENDMDL
MODEL 9
REMARK VINA RESULT:    -3.868     13.670     14.872
REMARK INTER + INTRA:          -8.480
REMARK INTER:                  -7.023
REMARK INTRA:                  -1.457
REMARK UNBOUND:                -1.898
REMARK SMILES CCCCCCCCCCCCCC(=O)[O-]
REMARK SMILES IDX 8 1 9 2 10 3 11 4 12 5 13 6 14 7 15 8 16 9 7 10 6 11 5 12
REMARK SMILES IDX 4 13 3 14 2 15 1 16
REMARK H PARENT
REMARK Flexibility Score: inf
ROOT
ATOM      1  C   UNL     1     -48.700  11.470 -29.279  1.00  0.00     0.000 C 
ENDROOT
BRANCH   1   2
ATOM      2  C   UNL     1     -50.201  11.463 -29.623  1.00  0.00     0.000 C 
BRANCH   2   3
ATOM      3  C   UNL     1     -50.535  12.378 -30.815  1.00  0.00     0.000 C 
BRANCH   3   4
ATOM      4  C   UNL     1     -49.408  13.372 -31.131  1.00  0.00     0.000 C 
BRANCH   4   5
ATOM      5  C   UNL     1     -49.926  14.687 -31.733  1.00  0.00     0.006 C 
BRANCH   5   6
ATOM      6  C   UNL     1     -51.311  15.034 -31.180  1.00  0.00     0.053 C 
BRANCH   6   7
ATOM      7  C   UNL     1     -51.430  16.508 -30.950  1.00  0.00     0.041 C 
ATOM      8  O   UNL     1     -50.397  17.225 -30.892  1.00  0.00    -0.550 OA
ATOM      9  O   UNL     1     -52.684  17.097 -30.849  1.00  0.00    -0.550 OA
ENDBRANCH   6   7
ENDBRANCH   5   6
ENDBRANCH   4   5
ENDBRANCH   3   4
ENDBRANCH   2   3
ENDBRANCH   1   2
BRANCH   1  10
ATOM     10  C   UNL     1     -48.128  10.081 -28.935  1.00  0.00     0.000 C 
BRANCH  10  11
ATOM     11  C   UNL     1     -47.107   9.594 -29.978  1.00  0.00    -0.000 C 
BRANCH  11  12
ATOM     12  C   UNL     1     -47.546   8.295 -30.673  1.00  0.00    -0.000 C 
BRANCH  12  13
ATOM     13  C   UNL     1     -47.683   8.452 -32.195  1.00  0.00    -0.000 C 
BRANCH  13  14
ATOM     14  C   UNL     1     -48.876   9.348 -32.550  1.00  0.00    -0.000 C 
BRANCH  14  15
ATOM     15  C   UNL     1     -50.195   8.710 -32.102  1.00  0.00    -0.003 C 
ATOM     16  C   UNL     1     -51.386   9.345 -32.816  1.00  0.00     0.004 C 
ENDBRANCH  14  15
ENDBRANCH  13  14
ENDBRANCH  12  13
ENDBRANCH  11  12
ENDBRANCH  10  11
ENDBRANCH   1  10
TORSDOF 12
ENDMDL
