MODEL 1
REMARK VINA RESULT:    -7.321      0.000      0.000
REMARK INTER + INTRA:         -10.977
REMARK INTER:                  -9.890
REMARK INTRA:                  -1.088
REMARK UNBOUND:                -1.088
REMARK SMILES C=CC(C)=CCC=C(C)CCC=C(C)C
REMARK SMILES IDX 8 1 7 2 9 3 10 4 11 5 12 6 14 7 13 8 15 9 6 10 5 11 3 12
REMARK SMILES IDX 4 13 2 14 1 15
REMARK H PARENT
REMARK Flexibility Score: inf
ROOT
ATOM      1  C   UNL     1      -1.814 -14.333  10.329  1.00  0.00    -0.077 C 
ATOM      2  C   UNL     1      -2.452 -14.766  11.442  1.00  0.00    -0.024 C 
ATOM      3  C   UNL     1      -1.933 -12.877   9.959  1.00  0.00     0.039 C 
ENDROOT
BRANCH   1   4
ATOM      4  C   UNL     1      -1.007 -15.255   9.431  1.00  0.00     0.034 C 
BRANCH   4   5
ATOM      5  C   UNL     1      -1.659 -15.426   8.051  1.00  0.00     0.032 C 
BRANCH   5   6
ATOM      6  C   UNL     1      -2.914 -16.262   8.121  1.00  0.00    -0.028 C 
ATOM      7  C   UNL     1      -5.318 -16.752   7.997  1.00  0.00     0.039 C 
ATOM      8  C   UNL     1      -4.153 -15.810   7.830  1.00  0.00    -0.080 C 
ATOM      9  C   UNL     1      -4.397 -14.406   7.329  1.00  0.00     0.039 C 
ENDBRANCH   5   6
ENDBRANCH   4   5
ENDBRANCH   1   4
BRANCH   2  10
ATOM     10  C   UNL     1      -2.392 -16.178  11.969  1.00  0.00     0.055 C 
BRANCH  10  11
ATOM     11  C   UNL     1      -2.051 -16.195  13.437  1.00  0.00    -0.020 C 
ATOM     12  C   UNL     1      -1.418 -17.217  14.047  1.00  0.00    -0.055 C 
ATOM     13  C   UNL     1      -1.004 -18.460  13.291  1.00  0.00     0.044 C 
BRANCH  12  14
ATOM     14  C   UNL     1      -1.196 -17.122  15.514  1.00  0.00    -0.005 C 
ATOM     15  C   UNL     1      -0.160 -17.679  16.140  1.00  0.00     0.009 C 
ENDBRANCH  12  14
ENDBRANCH  10  11
ENDBRANCH   2  10
TORSDOF 6
ENDMDL
MODEL 2
REMARK VINA RESULT:    -7.086      2.148      5.249
REMARK INTER + INTRA:         -10.660
REMARK INTER:                  -8.773
REMARK INTRA:                  -1.886
REMARK UNBOUND:                -1.088
REMARK SMILES C=CC(C)=CCC=C(C)CCC=C(C)C
REMARK SMILES IDX 8 1 7 2 9 3 10 4 11 5 12 6 14 7 13 8 15 9 6 10 5 11 3 12
REMARK SMILES IDX 4 13 2 14 1 15
REMARK H PARENT
REMARK Flexibility Score: inf
ROOT
ATOM      1  C   UNL     1      -2.249 -14.721  11.852  1.00  0.00    -0.077 C 
ATOM      2  C   UNL     1      -2.234 -13.530  11.210  1.00  0.00    -0.024 C 
ATOM      3  C   UNL     1      -2.775 -14.765  13.263  1.00  0.00     0.039 C 
ENDROOT
BRANCH   1   4
ATOM      4  C   UNL     1      -1.739 -16.005  11.218  1.00  0.00     0.034 C 
BRANCH   4   5
ATOM      5  C   UNL     1      -2.765 -17.143  11.324  1.00  0.00     0.032 C 
BRANCH   5   6
ATOM      6  C   UNL     1      -4.058 -16.803  10.623  1.00  0.00    -0.028 C 
ATOM      7  C   UNL     1      -5.728 -16.819   8.821  1.00  0.00     0.039 C 
ATOM      8  C   UNL     1      -4.428 -17.293   9.419  1.00  0.00    -0.080 C 
ATOM      9  C   UNL     1      -3.590 -18.304   8.673  1.00  0.00     0.039 C 
ENDBRANCH   5   6
ENDBRANCH   4   5
ENDBRANCH   1   4
BRANCH   2  10
ATOM     10  C   UNL     1      -1.784 -13.330   9.784  1.00  0.00     0.055 C 
BRANCH  10  11
ATOM     11  C   UNL     1      -2.905 -13.610   8.816  1.00  0.00    -0.020 C 
ATOM     12  C   UNL     1      -2.839 -14.538   7.841  1.00  0.00    -0.055 C 
ATOM     13  C   UNL     1      -1.600 -15.380   7.628  1.00  0.00     0.044 C 
BRANCH  12  14
ATOM     14  C   UNL     1      -4.001 -14.667   6.923  1.00  0.00    -0.005 C 
ATOM     15  C   UNL     1      -5.018 -13.806   6.896  1.00  0.00     0.009 C 
ENDBRANCH  12  14
ENDBRANCH  10  11
ENDBRANCH   2  10
TORSDOF 6
ENDMDL
MODEL 3
REMARK VINA RESULT:    -7.082      1.446      2.103
REMARK INTER + INTRA:         -10.654
REMARK INTER:                  -9.505
REMARK INTRA:                  -1.149
REMARK UNBOUND:                -1.088
REMARK SMILES C=CC(C)=CCC=C(C)CCC=C(C)C
REMARK SMILES IDX 8 1 7 2 9 3 10 4 11 5 12 6 14 7 13 8 15 9 6 10 5 11 3 12
REMARK SMILES IDX 4 13 2 14 1 15
REMARK H PARENT
REMARK Flexibility Score: inf
ROOT
ATOM      1  C   UNL     1      -4.234 -16.632  10.789  1.00  0.00    -0.077 C 
ATOM      2  C   UNL     1      -3.677 -15.847  11.741  1.00  0.00    -0.024 C 
ATOM      3  C   UNL     1      -5.716 -16.511  10.542  1.00  0.00     0.039 C 
ENDROOT
BRANCH   1   4
ATOM      4  C   UNL     1      -3.435 -17.640   9.982  1.00  0.00     0.034 C 
BRANCH   4   5
ATOM      5  C   UNL     1      -2.676 -16.975   8.824  1.00  0.00     0.032 C 
BRANCH   5   6
ATOM      6  C   UNL     1      -3.578 -16.697   7.645  1.00  0.00    -0.028 C 
ATOM      7  C   UNL     1      -4.952 -15.355   6.113  1.00  0.00     0.039 C 
ATOM      8  C   UNL     1      -4.012 -15.469   7.285  1.00  0.00    -0.080 C 
ATOM      9  C   UNL     1      -3.569 -14.218   8.008  1.00  0.00     0.039 C 
ENDBRANCH   5   6
ENDBRANCH   4   5
ENDBRANCH   1   4
BRANCH   2  10
ATOM     10  C   UNL     1      -2.206 -15.817  12.073  1.00  0.00     0.055 C 
BRANCH  10  11
ATOM     11  C   UNL     1      -1.976 -16.050  13.544  1.00  0.00    -0.020 C 
ATOM     12  C   UNL     1      -1.495 -17.201  14.053  1.00  0.00    -0.055 C 
ATOM     13  C   UNL     1      -1.155 -18.381  13.169  1.00  0.00     0.044 C 
BRANCH  12  14
ATOM     14  C   UNL     1      -1.371 -17.311  15.531  1.00  0.00    -0.005 C 
ATOM     15  C   UNL     1      -0.249 -17.672  16.152  1.00  0.00     0.009 C 
ENDBRANCH  12  14
ENDBRANCH  10  11
ENDBRANCH   2  10
TORSDOF 6
ENDMDL
MODEL 4
REMARK VINA RESULT:    -7.032      1.765      3.874
REMARK INTER + INTRA:         -10.586
REMARK INTER:                  -8.768
REMARK INTRA:                  -1.818
REMARK UNBOUND:                -1.088
REMARK SMILES C=CC(C)=CCC=C(C)CCC=C(C)C
REMARK SMILES IDX 8 1 7 2 9 3 10 4 11 5 12 6 14 7 13 8 15 9 6 10 5 11 3 12
REMARK SMILES IDX 4 13 2 14 1 15
REMARK H PARENT
REMARK Flexibility Score: inf
ROOT
ATOM      1  C   UNL     1      -4.719 -16.169   7.740  1.00  0.00    -0.077 C 
ATOM      2  C   UNL     1      -5.513 -16.500   8.785  1.00  0.00    -0.024 C 
ATOM      3  C   UNL     1      -5.346 -15.473   6.559  1.00  0.00     0.039 C 
ENDROOT
BRANCH   1   4
ATOM      4  C   UNL     1      -3.234 -16.488   7.700  1.00  0.00     0.034 C 
BRANCH   4   5
ATOM      5  C   UNL     1      -2.392 -15.256   7.336  1.00  0.00     0.032 C 
BRANCH   5   6
ATOM      6  C   UNL     1      -2.435 -14.204   8.418  1.00  0.00    -0.028 C 
ATOM      7  C   UNL     1      -1.664 -12.941  10.379  1.00  0.00     0.039 C 
ATOM      8  C   UNL     1      -1.454 -13.997   9.324  1.00  0.00    -0.080 C 
ATOM      9  C   UNL     1      -0.160 -14.775   9.296  1.00  0.00     0.039 C 
ENDBRANCH   5   6
ENDBRANCH   4   5
ENDBRANCH   1   4
BRANCH   2  10
ATOM     10  C   UNL     1      -5.030 -17.156  10.054  1.00  0.00     0.055 C 
BRANCH  10  11
ATOM     11  C   UNL     1      -4.513 -16.131  11.032  1.00  0.00    -0.020 C 
ATOM     12  C   UNL     1      -3.266 -16.145  11.542  1.00  0.00    -0.055 C 
ATOM     13  C   UNL     1      -2.270 -17.224  11.178  1.00  0.00     0.044 C 
BRANCH  12  14
ATOM     14  C   UNL     1      -2.911 -15.102  12.541  1.00  0.00    -0.005 C 
ATOM     15  C   UNL     1      -2.382 -15.374  13.734  1.00  0.00     0.009 C 
ENDBRANCH  12  14
ENDBRANCH  10  11
ENDBRANCH   2  10
TORSDOF 6
ENDMDL
MODEL 5
REMARK VINA RESULT:    -7.028      3.038      5.915
REMARK INTER + INTRA:         -10.581
REMARK INTER:                  -9.895
REMARK INTRA:                  -0.685
REMARK UNBOUND:                -1.088
REMARK SMILES C=CC(C)=CCC=C(C)CCC=C(C)C
REMARK SMILES IDX 8 1 7 2 9 3 10 4 11 5 12 6 14 7 13 8 15 9 6 10 5 11 3 12
REMARK SMILES IDX 4 13 2 14 1 15
REMARK H PARENT
REMARK Flexibility Score: inf
ROOT
ATOM      1  C   UNL     1      -0.168 -17.917  15.041  1.00  0.00    -0.077 C 
ATOM      2  C   UNL     1       1.030 -18.162  15.622  1.00  0.00    -0.024 C 
ATOM      3  C   UNL     1      -1.217 -17.193  15.845  1.00  0.00     0.039 C 
ENDROOT
BRANCH   1   4
ATOM      4  C   UNL     1      -0.503 -18.360  13.627  1.00  0.00     0.034 C 
BRANCH   4   5
ATOM      5  C   UNL     1      -1.894 -17.876  13.190  1.00  0.00     0.032 C 
BRANCH   5   6
ATOM      6  C   UNL     1      -1.811 -16.816  12.119  1.00  0.00    -0.028 C 
ATOM      7  C   UNL     1      -2.301 -14.684  11.000  1.00  0.00     0.039 C 
ATOM      8  C   UNL     1      -2.439 -15.621  12.173  1.00  0.00    -0.080 C 
ATOM      9  C   UNL     1      -3.251 -15.196  13.373  1.00  0.00     0.039 C 
ENDBRANCH   5   6
ENDBRANCH   4   5
ENDBRANCH   1   4
BRANCH   2  10
ATOM     10  C   UNL     1       2.194 -18.832  14.936  1.00  0.00     0.055 C 
BRANCH  10  11
ATOM     11  C   UNL     1       3.449 -18.009  15.067  1.00  0.00    -0.020 C 
ATOM     12  C   UNL     1       4.258 -18.043  16.144  1.00  0.00    -0.055 C 
ATOM     13  C   UNL     1       3.954 -18.918  17.340  1.00  0.00     0.044 C 
BRANCH  12  14
ATOM     14  C   UNL     1       5.435 -17.134  16.161  1.00  0.00    -0.005 C 
ATOM     15  C   UNL     1       5.571 -16.120  17.014  1.00  0.00     0.009 C 
ENDBRANCH  12  14
ENDBRANCH  10  11
ENDBRANCH   2  10
TORSDOF 6
ENDMDL
MODEL 6
REMARK VINA RESULT:    -6.988      2.684      8.013
REMARK INTER + INTRA:         -10.526
REMARK INTER:                  -9.954
REMARK INTRA:                  -0.572
REMARK UNBOUND:                -1.088
REMARK SMILES C=CC(C)=CCC=C(C)CCC=C(C)C
REMARK SMILES IDX 8 1 7 2 9 3 10 4 11 5 12 6 14 7 13 8 15 9 6 10 5 11 3 12
REMARK SMILES IDX 4 13 2 14 1 15
REMARK H PARENT
REMARK Flexibility Score: inf
ROOT
ATOM      1  C   UNL     1       0.541 -18.229  14.356  1.00  0.00    -0.077 C 
ATOM      2  C   UNL     1      -0.613 -18.039  13.673  1.00  0.00    -0.024 C 
ATOM      3  C   UNL     1       1.706 -18.850  13.630  1.00  0.00     0.039 C 
ENDROOT
BRANCH   1   4
ATOM      4  C   UNL     1       0.699 -17.866  15.822  1.00  0.00     0.034 C 
BRANCH   4   5
ATOM      5  C   UNL     1       1.975 -18.470  16.428  1.00  0.00     0.032 C 
BRANCH   5   6
ATOM      6  C   UNL     1       3.007 -17.413  16.738  1.00  0.00    -0.028 C 
ATOM      7  C   UNL     1       5.218 -16.342  16.749  1.00  0.00     0.039 C 
ATOM      8  C   UNL     1       4.290 -17.447  16.314  1.00  0.00    -0.080 C 
ATOM      9  C   UNL     1       4.807 -18.541  15.410  1.00  0.00     0.039 C 
ENDBRANCH   5   6
ENDBRANCH   4   5
ENDBRANCH   1   4
BRANCH   2  10
ATOM     10  C   UNL     1      -1.848 -17.389  14.243  1.00  0.00     0.055 C 
BRANCH  10  11
ATOM     11  C   UNL     1      -2.015 -15.985  13.721  1.00  0.00    -0.020 C 
ATOM     12  C   UNL     1      -2.419 -15.695  12.468  1.00  0.00    -0.055 C 
ATOM     13  C   UNL     1      -2.729 -16.781  11.462  1.00  0.00     0.044 C 
BRANCH  12  14
ATOM     14  C   UNL     1      -2.486 -14.264  12.072  1.00  0.00    -0.005 C 
ATOM     15  C   UNL     1      -2.094 -13.809  10.882  1.00  0.00     0.009 C 
ENDBRANCH  12  14
ENDBRANCH  10  11
ENDBRANCH   2  10
TORSDOF 6
ENDMDL
MODEL 7
REMARK VINA RESULT:    -6.938      1.339      2.265
REMARK INTER + INTRA:         -10.459
REMARK INTER:                  -9.712
REMARK INTRA:                  -0.747
REMARK UNBOUND:                -1.088
REMARK SMILES C=CC(C)=CCC=C(C)CCC=C(C)C
REMARK SMILES IDX 8 1 7 2 9 3 10 4 11 5 12 6 14 7 13 8 15 9 6 10 5 11 3 12
REMARK SMILES IDX 4 13 2 14 1 15
REMARK H PARENT
REMARK Flexibility Score: inf
ROOT
ATOM      1  C   UNL     1      -2.497 -16.244  11.385  1.00  0.00    -0.077 C 
ATOM      2  C   UNL     1      -1.890 -16.541  12.557  1.00  0.00    -0.024 C 
ATOM      3  C   UNL     1      -2.437 -14.822  10.889  1.00  0.00     0.039 C 
ENDROOT
BRANCH   1   4
ATOM      4  C   UNL     1      -3.252 -17.276  10.564  1.00  0.00     0.034 C 
BRANCH   4   5
ATOM      5  C   UNL     1      -2.723 -17.362   9.124  1.00  0.00     0.032 C 
BRANCH   5   6
ATOM      6  C   UNL     1      -3.802 -17.072   8.109  1.00  0.00    -0.028 C 
ATOM      7  C   UNL     1      -4.997 -15.808   6.374  1.00  0.00     0.039 C 
ATOM      8  C   UNL     1      -3.823 -15.987   7.303  1.00  0.00    -0.080 C 
ATOM      9  C   UNL     1      -2.706 -14.971   7.296  1.00  0.00     0.039 C 
ENDBRANCH   5   6
ENDBRANCH   4   5
ENDBRANCH   1   4
BRANCH   2  10
ATOM     10  C   UNL     1      -1.821 -17.921  13.161  1.00  0.00     0.055 C 
BRANCH  10  11
ATOM     11  C   UNL     1      -0.421 -18.248  13.613  1.00  0.00    -0.020 C 
ATOM     12  C   UNL     1       0.039 -18.015  14.858  1.00  0.00    -0.055 C 
ATOM     13  C   UNL     1      -0.831 -17.377  15.919  1.00  0.00     0.044 C 
BRANCH  12  14
ATOM     14  C   UNL     1       1.461 -18.337  15.147  1.00  0.00    -0.005 C 
ATOM     15  C   UNL     1       2.054 -18.074  16.312  1.00  0.00     0.009 C 
ENDBRANCH  12  14
ENDBRANCH  10  11
ENDBRANCH   2  10
TORSDOF 6
ENDMDL
MODEL 8
REMARK VINA RESULT:    -6.909      1.327      6.855
REMARK INTER + INTRA:         -10.420
REMARK INTER:                  -9.598
REMARK INTRA:                  -0.822
REMARK UNBOUND:                -1.088
REMARK SMILES C=CC(C)=CCC=C(C)CCC=C(C)C
REMARK SMILES IDX 8 1 7 2 9 3 10 4 11 5 12 6 14 7 13 8 15 9 6 10 5 11 3 12
REMARK SMILES IDX 4 13 2 14 1 15
REMARK H PARENT
REMARK Flexibility Score: inf
ROOT
ATOM      1  C   UNL     1      -2.335 -15.829  12.222  1.00  0.00    -0.077 C 
ATOM      2  C   UNL     1      -2.351 -15.049  11.116  1.00  0.00    -0.024 C 
ATOM      3  C   UNL     1      -2.668 -15.195  13.548  1.00  0.00     0.039 C 
ENDROOT
BRANCH   1   4
ATOM      4  C   UNL     1      -1.973 -17.304  12.184  1.00  0.00     0.034 C 
BRANCH   4   5
ATOM      5  C   UNL     1      -1.589 -17.836  13.573  1.00  0.00     0.032 C 
BRANCH   5   6
ATOM      6  C   UNL     1      -0.163 -18.330  13.613  1.00  0.00    -0.028 C 
ATOM      7  C   UNL     1       2.076 -18.711  14.550  1.00  0.00     0.039 C 
ATOM      8  C   UNL     1       0.658 -18.215  14.679  1.00  0.00    -0.080 C 
ATOM      9  C   UNL     1       0.193 -17.626  15.990  1.00  0.00     0.039 C 
ENDBRANCH   5   6
ENDBRANCH   4   5
ENDBRANCH   1   4
BRANCH   2  10
ATOM     10  C   UNL     1      -2.087 -15.543   9.716  1.00  0.00     0.055 C 
BRANCH  10  11
ATOM     11  C   UNL     1      -3.314 -15.406   8.851  1.00  0.00    -0.020 C 
ATOM     12  C   UNL     1      -3.979 -16.452   8.323  1.00  0.00    -0.055 C 
ATOM     13  C   UNL     1      -3.526 -17.877   8.548  1.00  0.00     0.044 C 
BRANCH  12  14
ATOM     14  C   UNL     1      -5.142 -16.165   7.442  1.00  0.00    -0.005 C 
ATOM     15  C   UNL     1      -5.058 -15.454   6.318  1.00  0.00     0.009 C 
ENDBRANCH  12  14
ENDBRANCH  10  11
ENDBRANCH   2  10
TORSDOF 6
ENDMDL
MODEL 9
REMARK VINA RESULT:    -6.852      1.796      3.390
REMARK INTER + INTRA:         -10.343
REMARK INTER:                  -9.599
REMARK INTRA:                  -0.745
REMARK UNBOUND:                -1.088
REMARK SMILES C=CC(C)=CCC=C(C)CCC=C(C)C
REMARK SMILES IDX 8 1 7 2 9 3 10 4 11 5 12 6 14 7 13 8 15 9 6 10 5 11 3 12
REMARK SMILES IDX 4 13 2 14 1 15
REMARK H PARENT
REMARK Flexibility Score: inf
ROOT
ATOM      1  C   UNL     1      -2.129 -15.956  13.441  1.00  0.00    -0.077 C 
ATOM      2  C   UNL     1      -1.646 -16.564  14.549  1.00  0.00    -0.024 C 
ATOM      3  C   UNL     1      -2.751 -14.591  13.589  1.00  0.00     0.039 C 
ENDROOT
BRANCH   1   4
ATOM      4  C   UNL     1      -2.092 -16.600  12.066  1.00  0.00     0.034 C 
BRANCH   4   5
ATOM      5  C   UNL     1      -3.262 -16.137  11.184  1.00  0.00     0.032 C 
BRANCH   5   6
ATOM      6  C   UNL     1      -2.882 -16.087   9.724  1.00  0.00    -0.028 C 
ATOM      7  C   UNL     1      -2.157 -15.072   7.607  1.00  0.00     0.039 C 
ATOM      8  C   UNL     1      -2.450 -14.978   9.083  1.00  0.00    -0.080 C 
ATOM      9  C   UNL     1      -2.239 -13.667   9.802  1.00  0.00     0.039 C 
ENDBRANCH   5   6
ENDBRANCH   4   5
ENDBRANCH   1   4
BRANCH   2  10
ATOM     10  C   UNL     1      -0.956 -17.905  14.559  1.00  0.00     0.055 C 
BRANCH  10  11
ATOM     11  C   UNL     1       0.192 -17.919  15.536  1.00  0.00    -0.020 C 
ATOM     12  C   UNL     1       1.446 -18.290  15.214  1.00  0.00    -0.055 C 
ATOM     13  C   UNL     1       1.806 -18.747  13.817  1.00  0.00     0.044 C 
BRANCH  12  14
ATOM     14  C   UNL     1       2.467 -18.308  16.294  1.00  0.00    -0.005 C 
ATOM     15  C   UNL     1       3.746 -18.626  16.096  1.00  0.00     0.009 C 
ENDBRANCH  12  14
ENDBRANCH  10  11
ENDBRANCH   2  10
TORSDOF 6
ENDMDL
