MODEL 1
REMARK VINA RESULT:    -3.332      0.000      0.000
REMARK INTER + INTRA:          -3.624
REMARK INTER:                  -3.624
REMARK INTRA:                   0.000
REMARK UNBOUND:                 0.000
REMARK SMILES [NH3+]CC(=O)[O-]
REMARK SMILES IDX 2 1 1 2 3 6 4 7 5 8
REMARK H PARENT 1 3 1 4 1 5
REMARK Flexibility Score: inf
ROOT
ATOM      1  C   UNL     1      24.855   4.596  15.812  1.00  0.00     0.312 C 
ENDROOT
BRANCH   1   2
ATOM      2  N   UNL     1      24.215   3.891  16.921  1.00  0.00    -0.353 N 
ATOM      3  H   UNL     1      24.485   4.332  17.831  1.00  0.00     0.344 HD
ATOM      4  H   UNL     1      23.177   3.952  16.812  1.00  0.00     0.344 HD
ATOM      5  H   UNL     1      24.497   2.884  16.918  1.00  0.00     0.344 HD
ENDBRANCH   1   2
BRANCH   1   6
ATOM      6  C   UNL     1      23.841   5.351  15.010  1.00  0.00     0.096 C 
ATOM      7  O   UNL     1      22.649   5.427  15.406  1.00  0.00    -0.544 OA
ATOM      8  O   UNL     1      24.201   5.925  13.797  1.00  0.00    -0.544 OA
ENDBRANCH   1   6
TORSDOF 2
ENDMDL
MODEL 2
REMARK VINA RESULT:    -3.322      0.111      1.453
REMARK INTER + INTRA:          -3.613
REMARK INTER:                  -3.613
REMARK INTRA:                   0.000
REMARK UNBOUND:                 0.000
REMARK SMILES [NH3+]CC(=O)[O-]
REMARK SMILES IDX 2 1 1 2 3 6 4 7 5 8
REMARK H PARENT 1 3 1 4 1 5
REMARK Flexibility Score: inf
ROOT
ATOM      1  C   UNL     1      24.898   4.661  15.763  1.00  0.00     0.312 C 
ENDROOT
BRANCH   1   2
ATOM      2  N   UNL     1      24.308   3.906  16.866  1.00  0.00    -0.353 N 
ATOM      3  H   UNL     1      24.162   2.909  16.582  1.00  0.00     0.344 HD
ATOM      4  H   UNL     1      24.958   3.931  17.685  1.00  0.00     0.344 HD
ATOM      5  H   UNL     1      23.395   4.332  17.145  1.00  0.00     0.344 HD
ENDBRANCH   1   2
BRANCH   1   6
ATOM      6  C   UNL     1      23.839   5.384  14.991  1.00  0.00     0.096 C 
ATOM      7  O   UNL     1      24.122   5.946  13.901  1.00  0.00    -0.544 OA
ATOM      8  O   UNL     1      22.551   5.482  15.502  1.00  0.00    -0.544 OA
ENDBRANCH   1   6
TORSDOF 2
ENDMDL
MODEL 3
REMARK VINA RESULT:    -3.217      2.420      2.562
REMARK INTER + INTRA:          -3.499
REMARK INTER:                  -3.499
REMARK INTRA:                   0.000
REMARK UNBOUND:                 0.000
REMARK SMILES [NH3+]CC(=O)[O-]
REMARK SMILES IDX 2 1 1 2 3 6 4 7 5 8
REMARK H PARENT 1 3 1 4 1 5
REMARK Flexibility Score: inf
ROOT
ATOM      1  C   UNL     1      24.347   6.473  14.354  1.00  0.00     0.312 C 
ENDROOT
BRANCH   1   2
ATOM      2  N   UNL     1      24.379   6.134  12.933  1.00  0.00    -0.353 N 
ATOM      3  H   UNL     1      25.368   6.009  12.615  1.00  0.00     0.344 HD
ATOM      4  H   UNL     1      23.860   5.238  12.782  1.00  0.00     0.344 HD
ATOM      5  H   UNL     1      23.920   6.889  12.373  1.00  0.00     0.344 HD
ENDBRANCH   1   2
BRANCH   1   6
ATOM      6  C   UNL     1      23.705   5.376  15.145  1.00  0.00     0.096 C 
ATOM      7  O   UNL     1      22.492   5.457  15.471  1.00  0.00    -0.544 OA
ATOM      8  O   UNL     1      24.460   4.289  15.566  1.00  0.00    -0.544 OA
ENDBRANCH   1   6
TORSDOF 2
ENDMDL
MODEL 4
REMARK VINA RESULT:    -3.196      2.402      2.738
REMARK INTER + INTRA:          -3.476
REMARK INTER:                  -3.476
REMARK INTRA:                   0.000
REMARK UNBOUND:                 0.000
REMARK SMILES [NH3+]CC(=O)[O-]
REMARK SMILES IDX 2 1 1 2 3 6 4 7 5 8
REMARK H PARENT 1 3 1 4 1 5
REMARK Flexibility Score: inf
ROOT
ATOM      1  C   UNL     1      24.356   6.480  14.354  1.00  0.00     0.312 C 
ENDROOT
BRANCH   1   2
ATOM      2  N   UNL     1      24.380   6.151  12.930  1.00  0.00    -0.353 N 
ATOM      3  H   UNL     1      23.669   6.723  12.417  1.00  0.00     0.344 HD
ATOM      4  H   UNL     1      25.328   6.367  12.545  1.00  0.00     0.344 HD
ATOM      5  H   UNL     1      24.182   5.134  12.793  1.00  0.00     0.344 HD
ENDBRANCH   1   2
BRANCH   1   6
ATOM      6  C   UNL     1      23.691   5.391  15.137  1.00  0.00     0.096 C 
ATOM      7  O   UNL     1      24.329   4.348  15.438  1.00  0.00    -0.544 OA
ATOM      8  O   UNL     1      22.353   5.505  15.490  1.00  0.00    -0.544 OA
ENDBRANCH   1   6
TORSDOF 2
ENDMDL
MODEL 5
REMARK VINA RESULT:    -3.146      1.886      1.986
REMARK INTER + INTRA:          -3.422
REMARK INTER:                  -3.422
REMARK INTRA:                   0.000
REMARK UNBOUND:                 0.000
REMARK SMILES [NH3+]CC(=O)[O-]
REMARK SMILES IDX 2 1 1 2 3 6 4 7 5 8
REMARK H PARENT 1 3 1 4 1 5
REMARK Flexibility Score: inf
ROOT
ATOM      1  C   UNL     1      23.934   5.764  14.495  1.00  0.00     0.312 C 
ENDROOT
BRANCH   1   2
ATOM      2  N   UNL     1      23.910   4.339  14.819  1.00  0.00    -0.353 N 
ATOM      3  H   UNL     1      23.908   4.206  15.857  1.00  0.00     0.344 HD
ATOM      4  H   UNL     1      23.041   3.913  14.422  1.00  0.00     0.344 HD
ATOM      5  H   UNL     1      24.742   3.862  14.402  1.00  0.00     0.344 HD
ENDBRANCH   1   2
BRANCH   1   6
ATOM      6  C   UNL     1      22.791   6.475  15.151  1.00  0.00     0.096 C 
ATOM      7  O   UNL     1      21.814   5.822  15.601  1.00  0.00    -0.544 OA
ATOM      8  O   UNL     1      22.782   7.862  15.219  1.00  0.00    -0.544 OA
ENDBRANCH   1   6
TORSDOF 2
ENDMDL
MODEL 6
REMARK VINA RESULT:    -3.142      3.210      3.483
REMARK INTER + INTRA:          -3.418
REMARK INTER:                  -3.418
REMARK INTRA:                   0.000
REMARK UNBOUND:                 0.000
REMARK SMILES [NH3+]CC(=O)[O-]
REMARK SMILES IDX 2 1 1 2 3 6 4 7 5 8
REMARK H PARENT 1 3 1 4 1 5
REMARK Flexibility Score: inf
ROOT
ATOM      1  C   UNL     1      22.361   8.329  15.366  1.00  0.00     0.312 C 
ENDROOT
BRANCH   1   2
ATOM      2  N   UNL     1      23.245   9.295  14.715  1.00  0.00    -0.353 N 
ATOM      3  H   UNL     1      22.762  10.220  14.626  1.00  0.00     0.344 HD
ATOM      4  H   UNL     1      24.105   9.418  15.296  1.00  0.00     0.344 HD
ATOM      5  H   UNL     1      23.522   8.947  13.769  1.00  0.00     0.344 HD
ENDBRANCH   1   2
BRANCH   1   6
ATOM      6  C   UNL     1      22.827   6.930  15.109  1.00  0.00     0.096 C 
ATOM      7  O   UNL     1      22.103   5.952  15.433  1.00  0.00    -0.544 OA
ATOM      8  O   UNL     1      24.084   6.705  14.561  1.00  0.00    -0.544 OA
ENDBRANCH   1   6
TORSDOF 2
ENDMDL
MODEL 7
REMARK VINA RESULT:    -3.126      1.864      2.286
REMARK INTER + INTRA:          -3.400
REMARK INTER:                  -3.400
REMARK INTRA:                   0.000
REMARK UNBOUND:                 0.000
REMARK SMILES [NH3+]CC(=O)[O-]
REMARK SMILES IDX 2 1 1 2 3 6 4 7 5 8
REMARK H PARENT 1 3 1 4 1 5
REMARK Flexibility Score: inf
ROOT
ATOM      1  C   UNL     1      23.934   5.770  14.534  1.00  0.00     0.312 C 
ENDROOT
BRANCH   1   2
ATOM      2  N   UNL     1      23.875   4.342  14.839  1.00  0.00    -0.353 N 
ATOM      3  H   UNL     1      24.397   3.798  14.114  1.00  0.00     0.344 HD
ATOM      4  H   UNL     1      24.317   4.172  15.772  1.00  0.00     0.344 HD
ATOM      5  H   UNL     1      22.880   4.022  14.873  1.00  0.00     0.344 HD
ENDBRANCH   1   2
BRANCH   1   6
ATOM      6  C   UNL     1      22.762   6.486  15.130  1.00  0.00     0.096 C 
ATOM      7  O   UNL     1      22.759   7.743  15.204  1.00  0.00    -0.544 OA
ATOM      8  O   UNL     1      21.695   5.763  15.649  1.00  0.00    -0.544 OA
ENDBRANCH   1   6
TORSDOF 2
ENDMDL
MODEL 8
REMARK VINA RESULT:    -3.031      2.293      2.526
REMARK INTER + INTRA:          -3.297
REMARK INTER:                  -3.297
REMARK INTRA:                   0.000
REMARK UNBOUND:                 0.000
REMARK SMILES [NH3+]CC(=O)[O-]
REMARK SMILES IDX 2 1 1 2 3 6 4 7 5 8
REMARK H PARENT 1 3 1 4 1 5
REMARK Flexibility Score: inf
ROOT
ATOM      1  C   UNL     1      22.226   5.960  15.521  1.00  0.00     0.312 C 
ENDROOT
BRANCH   1   2
ATOM      2  N   UNL     1      22.031   7.377  15.220  1.00  0.00    -0.353 N 
ATOM      3  H   UNL     1      22.938   7.810  14.928  1.00  0.00     0.344 HD
ATOM      4  H   UNL     1      21.345   7.470  14.436  1.00  0.00     0.344 HD
ATOM      5  H   UNL     1      21.655   7.874  16.060  1.00  0.00     0.344 HD
ENDBRANCH   1   2
BRANCH   1   6
ATOM      6  C   UNL     1      23.554   5.490  15.016  1.00  0.00     0.096 C 
ATOM      7  O   UNL     1      24.186   4.593  15.634  1.00  0.00    -0.544 OA
ATOM      8  O   UNL     1      24.119   6.079  13.892  1.00  0.00    -0.544 OA
ENDBRANCH   1   6
TORSDOF 2
ENDMDL
MODEL 9
REMARK VINA RESULT:    -2.856      2.771      3.058
REMARK INTER + INTRA:          -3.107
REMARK INTER:                  -3.107
REMARK INTRA:                   0.000
REMARK UNBOUND:                 0.000
REMARK SMILES [NH3+]CC(=O)[O-]
REMARK SMILES IDX 2 1 1 2 3 6 4 7 5 8
REMARK H PARENT 1 3 1 4 1 5
REMARK Flexibility Score: inf
ROOT
ATOM      1  C   UNL     1      22.425   6.718  15.347  1.00  0.00     0.312 C 
ENDROOT
BRANCH   1   2
ATOM      2  N   UNL     1      21.846   8.046  15.153  1.00  0.00    -0.353 N 
ATOM      3  H   UNL     1      21.849   8.575  16.057  1.00  0.00     0.344 HD
ATOM      4  H   UNL     1      22.418   8.571  14.453  1.00  0.00     0.344 HD
ATOM      5  H   UNL     1      20.867   7.963  14.795  1.00  0.00     0.344 HD
ENDBRANCH   1   2
BRANCH   1   6
ATOM      6  C   UNL     1      23.777   6.633  14.710  1.00  0.00     0.096 C 
ATOM      7  O   UNL     1      24.112   5.602  14.071  1.00  0.00    -0.544 OA
ATOM      8  O   UNL     1      24.686   7.671  14.868  1.00  0.00    -0.544 OA
ENDBRANCH   1   6
TORSDOF 2
ENDMDL
