MODEL 1
REMARK VINA RESULT:    -4.922      0.000      0.000
REMARK INTER + INTRA:          -6.065
REMARK INTER:                  -5.786
REMARK INTRA:                  -0.279
REMARK UNBOUND:                -0.279
REMARK SMILES O=c1cc(-c2ccc(O)c(O)c2)oc2cc(O)cc(O)c12
REMARK SMILES IDX 4 1 3 2 2 3 1 4 21 5 19 6 18 7 16 8 15 9 14 10 13 11 5 12
REMARK SMILES IDX 6 13 7 14 8 15 12 16 10 17 9 18 11 20 20 22 17 24
REMARK H PARENT 9 19 11 21 20 23 17 25
REMARK Flexibility Score: inf
ROOT
ATOM      1  C   UNL     1      59.056  21.819  22.411  1.00  0.00     0.138 A 
ATOM      2  C   UNL     1      60.000  21.417  23.367  1.00  0.00     0.100 A 
ATOM      3  C   UNL     1      61.342  21.294  23.003  1.00  0.00     0.197 A 
ATOM      4  O   UNL     1      62.174  20.992  23.896  1.00  0.00    -0.289 OA
ATOM      5  C   UNL     1      61.733  21.544  21.666  1.00  0.00     0.107 A 
ATOM      6  C   UNL     1      63.065  21.411  21.171  1.00  0.00     0.134 A 
ATOM      7  C   UNL     1      63.354  21.799  19.857  1.00  0.00     0.093 A 
ATOM      8  C   UNL     1      62.349  22.258  19.003  1.00  0.00     0.123 A 
ATOM      9  C   UNL     1      61.036  22.340  19.460  1.00  0.00     0.094 A 
ATOM     10  C   UNL     1      60.722  21.993  20.776  1.00  0.00     0.146 A 
ATOM     11  O   UNL     1      59.459  22.101  21.177  1.00  0.00    -0.456 OA
ENDROOT
BRANCH   1  12
ATOM     12  C   UNL     1      57.616  21.965  22.745  1.00  0.00     0.021 A 
ATOM     13  C   UNL     1      56.849  20.875  23.201  1.00  0.00     0.016 A 
ATOM     14  C   UNL     1      55.493  21.039  23.497  1.00  0.00     0.051 A 
ATOM     15  C   UNL     1      54.880  22.288  23.337  1.00  0.00     0.157 A 
ATOM     16  C   UNL     1      56.989  23.212  22.575  1.00  0.00     0.062 A 
ATOM     17  C   UNL     1      55.628  23.376  22.873  1.00  0.00     0.158 A 
BRANCH  15  18
ATOM     18  O   UNL     1      53.528  22.454  23.633  1.00  0.00    -0.504 OA
ATOM     19  H   UNL     1      53.218  22.724  24.559  1.00  0.00     0.293 HD
ENDBRANCH  15  18
BRANCH  17  20
ATOM     20  O   UNL     1      55.015  24.616  22.711  1.00  0.00    -0.504 OA
ATOM     21  H   UNL     1      54.310  24.949  23.358  1.00  0.00     0.293 HD
ENDBRANCH  17  20
ENDBRANCH   1  12
BRANCH   6  22
ATOM     22  O   UNL     1      64.125  20.884  21.915  1.00  0.00    -0.507 OA
ATOM     23  H   UNL     1      64.154  20.831  22.921  1.00  0.00     0.293 HD
ENDBRANCH   6  22
BRANCH   8  24
ATOM     24  O   UNL     1      62.644  22.627  17.692  1.00  0.00    -0.508 OA
ATOM     25  H   UNL     1      62.728  23.600  17.421  1.00  0.00     0.293 HD
ENDBRANCH   8  24
TORSDOF 5
ENDMDL
MODEL 2
REMARK VINA RESULT:    -4.463      2.261      2.722
REMARK INTER + INTRA:          -5.525
REMARK INTER:                  -5.231
REMARK INTRA:                  -0.294
REMARK UNBOUND:                -0.279
REMARK SMILES O=c1cc(-c2ccc(O)c(O)c2)oc2cc(O)cc(O)c12
REMARK SMILES IDX 4 1 3 2 2 3 1 4 21 5 19 6 18 7 16 8 15 9 14 10 13 11 5 12
REMARK SMILES IDX 6 13 7 14 8 15 12 16 10 17 9 18 11 20 20 22 17 24
REMARK H PARENT 9 19 11 21 20 23 17 25
REMARK Flexibility Score: inf
ROOT
ATOM      1  C   UNL     1      59.211  22.504  22.461  1.00  0.00     0.138 A 
ATOM      2  C   UNL     1      59.942  21.587  21.692  1.00  0.00     0.100 A 
ATOM      3  C   UNL     1      61.294  21.824  21.436  1.00  0.00     0.197 A 
ATOM      4  O   UNL     1      61.938  20.953  20.797  1.00  0.00    -0.289 OA
ATOM      5  C   UNL     1      61.906  23.002  21.926  1.00  0.00     0.107 A 
ATOM      6  C   UNL     1      63.266  23.368  21.693  1.00  0.00     0.134 A 
ATOM      7  C   UNL     1      63.793  24.500  22.326  1.00  0.00     0.093 A 
ATOM      8  C   UNL     1      62.995  25.312  23.135  1.00  0.00     0.123 A 
ATOM      9  C   UNL     1      61.652  24.993  23.325  1.00  0.00     0.094 A 
ATOM     10  C   UNL     1      61.105  23.851  22.735  1.00  0.00     0.146 A 
ATOM     11  O   UNL     1      59.824  23.574  22.955  1.00  0.00    -0.456 OA
ENDROOT
BRANCH   1  12
ATOM     12  C   UNL     1      57.770  22.302  22.762  1.00  0.00     0.021 A 
ATOM     13  C   UNL     1      57.261  21.039  23.120  1.00  0.00     0.016 A 
ATOM     14  C   UNL     1      55.899  20.875  23.389  1.00  0.00     0.051 A 
ATOM     15  C   UNL     1      55.024  21.965  23.297  1.00  0.00     0.157 A 
ATOM     16  C   UNL     1      56.883  23.388  22.661  1.00  0.00     0.062 A 
ATOM     17  C   UNL     1      55.517  23.223  22.932  1.00  0.00     0.158 A 
BRANCH  15  18
ATOM     18  O   UNL     1      53.667  21.805  23.566  1.00  0.00    -0.504 OA
ATOM     19  H   UNL     1      53.312  21.790  24.515  1.00  0.00     0.293 HD
ENDBRANCH  15  18
BRANCH  17  20
ATOM     20  O   UNL     1      54.644  24.306  22.839  1.00  0.00    -0.504 OA
ATOM     21  H   UNL     1      53.677  24.185  22.559  1.00  0.00     0.293 HD
ENDBRANCH  17  20
ENDBRANCH   1  12
BRANCH   6  22
ATOM     22  O   UNL     1      64.125  22.675  20.835  1.00  0.00    -0.507 OA
ATOM     23  H   UNL     1      64.095  21.681  20.669  1.00  0.00     0.293 HD
ENDBRANCH   6  22
BRANCH   8  24
ATOM     24  O   UNL     1      63.525  26.445  23.748  1.00  0.00    -0.508 OA
ATOM     25  H   UNL     1      63.808  26.438  24.722  1.00  0.00     0.293 HD
ENDBRANCH   8  24
TORSDOF 5
ENDMDL
MODEL 3
REMARK VINA RESULT:    -3.450      1.465      1.801
REMARK INTER + INTRA:          -4.334
REMARK INTER:                  -4.066
REMARK INTRA:                  -0.268
REMARK UNBOUND:                -0.279
REMARK SMILES O=c1cc(-c2ccc(O)c(O)c2)oc2cc(O)cc(O)c12
REMARK SMILES IDX 4 1 3 2 2 3 1 4 21 5 19 6 18 7 16 8 15 9 14 10 13 11 5 12
REMARK SMILES IDX 6 13 7 14 8 15 12 16 10 17 9 18 11 20 20 22 17 24
REMARK H PARENT 9 19 11 21 20 23 17 25
REMARK Flexibility Score: inf
ROOT
ATOM      1  C   UNL     1      59.104  22.119  23.551  1.00  0.00     0.138 A 
ATOM      2  C   UNL     1      59.715  21.996  24.807  1.00  0.00     0.100 A 
ATOM      3  C   UNL     1      61.108  22.034  24.903  1.00  0.00     0.197 A 
ATOM      4  O   UNL     1      61.624  21.984  26.049  1.00  0.00    -0.289 OA
ATOM      5  C   UNL     1      61.890  22.162  23.731  1.00  0.00     0.107 A 
ATOM      6  C   UNL     1      63.317  22.170  23.705  1.00  0.00     0.134 A 
ATOM      7  C   UNL     1      63.983  22.421  22.498  1.00  0.00     0.093 A 
ATOM      8  C   UNL     1      63.274  22.603  21.308  1.00  0.00     0.123 A 
ATOM      9  C   UNL     1      61.883  22.543  21.315  1.00  0.00     0.094 A 
ATOM     10  C   UNL     1      61.189  22.329  22.508  1.00  0.00     0.146 A 
ATOM     11  O   UNL     1      59.861  22.294  22.473  1.00  0.00    -0.456 OA
ENDROOT
BRANCH   1  12
ATOM     12  C   UNL     1      57.628  22.085  23.391  1.00  0.00     0.021 A 
ATOM     13  C   UNL     1      56.904  20.879  23.462  1.00  0.00     0.016 A 
ATOM     14  C   UNL     1      55.517  20.875  23.298  1.00  0.00     0.051 A 
ATOM     15  C   UNL     1      54.830  22.071  23.053  1.00  0.00     0.157 A 
ATOM     16  C   UNL     1      56.932  23.279  23.132  1.00  0.00     0.062 A 
ATOM     17  C   UNL     1      55.539  23.275  22.968  1.00  0.00     0.158 A 
BRANCH  15  18
ATOM     18  O   UNL     1      53.446  22.070  22.890  1.00  0.00    -0.504 OA
ATOM     19  H   UNL     1      53.018  22.257  21.991  1.00  0.00     0.293 HD
ENDBRANCH  15  18
BRANCH  17  20
ATOM     20  O   UNL     1      54.855  24.463  22.720  1.00  0.00    -0.504 OA
ATOM     21  H   UNL     1      54.050  24.494  22.104  1.00  0.00     0.293 HD
ENDBRANCH  17  20
ENDBRANCH   1  12
BRANCH   6  22
ATOM     22  O   UNL     1      64.121  21.915  24.820  1.00  0.00    -0.507 OA
ATOM     23  H   UNL     1      64.512  21.016  25.056  1.00  0.00     0.293 HD
ENDBRANCH   6  22
BRANCH   8  24
ATOM     24  O   UNL     1      63.946  22.837  20.110  1.00  0.00    -0.508 OA
ATOM     25  H   UNL     1      64.501  23.673  19.967  1.00  0.00     0.293 HD
ENDBRANCH   8  24
TORSDOF 5
ENDMDL
MODEL 4
REMARK VINA RESULT:    -2.989      3.117      3.221
REMARK INTER + INTRA:          -3.793
REMARK INTER:                  -3.486
REMARK INTRA:                  -0.307
REMARK UNBOUND:                -0.279
REMARK SMILES O=c1cc(-c2ccc(O)c(O)c2)oc2cc(O)cc(O)c12
REMARK SMILES IDX 4 1 3 2 2 3 1 4 21 5 19 6 18 7 16 8 15 9 14 10 13 11 5 12
REMARK SMILES IDX 6 13 7 14 8 15 12 16 10 17 9 18 11 20 20 22 17 24
REMARK H PARENT 9 19 11 21 20 23 17 25
REMARK Flexibility Score: inf
ROOT
ATOM      1  C   UNL     1      59.175  22.558  24.022  1.00  0.00     0.138 A 
ATOM      2  C   UNL     1      59.868  21.651  24.836  1.00  0.00     0.100 A 
ATOM      3  C   UNL     1      61.202  21.899  25.165  1.00  0.00     0.197 A 
ATOM      4  O   UNL     1      61.778  21.101  25.948  1.00  0.00    -0.289 OA
ATOM      5  C   UNL     1      61.852  23.045  24.649  1.00  0.00     0.107 A 
ATOM      6  C   UNL     1      63.220  23.378  24.884  1.00  0.00     0.134 A 
ATOM      7  C   UNL     1      63.722  24.599  24.416  1.00  0.00     0.093 A 
ATOM      8  C   UNL     1      62.923  25.470  23.672  1.00  0.00     0.123 A 
ATOM      9  C   UNL     1      61.602  25.129  23.391  1.00  0.00     0.094 A 
ATOM     10  C   UNL     1      61.062  23.934  23.873  1.00  0.00     0.146 A 
ATOM     11  O   UNL     1      59.793  23.654  23.595  1.00  0.00    -0.456 OA
ENDROOT
BRANCH   1  12
ATOM     12  C   UNL     1      57.756  22.342  23.640  1.00  0.00     0.021 A 
ATOM     13  C   UNL     1      57.215  21.048  23.503  1.00  0.00     0.016 A 
ATOM     14  C   UNL     1      55.879  20.875  23.133  1.00  0.00     0.051 A 
ATOM     15  C   UNL     1      55.064  21.987  22.886  1.00  0.00     0.157 A 
ATOM     16  C   UNL     1      56.933  23.452  23.378  1.00  0.00     0.062 A 
ATOM     17  C   UNL     1      55.592  23.277  23.007  1.00  0.00     0.158 A 
BRANCH  15  18
ATOM     18  O   UNL     1      53.731  21.816  22.518  1.00  0.00    -0.504 OA
ATOM     19  H   UNL     1      53.424  21.941  21.560  1.00  0.00     0.293 HD
ENDBRANCH  15  18
BRANCH  17  20
ATOM     20  O   UNL     1      54.780  24.382  22.757  1.00  0.00    -0.504 OA
ATOM     21  H   UNL     1      54.793  24.859  21.863  1.00  0.00     0.293 HD
ENDBRANCH  17  20
ENDBRANCH   1  12
BRANCH   6  22
ATOM     22  O   UNL     1      64.125  22.541  25.542  1.00  0.00    -0.507 OA
ATOM     23  H   UNL     1      63.970  21.564  25.737  1.00  0.00     0.293 HD
ENDBRANCH   6  22
BRANCH   8  24
ATOM     24  O   UNL     1      63.437  26.675  23.198  1.00  0.00    -0.508 OA
ATOM     25  H   UNL     1      63.573  27.472  23.811  1.00  0.00     0.293 HD
ENDBRANCH   8  24
TORSDOF 5
ENDMDL
