MODEL 1
REMARK VINA RESULT:    -4.226      0.000      0.000
REMARK INTER + INTRA:          -5.217
REMARK INTER:                  -5.090
REMARK INTRA:                  -0.127
REMARK UNBOUND:                -0.127
REMARK SMILES CC[C@@H](C)[C@H]([NH3+])C(=O)[O-]
REMARK SMILES IDX 3 1 4 2 5 3 6 4 7 8 8 9 9 10 2 11 1 12
REMARK H PARENT 6 5 6 6 6 7
REMARK Flexibility Score: inf
ROOT
ATOM      1  C   UNL     1     -32.848  51.633 -52.200  1.00  0.00     0.050 C 
ATOM      2  C   UNL     1     -31.694  51.884 -53.189  1.00  0.00     0.014 C 
ENDROOT
BRANCH   1   3
ATOM      3  C   UNL     1     -33.285  50.134 -52.184  1.00  0.00     0.230 C 
BRANCH   3   4
ATOM      4  N   UNL     1     -32.281  49.272 -52.827  1.00  0.00    -0.350 N 
ATOM      5  H   UNL     1     -32.248  48.341 -52.356  1.00  0.00     0.345 HD
ATOM      6  H   UNL     1     -32.540  49.104 -53.826  1.00  0.00     0.345 HD
ATOM      7  H   UNL     1     -31.334  49.715 -52.792  1.00  0.00     0.345 HD
ENDBRANCH   3   4
BRANCH   3   8
ATOM      8  C   UNL     1     -34.612  49.951 -52.876  1.00  0.00     0.099 C 
ATOM      9  O   UNL     1     -35.664  49.800 -52.201  1.00  0.00    -0.544 OA
ATOM     10  O   UNL     1     -34.682  49.948 -54.265  1.00  0.00    -0.544 OA
ENDBRANCH   3   8
ENDBRANCH   1   3
BRANCH   1  11
ATOM     11  C   UNL     1     -32.495  52.188 -50.793  1.00  0.00     0.006 C 
ATOM     12  C   UNL     1     -32.542  51.147 -49.670  1.00  0.00     0.004 C 
ENDBRANCH   1  11
TORSDOF 4
ENDMDL
MODEL 2
REMARK VINA RESULT:    -4.160     12.090     13.262
REMARK INTER + INTRA:          -5.138
REMARK INTER:                  -5.088
REMARK INTRA:                  -0.050
REMARK UNBOUND:                -0.127
REMARK SMILES CC[C@@H](C)[C@H]([NH3+])C(=O)[O-]
REMARK SMILES IDX 3 1 4 2 5 3 6 4 7 8 8 9 9 10 2 11 1 12
REMARK H PARENT 6 5 6 6 6 7
REMARK Flexibility Score: inf
ROOT
ATOM      1  C   UNL     1     -41.375  40.332 -50.175  1.00  0.00     0.050 C 
ATOM      2  C   UNL     1     -40.946  40.465 -48.702  1.00  0.00     0.014 C 
ENDROOT
BRANCH   1   3
ATOM      3  C   UNL     1     -41.252  41.687 -50.941  1.00  0.00     0.230 C 
BRANCH   3   4
ATOM      4  N   UNL     1     -41.347  42.835 -50.027  1.00  0.00    -0.350 N 
ATOM      5  H   UNL     1     -41.829  43.634 -50.497  1.00  0.00     0.345 HD
ATOM      6  H   UNL     1     -41.918  42.579 -49.189  1.00  0.00     0.345 HD
ATOM      7  H   UNL     1     -40.397  43.138 -49.710  1.00  0.00     0.345 HD
ENDBRANCH   3   4
BRANCH   3   8
ATOM      8  C   UNL     1     -42.317  41.807 -52.002  1.00  0.00     0.099 C 
ATOM      9  O   UNL     1     -42.384  42.838 -52.721  1.00  0.00    -0.544 OA
ATOM     10  O   UNL     1     -43.233  40.778 -52.191  1.00  0.00    -0.544 OA
ENDBRANCH   3   8
ENDBRANCH   1   3
BRANCH   1  11
ATOM     11  C   UNL     1     -40.620  39.163 -50.864  1.00  0.00     0.006 C 
ATOM     12  C   UNL     1     -41.392  37.840 -50.898  1.00  0.00     0.004 C 
ENDBRANCH   1  11
TORSDOF 4
ENDMDL
MODEL 3
REMARK VINA RESULT:    -4.120      1.807      2.162
REMARK INTER + INTRA:          -5.090
REMARK INTER:                  -4.997
REMARK INTRA:                  -0.093
REMARK UNBOUND:                -0.127
REMARK SMILES CC[C@@H](C)[C@H]([NH3+])C(=O)[O-]
REMARK SMILES IDX 3 1 4 2 5 3 6 4 7 8 8 9 9 10 2 11 1 12
REMARK H PARENT 6 5 6 6 6 7
REMARK Flexibility Score: inf
ROOT
ATOM      1  C   UNL     1     -32.389  52.571 -51.722  1.00  0.00     0.050 C 
ATOM      2  C   UNL     1     -31.458  52.230 -52.901  1.00  0.00     0.014 C 
ENDROOT
BRANCH   1   3
ATOM      3  C   UNL     1     -32.869  51.289 -50.971  1.00  0.00     0.230 C 
BRANCH   3   4
ATOM      4  N   UNL     1     -31.734  50.490 -50.486  1.00  0.00    -0.350 N 
ATOM      5  H   UNL     1     -30.924  51.109 -50.261  1.00  0.00     0.345 HD
ATOM      6  H   UNL     1     -31.997  49.991 -49.605  1.00  0.00     0.345 HD
ATOM      7  H   UNL     1     -31.445  49.783 -51.202  1.00  0.00     0.345 HD
ENDBRANCH   3   4
BRANCH   3   8
ATOM      8  C   UNL     1     -33.735  50.434 -51.861  1.00  0.00     0.099 C 
ATOM      9  O   UNL     1     -34.901  50.805 -52.159  1.00  0.00    -0.544 OA
ATOM     10  O   UNL     1     -33.251  49.229 -52.358  1.00  0.00    -0.544 OA
ENDBRANCH   3   8
ENDBRANCH   1   3
BRANCH   1  11
ATOM     11  C   UNL     1     -31.730  53.623 -50.789  1.00  0.00     0.006 C 
ATOM     12  C   UNL     1     -30.626  54.456 -51.448  1.00  0.00     0.004 C 
ENDBRANCH   1  11
TORSDOF 4
ENDMDL
MODEL 4
REMARK VINA RESULT:    -3.966      2.437      3.089
REMARK INTER + INTRA:          -4.904
REMARK INTER:                  -4.801
REMARK INTRA:                  -0.103
REMARK UNBOUND:                -0.127
REMARK SMILES CC[C@@H](C)[C@H]([NH3+])C(=O)[O-]
REMARK SMILES IDX 3 1 4 2 5 3 6 4 7 8 8 9 9 10 2 11 1 12
REMARK H PARENT 6 5 6 6 6 7
REMARK Flexibility Score: inf
ROOT
ATOM      1  C   UNL     1     -33.874  50.173 -52.660  1.00  0.00     0.050 C 
ATOM      2  C   UNL     1     -35.268  49.520 -52.713  1.00  0.00     0.014 C 
ENDROOT
BRANCH   1   3
ATOM      3  C   UNL     1     -33.369  50.583 -54.080  1.00  0.00     0.230 C 
BRANCH   3   4
ATOM      4  N   UNL     1     -33.923  49.707 -55.124  1.00  0.00    -0.350 N 
ATOM      5  H   UNL     1     -34.950  49.867 -55.224  1.00  0.00     0.345 HD
ATOM      6  H   UNL     1     -33.484  49.929 -56.047  1.00  0.00     0.345 HD
ATOM      7  H   UNL     1     -33.747  48.701 -54.897  1.00  0.00     0.345 HD
ENDBRANCH   3   4
BRANCH   3   8
ATOM      8  C   UNL     1     -31.863  50.547 -54.148  1.00  0.00     0.099 C 
ATOM      9  O   UNL     1     -31.189  51.563 -53.833  1.00  0.00    -0.544 OA
ATOM     10  O   UNL     1     -31.210  49.391 -54.562  1.00  0.00    -0.544 OA
ENDBRANCH   3   8
ENDBRANCH   1   3
BRANCH   1  11
ATOM     11  C   UNL     1     -33.854  51.341 -51.637  1.00  0.00     0.006 C 
ATOM     12  C   UNL     1     -32.770  51.224 -50.560  1.00  0.00     0.004 C 
ENDBRANCH   1  11
TORSDOF 4
ENDMDL
MODEL 5
REMARK VINA RESULT:    -3.960      2.741      3.403
REMARK INTER + INTRA:          -4.897
REMARK INTER:                  -4.957
REMARK INTRA:                   0.060
REMARK UNBOUND:                -0.127
REMARK SMILES CC[C@@H](C)[C@H]([NH3+])C(=O)[O-]
REMARK SMILES IDX 3 1 4 2 5 3 6 4 7 8 8 9 9 10 2 11 1 12
REMARK H PARENT 6 5 6 6 6 7
REMARK Flexibility Score: inf
ROOT
ATOM      1  C   UNL     1     -33.154  50.513 -52.895  1.00  0.00     0.050 C 
ATOM      2  C   UNL     1     -33.250  51.236 -54.251  1.00  0.00     0.014 C 
ENDROOT
BRANCH   1   3
ATOM      3  C   UNL     1     -31.857  50.905 -52.118  1.00  0.00     0.230 C 
BRANCH   3   4
ATOM      4  N   UNL     1     -31.857  50.354 -50.754  1.00  0.00    -0.350 N 
ATOM      5  H   UNL     1     -32.075  49.333 -50.774  1.00  0.00     0.345 HD
ATOM      6  H   UNL     1     -30.909  50.460 -50.324  1.00  0.00     0.345 HD
ATOM      7  H   UNL     1     -32.557  50.849 -50.154  1.00  0.00     0.345 HD
ENDBRANCH   3   4
BRANCH   3   8
ATOM      8  C   UNL     1     -31.700  52.403 -52.049  1.00  0.00     0.099 C 
ATOM      9  O   UNL     1     -32.291  53.063 -51.154  1.00  0.00    -0.544 OA
ATOM     10  O   UNL     1     -30.902  53.066 -52.975  1.00  0.00    -0.544 OA
ENDBRANCH   3   8
ENDBRANCH   1   3
BRANCH   1  11
ATOM     11  C   UNL     1     -34.452  50.718 -52.069  1.00  0.00     0.006 C 
ATOM     12  C   UNL     1     -35.568  49.715 -52.379  1.00  0.00     0.004 C 
ENDBRANCH   1  11
TORSDOF 4
ENDMDL
MODEL 6
REMARK VINA RESULT:    -3.959      3.001      3.978
REMARK INTER + INTRA:          -4.896
REMARK INTER:                  -4.754
REMARK INTRA:                  -0.142
REMARK UNBOUND:                -0.127
REMARK SMILES CC[C@@H](C)[C@H]([NH3+])C(=O)[O-]
REMARK SMILES IDX 3 1 4 2 5 3 6 4 7 8 8 9 9 10 2 11 1 12
REMARK H PARENT 6 5 6 6 6 7
REMARK Flexibility Score: inf
ROOT
ATOM      1  C   UNL     1     -33.342  51.476 -52.817  1.00  0.00     0.050 C 
ATOM      2  C   UNL     1     -34.305  50.567 -52.032  1.00  0.00     0.014 C 
ENDROOT
BRANCH   1   3
ATOM      3  C   UNL     1     -31.925  51.526 -52.161  1.00  0.00     0.230 C 
BRANCH   3   4
ATOM      4  N   UNL     1     -31.858  50.684 -50.956  1.00  0.00    -0.350 N 
ATOM      5  H   UNL     1     -32.619  49.969 -50.970  1.00  0.00     0.345 HD
ATOM      6  H   UNL     1     -30.949  50.168 -50.930  1.00  0.00     0.345 HD
ATOM      7  H   UNL     1     -31.942  51.266 -50.091  1.00  0.00     0.345 HD
ENDBRANCH   3   4
BRANCH   3   8
ATOM      8  C   UNL     1     -31.547  52.941 -51.800  1.00  0.00     0.099 C 
ATOM      9  O   UNL     1     -31.936  53.444 -50.714  1.00  0.00    -0.544 OA
ATOM     10  O   UNL     1     -30.766  53.698 -52.666  1.00  0.00    -0.544 OA
ENDBRANCH   3   8
ENDBRANCH   1   3
BRANCH   1  11
ATOM     11  C   UNL     1     -33.312  51.080 -54.318  1.00  0.00     0.006 C 
ATOM     12  C   UNL     1     -31.936  50.645 -54.834  1.00  0.00     0.004 C 
ENDBRANCH   1  11
TORSDOF 4
ENDMDL
MODEL 7
REMARK VINA RESULT:    -3.913      2.846      3.822
REMARK INTER + INTRA:          -4.840
REMARK INTER:                  -4.770
REMARK INTRA:                  -0.070
REMARK UNBOUND:                -0.127
REMARK SMILES CC[C@@H](C)[C@H]([NH3+])C(=O)[O-]
REMARK SMILES IDX 3 1 4 2 5 3 6 4 7 8 8 9 9 10 2 11 1 12
REMARK H PARENT 6 5 6 6 6 7
REMARK Flexibility Score: inf
ROOT
ATOM      1  C   UNL     1     -33.101  50.778 -51.879  1.00  0.00     0.050 C 
ATOM      2  C   UNL     1     -32.383  50.329 -53.166  1.00  0.00     0.014 C 
ENDROOT
BRANCH   1   3
ATOM      3  C   UNL     1     -32.559  52.146 -51.357  1.00  0.00     0.230 C 
BRANCH   3   4
ATOM      4  N   UNL     1     -31.302  52.519 -52.024  1.00  0.00    -0.350 N 
ATOM      5  H   UNL     1     -30.584  52.795 -51.318  1.00  0.00     0.345 HD
ATOM      6  H   UNL     1     -30.919  51.700 -52.551  1.00  0.00     0.345 HD
ATOM      7  H   UNL     1     -31.457  53.309 -52.693  1.00  0.00     0.345 HD
ENDBRANCH   3   4
BRANCH   3   8
ATOM      8  C   UNL     1     -32.336  52.105 -49.866  1.00  0.00     0.099 C 
ATOM      9  O   UNL     1     -32.556  51.047 -49.220  1.00  0.00    -0.544 OA
ATOM     10  O   UNL     1     -31.886  53.237 -49.195  1.00  0.00    -0.544 OA
ENDBRANCH   3   8
ENDBRANCH   1   3
BRANCH   1  11
ATOM     11  C   UNL     1     -34.641  50.759 -52.074  1.00  0.00     0.006 C 
ATOM     12  C   UNL     1     -35.197  49.442 -52.625  1.00  0.00     0.004 C 
ENDBRANCH   1  11
TORSDOF 4
ENDMDL
MODEL 8
REMARK VINA RESULT:    -3.889     13.115     14.649
REMARK INTER + INTRA:          -4.812
REMARK INTER:                  -4.720
REMARK INTRA:                  -0.091
REMARK UNBOUND:                -0.127
REMARK SMILES CC[C@@H](C)[C@H]([NH3+])C(=O)[O-]
REMARK SMILES IDX 3 1 4 2 5 3 6 4 7 8 8 9 9 10 2 11 1 12
REMARK H PARENT 6 5 6 6 6 7
REMARK Flexibility Score: inf
ROOT
ATOM      1  C   UNL     1     -41.480  38.496 -50.625  1.00  0.00     0.050 C 
ATOM      2  C   UNL     1     -41.003  38.380 -52.084  1.00  0.00     0.014 C 
ENDROOT
BRANCH   1   3
ATOM      3  C   UNL     1     -42.141  39.881 -50.337  1.00  0.00     0.230 C 
BRANCH   3   4
ATOM      4  N   UNL     1     -42.494  40.580 -51.582  1.00  0.00    -0.350 N 
ATOM      5  H   UNL     1     -42.578  39.899 -52.369  1.00  0.00     0.345 HD
ATOM      6  H   UNL     1     -43.424  41.049 -51.478  1.00  0.00     0.345 HD
ATOM      7  H   UNL     1     -41.775  41.302 -51.820  1.00  0.00     0.345 HD
ENDBRANCH   3   4
BRANCH   3   8
ATOM      8  C   UNL     1     -41.226  40.757 -49.518  1.00  0.00     0.099 C 
ATOM      9  O   UNL     1     -40.995  41.941 -49.874  1.00  0.00    -0.544 OA
ATOM     10  O   UNL     1     -40.631  40.259 -48.364  1.00  0.00    -0.544 OA
ENDBRANCH   3   8
ENDBRANCH   1   3
BRANCH   1  11
ATOM     11  C   UNL     1     -42.383  37.291 -50.245  1.00  0.00     0.006 C 
ATOM     12  C   UNL     1     -43.379  36.875 -51.333  1.00  0.00     0.004 C 
ENDBRANCH   1  11
TORSDOF 4
ENDMDL
MODEL 9
REMARK VINA RESULT:    -3.876      1.794      2.580
REMARK INTER + INTRA:          -4.796
REMARK INTER:                  -4.781
REMARK INTRA:                  -0.015
REMARK UNBOUND:                -0.127
REMARK SMILES CC[C@@H](C)[C@H]([NH3+])C(=O)[O-]
REMARK SMILES IDX 3 1 4 2 5 3 6 4 7 8 8 9 9 10 2 11 1 12
REMARK H PARENT 6 5 6 6 6 7
REMARK Flexibility Score: inf
ROOT
ATOM      1  C   UNL     1     -31.964  51.275 -51.636  1.00  0.00     0.050 C 
ATOM      2  C   UNL     1     -32.633  51.328 -50.250  1.00  0.00     0.014 C 
ENDROOT
BRANCH   1   3
ATOM      3  C   UNL     1     -32.800  50.433 -52.652  1.00  0.00     0.230 C 
BRANCH   3   4
ATOM      4  N   UNL     1     -32.659  48.990 -52.403  1.00  0.00    -0.350 N 
ATOM      5  H   UNL     1     -32.779  48.455 -53.292  1.00  0.00     0.345 HD
ATOM      6  H   UNL     1     -31.699  48.781 -52.044  1.00  0.00     0.345 HD
ATOM      7  H   UNL     1     -33.362  48.664 -51.701  1.00  0.00     0.345 HD
ENDBRANCH   3   4
BRANCH   3   8
ATOM      8  C   UNL     1     -32.387  50.735 -54.071  1.00  0.00     0.099 C 
ATOM      9  O   UNL     1     -33.179  51.328 -54.850  1.00  0.00    -0.544 OA
ATOM     10  O   UNL     1     -31.129  50.359 -54.528  1.00  0.00    -0.544 OA
ENDBRANCH   3   8
ENDBRANCH   1   3
BRANCH   1  11
ATOM     11  C   UNL     1     -31.636  52.705 -52.143  1.00  0.00     0.006 C 
ATOM     12  C   UNL     1     -31.644  53.783 -51.055  1.00  0.00     0.004 C 
ENDBRANCH   1  11
TORSDOF 4
ENDMDL
