MODEL 1
REMARK VINA RESULT:    -6.940      0.000      0.000
REMARK INTER + INTRA:         -12.618
REMARK INTER:                 -10.794
REMARK INTRA:                  -1.824
REMARK UNBOUND:                -1.824
REMARK SMILES C[C@@]12C[C@@]3(O)O[C@@H](O1)[C@]1(COC(=O)c4ccccc4)[C@H]3C[C@@]12O[C@H]1O[C@@H](CO)[C@H](O)[C@@H](O)[C@@H]1O
REMARK SMILES IDX 1 1 2 2 3 3 4 4 20 5 21 6 22 7 9 8 7 9 8 10 6 11 23 12 24 13
REMARK SMILES IDX 33 14 25 15 31 16 26 17 29 18 34 19 32 21 27 23 28 24 30 26
REMARK SMILES IDX 5 28 10 30 11 31 12 32 13 33 14 34 15 35 19 36 16 37 18 38
REMARK SMILES IDX 17 39
REMARK H PARENT 34 20 32 22 28 25 30 27 5 29
REMARK Flexibility Score: inf
ROOT
ATOM      1  C   UNL     1      -9.547   1.348   5.147  1.00  0.00     0.046 C 
ATOM      2  C   UNL     1     -10.332   0.116   5.645  1.00  0.00     0.104 C 
ATOM      3  C   UNL     1     -10.083  -1.119   4.664  1.00  0.00     0.104 C 
ATOM      4  C   UNL     1     -10.892  -2.320   5.323  1.00  0.00     0.175 C 
ATOM      5  C   UNL     1     -12.316  -1.832   5.661  1.00  0.00     0.070 C 
ATOM      6  C   UNL     1     -12.761  -0.581   4.871  1.00  0.00     0.050 C 
ATOM      7  C   UNL     1     -11.914   0.231   5.884  1.00  0.00     0.115 C 
ATOM      8  C   UNL     1     -12.018  -0.954   6.895  1.00  0.00     0.096 C 
ATOM      9  C   UNL     1     -10.626  -1.368   7.316  1.00  0.00     0.267 C 
ATOM     10  O   UNL     1      -9.753  -0.329   6.861  1.00  0.00    -0.342 OA
ATOM     11  O   UNL     1     -10.334  -2.548   6.574  1.00  0.00    -0.320 OA
ENDROOT
BRANCH   7  12
ATOM     12  O   UNL     1     -12.608   1.393   6.359  1.00  0.00    -0.339 OA
BRANCH  12  13
ATOM     13  C   UNL     1     -11.912   2.452   7.026  1.00  0.00     0.282 C 
ATOM     14  C   UNL     1     -12.005   2.805   8.594  1.00  0.00     0.202 C 
ATOM     15  O   UNL     1     -12.031   3.591   6.200  1.00  0.00    -0.341 OA
ATOM     16  C   UNL     1     -11.128   4.087   8.895  1.00  0.00     0.179 C 
ATOM     17  C   UNL     1     -10.946   4.433   6.387  1.00  0.00     0.178 C 
ATOM     18  C   UNL     1     -11.214   5.114   7.755  1.00  0.00     0.177 C 
BRANCH  14  19
ATOM     19  O   UNL     1     -11.581   1.706   9.404  1.00  0.00    -0.385 OA
ATOM     20  H   UNL     1     -11.651   0.912   8.802  1.00  0.00     0.211 HD
ENDBRANCH  14  19
BRANCH  16  21
ATOM     21  O   UNL     1     -11.450   4.665  10.143  1.00  0.00    -0.387 OA
ATOM     22  H   UNL     1     -10.633   5.127  10.489  1.00  0.00     0.211 HD
ENDBRANCH  16  21
BRANCH  17  23
ATOM     23  C   UNL     1     -10.899   5.363   5.150  1.00  0.00     0.191 C 
BRANCH  23  24
ATOM     24  O   UNL     1     -10.270   4.777   4.042  1.00  0.00    -0.394 OA
ATOM     25  H   UNL     1      -9.289   4.978   4.085  1.00  0.00     0.210 HD
ENDBRANCH  23  24
ENDBRANCH  17  23
BRANCH  18  26
ATOM     26  O   UNL     1     -10.257   6.125   7.951  1.00  0.00    -0.387 OA
ATOM     27  H   UNL     1     -10.665   6.725   8.620  1.00  0.00     0.211 HD
ENDBRANCH  18  26
ENDBRANCH  12  13
ENDBRANCH   7  12
BRANCH   4  28
ATOM     28  O   UNL     1     -10.898  -3.490   4.542  1.00  0.00    -0.365 OA
ATOM     29  H   UNL     1     -11.821  -3.645   4.195  1.00  0.00     0.214 HD
ENDBRANCH   4  28
BRANCH   8  30
ATOM     30  C   UNL     1     -13.140  -1.090   7.955  1.00  0.00     0.249 C 
BRANCH  30  31
ATOM     31  O   UNL     1     -12.778  -1.871   9.094  1.00  0.00    -0.461 OA
BRANCH  31  32
ATOM     32  C   UNL     1     -13.123  -3.216   9.270  1.00  0.00     0.338 C 
ATOM     33  O   UNL     1     -13.634  -3.577  10.359  1.00  0.00    -0.246 OA
BRANCH  32  34
ATOM     34  C   UNL     1     -12.773  -4.220   8.264  1.00  0.00     0.060 A 
ATOM     35  C   UNL     1     -13.705  -4.572   7.245  1.00  0.00     0.015 A 
ATOM     36  C   UNL     1     -11.518  -4.868   8.253  1.00  0.00     0.015 A 
ATOM     37  C   UNL     1     -13.380  -5.533   6.288  1.00  0.00     0.001 A 
ATOM     38  C   UNL     1     -11.209  -5.839   7.285  1.00  0.00     0.001 A 
ATOM     39  C   UNL     1     -12.119  -6.139   6.278  1.00  0.00     0.000 A 
ENDBRANCH  32  34
ENDBRANCH  31  32
ENDBRANCH  30  31
ENDBRANCH   8  30
TORSDOF 12
ENDMDL
MODEL 2
REMARK VINA RESULT:    -5.785      1.700      2.948
REMARK INTER + INTRA:         -10.821
REMARK INTER:                 -10.383
REMARK INTRA:                  -0.439
REMARK UNBOUND:                -1.824
REMARK SMILES C[C@@]12C[C@@]3(O)O[C@@H](O1)[C@]1(COC(=O)c4ccccc4)[C@H]3C[C@@]12O[C@H]1O[C@@H](CO)[C@H](O)[C@@H](O)[C@@H]1O
REMARK SMILES IDX 1 1 2 2 3 3 4 4 20 5 21 6 22 7 9 8 7 9 8 10 6 11 23 12 24 13
REMARK SMILES IDX 33 14 25 15 31 16 26 17 29 18 34 19 32 21 27 23 28 24 30 26
REMARK SMILES IDX 5 28 10 30 11 31 12 32 13 33 14 34 15 35 19 36 16 37 18 38
REMARK SMILES IDX 17 39
REMARK H PARENT 34 20 32 22 28 25 30 27 5 29
REMARK Flexibility Score: inf
ROOT
ATOM      1  C   UNL     1     -10.324   2.334   4.826  1.00  0.00     0.046 C 
ATOM      2  C   UNL     1     -10.495   1.091   5.725  1.00  0.00     0.104 C 
ATOM      3  C   UNL     1      -9.238   0.121   5.554  1.00  0.00     0.104 C 
ATOM      4  C   UNL     1      -9.516  -1.072   6.570  1.00  0.00     0.175 C 
ATOM      5  C   UNL     1     -10.958  -1.577   6.359  1.00  0.00     0.070 C 
ATOM      6  C   UNL     1     -11.563  -1.211   4.986  1.00  0.00     0.050 C 
ATOM      7  C   UNL     1     -11.818   0.194   5.589  1.00  0.00     0.115 C 
ATOM      8  C   UNL     1     -11.748  -0.426   7.019  1.00  0.00     0.096 C 
ATOM      9  C   UNL     1     -10.711   0.316   7.831  1.00  0.00     0.267 C 
ATOM     10  O   UNL     1     -10.397   1.495   7.081  1.00  0.00    -0.342 OA
ATOM     11  O   UNL     1      -9.559  -0.521   7.843  1.00  0.00    -0.320 OA
ENDROOT
BRANCH   7  12
ATOM     12  O   UNL     1     -13.133   0.680   5.287  1.00  0.00    -0.339 OA
BRANCH  12  13
ATOM     13  C   UNL     1     -13.419   2.083   5.269  1.00  0.00     0.282 C 
ATOM     14  C   UNL     1     -13.165   3.085   4.034  1.00  0.00     0.202 C 
ATOM     15  O   UNL     1     -12.956   2.601   6.498  1.00  0.00    -0.341 OA
ATOM     16  C   UNL     1     -13.559   4.555   4.463  1.00  0.00     0.179 C 
ATOM     17  C   UNL     1     -13.696   3.718   6.856  1.00  0.00     0.178 C 
ATOM     18  C   UNL     1     -13.174   4.843   5.923  1.00  0.00     0.177 C 
BRANCH  14  19
ATOM     19  O   UNL     1     -13.901   2.686   2.876  1.00  0.00    -0.385 OA
ATOM     20  H   UNL     1     -13.868   3.483   2.274  1.00  0.00     0.211 HD
ENDBRANCH  14  19
BRANCH  16  21
ATOM     21  O   UNL     1     -13.024   5.523   3.583  1.00  0.00    -0.387 OA
ATOM     22  H   UNL     1     -12.242   5.951   4.035  1.00  0.00     0.211 HD
ENDBRANCH  16  21
BRANCH  17  23
ATOM     23  C   UNL     1     -13.472   3.920   8.374  1.00  0.00     0.191 C 
BRANCH  23  24
ATOM     24  O   UNL     1     -12.341   3.248   8.860  1.00  0.00    -0.394 OA
ATOM     25  H   UNL     1     -11.624   3.276   8.160  1.00  0.00     0.210 HD
ENDBRANCH  23  24
ENDBRANCH  17  23
BRANCH  18  26
ATOM     26  O   UNL     1     -13.737   6.065   6.332  1.00  0.00    -0.387 OA
ATOM     27  H   UNL     1     -12.971   6.591   6.664  1.00  0.00     0.211 HD
ENDBRANCH  18  26
ENDBRANCH  12  13
ENDBRANCH   7  12
BRANCH   4  28
ATOM     28  O   UNL     1      -8.568  -2.110   6.491  1.00  0.00    -0.365 OA
ATOM     29  H   UNL     1      -8.699  -2.605   5.634  1.00  0.00     0.214 HD
ENDBRANCH   4  28
BRANCH   8  30
ATOM     30  C   UNL     1     -12.980  -0.971   7.786  1.00  0.00     0.249 C 
BRANCH  30  31
ATOM     31  O   UNL     1     -12.658  -1.672   8.988  1.00  0.00    -0.461 OA
BRANCH  31  32
ATOM     32  C   UNL     1     -12.967  -3.017   9.224  1.00  0.00     0.338 C 
ATOM     33  O   UNL     1     -13.366  -3.360  10.364  1.00  0.00    -0.246 OA
BRANCH  32  34
ATOM     34  C   UNL     1     -12.703  -4.038   8.210  1.00  0.00     0.060 A 
ATOM     35  C   UNL     1     -11.446  -4.706   8.173  1.00  0.00     0.015 A 
ATOM     36  C   UNL     1     -13.666  -4.406   7.244  1.00  0.00     0.015 A 
ATOM     37  C   UNL     1     -11.185  -5.676   7.205  1.00  0.00     0.001 A 
ATOM     38  C   UNL     1     -13.385  -5.380   6.271  1.00  0.00     0.001 A 
ATOM     39  C   UNL     1     -12.165  -6.047   6.278  1.00  0.00     0.000 A 
ENDBRANCH  32  34
ENDBRANCH  31  32
ENDBRANCH  30  31
ENDBRANCH   8  30
TORSDOF 12
ENDMDL
MODEL 3
REMARK VINA RESULT:    -4.941      1.938      5.582
REMARK INTER + INTRA:          -9.508
REMARK INTER:                  -7.926
REMARK INTRA:                  -1.582
REMARK UNBOUND:                -1.824
REMARK SMILES C[C@@]12C[C@@]3(O)O[C@@H](O1)[C@]1(COC(=O)c4ccccc4)[C@H]3C[C@@]12O[C@H]1O[C@@H](CO)[C@H](O)[C@@H](O)[C@@H]1O
REMARK SMILES IDX 1 1 2 2 3 3 4 4 20 5 21 6 22 7 9 8 7 9 8 10 6 11 23 12 24 13
REMARK SMILES IDX 33 14 25 15 31 16 26 17 29 18 34 19 32 21 27 23 28 24 30 26
REMARK SMILES IDX 5 28 10 30 11 31 12 32 13 33 14 34 15 35 19 36 16 37 18 38
REMARK SMILES IDX 17 39
REMARK H PARENT 34 20 32 22 28 25 30 27 5 29
REMARK Flexibility Score: inf
ROOT
ATOM      1  C   UNL     1      -9.894  -0.614   8.720  1.00  0.00     0.046 C 
ATOM      2  C   UNL     1     -11.104  -1.031   7.858  1.00  0.00     0.104 C 
ATOM      3  C   UNL     1     -11.612  -2.479   8.299  1.00  0.00     0.104 C 
ATOM      4  C   UNL     1     -12.882  -2.752   7.381  1.00  0.00     0.175 C 
ATOM      5  C   UNL     1     -12.512  -2.439   5.917  1.00  0.00     0.070 C 
ATOM      6  C   UNL     1     -10.994  -2.450   5.631  1.00  0.00     0.050 C 
ATOM      7  C   UNL     1     -10.971  -1.033   6.259  1.00  0.00     0.115 C 
ATOM      8  C   UNL     1     -12.497  -0.896   5.963  1.00  0.00     0.096 C 
ATOM      9  C   UNL     1     -13.222  -0.558   7.247  1.00  0.00     0.267 C 
ATOM     10  O   UNL     1     -12.205  -0.199   8.188  1.00  0.00    -0.342 OA
ATOM     11  O   UNL     1     -13.820  -1.774   7.683  1.00  0.00    -0.320 OA
ENDROOT
BRANCH   7  12
ATOM     12  O   UNL     1     -10.197  -0.110   5.481  1.00  0.00    -0.339 OA
BRANCH  12  13
ATOM     13  C   UNL     1     -10.458   1.297   5.523  1.00  0.00     0.282 C 
ATOM     14  C   UNL     1     -10.181   2.347   4.335  1.00  0.00     0.202 C 
ATOM     15  O   UNL     1      -9.991   1.752   6.776  1.00  0.00    -0.341 OA
ATOM     16  C   UNL     1     -10.551   3.804   4.827  1.00  0.00     0.179 C 
ATOM     17  C   UNL     1     -10.713   2.865   7.180  1.00  0.00     0.178 C 
ATOM     18  C   UNL     1     -10.168   4.021   6.299  1.00  0.00     0.177 C 
BRANCH  14  19
ATOM     19  O   UNL     1     -10.920   2.013   3.158  1.00  0.00    -0.385 OA
ATOM     20  H   UNL     1     -11.850   1.853   3.486  1.00  0.00     0.211 HD
ENDBRANCH  14  19
BRANCH  16  21
ATOM     21  O   UNL     1      -9.996   4.800   3.992  1.00  0.00    -0.387 OA
ATOM     22  H   UNL     1      -9.821   4.389   3.097  1.00  0.00     0.211 HD
ENDBRANCH  16  21
BRANCH  17  23
ATOM     23  C   UNL     1     -10.491   2.996   8.707  1.00  0.00     0.191 C 
BRANCH  23  24
ATOM     24  O   UNL     1     -11.418   2.265   9.463  1.00  0.00    -0.394 OA
ATOM     25  H   UNL     1     -11.236   1.287   9.340  1.00  0.00     0.210 HD
ENDBRANCH  23  24
ENDBRANCH  17  23
BRANCH  18  26
ATOM     26  O   UNL     1     -10.710   5.233   6.760  1.00  0.00    -0.387 OA
ATOM     27  H   UNL     1     -10.606   5.855   6.001  1.00  0.00     0.211 HD
ENDBRANCH  18  26
ENDBRANCH  12  13
ENDBRANCH   7  12
BRANCH   4  28
ATOM     28  O   UNL     1     -13.419  -4.044   7.534  1.00  0.00    -0.365 OA
ATOM     29  H   UNL     1     -14.068  -4.216   6.794  1.00  0.00     0.214 HD
ENDBRANCH   4  28
BRANCH   8  30
ATOM     30  C   UNL     1     -13.074  -0.298   4.654  1.00  0.00     0.249 C 
BRANCH  30  31
ATOM     31  O   UNL     1     -14.107   0.667   4.858  1.00  0.00    -0.461 OA
BRANCH  31  32
ATOM     32  C   UNL     1     -14.022   2.007   4.461  1.00  0.00     0.338 C 
ATOM     33  O   UNL     1     -13.866   2.274   3.244  1.00  0.00    -0.246 OA
BRANCH  32  34
ATOM     34  C   UNL     1     -13.977   3.083   5.452  1.00  0.00     0.060 A 
ATOM     35  C   UNL     1     -13.792   4.434   5.038  1.00  0.00     0.015 A 
ATOM     36  C   UNL     1     -14.118   2.839   6.836  1.00  0.00     0.015 A 
ATOM     37  C   UNL     1     -13.740   5.463   5.978  1.00  0.00     0.001 A 
ATOM     38  C   UNL     1     -14.058   3.886   7.771  1.00  0.00     0.001 A 
ATOM     39  C   UNL     1     -13.915   5.201   7.341  1.00  0.00     0.000 A 
ENDBRANCH  32  34
ENDBRANCH  31  32
ENDBRANCH  30  31
ENDBRANCH   8  30
TORSDOF 12
ENDMDL
MODEL 4
REMARK VINA RESULT:    -4.835      1.787      5.065
REMARK INTER + INTRA:          -9.344
REMARK INTER:                  -9.026
REMARK INTRA:                  -0.318
REMARK UNBOUND:                -1.824
REMARK SMILES C[C@@]12C[C@@]3(O)O[C@@H](O1)[C@]1(COC(=O)c4ccccc4)[C@H]3C[C@@]12O[C@H]1O[C@@H](CO)[C@H](O)[C@@H](O)[C@@H]1O
REMARK SMILES IDX 1 1 2 2 3 3 4 4 20 5 21 6 22 7 9 8 7 9 8 10 6 11 23 12 24 13
REMARK SMILES IDX 33 14 25 15 31 16 26 17 29 18 34 19 32 21 27 23 28 24 30 26
REMARK SMILES IDX 5 28 10 30 11 31 12 32 13 33 14 34 15 35 19 36 16 37 18 38
REMARK SMILES IDX 17 39
REMARK H PARENT 34 20 32 22 28 25 30 27 5 29
REMARK Flexibility Score: inf
ROOT
ATOM      1  C   UNL     1     -13.315   4.815   7.568  1.00  0.00     0.046 C 
ATOM      2  C   UNL     1     -12.577   4.223   6.349  1.00  0.00     0.104 C 
ATOM      3  C   UNL     1     -12.454   5.325   5.200  1.00  0.00     0.104 C 
ATOM      4  C   UNL     1     -11.630   4.604   4.045  1.00  0.00     0.175 C 
ATOM      5  C   UNL     1     -12.262   3.224   3.773  1.00  0.00     0.070 C 
ATOM      6  C   UNL     1     -13.723   3.090   4.254  1.00  0.00     0.050 C 
ATOM      7  C   UNL     1     -13.129   2.877   5.670  1.00  0.00     0.115 C 
ATOM      8  C   UNL     1     -11.775   2.451   5.019  1.00  0.00     0.096 C 
ATOM      9  C   UNL     1     -10.665   3.313   5.577  1.00  0.00     0.267 C 
ATOM     10  O   UNL     1     -11.224   3.990   6.706  1.00  0.00    -0.342 OA
ATOM     11  O   UNL     1     -10.387   4.282   4.572  1.00  0.00    -0.320 OA
ENDROOT
BRANCH   7  12
ATOM     12  O   UNL     1     -13.750   1.784   6.359  1.00  0.00    -0.339 OA
BRANCH  12  13
ATOM     13  C   UNL     1     -12.989   0.903   7.192  1.00  0.00     0.282 C 
ATOM     14  C   UNL     1     -13.479  -0.521   7.760  1.00  0.00     0.202 C 
ATOM     15  O   UNL     1     -12.389   1.711   8.183  1.00  0.00    -0.341 OA
ATOM     16  C   UNL     1     -12.353  -1.129   8.691  1.00  0.00     0.179 C 
ATOM     17  C   UNL     1     -11.205   1.135   8.618  1.00  0.00     0.178 C 
ATOM     18  C   UNL     1     -11.657  -0.041   9.525  1.00  0.00     0.177 C 
BRANCH  14  19
ATOM     19  O   UNL     1     -13.796  -1.427   6.701  1.00  0.00    -0.385 OA
ATOM     20  H   UNL     1     -14.465  -0.934   6.146  1.00  0.00     0.211 HD
ENDBRANCH  14  19
BRANCH  16  21
ATOM     21  O   UNL     1     -12.848  -2.172   9.504  1.00  0.00    -0.387 OA
ATOM     22  H   UNL     1     -13.245  -2.868   8.906  1.00  0.00     0.211 HD
ENDBRANCH  16  21
BRANCH  17  23
ATOM     23  C   UNL     1     -10.397   2.264   9.303  1.00  0.00     0.191 C 
BRANCH  23  24
ATOM     24  O   UNL     1     -11.205   3.299   9.797  1.00  0.00    -0.394 OA
ATOM     25  H   UNL     1     -10.735   3.734  10.567  1.00  0.00     0.210 HD
ENDBRANCH  23  24
ENDBRANCH  17  23
BRANCH  18  26
ATOM     26  O   UNL     1     -10.526  -0.580  10.162  1.00  0.00    -0.387 OA
ATOM     27  H   UNL     1     -10.148   0.173  10.675  1.00  0.00     0.211 HD
ENDBRANCH  18  26
ENDBRANCH  12  13
ENDBRANCH   7  12
BRANCH   4  28
ATOM     28  O   UNL     1     -11.508   5.377   2.875  1.00  0.00    -0.365 OA
ATOM     29  H   UNL     1     -11.532   6.345   3.121  1.00  0.00     0.214 HD
ENDBRANCH   4  28
BRANCH   8  30
ATOM     30  C   UNL     1     -11.413   0.989   4.656  1.00  0.00     0.249 C 
BRANCH  30  31
ATOM     31  O   UNL     1     -10.474   0.381   5.544  1.00  0.00    -0.461 OA
BRANCH  31  32
ATOM     32  C   UNL     1      -9.845  -0.847   5.306  1.00  0.00     0.338 C 
ATOM     33  O   UNL     1      -8.723  -0.857   4.739  1.00  0.00    -0.246 OA
BRANCH  32  34
ATOM     34  C   UNL     1     -10.530  -2.110   5.581  1.00  0.00     0.060 A 
ATOM     35  C   UNL     1     -11.409  -2.676   4.613  1.00  0.00     0.015 A 
ATOM     36  C   UNL     1     -10.350  -2.815   6.791  1.00  0.00     0.015 A 
ATOM     37  C   UNL     1     -12.071  -3.876   4.872  1.00  0.00     0.001 A 
ATOM     38  C   UNL     1     -11.030  -4.020   7.039  1.00  0.00     0.001 A 
ATOM     39  C   UNL     1     -11.853  -4.574   6.065  1.00  0.00     0.000 A 
ENDBRANCH  32  34
ENDBRANCH  31  32
ENDBRANCH  30  31
ENDBRANCH   8  30
TORSDOF 12
ENDMDL
MODEL 5
REMARK VINA RESULT:    -4.433      2.076      7.960
REMARK INTER + INTRA:          -8.718
REMARK INTER:                  -7.310
REMARK INTRA:                  -1.408
REMARK UNBOUND:                -1.824
REMARK SMILES C[C@@]12C[C@@]3(O)O[C@@H](O1)[C@]1(COC(=O)c4ccccc4)[C@H]3C[C@@]12O[C@H]1O[C@@H](CO)[C@H](O)[C@@H](O)[C@@H]1O
REMARK SMILES IDX 1 1 2 2 3 3 4 4 20 5 21 6 22 7 9 8 7 9 8 10 6 11 23 12 24 13
REMARK SMILES IDX 33 14 25 15 31 16 26 17 29 18 34 19 32 21 27 23 28 24 30 26
REMARK SMILES IDX 5 28 10 30 11 31 12 32 13 33 14 34 15 35 19 36 16 37 18 38
REMARK SMILES IDX 17 39
REMARK H PARENT 34 20 32 22 28 25 30 27 5 29
REMARK Flexibility Score: inf
ROOT
ATOM      1  C   UNL     1     -10.216  -1.338   6.911  1.00  0.00     0.046 C 
ATOM      2  C   UNL     1     -10.711   0.104   7.152  1.00  0.00     0.104 C 
ATOM      3  C   UNL     1      -9.962   0.732   8.414  1.00  0.00     0.104 C 
ATOM      4  C   UNL     1     -10.518   2.219   8.507  1.00  0.00     0.175 C 
ATOM      5  C   UNL     1     -12.058   2.179   8.421  1.00  0.00     0.070 C 
ATOM      6  C   UNL     1     -12.676   0.808   8.773  1.00  0.00     0.050 C 
ATOM      7  C   UNL     1     -12.281   0.378   7.337  1.00  0.00     0.115 C 
ATOM      8  C   UNL     1     -12.239   1.881   6.917  1.00  0.00     0.096 C 
ATOM      9  C   UNL     1     -10.887   2.189   6.314  1.00  0.00     0.267 C 
ATOM     10  O   UNL     1     -10.263   0.922   6.083  1.00  0.00    -0.342 OA
ATOM     11  O   UNL     1     -10.155   2.864   7.332  1.00  0.00    -0.320 OA
ENDROOT
BRANCH   7  12
ATOM     12  O   UNL     1     -13.340  -0.326   6.673  1.00  0.00    -0.339 OA
BRANCH  12  13
ATOM     13  C   UNL     1     -13.095  -1.559   5.988  1.00  0.00     0.282 C 
ATOM     14  C   UNL     1     -13.699  -1.984   4.558  1.00  0.00     0.202 C 
ATOM     15  O   UNL     1     -13.206  -2.582   6.955  1.00  0.00    -0.341 OA
ATOM     16  C   UNL     1     -13.227  -3.451   4.204  1.00  0.00     0.179 C 
ATOM     17  C   UNL     1     -12.415  -3.664   6.600  1.00  0.00     0.178 C 
ATOM     18  C   UNL     1     -13.195  -4.353   5.449  1.00  0.00     0.177 C 
BRANCH  14  19
ATOM     19  O   UNL     1     -13.306  -1.070   3.531  1.00  0.00    -0.385 OA
ATOM     20  H   UNL     1     -12.522  -1.510   3.094  1.00  0.00     0.211 HD
ENDBRANCH  14  19
BRANCH  16  21
ATOM     21  O   UNL     1     -14.002  -4.020   3.169  1.00  0.00    -0.387 OA
ATOM     22  H   UNL     1     -14.085  -3.342   2.439  1.00  0.00     0.211 HD
ENDBRANCH  16  21
BRANCH  17  23
ATOM     23  C   UNL     1     -12.212  -4.495   7.891  1.00  0.00     0.191 C 
BRANCH  23  24
ATOM     24  O   UNL     1     -11.062  -5.297   7.855  1.00  0.00    -0.394 OA
ATOM     25  H   UNL     1     -10.293  -4.775   8.231  1.00  0.00     0.210 HD
ENDBRANCH  23  24
ENDBRANCH  17  23
BRANCH  18  26
ATOM     26  O   UNL     1     -12.562  -5.570   5.140  1.00  0.00    -0.387 OA
ATOM     27  H   UNL     1     -13.094  -5.944   4.398  1.00  0.00     0.211 HD
ENDBRANCH  18  26
ENDBRANCH  12  13
ENDBRANCH   7  12
BRANCH   4  28
ATOM     28  O   UNL     1     -10.063   2.920   9.640  1.00  0.00    -0.365 OA
ATOM     29  H   UNL     1      -9.217   2.499   9.964  1.00  0.00     0.214 HD
ENDBRANCH   4  28
BRANCH   8  30
ATOM     30  C   UNL     1     -13.455   2.653   6.343  1.00  0.00     0.249 C 
BRANCH  30  31
ATOM     31  O   UNL     1     -13.108   3.817   5.593  1.00  0.00    -0.461 OA
BRANCH  31  32
ATOM     32  C   UNL     1     -13.240   5.128   6.065  1.00  0.00     0.338 C 
ATOM     33  O   UNL     1     -13.584   6.033   5.264  1.00  0.00    -0.246 OA
BRANCH  32  34
ATOM     34  C   UNL     1     -12.853   5.478   7.432  1.00  0.00     0.060 A 
ATOM     35  C   UNL     1     -13.835   5.540   8.463  1.00  0.00     0.015 A 
ATOM     36  C   UNL     1     -11.515   5.756   7.788  1.00  0.00     0.015 A 
ATOM     37  C   UNL     1     -13.474   5.879   9.767  1.00  0.00     0.001 A 
ATOM     38  C   UNL     1     -11.169   6.103   9.105  1.00  0.00     0.001 A 
ATOM     39  C   UNL     1     -12.137   6.120  10.103  1.00  0.00     0.000 A 
ENDBRANCH  32  34
ENDBRANCH  31  32
ENDBRANCH  30  31
ENDBRANCH   8  30
TORSDOF 12
ENDMDL
MODEL 6
REMARK VINA RESULT:    -4.218      2.656      4.567
REMARK INTER + INTRA:          -8.384
REMARK INTER:                  -6.228
REMARK INTRA:                  -2.156
REMARK UNBOUND:                -1.824
REMARK SMILES C[C@@]12C[C@@]3(O)O[C@@H](O1)[C@]1(COC(=O)c4ccccc4)[C@H]3C[C@@]12O[C@H]1O[C@@H](CO)[C@H](O)[C@@H](O)[C@@H]1O
REMARK SMILES IDX 1 1 2 2 3 3 4 4 20 5 21 6 22 7 9 8 7 9 8 10 6 11 23 12 24 13
REMARK SMILES IDX 33 14 25 15 31 16 26 17 29 18 34 19 32 21 27 23 28 24 30 26
REMARK SMILES IDX 5 28 10 30 11 31 12 32 13 33 14 34 15 35 19 36 16 37 18 38
REMARK SMILES IDX 17 39
REMARK H PARENT 34 20 32 22 28 25 30 27 5 29
REMARK Flexibility Score: inf
ROOT
ATOM      1  C   UNL     1     -14.080  -0.415   4.417  1.00  0.00     0.046 C 
ATOM      2  C   UNL     1     -13.293  -1.502   5.178  1.00  0.00     0.104 C 
ATOM      3  C   UNL     1     -14.119  -2.868   5.183  1.00  0.00     0.104 C 
ATOM      4  C   UNL     1     -13.174  -3.902   5.938  1.00  0.00     0.175 C 
ATOM      5  C   UNL     1     -12.679  -3.255   7.248  1.00  0.00     0.070 C 
ATOM      6  C   UNL     1     -13.551  -2.081   7.744  1.00  0.00     0.050 C 
ATOM      7  C   UNL     1     -12.815  -1.222   6.684  1.00  0.00     0.115 C 
ATOM      8  C   UNL     1     -11.645  -2.255   6.684  1.00  0.00     0.096 C 
ATOM      9  C   UNL     1     -11.405  -2.731   5.269  1.00  0.00     0.267 C 
ATOM     10  O   UNL     1     -12.138  -1.837   4.425  1.00  0.00    -0.342 OA
ATOM     11  O   UNL     1     -12.013  -4.016   5.186  1.00  0.00    -0.320 OA
ENDROOT
BRANCH   7  12
ATOM     12  O   UNL     1     -12.400   0.046   7.210  1.00  0.00    -0.339 OA
BRANCH  12  13
ATOM     13  C   UNL     1     -12.200   1.175   6.352  1.00  0.00     0.282 C 
ATOM     14  C   UNL     1     -10.856   1.517   5.534  1.00  0.00     0.202 C 
ATOM     15  O   UNL     1     -12.724   2.294   7.037  1.00  0.00    -0.341 OA
ATOM     16  C   UNL     1     -11.043   2.887   4.767  1.00  0.00     0.179 C 
ATOM     17  C   UNL     1     -13.154   3.251   6.131  1.00  0.00     0.178 C 
ATOM     18  C   UNL     1     -11.847   3.899   5.600  1.00  0.00     0.177 C 
BRANCH  14  19
ATOM     19  O   UNL     1     -10.521   0.472   4.618  1.00  0.00    -0.385 OA
ATOM     20  H   UNL     1     -11.403   0.105   4.327  1.00  0.00     0.211 HD
ENDBRANCH  14  19
BRANCH  16  21
ATOM     21  O   UNL     1      -9.809   3.427   4.342  1.00  0.00    -0.387 OA
ATOM     22  H   UNL     1      -9.304   3.718   5.155  1.00  0.00     0.211 HD
ENDBRANCH  16  21
BRANCH  17  23
ATOM     23  C   UNL     1     -14.121   4.180   6.906  1.00  0.00     0.191 C 
BRANCH  23  24
ATOM     24  O   UNL     1     -13.483   5.296   7.466  1.00  0.00    -0.394 OA
ATOM     25  H   UNL     1     -14.139   6.053   7.511  1.00  0.00     0.210 HD
ENDBRANCH  23  24
ENDBRANCH  17  23
BRANCH  18  26
ATOM     26  O   UNL     1     -12.184   5.009   4.807  1.00  0.00    -0.387 OA
ATOM     27  H   UNL     1     -13.160   4.938   4.683  1.00  0.00     0.211 HD
ENDBRANCH  18  26
ENDBRANCH  12  13
ENDBRANCH   7  12
BRANCH   4  28
ATOM     28  O   UNL     1     -13.773  -5.157   6.154  1.00  0.00    -0.365 OA
ATOM     29  H   UNL     1     -14.458  -5.071   6.875  1.00  0.00     0.214 HD
ENDBRANCH   4  28
BRANCH   8  30
ATOM     30  C   UNL     1     -10.407  -2.159   7.611  1.00  0.00     0.249 C 
BRANCH  30  31
ATOM     31  O   UNL     1      -9.471  -1.148   7.234  1.00  0.00    -0.461 OA
BRANCH  31  32
ATOM     32  C   UNL     1      -8.251  -1.401   6.595  1.00  0.00     0.338 C 
ATOM     33  O   UNL     1      -8.112  -1.067   5.393  1.00  0.00    -0.246 OA
BRANCH  32  34
ATOM     34  C   UNL     1      -7.198  -2.167   7.263  1.00  0.00     0.060 A 
ATOM     35  C   UNL     1      -6.268  -1.512   8.121  1.00  0.00     0.015 A 
ATOM     36  C   UNL     1      -7.061  -3.563   7.096  1.00  0.00     0.015 A 
ATOM     37  C   UNL     1      -5.257  -2.235   8.755  1.00  0.00     0.001 A 
ATOM     38  C   UNL     1      -6.033  -4.275   7.737  1.00  0.00     0.001 A 
ATOM     39  C   UNL     1      -5.161  -3.622   8.601  1.00  0.00     0.000 A 
ENDBRANCH  32  34
ENDBRANCH  31  32
ENDBRANCH  30  31
ENDBRANCH   8  30
TORSDOF 12
ENDMDL
MODEL 7
REMARK VINA RESULT:    -4.163      1.895      7.799
REMARK INTER + INTRA:          -8.298
REMARK INTER:                  -7.364
REMARK INTRA:                  -0.934
REMARK UNBOUND:                -1.824
REMARK SMILES C[C@@]12C[C@@]3(O)O[C@@H](O1)[C@]1(COC(=O)c4ccccc4)[C@H]3C[C@@]12O[C@H]1O[C@@H](CO)[C@H](O)[C@@H](O)[C@@H]1O
REMARK SMILES IDX 1 1 2 2 3 3 4 4 20 5 21 6 22 7 9 8 7 9 8 10 6 11 23 12 24 13
REMARK SMILES IDX 33 14 25 15 31 16 26 17 29 18 34 19 32 21 27 23 28 24 30 26
REMARK SMILES IDX 5 28 10 30 11 31 12 32 13 33 14 34 15 35 19 36 16 37 18 38
REMARK SMILES IDX 17 39
REMARK H PARENT 34 20 32 22 28 25 30 27 5 29
REMARK Flexibility Score: inf
ROOT
ATOM      1  C   UNL     1     -10.170   0.286   8.289  1.00  0.00     0.046 C 
ATOM      2  C   UNL     1     -10.867   1.615   7.930  1.00  0.00     0.104 C 
ATOM      3  C   UNL     1     -10.807   2.614   9.174  1.00  0.00     0.104 C 
ATOM      4  C   UNL     1     -11.500   3.946   8.649  1.00  0.00     0.175 C 
ATOM      5  C   UNL     1     -12.837   3.577   7.975  1.00  0.00     0.070 C 
ATOM      6  C   UNL     1     -13.401   2.202   8.397  1.00  0.00     0.050 C 
ATOM      7  C   UNL     1     -12.382   1.594   7.400  1.00  0.00     0.115 C 
ATOM      8  C   UNL     1     -12.318   2.965   6.656  1.00  0.00     0.096 C 
ATOM      9  C   UNL     1     -10.878   3.420   6.579  1.00  0.00     0.267 C 
ATOM     10  O   UNL     1     -10.088   2.286   6.952  1.00  0.00    -0.342 OA
ATOM     11  O   UNL     1     -10.733   4.413   7.590  1.00  0.00    -0.320 OA
ENDROOT
BRANCH   7  12
ATOM     12  O   UNL     1     -12.969   0.575   6.580  1.00  0.00    -0.339 OA
BRANCH  12  13
ATOM     13  C   UNL     1     -12.502  -0.778   6.630  1.00  0.00     0.282 C 
ATOM     14  C   UNL     1     -11.928  -1.627   5.388  1.00  0.00     0.202 C 
ATOM     15  O   UNL     1     -13.444  -1.498   7.396  1.00  0.00    -0.341 OA
ATOM     16  C   UNL     1     -11.588  -3.095   5.870  1.00  0.00     0.179 C 
ATOM     17  C   UNL     1     -12.831  -2.573   8.022  1.00  0.00     0.178 C 
ATOM     18  C   UNL     1     -12.618  -3.611   6.887  1.00  0.00     0.177 C 
BRANCH  14  19
ATOM     19  O   UNL     1     -10.772  -1.006   4.819  1.00  0.00    -0.385 OA
ATOM     20  H   UNL     1     -11.098  -0.620   3.957  1.00  0.00     0.211 HD
ENDBRANCH  14  19
BRANCH  16  21
ATOM     21  O   UNL     1     -11.438  -3.985   4.783  1.00  0.00    -0.387 OA
ATOM     22  H   UNL     1     -12.351  -4.265   4.487  1.00  0.00     0.211 HD
ENDBRANCH  16  21
BRANCH  17  23
ATOM     23  C   UNL     1     -13.769  -2.996   9.178  1.00  0.00     0.191 C 
BRANCH  23  24
ATOM     24  O   UNL     1     -13.218  -3.991   9.999  1.00  0.00    -0.394 OA
ATOM     25  H   UNL     1     -13.798  -4.807   9.951  1.00  0.00     0.210 HD
ENDBRANCH  23  24
ENDBRANCH  17  23
BRANCH  18  26
ATOM     26  O   UNL     1     -12.165  -4.814   7.456  1.00  0.00    -0.387 OA
ATOM     27  H   UNL     1     -12.964  -5.391   7.484  1.00  0.00     0.211 HD
ENDBRANCH  18  26
ENDBRANCH  12  13
ENDBRANCH   7  12
BRANCH   4  28
ATOM     28  O   UNL     1     -11.655   4.929   9.644  1.00  0.00    -0.365 OA
ATOM     29  H   UNL     1     -11.727   4.482  10.534  1.00  0.00     0.214 HD
ENDBRANCH   4  28
BRANCH   8  30
ATOM     30  C   UNL     1     -13.238   3.347   5.469  1.00  0.00     0.249 C 
BRANCH  30  31
ATOM     31  O   UNL     1     -12.951   2.648   4.257  1.00  0.00    -0.461 OA
BRANCH  31  32
ATOM     32  C   UNL     1     -11.669   2.513   3.710  1.00  0.00     0.338 C 
ATOM     33  O   UNL     1     -11.178   1.364   3.585  1.00  0.00    -0.246 OA
BRANCH  32  34
ATOM     34  C   UNL     1     -10.850   3.689   3.414  1.00  0.00     0.060 A 
ATOM     35  C   UNL     1     -11.441   4.984   3.370  1.00  0.00     0.015 A 
ATOM     36  C   UNL     1      -9.461   3.596   3.171  1.00  0.00     0.015 A 
ATOM     37  C   UNL     1     -10.667   6.108   3.081  1.00  0.00     0.001 A 
ATOM     38  C   UNL     1      -8.697   4.738   2.875  1.00  0.00     0.001 A 
ATOM     39  C   UNL     1      -9.288   5.996   2.875  1.00  0.00     0.000 A 
ENDBRANCH  32  34
ENDBRANCH  31  32
ENDBRANCH  30  31
ENDBRANCH   8  30
TORSDOF 12
ENDMDL
MODEL 8
REMARK VINA RESULT:    -4.158      2.176      4.664
REMARK INTER + INTRA:          -8.291
REMARK INTER:                  -7.773
REMARK INTRA:                  -0.518
REMARK UNBOUND:                -1.824
REMARK SMILES C[C@@]12C[C@@]3(O)O[C@@H](O1)[C@]1(COC(=O)c4ccccc4)[C@H]3C[C@@]12O[C@H]1O[C@@H](CO)[C@H](O)[C@@H](O)[C@@H]1O
REMARK SMILES IDX 1 1 2 2 3 3 4 4 20 5 21 6 22 7 9 8 7 9 8 10 6 11 23 12 24 13
REMARK SMILES IDX 33 14 25 15 31 16 26 17 29 18 34 19 32 21 27 23 28 24 30 26
REMARK SMILES IDX 5 28 10 30 11 31 12 32 13 33 14 34 15 35 19 36 16 37 18 38
REMARK SMILES IDX 17 39
REMARK H PARENT 34 20 32 22 28 25 30 27 5 29
REMARK Flexibility Score: inf
ROOT
ATOM      1  C   UNL     1     -10.599   3.041   7.202  1.00  0.00     0.046 C 
ATOM      2  C   UNL     1     -11.496   2.750   5.981  1.00  0.00     0.104 C 
ATOM      3  C   UNL     1     -12.033   4.121   5.363  1.00  0.00     0.104 C 
ATOM      4  C   UNL     1     -12.883   3.679   4.093  1.00  0.00     0.175 C 
ATOM      5  C   UNL     1     -13.848   2.550   4.511  1.00  0.00     0.070 C 
ATOM      6  C   UNL     1     -14.125   2.483   6.029  1.00  0.00     0.050 C 
ATOM      7  C   UNL     1     -12.754   1.768   6.142  1.00  0.00     0.115 C 
ATOM      8  C   UNL     1     -12.854   1.374   4.635  1.00  0.00     0.096 C 
ATOM      9  C   UNL     1     -11.617   1.859   3.914  1.00  0.00     0.267 C 
ATOM     10  O   UNL     1     -10.688   2.232   4.937  1.00  0.00    -0.342 OA
ATOM     11  O   UNL     1     -12.011   3.040   3.222  1.00  0.00    -0.320 OA
ENDROOT
BRANCH   7  12
ATOM     12  O   UNL     1     -12.815   0.616   6.994  1.00  0.00    -0.339 OA
BRANCH  12  13
ATOM     13  C   UNL     1     -11.623  -0.009   7.483  1.00  0.00     0.282 C 
ATOM     14  C   UNL     1     -10.964   0.217   8.935  1.00  0.00     0.202 C 
ATOM     15  O   UNL     1     -10.678   0.060   6.436  1.00  0.00    -0.341 OA
ATOM     16  C   UNL     1      -9.621  -0.614   9.035  1.00  0.00     0.179 C 
ATOM     17  C   UNL     1      -9.782  -0.994   6.530  1.00  0.00     0.178 C 
ATOM     18  C   UNL     1      -8.848  -0.606   7.707  1.00  0.00     0.177 C 
BRANCH  14  19
ATOM     19  O   UNL     1     -11.863  -0.156   9.982  1.00  0.00    -0.385 OA
ATOM     20  H   UNL     1     -12.002  -1.137   9.852  1.00  0.00     0.211 HD
ENDBRANCH  14  19
BRANCH  16  21
ATOM     21  O   UNL     1      -8.813  -0.183  10.111  1.00  0.00    -0.387 OA
ATOM     22  H   UNL     1      -7.860  -0.209   9.810  1.00  0.00     0.211 HD
ENDBRANCH  16  21
BRANCH  17  23
ATOM     23  C   UNL     1      -9.120  -1.128   5.137  1.00  0.00     0.191 C 
BRANCH  23  24
ATOM     24  O   UNL     1      -8.682   0.098   4.614  1.00  0.00    -0.394 OA
ATOM     25  H   UNL     1      -9.394   0.786   4.765  1.00  0.00     0.210 HD
ENDBRANCH  23  24
ENDBRANCH  17  23
BRANCH  18  26
ATOM     26  O   UNL     1      -7.789  -1.529   7.766  1.00  0.00    -0.387 OA
ATOM     27  H   UNL     1      -7.573  -1.718   6.822  1.00  0.00     0.211 HD
ENDBRANCH  18  26
ENDBRANCH  12  13
ENDBRANCH   7  12
BRANCH   4  28
ATOM     28  O   UNL     1     -13.549   4.747   3.463  1.00  0.00    -0.365 OA
ATOM     29  H   UNL     1     -14.535   4.597   3.525  1.00  0.00     0.214 HD
ENDBRANCH   4  28
BRANCH   8  30
ATOM     30  C   UNL     1     -13.491   0.056   4.126  1.00  0.00     0.249 C 
BRANCH  30  31
ATOM     31  O   UNL     1     -12.646  -1.088   4.250  1.00  0.00    -0.461 OA
BRANCH  31  32
ATOM     32  C   UNL     1     -13.108  -2.388   4.486  1.00  0.00     0.338 C 
ATOM     33  O   UNL     1     -13.950  -2.888   3.699  1.00  0.00    -0.246 OA
BRANCH  32  34
ATOM     34  C   UNL     1     -12.730  -3.111   5.701  1.00  0.00     0.060 A 
ATOM     35  C   UNL     1     -11.650  -4.041   5.678  1.00  0.00     0.015 A 
ATOM     36  C   UNL     1     -13.400  -2.921   6.929  1.00  0.00     0.015 A 
ATOM     37  C   UNL     1     -11.290  -4.739   6.830  1.00  0.00     0.001 A 
ATOM     38  C   UNL     1     -13.029  -3.637   8.080  1.00  0.00     0.001 A 
ATOM     39  C   UNL     1     -11.947  -4.509   8.043  1.00  0.00     0.000 A 
ENDBRANCH  32  34
ENDBRANCH  31  32
ENDBRANCH  30  31
ENDBRANCH   8  30
TORSDOF 12
ENDMDL
