MODEL 1
REMARK VINA RESULT:    -4.802      0.000      0.000
REMARK INTER + INTRA:          -5.325
REMARK INTER:                  -5.082
REMARK INTRA:                  -0.243
REMARK UNBOUND:                -0.243
REMARK SMILES CC1=CC[C@H]2[C@H]3[C@@H]1[C@]2(C)CC[C@H]3C(C)C
REMARK SMILES IDX 1 1 2 2 3 3 4 4 5 5 6 6 7 7 8 8 10 9 11 10 12 11 9 12 13 13
REMARK SMILES IDX 14 14 15 15
REMARK H PARENT
REMARK Flexibility Score: inf
ROOT
ATOM      1  C   UNL     1      14.779   6.079  16.207  1.00  0.00     0.039 C 
ATOM      2  C   UNL     1      13.489   6.031  16.971  1.00  0.00    -0.073 C 
ATOM      3  C   UNL     1      12.800   4.870  17.116  1.00  0.00    -0.027 C 
ATOM      4  C   UNL     1      11.476   4.886  17.886  1.00  0.00     0.031 C 
ATOM      5  C   UNL     1      11.174   6.325  18.420  1.00  0.00     0.003 C 
ATOM      6  C   UNL     1      12.477   6.867  19.064  1.00  0.00     0.004 C 
ATOM      7  C   UNL     1      12.899   7.279  17.636  1.00  0.00     0.024 C 
ATOM      8  C   UNL     1      11.389   7.396  17.320  1.00  0.00    -0.022 C 
ATOM      9  C   UNL     1      10.875   8.787  17.803  1.00  0.00     0.008 C 
ATOM     10  C   UNL     1      11.051   8.990  19.333  1.00  0.00     0.005 C 
ATOM     11  C   UNL     1      12.227   8.150  19.918  1.00  0.00    -0.005 C 
ATOM     12  C   UNL     1      10.913   7.102  15.879  1.00  0.00     0.012 C 
ENDROOT
BRANCH  11  13
ATOM     13  C   UNL     1      12.052   7.871  21.442  1.00  0.00    -0.014 C 
ATOM     14  C   UNL     1      11.885   6.369  21.721  1.00  0.00     0.007 C 
ATOM     15  C   UNL     1      10.897   8.654  22.090  1.00  0.00     0.007 C 
ENDBRANCH  11  13
TORSDOF 1
ENDMDL
MODEL 2
REMARK VINA RESULT:    -4.578      1.324      4.546
REMARK INTER + INTRA:          -5.088
REMARK INTER:                  -4.714
REMARK INTRA:                  -0.374
REMARK UNBOUND:                -0.243
REMARK SMILES CC1=CC[C@H]2[C@H]3[C@@H]1[C@]2(C)CC[C@H]3C(C)C
REMARK SMILES IDX 1 1 2 2 3 3 4 4 5 5 6 6 7 7 8 8 10 9 11 10 12 11 9 12 13 13
REMARK SMILES IDX 14 14 15 15
REMARK H PARENT
REMARK Flexibility Score: inf
ROOT
ATOM      1  C   UNL     1      11.619   5.919  22.500  1.00  0.00     0.039 C 
ATOM      2  C   UNL     1      12.271   6.408  21.242  1.00  0.00    -0.073 C 
ATOM      3  C   UNL     1      13.369   7.206  21.282  1.00  0.00    -0.027 C 
ATOM      4  C   UNL     1      13.978   7.695  19.963  1.00  0.00     0.031 C 
ATOM      5  C   UNL     1      13.185   7.113  18.748  1.00  0.00     0.003 C 
ATOM      6  C   UNL     1      12.968   5.599  19.014  1.00  0.00     0.004 C 
ATOM      7  C   UNL     1      11.743   6.019  19.857  1.00  0.00     0.024 C 
ATOM      8  C   UNL     1      11.654   7.263  18.943  1.00  0.00    -0.022 C 
ATOM      9  C   UNL     1      10.895   6.881  17.635  1.00  0.00     0.008 C 
ATOM     10  C   UNL     1      11.615   5.763  16.834  1.00  0.00     0.005 C 
ATOM     11  C   UNL     1      12.482   4.837  17.741  1.00  0.00    -0.005 C 
ATOM     12  C   UNL     1      11.097   8.577  19.540  1.00  0.00     0.012 C 
ENDROOT
BRANCH  11  13
ATOM     13  C   UNL     1      13.627   4.137  16.947  1.00  0.00    -0.014 C 
ATOM     14  C   UNL     1      14.633   3.462  17.892  1.00  0.00     0.007 C 
ATOM     15  C   UNL     1      14.369   5.068  15.972  1.00  0.00     0.007 C 
ENDBRANCH  11  13
TORSDOF 1
ENDMDL
MODEL 3
REMARK VINA RESULT:    -4.567      1.693      4.080
REMARK INTER + INTRA:          -5.076
REMARK INTER:                  -4.804
REMARK INTRA:                  -0.272
REMARK UNBOUND:                -0.243
REMARK SMILES CC1=CC[C@H]2[C@H]3[C@@H]1[C@]2(C)CC[C@H]3C(C)C
REMARK SMILES IDX 1 1 2 2 3 3 4 4 5 5 6 6 7 7 8 8 10 9 11 10 12 11 9 12 13 13
REMARK SMILES IDX 14 14 15 15
REMARK H PARENT
REMARK Flexibility Score: inf
ROOT
ATOM      1  C   UNL     1      14.244  10.047  16.856  1.00  0.00     0.039 C 
ATOM      2  C   UNL     1      13.296   8.886  16.848  1.00  0.00    -0.073 C 
ATOM      3  C   UNL     1      12.358   8.749  15.875  1.00  0.00    -0.027 C 
ATOM      4  C   UNL     1      11.400   7.555  15.933  1.00  0.00     0.031 C 
ATOM      5  C   UNL     1      11.734   6.647  17.161  1.00  0.00     0.003 C 
ATOM      6  C   UNL     1      13.272   6.438  17.183  1.00  0.00     0.004 C 
ATOM      7  C   UNL     1      13.350   7.793  17.922  1.00  0.00     0.024 C 
ATOM      8  C   UNL     1      11.930   7.485  18.451  1.00  0.00    -0.022 C 
ATOM      9  C   UNL     1      12.042   6.554  19.697  1.00  0.00     0.008 C 
ATOM     10  C   UNL     1      12.724   5.198  19.369  1.00  0.00     0.005 C 
ATOM     11  C   UNL     1      13.700   5.296  18.157  1.00  0.00    -0.005 C 
ATOM     12  C   UNL     1      10.975   8.669  18.731  1.00  0.00     0.012 C 
ENDROOT
BRANCH  11  13
ATOM     13  C   UNL     1      13.914   3.917  17.459  1.00  0.00    -0.014 C 
ATOM     14  C   UNL     1      14.845   3.012  18.281  1.00  0.00     0.007 C 
ATOM     15  C   UNL     1      14.430   4.023  16.013  1.00  0.00     0.007 C 
ENDBRANCH  11  13
TORSDOF 1
ENDMDL
MODEL 4
REMARK VINA RESULT:    -4.562      1.892      2.955
REMARK INTER + INTRA:          -5.071
REMARK INTER:                  -4.857
REMARK INTRA:                  -0.214
REMARK UNBOUND:                -0.243
REMARK SMILES CC1=CC[C@H]2[C@H]3[C@@H]1[C@]2(C)CC[C@H]3C(C)C
REMARK SMILES IDX 1 1 2 2 3 3 4 4 5 5 6 6 7 7 8 8 10 9 11 10 12 11 9 12 13 13
REMARK SMILES IDX 14 14 15 15
REMARK H PARENT
REMARK Flexibility Score: inf
ROOT
ATOM      1  C   UNL     1      14.231   7.744  16.141  1.00  0.00     0.039 C 
ATOM      2  C   UNL     1      13.128   7.010  16.843  1.00  0.00    -0.073 C 
ATOM      3  C   UNL     1      12.143   6.386  16.146  1.00  0.00    -0.027 C 
ATOM      4  C   UNL     1      11.029   5.672  16.918  1.00  0.00     0.031 C 
ATOM      5  C   UNL     1      11.278   5.777  18.458  1.00  0.00     0.003 C 
ATOM      6  C   UNL     1      12.771   5.436  18.713  1.00  0.00     0.004 C 
ATOM      7  C   UNL     1      13.069   6.913  18.371  1.00  0.00     0.024 C 
ATOM      8  C   UNL     1      11.641   7.225  18.877  1.00  0.00    -0.022 C 
ATOM      9  C   UNL     1      11.669   7.354  20.431  1.00  0.00     0.008 C 
ATOM     10  C   UNL     1      12.139   6.049  21.129  1.00  0.00     0.005 C 
ATOM     11  C   UNL     1      13.071   5.187  20.225  1.00  0.00    -0.005 C 
ATOM     12  C   UNL     1      10.875   8.407  18.239  1.00  0.00     0.012 C 
ENDROOT
BRANCH  11  13
ATOM     13  C   UNL     1      13.060   3.681  20.632  1.00  0.00    -0.014 C 
ATOM     14  C   UNL     1      12.695   3.505  22.114  1.00  0.00     0.007 C 
ATOM     15  C   UNL     1      14.375   2.943  20.326  1.00  0.00     0.007 C 
ENDBRANCH  11  13
TORSDOF 1
ENDMDL
MODEL 5
REMARK VINA RESULT:    -4.561      1.953      3.970
REMARK INTER + INTRA:          -5.070
REMARK INTER:                  -4.788
REMARK INTRA:                  -0.282
REMARK UNBOUND:                -0.243
REMARK SMILES CC1=CC[C@H]2[C@H]3[C@@H]1[C@]2(C)CC[C@H]3C(C)C
REMARK SMILES IDX 1 1 2 2 3 3 4 4 5 5 6 6 7 7 8 8 10 9 11 10 12 11 9 12 13 13
REMARK SMILES IDX 14 14 15 15
REMARK H PARENT
REMARK Flexibility Score: inf
ROOT
ATOM      1  C   UNL     1      10.875   6.835  16.394  1.00  0.00     0.039 C 
ATOM      2  C   UNL     1      12.158   6.627  17.140  1.00  0.00    -0.073 C 
ATOM      3  C   UNL     1      12.976   7.670  17.440  1.00  0.00    -0.027 C 
ATOM      4  C   UNL     1      14.287   7.393  18.183  1.00  0.00     0.031 C 
ATOM      5  C   UNL     1      14.420   5.869  18.504  1.00  0.00     0.003 C 
ATOM      6  C   UNL     1      13.060   5.393  19.081  1.00  0.00     0.004 C 
ATOM      7  C   UNL     1      12.600   5.238  17.614  1.00  0.00     0.024 C 
ATOM      8  C   UNL     1      14.087   4.996  17.267  1.00  0.00    -0.022 C 
ATOM      9  C   UNL     1      14.437   3.501  17.541  1.00  0.00     0.008 C 
ATOM     10  C   UNL     1      14.232   3.105  19.029  1.00  0.00     0.005 C 
ATOM     11  C   UNL     1      13.158   3.982  19.741  1.00  0.00    -0.005 C 
ATOM     12  C   UNL     1      14.600   5.436  15.876  1.00  0.00     0.012 C 
ENDROOT
BRANCH  11  13
ATOM     13  C   UNL     1      13.359   4.019  21.288  1.00  0.00    -0.014 C 
ATOM     14  C   UNL     1      12.773   2.767  21.959  1.00  0.00     0.007 C 
ATOM     15  C   UNL     1      12.796   5.285  21.959  1.00  0.00     0.007 C 
ENDBRANCH  11  13
TORSDOF 1
ENDMDL
MODEL 6
REMARK VINA RESULT:    -4.399      1.481      4.753
REMARK INTER + INTRA:          -4.899
REMARK INTER:                  -4.682
REMARK INTRA:                  -0.217
REMARK UNBOUND:                -0.243
REMARK SMILES CC1=CC[C@H]2[C@H]3[C@@H]1[C@]2(C)CC[C@H]3C(C)C
REMARK SMILES IDX 1 1 2 2 3 3 4 4 5 5 6 6 7 7 8 8 10 9 11 10 12 11 9 12 13 13
REMARK SMILES IDX 14 14 15 15
REMARK H PARENT
REMARK Flexibility Score: inf
ROOT
ATOM      1  C   UNL     1      11.362   8.448  19.500  1.00  0.00     0.039 C 
ATOM      2  C   UNL     1      11.815   7.670  18.301  1.00  0.00    -0.073 C 
ATOM      3  C   UNL     1      11.330   7.941  17.062  1.00  0.00    -0.027 C 
ATOM      4  C   UNL     1      11.810   7.097  15.878  1.00  0.00     0.031 C 
ATOM      5  C   UNL     1      12.862   6.042  16.352  1.00  0.00     0.003 C 
ATOM      6  C   UNL     1      13.874   6.773  17.273  1.00  0.00     0.004 C 
ATOM      7  C   UNL     1      12.854   6.550  18.412  1.00  0.00     0.024 C 
ATOM      8  C   UNL     1      12.388   5.301  17.628  1.00  0.00    -0.022 C 
ATOM      9  C   UNL     1      13.340   4.110  17.956  1.00  0.00     0.008 C 
ATOM     10  C   UNL     1      14.812   4.394  17.550  1.00  0.00     0.005 C 
ATOM     11  C   UNL     1      15.150   5.916  17.549  1.00  0.00    -0.005 C 
ATOM     12  C   UNL     1      10.907   4.870  17.742  1.00  0.00     0.012 C 
ENDROOT
BRANCH  11  13
ATOM     13  C   UNL     1      16.352   6.252  16.614  1.00  0.00    -0.014 C 
ATOM     14  C   UNL     1      17.228   5.015  16.362  1.00  0.00     0.007 C 
ATOM     15  C   UNL     1      17.224   7.418  17.113  1.00  0.00     0.007 C 
ENDBRANCH  11  13
TORSDOF 1
ENDMDL
MODEL 7
REMARK VINA RESULT:    -4.393      2.430      4.218
REMARK INTER + INTRA:          -4.892
REMARK INTER:                  -4.500
REMARK INTRA:                  -0.392
REMARK UNBOUND:                -0.243
REMARK SMILES CC1=CC[C@H]2[C@H]3[C@@H]1[C@]2(C)CC[C@H]3C(C)C
REMARK SMILES IDX 1 1 2 2 3 3 4 4 5 5 6 6 7 7 8 8 10 9 11 10 12 11 9 12 13 13
REMARK SMILES IDX 14 14 15 15
REMARK H PARENT
REMARK Flexibility Score: inf
ROOT
ATOM      1  C   UNL     1      16.315   4.830  20.522  1.00  0.00     0.039 C 
ATOM      2  C   UNL     1      15.581   4.689  19.223  1.00  0.00    -0.073 C 
ATOM      3  C   UNL     1      15.292   3.466  18.706  1.00  0.00    -0.027 C 
ATOM      4  C   UNL     1      14.562   3.384  17.362  1.00  0.00     0.031 C 
ATOM      5  C   UNL     1      14.238   4.818  16.829  1.00  0.00     0.003 C 
ATOM      6  C   UNL     1      13.646   5.632  18.010  1.00  0.00     0.004 C 
ATOM      7  C   UNL     1      15.107   5.910  18.427  1.00  0.00     0.024 C 
ATOM      8  C   UNL     1      15.469   5.754  16.931  1.00  0.00    -0.022 C 
ATOM      9  C   UNL     1      15.194   7.103  16.198  1.00  0.00     0.008 C 
ATOM     10  C   UNL     1      13.703   7.531  16.277  1.00  0.00     0.005 C 
ATOM     11  C   UNL     1      12.982   6.964  17.538  1.00  0.00    -0.005 C 
ATOM     12  C   UNL     1      16.866   5.202  16.565  1.00  0.00     0.012 C 
ENDROOT
BRANCH  11  13
ATOM     13  C   UNL     1      11.438   6.866  17.341  1.00  0.00    -0.014 C 
ATOM     14  C   UNL     1      10.877   5.570  17.947  1.00  0.00     0.007 C 
ATOM     15  C   UNL     1      10.988   6.995  15.875  1.00  0.00     0.007 C 
ENDBRANCH  11  13
TORSDOF 1
ENDMDL
MODEL 8
REMARK VINA RESULT:    -4.387      2.466      4.481
REMARK INTER + INTRA:          -4.885
REMARK INTER:                  -4.470
REMARK INTRA:                  -0.415
REMARK UNBOUND:                -0.243
REMARK SMILES CC1=CC[C@H]2[C@H]3[C@@H]1[C@]2(C)CC[C@H]3C(C)C
REMARK SMILES IDX 1 1 2 2 3 3 4 4 5 5 6 6 7 7 8 8 10 9 11 10 12 11 9 12 13 13
REMARK SMILES IDX 14 14 15 15
REMARK H PARENT
REMARK Flexibility Score: inf
ROOT
ATOM      1  C   UNL     1      16.462   5.339  20.901  1.00  0.00     0.039 C 
ATOM      2  C   UNL     1      15.254   4.840  20.166  1.00  0.00    -0.073 C 
ATOM      3  C   UNL     1      14.332   4.052  20.779  1.00  0.00    -0.027 C 
ATOM      4  C   UNL     1      13.131   3.552  19.970  1.00  0.00     0.031 C 
ATOM      5  C   UNL     1      13.184   4.113  18.512  1.00  0.00     0.003 C 
ATOM      6  C   UNL     1      13.508   5.628  18.606  1.00  0.00     0.004 C 
ATOM      7  C   UNL     1      14.992   5.208  18.702  1.00  0.00     0.024 C 
ATOM      8  C   UNL     1      14.596   3.951  17.892  1.00  0.00    -0.022 C 
ATOM      9  C   UNL     1      14.572   4.311  16.374  1.00  0.00     0.008 C 
ATOM     10  C   UNL     1      13.543   5.426  16.042  1.00  0.00     0.005 C 
ATOM     11  C   UNL     1      13.269   6.370  17.253  1.00  0.00    -0.005 C 
ATOM     12  C   UNL     1      15.379   2.640  18.136  1.00  0.00     0.012 C 
ENDROOT
BRANCH  11  13
ATOM     13  C   UNL     1      11.879   7.070  17.152  1.00  0.00    -0.014 C 
ATOM     14  C   UNL     1      11.263   7.293  18.542  1.00  0.00     0.007 C 
ATOM     15  C   UNL     1      10.875   6.335  16.247  1.00  0.00     0.007 C 
ENDBRANCH  11  13
TORSDOF 1
ENDMDL
