MODEL 1
REMARK VINA RESULT:    -5.058      0.000      0.000
REMARK INTER + INTRA:          -5.058
REMARK INTER:                  -5.058
REMARK INTRA:                   0.000
REMARK UNBOUND:                 0.000
REMARK SMILES CC(C)=C1CC[C@H](C)CC1=O
REMARK SMILES IDX 8 1 7 2 6 3 5 4 4 5 2 6 1 7 3 8 10 9 11 10 9 11
REMARK H PARENT
REMARK Flexibility Score: inf
ROOT
ATOM      1  C   UNL     1       1.495  25.774  54.369  1.00  0.00     0.008 C 
ATOM      2  C   UNL     1       0.472  26.884  54.100  1.00  0.00    -0.006 C 
ATOM      3  C   UNL     1       1.153  28.104  53.460  1.00  0.00     0.008 C 
ATOM      4  C   UNL     1       0.164  29.263  53.278  1.00  0.00     0.039 C 
ATOM      5  C   UNL     1      -1.098  28.843  52.537  1.00  0.00    -0.006 C 
ATOM      6  C   UNL     1      -1.770  29.714  51.730  1.00  0.00    -0.070 C 
ATOM      7  C   UNL     1      -1.300  31.141  51.552  1.00  0.00     0.039 C 
ATOM      8  C   UNL     1      -2.991  29.293  50.945  1.00  0.00     0.039 C 
ATOM      9  C   UNL     1      -1.609  27.472  52.838  1.00  0.00     0.159 C 
ATOM     10  O   UNL     1      -2.842  27.214  52.814  1.00  0.00    -0.295 OA
ATOM     11  C   UNL     1      -0.651  26.371  53.186  1.00  0.00     0.084 C 
ENDROOT
TORSDOF 0
ENDMDL
MODEL 2
REMARK VINA RESULT:    -4.889      2.266      2.994
REMARK INTER + INTRA:          -4.889
REMARK INTER:                  -4.889
REMARK INTRA:                   0.000
REMARK UNBOUND:                 0.000
REMARK SMILES CC(C)=C1CC[C@H](C)CC1=O
REMARK SMILES IDX 8 1 7 2 6 3 5 4 4 5 2 6 1 7 3 8 10 9 11 10 9 11
REMARK H PARENT
REMARK Flexibility Score: inf
ROOT
ATOM      1  C   UNL     1      -1.329  28.321  54.869  1.00  0.00     0.008 C 
ATOM      2  C   UNL     1      -1.116  29.290  53.701  1.00  0.00    -0.006 C 
ATOM      3  C   UNL     1      -0.016  28.771  52.762  1.00  0.00     0.008 C 
ATOM      4  C   UNL     1       0.283  29.777  51.643  1.00  0.00     0.039 C 
ATOM      5  C   UNL     1      -0.971  30.206  50.893  1.00  0.00    -0.006 C 
ATOM      6  C   UNL     1      -0.929  30.530  49.567  1.00  0.00    -0.070 C 
ATOM      7  C   UNL     1       0.369  30.495  48.792  1.00  0.00     0.039 C 
ATOM      8  C   UNL     1      -2.176  30.902  48.799  1.00  0.00     0.039 C 
ATOM      9  C   UNL     1      -2.207  30.358  51.716  1.00  0.00     0.159 C 
ATOM     10  O   UNL     1      -3.084  31.217  51.428  1.00  0.00    -0.295 OA
ATOM     11  C   UNL     1      -2.423  29.486  52.918  1.00  0.00     0.084 C 
ENDROOT
TORSDOF 0
ENDMDL
MODEL 3
REMARK VINA RESULT:    -4.885      1.177      4.059
REMARK INTER + INTRA:          -4.885
REMARK INTER:                  -4.885
REMARK INTRA:                   0.000
REMARK UNBOUND:                 0.000
REMARK SMILES CC(C)=C1CC[C@H](C)CC1=O
REMARK SMILES IDX 8 1 7 2 6 3 5 4 4 5 2 6 1 7 3 8 10 9 11 10 9 11
REMARK H PARENT
REMARK Flexibility Score: inf
ROOT
ATOM      1  C   UNL     1      -3.078  30.624  52.007  1.00  0.00     0.008 C 
ATOM      2  C   UNL     1      -1.944  29.593  52.005  1.00  0.00    -0.006 C 
ATOM      3  C   UNL     1      -0.615  30.250  52.408  1.00  0.00     0.008 C 
ATOM      4  C   UNL     1       0.550  29.257  52.312  1.00  0.00     0.039 C 
ATOM      5  C   UNL     1       0.282  27.967  53.075  1.00  0.00    -0.006 C 
ATOM      6  C   UNL     1       1.295  27.265  53.662  1.00  0.00    -0.070 C 
ATOM      7  C   UNL     1       2.731  27.730  53.563  1.00  0.00     0.039 C 
ATOM      8  C   UNL     1       1.034  26.015  54.470  1.00  0.00     0.039 C 
ATOM      9  C   UNL     1      -1.125  27.466  53.041  1.00  0.00     0.159 C 
ATOM     10  O   UNL     1      -1.381  26.232  53.071  1.00  0.00    -0.295 OA
ATOM     11  C   UNL     1      -2.268  28.435  52.962  1.00  0.00     0.084 C 
ENDROOT
TORSDOF 0
ENDMDL
MODEL 4
REMARK VINA RESULT:    -4.813      1.550      2.437
REMARK INTER + INTRA:          -4.813
REMARK INTER:                  -4.813
REMARK INTRA:                   0.000
REMARK UNBOUND:                 0.000
REMARK SMILES CC(C)=C1CC[C@H](C)CC1=O
REMARK SMILES IDX 8 1 7 2 6 3 5 4 4 5 2 6 1 7 3 8 10 9 11 10 9 11
REMARK H PARENT
REMARK Flexibility Score: inf
ROOT
ATOM      1  C   UNL     1       0.853  25.833  54.384  1.00  0.00     0.008 C 
ATOM      2  C   UNL     1       0.327  26.731  53.258  1.00  0.00    -0.006 C 
ATOM      3  C   UNL     1      -1.203  26.631  53.156  1.00  0.00     0.008 C 
ATOM      4  C   UNL     1      -1.737  27.443  51.969  1.00  0.00     0.039 C 
ATOM      5  C   UNL     1      -1.246  28.884  51.980  1.00  0.00    -0.006 C 
ATOM      6  C   UNL     1      -2.013  29.900  51.485  1.00  0.00    -0.070 C 
ATOM      7  C   UNL     1      -3.377  29.632  50.888  1.00  0.00     0.039 C 
ATOM      8  C   UNL     1      -1.561  31.340  51.542  1.00  0.00     0.039 C 
ATOM      9  C   UNL     1       0.155  29.096  52.453  1.00  0.00     0.159 C 
ATOM     10  O   UNL     1       0.870  30.024  51.988  1.00  0.00    -0.295 OA
ATOM     11  C   UNL     1       0.742  28.191  53.497  1.00  0.00     0.084 C 
ENDROOT
TORSDOF 0
ENDMDL
MODEL 5
REMARK VINA RESULT:    -4.807      2.139      4.687
REMARK INTER + INTRA:          -4.807
REMARK INTER:                  -4.807
REMARK INTRA:                   0.000
REMARK UNBOUND:                 0.000
REMARK SMILES CC(C)=C1CC[C@H](C)CC1=O
REMARK SMILES IDX 8 1 7 2 6 3 5 4 4 5 2 6 1 7 3 8 10 9 11 10 9 11
REMARK H PARENT
REMARK Flexibility Score: inf
ROOT
ATOM      1  C   UNL     1      -1.885  31.110  48.592  1.00  0.00     0.008 C 
ATOM      2  C   UNL     1      -1.699  30.933  50.103  1.00  0.00    -0.006 C 
ATOM      3  C   UNL     1      -3.006  30.457  50.757  1.00  0.00     0.008 C 
ATOM      4  C   UNL     1      -2.869  30.372  52.282  1.00  0.00     0.039 C 
ATOM      5  C   UNL     1      -1.665  29.546  52.715  1.00  0.00    -0.006 C 
ATOM      6  C   UNL     1      -1.681  28.819  53.870  1.00  0.00    -0.070 C 
ATOM      7  C   UNL     1      -2.890  28.818  54.779  1.00  0.00     0.039 C 
ATOM      8  C   UNL     1      -0.515  27.951  54.281  1.00  0.00     0.039 C 
ATOM      9  C   UNL     1      -0.442  29.674  51.866  1.00  0.00     0.159 C 
ATOM     10  O   UNL     1       0.712  29.579  52.362  1.00  0.00    -0.295 OA
ATOM     11  C   UNL     1      -0.573  29.929  50.393  1.00  0.00     0.084 C 
ENDROOT
TORSDOF 0
ENDMDL
MODEL 6
REMARK VINA RESULT:    -4.737      1.656      4.490
REMARK INTER + INTRA:          -4.737
REMARK INTER:                  -4.737
REMARK INTRA:                   0.000
REMARK UNBOUND:                 0.000
REMARK SMILES CC(C)=C1CC[C@H](C)CC1=O
REMARK SMILES IDX 8 1 7 2 6 3 5 4 4 5 2 6 1 7 3 8 10 9 11 10 9 11
REMARK H PARENT
REMARK Flexibility Score: inf
ROOT
ATOM      1  C   UNL     1      -3.019  29.556  51.274  1.00  0.00     0.008 C 
ATOM      2  C   UNL     1      -2.357  28.568  52.242  1.00  0.00    -0.006 C 
ATOM      3  C   UNL     1      -1.286  27.737  51.518  1.00  0.00     0.008 C 
ATOM      4  C   UNL     1      -0.685  26.673  52.445  1.00  0.00     0.039 C 
ATOM      5  C   UNL     1      -0.182  27.258  53.758  1.00  0.00    -0.006 C 
ATOM      6  C   UNL     1       0.890  26.720  54.411  1.00  0.00    -0.070 C 
ATOM      7  C   UNL     1       1.611  25.508  53.867  1.00  0.00     0.039 C 
ATOM      8  C   UNL     1       1.433  27.327  55.683  1.00  0.00     0.039 C 
ATOM      9  C   UNL     1      -0.996  28.370  54.334  1.00  0.00     0.159 C 
ATOM     10  O   UNL     1      -1.091  28.533  55.580  1.00  0.00    -0.295 OA
ATOM     11  C   UNL     1      -1.728  29.315  53.427  1.00  0.00     0.084 C 
ENDROOT
TORSDOF 0
ENDMDL
MODEL 7
REMARK VINA RESULT:    -4.479      1.714      4.764
REMARK INTER + INTRA:          -4.479
REMARK INTER:                  -4.479
REMARK INTRA:                   0.000
REMARK UNBOUND:                 0.000
REMARK SMILES CC(C)=C1CC[C@H](C)CC1=O
REMARK SMILES IDX 8 1 7 2 6 3 5 4 4 5 2 6 1 7 3 8 10 9 11 10 9 11
REMARK H PARENT
REMARK Flexibility Score: inf
ROOT
ATOM      1  C   UNL     1      -3.465  30.756  49.700  1.00  0.00     0.008 C 
ATOM      2  C   UNL     1      -2.818  30.127  50.939  1.00  0.00    -0.006 C 
ATOM      3  C   UNL     1      -2.907  28.594  50.877  1.00  0.00     0.008 C 
ATOM      4  C   UNL     1      -2.356  27.951  52.156  1.00  0.00     0.039 C 
ATOM      5  C   UNL     1      -0.957  28.441  52.500  1.00  0.00    -0.006 C 
ATOM      6  C   UNL     1      -0.055  27.631  53.129  1.00  0.00    -0.070 C 
ATOM      7  C   UNL     1      -0.416  26.217  53.527  1.00  0.00     0.039 C 
ATOM      8  C   UNL     1       1.354  28.087  53.424  1.00  0.00     0.039 C 
ATOM      9  C   UNL     1      -0.677  29.880  52.214  1.00  0.00     0.159 C 
ATOM     10  O   UNL     1       0.115  30.548  52.931  1.00  0.00    -0.295 OA
ATOM     11  C   UNL     1      -1.350  30.562  51.059  1.00  0.00     0.084 C 
ENDROOT
TORSDOF 0
ENDMDL
MODEL 8
REMARK VINA RESULT:    -4.146      1.830      4.506
REMARK INTER + INTRA:          -4.146
REMARK INTER:                  -4.146
REMARK INTRA:                   0.000
REMARK UNBOUND:                 0.000
REMARK SMILES CC(C)=C1CC[C@H](C)CC1=O
REMARK SMILES IDX 8 1 7 2 6 3 5 4 4 5 2 6 1 7 3 8 10 9 11 10 9 11
REMARK H PARENT
REMARK Flexibility Score: inf
ROOT
ATOM      1  C   UNL     1      -1.576  31.406  48.928  1.00  0.00     0.008 C 
ATOM      2  C   UNL     1      -1.963  30.376  49.994  1.00  0.00    -0.006 C 
ATOM      3  C   UNL     1      -0.826  29.363  50.206  1.00  0.00     0.008 C 
ATOM      4  C   UNL     1      -1.234  28.264  51.195  1.00  0.00     0.039 C 
ATOM      5  C   UNL     1      -1.767  28.827  52.506  1.00  0.00    -0.006 C 
ATOM      6  C   UNL     1      -1.588  28.166  53.687  1.00  0.00    -0.070 C 
ATOM      7  C   UNL     1      -0.869  26.836  53.740  1.00  0.00     0.039 C 
ATOM      8  C   UNL     1      -2.061  28.742  55.001  1.00  0.00     0.039 C 
ATOM      9  C   UNL     1      -2.586  30.072  52.401  1.00  0.00     0.159 C 
ATOM     10  O   UNL     1      -3.531  30.303  53.201  1.00  0.00    -0.295 OA
ATOM     11  C   UNL     1      -2.297  31.074  51.322  1.00  0.00     0.084 C 
ENDROOT
TORSDOF 0
ENDMDL
MODEL 9
REMARK VINA RESULT:    -4.137      2.137      3.247
REMARK INTER + INTRA:          -4.137
REMARK INTER:                  -4.137
REMARK INTRA:                   0.000
REMARK UNBOUND:                 0.000
REMARK SMILES CC(C)=C1CC[C@H](C)CC1=O
REMARK SMILES IDX 8 1 7 2 6 3 5 4 4 5 2 6 1 7 3 8 10 9 11 10 9 11
REMARK H PARENT
REMARK Flexibility Score: inf
ROOT
ATOM      1  C   UNL     1      -0.192  28.131  54.445  1.00  0.00     0.008 C 
ATOM      2  C   UNL     1      -0.729  28.379  53.031  1.00  0.00    -0.006 C 
ATOM      3  C   UNL     1      -2.230  28.708  53.072  1.00  0.00     0.008 C 
ATOM      4  C   UNL     1      -2.807  28.859  51.659  1.00  0.00     0.039 C 
ATOM      5  C   UNL     1      -2.016  29.842  50.807  1.00  0.00    -0.006 C 
ATOM      6  C   UNL     1      -2.625  30.598  49.846  1.00  0.00    -0.070 C 
ATOM      7  C   UNL     1      -4.108  30.478  49.576  1.00  0.00     0.039 C 
ATOM      8  C   UNL     1      -1.861  31.618  49.034  1.00  0.00     0.039 C 
ATOM      9  C   UNL     1      -0.536  29.841  51.007  1.00  0.00     0.159 C 
ATOM     10  O   UNL     1       0.253  30.095  50.058  1.00  0.00    -0.295 OA
ATOM     11  C   UNL     1       0.041  29.524  52.356  1.00  0.00     0.084 C 
ENDROOT
TORSDOF 0
ENDMDL
