MODEL 1
REMARK VINA RESULT:    -5.424      0.000      0.000
REMARK INTER + INTRA:          -9.465
REMARK INTER:                  -8.277
REMARK INTRA:                  -1.188
REMARK UNBOUND:                -1.188
REMARK SMILES CCCCCCCCCC=CC(=O)[O-]
REMARK SMILES IDX 7 1 8 2 9 3 10 4 11 5 12 6 13 7 14 8 6 9 5 10 4 11 3 12 2 13
REMARK SMILES IDX 1 14
REMARK H PARENT
REMARK Flexibility Score: inf
ROOT
ATOM      1  C   UNL     1      10.870 -15.017  36.767  1.00  0.00     0.000 C 
ENDROOT
BRANCH   1   2
ATOM      2  C   UNL     1      12.238 -14.334  36.920  1.00  0.00     0.004 C 
BRANCH   2   3
ATOM      3  C   UNL     1      12.441 -13.188  35.917  1.00  0.00     0.027 C 
BRANCH   3   4
ATOM      4  C   UNL     1      12.333 -11.852  36.592  1.00  0.00    -0.025 C 
ATOM      5  C   UNL     1      12.794 -11.657  37.832  1.00  0.00     0.020 C 
BRANCH   5   6
ATOM      6  C   UNL     1      12.683 -10.357  38.512  1.00  0.00     0.064 C 
ATOM      7  O   UNL     1      12.099  -9.402  37.936  1.00  0.00    -0.545 OA
ATOM      8  O   UNL     1      13.212 -10.167  39.784  1.00  0.00    -0.545 OA
ENDBRANCH   5   6
ENDBRANCH   3   4
ENDBRANCH   2   3
ENDBRANCH   1   2
BRANCH   1   9
ATOM      9  C   UNL     1      10.023 -14.935  38.050  1.00  0.00     0.000 C 
BRANCH   9  10
ATOM     10  C   UNL     1       9.201 -13.639  38.137  1.00  0.00     0.000 C 
BRANCH  10  11
ATOM     11  C   UNL     1       7.724 -13.851  37.763  1.00  0.00    -0.000 C 
BRANCH  11  12
ATOM     12  C   UNL     1       7.286 -13.011  36.550  1.00  0.00    -0.000 C 
BRANCH  12  13
ATOM     13  C   UNL     1       7.911 -13.431  35.208  1.00  0.00    -0.003 C 
ATOM     14  C   UNL     1       8.901 -12.404  34.660  1.00  0.00     0.004 C 
ENDBRANCH  12  13
ENDBRANCH  11  12
ENDBRANCH  10  11
ENDBRANCH   9  10
ENDBRANCH   1   9
TORSDOF 9
ENDMDL
MODEL 2
REMARK VINA RESULT:    -5.404      1.902      2.350
REMARK INTER + INTRA:          -9.435
REMARK INTER:                  -7.935
REMARK INTRA:                  -1.500
REMARK UNBOUND:                -1.188
REMARK SMILES CCCCCCCCCC=CC(=O)[O-]
REMARK SMILES IDX 7 1 8 2 9 3 10 4 11 5 12 6 13 7 14 8 6 9 5 10 4 11 3 12 2 13
REMARK SMILES IDX 1 14
REMARK H PARENT
REMARK Flexibility Score: inf
ROOT
ATOM      1  C   UNL     1       9.873 -14.975  38.388  1.00  0.00     0.000 C 
ENDROOT
BRANCH   1   2
ATOM      2  C   UNL     1      10.571 -14.999  37.019  1.00  0.00     0.004 C 
BRANCH   2   3
ATOM      3  C   UNL     1      12.050 -14.592  37.104  1.00  0.00     0.027 C 
BRANCH   3   4
ATOM      4  C   UNL     1      12.238 -13.153  36.718  1.00  0.00    -0.025 C 
ATOM      5  C   UNL     1      11.663 -12.642  35.624  1.00  0.00     0.020 C 
BRANCH   5   6
ATOM      6  C   UNL     1      11.850 -11.239  35.225  1.00  0.00     0.064 C 
ATOM      7  O   UNL     1      11.027 -10.368  35.611  1.00  0.00    -0.545 OA
ATOM      8  O   UNL     1      12.925 -10.858  34.429  1.00  0.00    -0.545 OA
ENDBRANCH   5   6
ENDBRANCH   3   4
ENDBRANCH   2   3
ENDBRANCH   1   2
BRANCH   1   9
ATOM      9  C   UNL     1       8.589 -14.127  38.379  1.00  0.00     0.000 C 
BRANCH   9  10
ATOM     10  C   UNL     1       8.862 -12.638  38.111  1.00  0.00     0.000 C 
BRANCH  10  11
ATOM     11  C   UNL     1       8.069 -12.100  36.908  1.00  0.00    -0.000 C 
BRANCH  11  12
ATOM     12  C   UNL     1       7.336 -13.208  36.129  1.00  0.00    -0.000 C 
BRANCH  12  13
ATOM     13  C   UNL     1       7.967 -13.578  34.775  1.00  0.00    -0.003 C 
ATOM     14  C   UNL     1       8.378 -12.357  33.952  1.00  0.00     0.004 C 
ENDBRANCH  12  13
ENDBRANCH  11  12
ENDBRANCH  10  11
ENDBRANCH   9  10
ENDBRANCH   1   9
TORSDOF 9
ENDMDL
MODEL 3
REMARK VINA RESULT:    -5.346      2.495      5.058
REMARK INTER + INTRA:          -9.347
REMARK INTER:                  -8.094
REMARK INTRA:                  -1.253
REMARK UNBOUND:                -1.188
REMARK SMILES CCCCCCCCCC=CC(=O)[O-]
REMARK SMILES IDX 7 1 8 2 9 3 10 4 11 5 12 6 13 7 14 8 6 9 5 10 4 11 3 12 2 13
REMARK SMILES IDX 1 14
REMARK H PARENT
REMARK Flexibility Score: inf
ROOT
ATOM      1  C   UNL     1      13.276 -13.485  36.172  1.00  0.00     0.000 C 
ENDROOT
BRANCH   1   2
ATOM      2  C   UNL     1      12.654 -14.270  37.339  1.00  0.00     0.004 C 
BRANCH   2   3
ATOM      3  C   UNL     1      11.381 -15.026  36.929  1.00  0.00     0.027 C 
BRANCH   3   4
ATOM      4  C   UNL     1      10.240 -14.703  37.849  1.00  0.00    -0.025 C 
ATOM      5  C   UNL     1       9.365 -13.733  37.564  1.00  0.00     0.020 C 
BRANCH   5   6
ATOM      6  C   UNL     1       8.251 -13.396  38.463  1.00  0.00     0.064 C 
ATOM      7  O   UNL     1       8.140 -12.221  38.901  1.00  0.00    -0.545 OA
ATOM      8  O   UNL     1       7.317 -14.355  38.836  1.00  0.00    -0.545 OA
ENDBRANCH   5   6
ENDBRANCH   3   4
ENDBRANCH   2   3
ENDBRANCH   1   2
BRANCH   1   9
ATOM      9  C   UNL     1      12.237 -12.641  35.411  1.00  0.00     0.000 C 
BRANCH   9  10
ATOM     10  C   UNL     1      12.763 -11.246  35.039  1.00  0.00     0.000 C 
BRANCH  10  11
ATOM     11  C   UNL     1      13.675 -10.650  36.125  1.00  0.00    -0.000 C 
BRANCH  11  12
ATOM     12  C   UNL     1      12.914  -9.758  37.123  1.00  0.00    -0.000 C 
BRANCH  12  13
ATOM     13  C   UNL     1      12.795 -10.331  38.547  1.00  0.00    -0.003 C 
ATOM     14  C   UNL     1      11.399 -10.870  38.861  1.00  0.00     0.004 C 
ENDBRANCH  12  13
ENDBRANCH  11  12
ENDBRANCH  10  11
ENDBRANCH   9  10
ENDBRANCH   1   9
TORSDOF 9
ENDMDL
MODEL 4
REMARK VINA RESULT:    -5.335      2.754      5.182
REMARK INTER + INTRA:          -9.330
REMARK INTER:                  -8.003
REMARK INTRA:                  -1.327
REMARK UNBOUND:                -1.188
REMARK SMILES CCCCCCCCCC=CC(=O)[O-]
REMARK SMILES IDX 7 1 8 2 9 3 10 4 11 5 12 6 13 7 14 8 6 9 5 10 4 11 3 12 2 13
REMARK SMILES IDX 1 14
REMARK H PARENT
REMARK Flexibility Score: inf
ROOT
ATOM      1  C   UNL     1      12.612 -14.275  37.354  1.00  0.00     0.000 C 
ENDROOT
BRANCH   1   2
ATOM      2  C   UNL     1      11.269 -14.895  36.935  1.00  0.00     0.004 C 
BRANCH   2   3
ATOM      3  C   UNL     1      10.135 -14.565  37.917  1.00  0.00     0.027 C 
BRANCH   3   4
ATOM      4  C   UNL     1       9.088 -13.708  37.265  1.00  0.00    -0.025 C 
ATOM      5  C   UNL     1       8.748 -13.874  35.983  1.00  0.00     0.020 C 
BRANCH   5   6
ATOM      6  C   UNL     1       7.735 -13.033  35.328  1.00  0.00     0.064 C 
ATOM      7  O   UNL     1       7.595 -13.088  34.078  1.00  0.00    -0.545 OA
ATOM      8  O   UNL     1       6.927 -12.177  36.069  1.00  0.00    -0.545 OA
ENDBRANCH   5   6
ENDBRANCH   3   4
ENDBRANCH   2   3
ENDBRANCH   1   2
BRANCH   1   9
ATOM      9  C   UNL     1      13.234 -13.410  36.243  1.00  0.00     0.000 C 
BRANCH   9  10
ATOM     10  C   UNL     1      12.190 -12.564  35.496  1.00  0.00     0.000 C 
BRANCH  10  11
ATOM     11  C   UNL     1      11.964 -11.192  36.152  1.00  0.00    -0.000 C 
BRANCH  11  12
ATOM     12  C   UNL     1      13.187 -10.700  36.947  1.00  0.00    -0.000 C 
BRANCH  12  13
ATOM     13  C   UNL     1      12.952 -10.525  38.459  1.00  0.00    -0.003 C 
ATOM     14  C   UNL     1      11.501 -10.766  38.872  1.00  0.00     0.004 C 
ENDBRANCH  12  13
ENDBRANCH  11  12
ENDBRANCH  10  11
ENDBRANCH   9  10
ENDBRANCH   1   9
TORSDOF 9
ENDMDL
MODEL 5
REMARK VINA RESULT:    -5.245      1.457      3.237
REMARK INTER + INTRA:          -9.193
REMARK INTER:                  -7.598
REMARK INTRA:                  -1.595
REMARK UNBOUND:                -1.188
REMARK SMILES CCCCCCCCCC=CC(=O)[O-]
REMARK SMILES IDX 7 1 8 2 9 3 10 4 11 5 12 6 13 7 14 8 6 9 5 10 4 11 3 12 2 13
REMARK SMILES IDX 1 14
REMARK H PARENT
REMARK Flexibility Score: inf
ROOT
ATOM      1  C   UNL     1       7.346 -13.481  36.044  1.00  0.00     0.000 C 
ENDROOT
BRANCH   1   2
ATOM      2  C   UNL     1       8.428 -13.489  34.953  1.00  0.00     0.004 C 
BRANCH   2   3
ATOM      3  C   UNL     1       9.100 -12.118  34.779  1.00  0.00     0.027 C 
BRANCH   3   4
ATOM      4  C   UNL     1      10.546 -12.169  35.181  1.00  0.00    -0.025 C 
ATOM      5  C   UNL     1      11.017 -11.429  36.189  1.00  0.00     0.020 C 
BRANCH   5   6
ATOM      6  C   UNL     1      12.433 -11.458  36.585  1.00  0.00     0.064 C 
ATOM      7  O   UNL     1      13.027 -10.381  36.851  1.00  0.00    -0.545 OA
ATOM      8  O   UNL     1      13.128 -12.660  36.672  1.00  0.00    -0.545 OA
ENDBRANCH   5   6
ENDBRANCH   3   4
ENDBRANCH   2   3
ENDBRANCH   1   2
BRANCH   1   9
ATOM      9  C   UNL     1       7.528 -12.326  37.045  1.00  0.00     0.000 C 
BRANCH   9  10
ATOM     10  C   UNL     1       8.237 -12.765  38.337  1.00  0.00     0.000 C 
BRANCH  10  11
ATOM     11  C   UNL     1       7.918 -14.221  38.719  1.00  0.00    -0.000 C 
BRANCH  11  12
ATOM     12  C   UNL     1       9.176 -15.100  38.831  1.00  0.00    -0.000 C 
BRANCH  12  13
ATOM     13  C   UNL     1      10.400 -14.587  38.050  1.00  0.00    -0.003 C 
ATOM     14  C   UNL     1      10.787 -15.493  36.881  1.00  0.00     0.004 C 
ENDBRANCH  12  13
ENDBRANCH  11  12
ENDBRANCH  10  11
ENDBRANCH   9  10
ENDBRANCH   1   9
TORSDOF 9
ENDMDL
MODEL 6
REMARK VINA RESULT:    -5.201      2.899      5.443
REMARK INTER + INTRA:          -9.126
REMARK INTER:                  -8.619
REMARK INTRA:                  -0.507
REMARK UNBOUND:                -1.188
REMARK SMILES CCCCCCCCCC=CC(=O)[O-]
REMARK SMILES IDX 7 1 8 2 9 3 10 4 11 5 12 6 13 7 14 8 6 9 5 10 4 11 3 12 2 13
REMARK SMILES IDX 1 14
REMARK H PARENT
REMARK Flexibility Score: inf
ROOT
ATOM      1  C   UNL     1       9.909 -13.118  38.051  1.00  0.00     0.000 C 
ENDROOT
BRANCH   1   2
ATOM      2  C   UNL     1       8.458 -12.975  38.537  1.00  0.00     0.004 C 
BRANCH   2   3
ATOM      3  C   UNL     1       7.468 -13.784  37.685  1.00  0.00     0.027 C 
BRANCH   3   4
ATOM      4  C   UNL     1       7.389 -13.242  36.287  1.00  0.00    -0.025 C 
ATOM      5  C   UNL     1       8.186 -13.698  35.315  1.00  0.00     0.020 C 
BRANCH   5   6
ATOM      6  C   UNL     1       8.130 -13.167  33.945  1.00  0.00     0.064 C 
ATOM      7  O   UNL     1       8.799 -12.144  33.646  1.00  0.00    -0.545 OA
ATOM      8  O   UNL     1       7.349 -13.781  32.971  1.00  0.00    -0.545 OA
ENDBRANCH   5   6
ENDBRANCH   3   4
ENDBRANCH   2   3
ENDBRANCH   1   2
BRANCH   1   9
ATOM      9  C   UNL     1      10.394 -14.579  38.069  1.00  0.00     0.000 C 
BRANCH   9  10
ATOM     10  C   UNL     1      11.375 -14.894  36.928  1.00  0.00     0.000 C 
BRANCH  10  11
ATOM     11  C   UNL     1      12.593 -13.955  36.923  1.00  0.00    -0.000 C 
BRANCH  11  12
ATOM     12  C   UNL     1      12.714 -13.139  35.623  1.00  0.00    -0.000 C 
BRANCH  12  13
ATOM     13  C   UNL     1      13.344 -11.744  35.788  1.00  0.00    -0.003 C 
ATOM     14  C   UNL     1      14.038 -11.247  34.520  1.00  0.00     0.004 C 
ENDBRANCH  12  13
ENDBRANCH  11  12
ENDBRANCH  10  11
ENDBRANCH   9  10
ENDBRANCH   1   9
TORSDOF 9
ENDMDL
MODEL 7
REMARK VINA RESULT:    -5.097      2.788      4.956
REMARK INTER + INTRA:          -8.966
REMARK INTER:                  -7.819
REMARK INTRA:                  -1.148
REMARK UNBOUND:                -1.188
REMARK SMILES CCCCCCCCCC=CC(=O)[O-]
REMARK SMILES IDX 7 1 8 2 9 3 10 4 11 5 12 6 13 7 14 8 6 9 5 10 4 11 3 12 2 13
REMARK SMILES IDX 1 14
REMARK H PARENT
REMARK Flexibility Score: inf
ROOT
ATOM      1  C   UNL     1      10.450 -14.733  37.042  1.00  0.00     0.000 C 
ENDROOT
BRANCH   1   2
ATOM      2  C   UNL     1       9.806 -14.992  38.414  1.00  0.00     0.004 C 
BRANCH   2   3
ATOM      3  C   UNL     1       8.436 -14.311  38.560  1.00  0.00     0.027 C 
BRANCH   3   4
ATOM      4  C   UNL     1       8.303 -13.155  37.611  1.00  0.00    -0.025 C 
ATOM      5  C   UNL     1       7.317 -13.102  36.710  1.00  0.00     0.020 C 
BRANCH   5   6
ATOM      6  C   UNL     1       7.181 -11.983  35.765  1.00  0.00     0.064 C 
ATOM      7  O   UNL     1       7.659 -12.088  34.605  1.00  0.00    -0.545 OA
ATOM      8  O   UNL     1       6.531 -10.810  36.132  1.00  0.00    -0.545 OA
ENDBRANCH   5   6
ENDBRANCH   3   4
ENDBRANCH   2   3
ENDBRANCH   1   2
BRANCH   1   9
ATOM      9  C   UNL     1      11.983 -14.618  37.123  1.00  0.00     0.000 C 
BRANCH   9  10
ATOM     10  C   UNL     1      12.521 -13.355  36.434  1.00  0.00     0.000 C 
BRANCH  10  11
ATOM     11  C   UNL     1      11.399 -12.401  35.991  1.00  0.00    -0.000 C 
BRANCH  11  12
ATOM     12  C   UNL     1      11.471 -11.029  36.684  1.00  0.00    -0.000 C 
BRANCH  12  13
ATOM     13  C   UNL     1      11.404 -11.072  38.221  1.00  0.00    -0.003 C 
ATOM     14  C   UNL     1      12.653 -10.502  38.892  1.00  0.00     0.004 C 
ENDBRANCH  12  13
ENDBRANCH  11  12
ENDBRANCH  10  11
ENDBRANCH   9  10
ENDBRANCH   1   9
TORSDOF 9
ENDMDL
MODEL 8
REMARK VINA RESULT:    -5.084      2.785      4.368
REMARK INTER + INTRA:          -8.947
REMARK INTER:                  -7.500
REMARK INTRA:                  -1.448
REMARK UNBOUND:                -1.188
REMARK SMILES CCCCCCCCCC=CC(=O)[O-]
REMARK SMILES IDX 7 1 8 2 9 3 10 4 11 5 12 6 13 7 14 8 6 9 5 10 4 11 3 12 2 13
REMARK SMILES IDX 1 14
REMARK H PARENT
REMARK Flexibility Score: inf
ROOT
ATOM      1  C   UNL     1      12.892 -12.466  37.090  1.00  0.00     0.000 C 
ENDROOT
BRANCH   1   2
ATOM      2  C   UNL     1      12.521 -12.063  35.654  1.00  0.00     0.004 C 
BRANCH   2   3
ATOM      3  C   UNL     1      11.583 -10.847  35.607  1.00  0.00     0.027 C 
BRANCH   3   4
ATOM      4  C   UNL     1      10.145 -11.270  35.700  1.00  0.00    -0.025 C 
ATOM      5  C   UNL     1       9.579 -12.033  34.760  1.00  0.00     0.020 C 
BRANCH   5   6
ATOM      6  C   UNL     1       8.168 -12.443  34.831  1.00  0.00     0.064 C 
ATOM      7  O   UNL     1       7.799 -13.504  34.262  1.00  0.00    -0.545 OA
ATOM      8  O   UNL     1       7.233 -11.676  35.518  1.00  0.00    -0.545 OA
ENDBRANCH   5   6
ENDBRANCH   3   4
ENDBRANCH   2   3
ENDBRANCH   1   2
BRANCH   1   9
ATOM      9  C   UNL     1      12.649 -13.962  37.363  1.00  0.00     0.000 C 
BRANCH   9  10
ATOM     10  C   UNL     1      11.824 -14.640  36.258  1.00  0.00     0.000 C 
BRANCH  10  11
ATOM     11  C   UNL     1      10.388 -14.961  36.705  1.00  0.00    -0.000 C 
BRANCH  11  12
ATOM     12  C   UNL     1      10.119 -14.579  38.172  1.00  0.00    -0.000 C 
BRANCH  12  13
ATOM     13  C   UNL     1       9.011 -13.530  38.378  1.00  0.00    -0.003 C 
ATOM     14  C   UNL     1       7.641 -14.150  38.648  1.00  0.00     0.004 C 
ENDBRANCH  12  13
ENDBRANCH  11  12
ENDBRANCH  10  11
ENDBRANCH   9  10
ENDBRANCH   1   9
TORSDOF 9
ENDMDL
MODEL 9
REMARK VINA RESULT:    -5.084      1.443      3.491
REMARK INTER + INTRA:          -8.947
REMARK INTER:                  -7.570
REMARK INTRA:                  -1.377
REMARK UNBOUND:                -1.188
REMARK SMILES CCCCCCCCCC=CC(=O)[O-]
REMARK SMILES IDX 7 1 8 2 9 3 10 4 11 5 12 6 13 7 14 8 6 9 5 10 4 11 3 12 2 13
REMARK SMILES IDX 1 14
REMARK H PARENT
REMARK Flexibility Score: inf
ROOT
ATOM      1  C   UNL     1      10.142 -14.697  37.795  1.00  0.00     0.000 C 
ENDROOT
BRANCH   1   2
ATOM      2  C   UNL     1       9.228 -13.604  37.218  1.00  0.00     0.004 C 
BRANCH   2   3
ATOM      3  C   UNL     1       9.036 -12.425  38.185  1.00  0.00     0.027 C 
BRANCH   3   4
ATOM      4  C   UNL     1      10.097 -11.381  37.982  1.00  0.00    -0.025 C 
ATOM      5  C   UNL     1      11.097 -11.223  38.855  1.00  0.00     0.020 C 
BRANCH   5   6
ATOM      6  C   UNL     1      12.134 -10.195  38.677  1.00  0.00     0.064 C 
ATOM      7  O   UNL     1      12.033  -9.367  37.735  1.00  0.00    -0.545 OA
ATOM      8  O   UNL     1      13.226 -10.123  39.536  1.00  0.00    -0.545 OA
ENDBRANCH   5   6
ENDBRANCH   3   4
ENDBRANCH   2   3
ENDBRANCH   1   2
BRANCH   1   9
ATOM      9  C   UNL     1      11.346 -14.999  36.883  1.00  0.00     0.000 C 
BRANCH   9  10
ATOM     10  C   UNL     1      12.631 -14.292  37.344  1.00  0.00     0.000 C 
BRANCH  10  11
ATOM     11  C   UNL     1      13.251 -13.418  36.240  1.00  0.00    -0.000 C 
BRANCH  11  12
ATOM     12  C   UNL     1      12.196 -12.691  35.388  1.00  0.00    -0.000 C 
BRANCH  12  13
ATOM     13  C   UNL     1      12.587 -11.273  34.937  1.00  0.00    -0.003 C 
ATOM     14  C   UNL     1      14.092 -11.016  35.007  1.00  0.00     0.004 C 
ENDBRANCH  12  13
ENDBRANCH  11  12
ENDBRANCH  10  11
ENDBRANCH   9  10
ENDBRANCH   1   9
TORSDOF 9
ENDMDL
