MODEL 1
REMARK VINA RESULT:    -5.055      0.000      0.000
REMARK INTER + INTRA:          -7.794
REMARK INTER:                  -7.714
REMARK INTRA:                  -0.080
REMARK UNBOUND:                -0.080
REMARK SMILES CC1=CCC[C@@H](C)C(=O)C[C@@H](C(C)C)C(=O)C1
REMARK SMILES IDX 8 1 9 2 6 3 7 4 5 5 4 6 3 7 2 8 1 9 10 11 11 12 15 13 16 14
REMARK SMILES IDX 17 15 12 17 13 18 14 19
REMARK H PARENT
REMARK Flexibility Score: 70.00
ROOT
ATOM      1  C   UNL     1     -13.624 -33.215  30.453  1.00  0.00     0.136 C 
ATOM      2  O   UNL     1     -14.487 -32.369  30.267  1.00  0.00    -0.299 OA
ENDROOT
BRANCH   1   3
ATOM      3  C   UNL     1     -13.459 -33.788  31.843  1.00  0.00     0.053 C 
ATOM      4  C   UNL     1     -14.546 -33.213  32.762  1.00  0.00     0.016 C 
BRANCH   3   5
ATOM      5  C   UNL     1     -12.047 -33.466  32.398  1.00  0.00     0.015 C 
BRANCH   5   6
ATOM      6  C   UNL     1     -11.043 -34.622  32.214  1.00  0.00     0.028 C 
BRANCH   6   7
ATOM      7  C   UNL     1     -11.677 -35.993  32.295  1.00  0.00    -0.028 C 
ATOM      8  C   UNL     1     -12.008 -36.807  31.259  1.00  0.00    -0.070 CG0
ATOM      9  C   UNL     1     -12.702 -38.104  31.598  1.00  0.00     0.039 C 
ATOM     10  G   UNL     1     -11.688 -36.525  29.795  1.00  0.00     0.000 G0
ENDBRANCH   6   7
ENDBRANCH   5   6
ENDBRANCH   3   5
ENDBRANCH   1   3
BRANCH   1  11
ATOM     11  C   UNL     1     -12.836 -33.702  29.256  1.00  0.00     0.087 C 
BRANCH  11  12
ATOM     12  C   UNL     1     -13.417 -34.926  28.487  1.00  0.00     0.066 C 
BRANCH  12  13
ATOM     13  C   UNL     1     -12.919 -36.305  28.933  1.00  0.00     0.140 C 
ATOM     14  O   UNL     1     -13.554 -37.289  28.582  1.00  0.00    -0.299 OA
BRANCH  13  15
ATOM     15  C   UNL     1     -11.690 -36.540  29.782  1.00  0.00     0.106 CG0
ATOM     16  G   UNL     1     -12.011 -36.806  31.249  1.00  0.00     0.000 G0
ENDBRANCH  13  15
ENDBRANCH  12  13
BRANCH  12  17
ATOM     17  C   UNL     1     -13.230 -34.712  26.946  1.00  0.00    -0.006 C 
ATOM     18  C   UNL     1     -11.748 -34.608  26.540  1.00  0.00     0.008 C 
ATOM     19  C   UNL     1     -14.011 -33.503  26.400  1.00  0.00     0.008 C 
ENDBRANCH  12  17
ENDBRANCH  11  12
ENDBRANCH   1  11
TORSDOF 1
ENDMDL
MODEL 2
REMARK VINA RESULT:    -4.676      1.956      4.248
REMARK INTER + INTRA:          -7.215
REMARK INTER:                  -7.248
REMARK INTRA:                   0.033
REMARK UNBOUND:                -0.080
REMARK SMILES CC1=CCC[C@@H](C)C(=O)C[C@@H](C(C)C)C(=O)C1
REMARK SMILES IDX 8 1 9 2 6 3 7 4 5 5 4 6 3 7 2 8 1 9 10 11 11 12 15 13 16 14
REMARK SMILES IDX 17 15 12 17 13 18 14 19
REMARK H PARENT
REMARK Flexibility Score: 70.00
ROOT
ATOM      1  C   UNL     1     -12.939 -34.367  28.919  1.00  0.00     0.136 C 
ATOM      2  O   UNL     1     -13.188 -35.561  28.823  1.00  0.00    -0.299 OA
ENDROOT
BRANCH   1   3
ATOM      3  C   UNL     1     -11.803 -33.796  28.101  1.00  0.00     0.053 C 
ATOM      4  C   UNL     1     -11.123 -34.927  27.315  1.00  0.00     0.016 C 
BRANCH   3   5
ATOM      5  C   UNL     1     -10.781 -33.077  29.020  1.00  0.00     0.015 C 
BRANCH   5   6
ATOM      6  C   UNL     1     -10.061 -34.033  29.993  1.00  0.00     0.028 C 
BRANCH   6   7
ATOM      7  C   UNL     1     -10.050 -33.543  31.425  1.00  0.00    -0.028 C 
ATOM      8  C   UNL     1     -10.800 -34.008  32.457  1.00  0.00    -0.070 CG0
ATOM      9  C   UNL     1     -10.660 -33.300  33.783  1.00  0.00     0.039 C 
ATOM     10  G   UNL     1     -11.730 -35.215  32.382  1.00  0.00     0.000 G0
ENDBRANCH   6   7
ENDBRANCH   5   6
ENDBRANCH   3   5
ENDBRANCH   1   3
BRANCH   1  11
ATOM     11  C   UNL     1     -13.847 -33.520  29.784  1.00  0.00     0.087 C 
BRANCH  11  12
ATOM     12  C   UNL     1     -13.564 -33.529  31.316  1.00  0.00     0.066 C 
BRANCH  12  13
ATOM     13  C   UNL     1     -13.150 -34.875  31.920  1.00  0.00     0.140 C 
ATOM     14  O   UNL     1     -14.008 -35.736  32.053  1.00  0.00    -0.299 OA
BRANCH  13  15
ATOM     15  C   UNL     1     -11.747 -35.220  32.366  1.00  0.00     0.106 CG0
ATOM     16  G   UNL     1     -10.828 -34.007  32.461  1.00  0.00     0.000 G0
ENDBRANCH  13  15
ENDBRANCH  12  13
BRANCH  12  17
ATOM     17  C   UNL     1     -14.782 -32.902  32.076  1.00  0.00    -0.006 C 
ATOM     18  C   UNL     1     -15.490 -31.809  31.256  1.00  0.00     0.008 C 
ATOM     19  C   UNL     1     -14.415 -32.360  33.470  1.00  0.00     0.008 C 
ENDBRANCH  12  17
ENDBRANCH  11  12
ENDBRANCH   1  11
TORSDOF 1
ENDMDL
MODEL 3
REMARK VINA RESULT:    -4.610      2.314      4.472
REMARK INTER + INTRA:          -7.115
REMARK INTER:                  -6.649
REMARK INTRA:                  -0.467
REMARK UNBOUND:                -0.080
REMARK SMILES CC1=CCC[C@@H](C)C(=O)C[C@@H](C(C)C)C(=O)C1
REMARK SMILES IDX 8 1 9 2 6 3 7 4 5 5 4 6 3 7 2 8 1 9 10 11 11 12 15 13 16 14
REMARK SMILES IDX 17 15 12 17 13 18 14 19
REMARK H PARENT
REMARK Flexibility Score: 70.00
ROOT
ATOM      1  C   UNL     1     -13.567 -34.433  32.111  1.00  0.00     0.136 C 
ATOM      2  O   UNL     1     -14.480 -35.102  32.577  1.00  0.00    -0.299 OA
ENDROOT
BRANCH   1   3
ATOM      3  C   UNL     1     -13.844 -32.996  31.732  1.00  0.00     0.053 C 
ATOM      4  C   UNL     1     -14.813 -32.378  32.750  1.00  0.00     0.016 C 
BRANCH   3   5
ATOM      5  C   UNL     1     -14.431 -32.918  30.299  1.00  0.00     0.015 C 
BRANCH   5   6
ATOM      6  C   UNL     1     -13.422 -32.399  29.254  1.00  0.00     0.028 C 
BRANCH   6   7
ATOM      7  C   UNL     1     -13.025 -33.438  28.229  1.00  0.00    -0.028 C 
ATOM      8  C   UNL     1     -11.789 -33.964  28.030  1.00  0.00    -0.070 CG0
ATOM      9  C   UNL     1     -11.631 -34.939  26.888  1.00  0.00     0.039 C 
ATOM     10  G   UNL     1     -10.571 -33.676  28.902  1.00  0.00     0.000 G0
ENDBRANCH   6   7
ENDBRANCH   5   6
ENDBRANCH   3   5
ENDBRANCH   1   3
BRANCH   1  11
ATOM     11  C   UNL     1     -12.194 -35.064  32.033  1.00  0.00     0.087 C 
BRANCH  11  12
ATOM     12  C   UNL     1     -11.039 -34.164  31.502  1.00  0.00     0.066 C 
BRANCH  12  13
ATOM     13  C   UNL     1     -10.461 -34.541  30.133  1.00  0.00     0.140 C 
ATOM     14  O   UNL     1      -9.882 -35.613  30.027  1.00  0.00    -0.299 OA
BRANCH  13  15
ATOM     15  C   UNL     1     -10.555 -33.680  28.894  1.00  0.00     0.106 CG0
ATOM     16  G   UNL     1     -11.793 -33.968  28.051  1.00  0.00     0.000 G0
ENDBRANCH  13  15
ENDBRANCH  12  13
BRANCH  12  17
ATOM     17  C   UNL     1      -9.921 -34.050  32.593  1.00  0.00    -0.006 C 
ATOM     18  C   UNL     1      -9.886 -35.269  33.532  1.00  0.00     0.008 C 
ATOM     19  C   UNL     1     -10.004 -32.752  33.416  1.00  0.00     0.008 C 
ENDBRANCH  12  17
ENDBRANCH  11  12
ENDBRANCH   1  11
TORSDOF 1
ENDMDL
MODEL 4
REMARK VINA RESULT:    -4.506      2.007      3.989
REMARK INTER + INTRA:          -6.956
REMARK INTER:                  -6.935
REMARK INTRA:                  -0.021
REMARK UNBOUND:                -0.080
REMARK SMILES CC1=CCC[C@@H](C)C(=O)C[C@@H](C(C)C)C(=O)C1
REMARK SMILES IDX 8 1 9 2 6 3 7 4 5 5 4 6 3 7 2 8 1 9 10 11 11 12 15 13 16 14
REMARK SMILES IDX 17 15 12 17 13 18 14 19
REMARK H PARENT
REMARK Flexibility Score: 70.00
ROOT
ATOM      1  C   UNL     1     -13.361 -33.735  31.947  1.00  0.00     0.136 C 
ATOM      2  O   UNL     1     -12.548 -33.591  32.850  1.00  0.00    -0.299 OA
ENDROOT
BRANCH   1   3
ATOM      3  C   UNL     1     -14.303 -32.595  31.631  1.00  0.00     0.053 C 
ATOM      4  C   UNL     1     -15.499 -32.643  32.592  1.00  0.00     0.016 C 
BRANCH   3   5
ATOM      5  C   UNL     1     -14.780 -32.679  30.158  1.00  0.00     0.015 C 
BRANCH   5   6
ATOM      6  C   UNL     1     -13.760 -32.105  29.154  1.00  0.00     0.028 C 
BRANCH   6   7
ATOM      7  C   UNL     1     -13.256 -33.124  28.155  1.00  0.00    -0.028 C 
ATOM      8  C   UNL     1     -12.085 -33.812  28.205  1.00  0.00    -0.070 CG0
ATOM      9  C   UNL     1     -11.774 -34.724  27.043  1.00  0.00     0.039 C 
ATOM     10  G   UNL     1     -11.096 -33.763  29.364  1.00  0.00     0.000 G0
ENDBRANCH   6   7
ENDBRANCH   5   6
ENDBRANCH   3   5
ENDBRANCH   1   3
BRANCH   1  11
ATOM     11  C   UNL     1     -13.307 -35.016  31.141  1.00  0.00     0.087 C 
BRANCH  11  12
ATOM     12  C   UNL     1     -11.922 -35.719  31.035  1.00  0.00     0.066 C 
BRANCH  12  13
ATOM     13  C   UNL     1     -10.912 -35.085  30.072  1.00  0.00     0.140 C 
ATOM     14  O   UNL     1      -9.875 -35.691  29.842  1.00  0.00    -0.299 OA
BRANCH  13  15
ATOM     15  C   UNL     1     -11.105 -33.755  29.379  1.00  0.00     0.106 CG0
ATOM     16  G   UNL     1     -12.078 -33.821  28.207  1.00  0.00     0.000 G0
ENDBRANCH  13  15
ENDBRANCH  12  13
BRANCH  12  17
ATOM     17  C   UNL     1     -12.131 -37.243  30.737  1.00  0.00    -0.006 C 
ATOM     18  C   UNL     1     -13.107 -37.488  29.572  1.00  0.00     0.008 C 
ATOM     19  C   UNL     1     -12.571 -38.050  31.971  1.00  0.00     0.008 C 
ENDBRANCH  12  17
ENDBRANCH  11  12
ENDBRANCH   1  11
TORSDOF 1
ENDMDL
MODEL 5
REMARK VINA RESULT:    -4.498      1.620      3.897
REMARK INTER + INTRA:          -6.943
REMARK INTER:                  -6.979
REMARK INTRA:                   0.036
REMARK UNBOUND:                -0.080
REMARK SMILES CC1=CCC[C@@H](C)C(=O)C[C@@H](C(C)C)C(=O)C1
REMARK SMILES IDX 8 1 9 2 6 3 7 4 5 5 4 6 3 7 2 8 1 9 10 11 11 12 15 13 16 14
REMARK SMILES IDX 17 15 12 17 13 18 14 19
REMARK H PARENT
REMARK Flexibility Score: 70.00
ROOT
ATOM      1  C   UNL     1     -12.527 -33.231  28.886  1.00  0.00     0.136 C 
ATOM      2  O   UNL     1     -11.696 -32.486  29.385  1.00  0.00    -0.299 OA
ENDROOT
BRANCH   1   3
ATOM      3  C   UNL     1     -12.203 -33.897  27.567  1.00  0.00     0.053 C 
ATOM      4  C   UNL     1     -13.441 -33.857  26.659  1.00  0.00     0.016 C 
BRANCH   3   5
ATOM      5  C   UNL     1     -11.742 -35.359  27.799  1.00  0.00     0.015 C 
BRANCH   5   6
ATOM      6  C   UNL     1     -11.009 -35.562  29.141  1.00  0.00     0.028 C 
BRANCH   6   7
ATOM      7  C   UNL     1     -11.546 -36.719  29.955  1.00  0.00    -0.028 C 
ATOM      8  C   UNL     1     -11.967 -36.688  31.246  1.00  0.00    -0.070 CG0
ATOM      9  C   UNL     1     -12.393 -37.999  31.861  1.00  0.00     0.039 C 
ATOM     10  G   UNL     1     -12.083 -35.426  32.093  1.00  0.00     0.000 G0
ENDBRANCH   6   7
ENDBRANCH   5   6
ENDBRANCH   3   5
ENDBRANCH   1   3
BRANCH   1  11
ATOM     11  C   UNL     1     -13.792 -33.512  29.669  1.00  0.00     0.087 C 
BRANCH  11  12
ATOM     12  C   UNL     1     -13.690 -33.416  31.221  1.00  0.00     0.066 C 
BRANCH  12  13
ATOM     13  C   UNL     1     -13.435 -34.732  31.965  1.00  0.00     0.140 C 
ATOM     14  O   UNL     1     -14.384 -35.283  32.505  1.00  0.00    -0.299 OA
BRANCH  13  15
ATOM     15  C   UNL     1     -12.086 -35.405  32.081  1.00  0.00     0.106 CG0
ATOM     16  G   UNL     1     -11.970 -36.673  31.241  1.00  0.00     0.000 G0
ENDBRANCH  13  15
ENDBRANCH  12  13
BRANCH  12  17
ATOM     17  C   UNL     1     -14.945 -32.666  31.782  1.00  0.00    -0.006 C 
ATOM     18  C   UNL     1     -15.506 -31.631  30.790  1.00  0.00     0.008 C 
ATOM     19  C   UNL     1     -14.697 -32.005  33.150  1.00  0.00     0.008 C 
ENDBRANCH  12  17
ENDBRANCH  11  12
ENDBRANCH   1  11
TORSDOF 1
ENDMDL
MODEL 6
REMARK VINA RESULT:    -4.443      1.695      2.598
REMARK INTER + INTRA:          -6.860
REMARK INTER:                  -6.920
REMARK INTRA:                   0.059
REMARK UNBOUND:                -0.080
REMARK SMILES CC1=CCC[C@@H](C)C(=O)C[C@@H](C(C)C)C(=O)C1
REMARK SMILES IDX 8 1 9 2 6 3 7 4 5 5 4 6 3 7 2 8 1 9 10 11 11 12 15 13 16 14
REMARK SMILES IDX 17 15 12 17 13 18 14 19
REMARK H PARENT
REMARK Flexibility Score: 70.00
ROOT
ATOM      1  C   UNL     1     -13.054 -33.972  31.692  1.00  0.00     0.136 C 
ATOM      2  O   UNL     1     -14.030 -34.650  31.983  1.00  0.00    -0.299 OA
ENDROOT
BRANCH   1   3
ATOM      3  C   UNL     1     -11.761 -34.206  32.442  1.00  0.00     0.053 C 
ATOM      4  C   UNL     1     -10.629 -33.428  31.757  1.00  0.00     0.016 C 
BRANCH   3   5
ATOM      5  C   UNL     1     -11.432 -35.720  32.493  1.00  0.00     0.015 C 
BRANCH   5   6
ATOM      6  C   UNL     1     -11.137 -36.326  31.106  1.00  0.00     0.028 C 
BRANCH   6   7
ATOM      7  C   UNL     1     -12.335 -36.998  30.472  1.00  0.00    -0.028 C 
ATOM      8  C   UNL     1     -12.836 -36.780  29.229  1.00  0.00    -0.070 CG0
ATOM      9  C   UNL     1     -14.093 -37.527  28.852  1.00  0.00     0.039 C 
ATOM     10  G   UNL     1     -12.197 -35.876  28.180  1.00  0.00     0.000 G0
ENDBRANCH   6   7
ENDBRANCH   5   6
ENDBRANCH   3   5
ENDBRANCH   1   3
BRANCH   1  11
ATOM     11  C   UNL     1     -13.180 -33.005  30.535  1.00  0.00     0.087 C 
BRANCH  11  12
ATOM     12  C   UNL     1     -13.347 -33.628  29.117  1.00  0.00     0.066 C 
BRANCH  12  13
ATOM     13  C   UNL     1     -12.149 -34.418  28.579  1.00  0.00     0.140 C 
ATOM     14  O   UNL     1     -11.079 -33.837  28.466  1.00  0.00    -0.299 OA
BRANCH  13  15
ATOM     15  C   UNL     1     -12.192 -35.874  28.174  1.00  0.00     0.106 CG0
ATOM     16  G   UNL     1     -12.837 -36.773  29.223  1.00  0.00     0.000 G0
ENDBRANCH  13  15
ENDBRANCH  12  13
BRANCH  12  17
ATOM     17  C   UNL     1     -13.811 -32.521  28.111  1.00  0.00    -0.006 C 
ATOM     18  C   UNL     1     -14.805 -31.528  28.742  1.00  0.00     0.008 C 
ATOM     19  C   UNL     1     -14.395 -33.091  26.805  1.00  0.00     0.008 C 
ENDBRANCH  12  17
ENDBRANCH  11  12
ENDBRANCH   1  11
TORSDOF 1
ENDMDL
MODEL 7
REMARK VINA RESULT:    -4.400      1.659      2.222
REMARK INTER + INTRA:          -6.795
REMARK INTER:                  -7.067
REMARK INTRA:                   0.271
REMARK UNBOUND:                -0.080
REMARK SMILES CC1=CCC[C@@H](C)C(=O)C[C@@H](C(C)C)C(=O)C1
REMARK SMILES IDX 8 1 9 2 6 3 7 4 5 5 4 6 3 7 2 8 1 9 10 11 11 12 15 13 16 14
REMARK SMILES IDX 17 15 12 17 13 18 14 19
REMARK H PARENT
REMARK Flexibility Score: 70.00
ROOT
ATOM      1  C   UNL     1     -12.606 -33.516  31.410  1.00  0.00     0.136 C 
ATOM      2  O   UNL     1     -11.793 -33.313  32.302  1.00  0.00    -0.299 OA
ENDROOT
BRANCH   1   3
ATOM      3  C   UNL     1     -14.009 -33.931  31.791  1.00  0.00     0.053 C 
ATOM      4  C   UNL     1     -14.629 -32.858  32.697  1.00  0.00     0.016 C 
BRANCH   3   5
ATOM      5  C   UNL     1     -13.991 -35.307  32.505  1.00  0.00     0.015 C 
BRANCH   5   6
ATOM      6  C   UNL     1     -12.985 -36.301  31.888  1.00  0.00     0.028 C 
BRANCH   6   7
ATOM      7  C   UNL     1     -13.573 -37.147  30.780  1.00  0.00    -0.028 C 
ATOM      8  C   UNL     1     -13.166 -37.199  29.485  1.00  0.00    -0.070 CG0
ATOM      9  C   UNL     1     -13.966 -38.072  28.548  1.00  0.00     0.039 C 
ATOM     10  G   UNL     1     -11.942 -36.482  28.927  1.00  0.00     0.000 G0
ENDBRANCH   6   7
ENDBRANCH   5   6
ENDBRANCH   3   5
ENDBRANCH   1   3
BRANCH   1  11
ATOM     11  C   UNL     1     -12.177 -33.247  29.983  1.00  0.00     0.087 C 
BRANCH  11  12
ATOM     12  C   UNL     1     -12.967 -33.986  28.863  1.00  0.00     0.066 C 
BRANCH  12  13
ATOM     13  C   UNL     1     -12.262 -35.181  28.212  1.00  0.00     0.140 C 
ATOM     14  O   UNL     1     -11.946 -35.093  27.034  1.00  0.00    -0.299 OA
BRANCH  13  15
ATOM     15  C   UNL     1     -11.924 -36.471  28.925  1.00  0.00     0.106 CG0
ATOM     16  G   UNL     1     -13.149 -37.199  29.469  1.00  0.00     0.000 G0
ENDBRANCH  13  15
ENDBRANCH  12  13
BRANCH  12  17
ATOM     17  C   UNL     1     -13.455 -32.949  27.796  1.00  0.00    -0.006 C 
ATOM     18  C   UNL     1     -14.281 -31.807  28.417  1.00  0.00     0.008 C 
ATOM     19  C   UNL     1     -14.235 -33.592  26.635  1.00  0.00     0.008 C 
ENDBRANCH  12  17
ENDBRANCH  11  12
ENDBRANCH   1  11
TORSDOF 1
ENDMDL
MODEL 8
REMARK VINA RESULT:    -4.394      1.891      3.421
REMARK INTER + INTRA:          -6.786
REMARK INTER:                  -7.230
REMARK INTRA:                   0.444
REMARK UNBOUND:                -0.080
REMARK SMILES CC1=CCC[C@@H](C)C(=O)C[C@@H](C(C)C)C(=O)C1
REMARK SMILES IDX 8 1 9 2 6 3 7 4 5 5 4 6 3 7 2 8 1 9 10 11 11 12 15 13 16 14
REMARK SMILES IDX 17 15 12 17 13 18 14 19
REMARK H PARENT
REMARK Flexibility Score: 70.00
ROOT
ATOM      1  C   UNL     1     -13.186 -36.694  29.760  1.00  0.00     0.136 C 
ATOM      2  O   UNL     1     -12.950 -37.611  28.985  1.00  0.00    -0.299 OA
ENDROOT
BRANCH   1   3
ATOM      3  C   UNL     1     -13.291 -37.003  31.236  1.00  0.00     0.053 C 
ATOM      4  C   UNL     1     -13.897 -35.797  31.967  1.00  0.00     0.016 C 
BRANCH   3   5
ATOM      5  C   UNL     1     -11.896 -37.351  31.817  1.00  0.00     0.015 C 
BRANCH   5   6
ATOM      6  C   UNL     1     -10.774 -36.427  31.300  1.00  0.00     0.028 C 
BRANCH   6   7
ATOM      7  C   UNL     1     -10.401 -35.327  32.269  1.00  0.00    -0.028 C 
ATOM      8  C   UNL     1     -10.794 -34.027  32.226  1.00  0.00    -0.070 CG0
ATOM      9  C   UNL     1     -10.224 -33.101  33.273  1.00  0.00     0.039 C 
ATOM     10  G   UNL     1     -11.797 -33.455  31.230  1.00  0.00     0.000 G0
ENDBRANCH   6   7
ENDBRANCH   5   6
ENDBRANCH   3   5
ENDBRANCH   1   3
BRANCH   1  11
ATOM     11  C   UNL     1     -13.265 -35.291  29.197  1.00  0.00     0.087 C 
BRANCH  11  12
ATOM     12  C   UNL     1     -11.917 -34.619  28.800  1.00  0.00     0.066 C 
BRANCH  12  13
ATOM     13  C   UNL     1     -11.359 -33.586  29.785  1.00  0.00     0.140 C 
ATOM     14  O   UNL     1     -10.498 -32.815  29.386  1.00  0.00    -0.299 OA
BRANCH  13  15
ATOM     15  C   UNL     1     -11.797 -33.449  31.225  1.00  0.00     0.106 CG0
ATOM     16  G   UNL     1     -10.788 -34.011  32.220  1.00  0.00     0.000 G0
ENDBRANCH  13  15
ENDBRANCH  12  13
BRANCH  12  17
ATOM     17  C   UNL     1     -12.031 -34.036  27.350  1.00  0.00    -0.006 C 
ATOM     18  C   UNL     1     -13.464 -33.592  27.004  1.00  0.00     0.008 C 
ATOM     19  C   UNL     1     -11.499 -34.991  26.267  1.00  0.00     0.008 C 
ENDBRANCH  12  17
ENDBRANCH  11  12
ENDBRANCH   1  11
TORSDOF 1
ENDMDL
MODEL 9
REMARK VINA RESULT:    -4.350      1.856      4.342
REMARK INTER + INTRA:          -6.718
REMARK INTER:                  -6.844
REMARK INTRA:                   0.126
REMARK UNBOUND:                -0.080
REMARK SMILES CC1=CCC[C@@H](C)C(=O)C[C@@H](C(C)C)C(=O)C1
REMARK SMILES IDX 8 1 9 2 6 3 7 4 5 5 4 6 3 7 2 8 1 9 10 11 11 12 15 13 16 14
REMARK SMILES IDX 17 15 12 17 13 18 14 19
REMARK H PARENT
REMARK Flexibility Score: 70.00
ROOT
ATOM      1  C   UNL     1     -13.039 -35.311  31.951  1.00  0.00     0.136 C 
ATOM      2  O   UNL     1     -14.084 -35.644  32.494  1.00  0.00    -0.299 OA
ENDROOT
BRANCH   1   3
ATOM      3  C   UNL     1     -11.999 -36.373  31.673  1.00  0.00     0.053 C 
ATOM      4  C   UNL     1     -10.699 -35.702  31.207  1.00  0.00     0.016 C 
BRANCH   3   5
ATOM      5  C   UNL     1     -12.514 -37.369  30.602  1.00  0.00     0.015 C 
BRANCH   5   6
ATOM      6  C   UNL     1     -13.305 -36.687  29.466  1.00  0.00     0.028 C 
BRANCH   6   7
ATOM      7  C   UNL     1     -12.427 -36.125  28.370  1.00  0.00    -0.028 C 
ATOM      8  C   UNL     1     -12.634 -34.991  27.653  1.00  0.00    -0.070 CG0
ATOM      9  C   UNL     1     -11.644 -34.680  26.556  1.00  0.00     0.039 C 
ATOM     10  G   UNL     1     -13.759 -33.993  27.908  1.00  0.00     0.000 G0
ENDBRANCH   6   7
ENDBRANCH   5   6
ENDBRANCH   3   5
ENDBRANCH   1   3
BRANCH   1  11
ATOM     11  C   UNL     1     -12.896 -33.871  31.507  1.00  0.00     0.087 C 
BRANCH  11  12
ATOM     12  C   UNL     1     -13.963 -33.337  30.506  1.00  0.00     0.066 C 
BRANCH  12  13
ATOM     13  C   UNL     1     -13.478 -33.074  29.076  1.00  0.00     0.140 C 
ATOM     14  O   UNL     1     -12.828 -32.060  28.865  1.00  0.00    -0.299 OA
BRANCH  13  15
ATOM     15  C   UNL     1     -13.746 -33.982  27.898  1.00  0.00     0.106 CG0
ATOM     16  G   UNL     1     -12.629 -34.990  27.646  1.00  0.00     0.000 G0
ENDBRANCH  13  15
ENDBRANCH  12  13
BRANCH  12  17
ATOM     17  C   UNL     1     -14.673 -32.083  31.119  1.00  0.00    -0.006 C 
ATOM     18  C   UNL     1     -15.350 -32.387  32.467  1.00  0.00     0.008 C 
ATOM     19  C   UNL     1     -15.681 -31.425  30.159  1.00  0.00     0.008 C 
ENDBRANCH  12  17
ENDBRANCH  11  12
ENDBRANCH   1  11
TORSDOF 1
ENDMDL
