MODEL 1
REMARK VINA RESULT:    -0.752      0.000      0.000
REMARK INTER + INTRA:          -6.767
REMARK INTER:                  -1.719
REMARK INTRA:                  -5.048
REMARK UNBOUND:                -5.048
REMARK SMILES CCCCCCCCCCCCCCCCCCCCCCCC(=O)[O-]
REMARK SMILES IDX 13 1 14 2 15 3 16 4 17 5 18 6 19 7 20 8 21 9 22 10 23 11
REMARK SMILES IDX 24 12 25 13 26 14 12 15 11 16 10 17 9 18 8 19 7 20 6 21 5 22
REMARK SMILES IDX 4 23 3 24 2 25 1 26
REMARK H PARENT
REMARK Flexibility Score: inf
ROOT
ATOM      1  C   UNL     1     -16.408 -24.010  79.909  1.00  0.00     0.000 C 
ENDROOT
BRANCH   1   2
ATOM      2  C   UNL     1     -17.929 -24.034  79.683  1.00  0.00     0.000 C 
BRANCH   2   3
ATOM      3  C   UNL     1     -18.538 -22.639  79.422  1.00  0.00     0.000 C 
BRANCH   3   4
ATOM      4  C   UNL     1     -17.458 -21.586  79.116  1.00  0.00     0.000 C 
BRANCH   4   5
ATOM      5  C   UNL     1     -17.818 -20.191  79.650  1.00  0.00     0.000 C 
BRANCH   5   6
ATOM      6  C   UNL     1     -16.663 -19.535  80.421  1.00  0.00     0.000 C 
BRANCH   6   7
ATOM      7  C   UNL     1     -15.713 -20.597  80.994  1.00  0.00     0.000 C 
BRANCH   7   8
ATOM      8  C   UNL     1     -14.229 -20.223  80.830  1.00  0.00     0.000 C 
BRANCH   8   9
ATOM      9  C   UNL     1     -13.230 -21.231  81.437  1.00  0.00     0.000 C 
BRANCH   9  10
ATOM     10  C   UNL     1     -13.869 -22.380  82.238  1.00  0.00     0.006 C 
BRANCH  10  11
ATOM     11  C   UNL     1     -12.876 -23.075  83.178  1.00  0.00     0.053 C 
BRANCH  11  12
ATOM     12  C   UNL     1     -13.244 -22.825  84.606  1.00  0.00     0.041 C 
ATOM     13  O   UNL     1     -13.810 -21.749  84.934  1.00  0.00    -0.550 OA
ATOM     14  O   UNL     1     -12.928 -23.764  85.581  1.00  0.00    -0.550 OA
ENDBRANCH  11  12
ENDBRANCH  10  11
ENDBRANCH   9  10
ENDBRANCH   8   9
ENDBRANCH   7   8
ENDBRANCH   6   7
ENDBRANCH   5   6
ENDBRANCH   4   5
ENDBRANCH   3   4
ENDBRANCH   2   3
ENDBRANCH   1   2
BRANCH   1  15
ATOM     15  C   UNL     1     -15.920 -25.168  80.796  1.00  0.00     0.000 C 
BRANCH  15  16
ATOM     16  C   UNL     1     -17.080 -25.930  81.458  1.00  0.00     0.000 C 
BRANCH  16  17
ATOM     17  C   UNL     1     -16.825 -26.207  82.950  1.00  0.00     0.000 C 
BRANCH  17  18
ATOM     18  C   UNL     1     -15.969 -25.108  83.617  1.00  0.00    -0.000 C 
BRANCH  18  19
ATOM     19  C   UNL     1     -16.658 -24.425  84.816  1.00  0.00    -0.000 C 
BRANCH  19  20
ATOM     20  C   UNL     1     -17.068 -22.958  84.585  1.00  0.00    -0.000 C 
BRANCH  20  21
ATOM     21  C   UNL     1     -17.453 -22.610  83.134  1.00  0.00    -0.000 C 
BRANCH  21  22
ATOM     22  C   UNL     1     -18.722 -21.750  83.044  1.00  0.00    -0.000 C 
BRANCH  22  23
ATOM     23  C   UNL     1     -19.969 -22.569  83.411  1.00  0.00    -0.000 C 
BRANCH  23  24
ATOM     24  C   UNL     1     -20.078 -23.885  82.621  1.00  0.00    -0.000 C 
BRANCH  24  25
ATOM     25  C   UNL     1     -20.905 -24.988  83.306  1.00  0.00    -0.003 C 
ATOM     26  C   UNL     1     -20.157 -25.674  84.447  1.00  0.00     0.004 C 
ENDBRANCH  24  25
ENDBRANCH  23  24
ENDBRANCH  22  23
ENDBRANCH  21  22
ENDBRANCH  20  21
ENDBRANCH  19  20
ENDBRANCH  18  19
ENDBRANCH  17  18
ENDBRANCH  16  17
ENDBRANCH  15  16
ENDBRANCH   1  15
TORSDOF 22
ENDMDL
MODEL 2
REMARK VINA RESULT:    -0.651      2.743      6.091
REMARK INTER + INTRA:          -6.537
REMARK INTER:                  -1.836
REMARK INTRA:                  -4.700
REMARK UNBOUND:                -5.048
REMARK SMILES CCCCCCCCCCCCCCCCCCCCCCCC(=O)[O-]
REMARK SMILES IDX 13 1 14 2 15 3 16 4 17 5 18 6 19 7 20 8 21 9 22 10 23 11
REMARK SMILES IDX 24 12 25 13 26 14 12 15 11 16 10 17 9 18 8 19 7 20 6 21 5 22
REMARK SMILES IDX 4 23 3 24 2 25 1 26
REMARK H PARENT
REMARK Flexibility Score: inf
ROOT
ATOM      1  C   UNL     1     -15.037 -23.648  81.941  1.00  0.00     0.000 C 
ENDROOT
BRANCH   1   2
ATOM      2  C   UNL     1     -16.468 -23.943  82.422  1.00  0.00     0.000 C 
BRANCH   2   3
ATOM      3  C   UNL     1     -17.220 -22.696  82.931  1.00  0.00     0.000 C 
BRANCH   3   4
ATOM      4  C   UNL     1     -17.847 -22.925  84.317  1.00  0.00     0.000 C 
BRANCH   4   5
ATOM      5  C   UNL     1     -17.680 -24.369  84.816  1.00  0.00     0.000 C 
BRANCH   5   6
ATOM      6  C   UNL     1     -19.010 -25.136  84.869  1.00  0.00     0.000 C 
BRANCH   6   7
ATOM      7  C   UNL     1     -20.194 -24.202  84.577  1.00  0.00     0.000 C 
BRANCH   7   8
ATOM      8  C   UNL     1     -21.045 -24.669  83.383  1.00  0.00     0.000 C 
BRANCH   8   9
ATOM      9  C   UNL     1     -20.269 -24.869  82.065  1.00  0.00     0.000 C 
BRANCH   9  10
ATOM     10  C   UNL     1     -20.311 -23.673  81.096  1.00  0.00     0.006 C 
BRANCH  10  11
ATOM     11  C   UNL     1     -19.300 -23.800  79.950  1.00  0.00     0.053 C 
BRANCH  11  12
ATOM     12  C   UNL     1     -19.003 -22.455  79.364  1.00  0.00     0.041 C 
ATOM     13  O   UNL     1     -18.786 -22.337  78.129  1.00  0.00    -0.550 OA
ATOM     14  O   UNL     1     -18.929 -21.338  80.187  1.00  0.00    -0.550 OA
ENDBRANCH  11  12
ENDBRANCH  10  11
ENDBRANCH   9  10
ENDBRANCH   8   9
ENDBRANCH   7   8
ENDBRANCH   6   7
ENDBRANCH   5   6
ENDBRANCH   4   5
ENDBRANCH   3   4
ENDBRANCH   2   3
ENDBRANCH   1   2
BRANCH   1  15
ATOM     15  C   UNL     1     -14.567 -22.229  82.306  1.00  0.00     0.000 C 
BRANCH  15  16
ATOM     16  C   UNL     1     -13.110 -22.201  82.795  1.00  0.00     0.000 C 
BRANCH  16  17
ATOM     17  C   UNL     1     -12.998 -21.831  84.285  1.00  0.00     0.000 C 
BRANCH  17  18
ATOM     18  C   UNL     1     -14.296 -22.130  85.066  1.00  0.00    -0.000 C 
BRANCH  18  19
ATOM     19  C   UNL     1     -14.183 -23.333  86.024  1.00  0.00    -0.000 C 
BRANCH  19  20
ATOM     20  C   UNL     1     -12.876 -24.141  85.908  1.00  0.00    -0.000 C 
BRANCH  20  21
ATOM     21  C   UNL     1     -12.967 -25.404  85.030  1.00  0.00    -0.000 C 
BRANCH  21  22
ATOM     22  C   UNL     1     -14.404 -25.925  84.882  1.00  0.00    -0.000 C 
BRANCH  22  23
ATOM     23  C   UNL     1     -14.418 -27.332  84.264  1.00  0.00    -0.000 C 
BRANCH  23  24
ATOM     24  C   UNL     1     -15.293 -27.425  83.001  1.00  0.00    -0.000 C 
BRANCH  24  25
ATOM     25  C   UNL     1     -16.788 -27.681  83.265  1.00  0.00    -0.003 C 
ATOM     26  C   UNL     1     -17.662 -27.439  82.036  1.00  0.00     0.004 C 
ENDBRANCH  24  25
ENDBRANCH  23  24
ENDBRANCH  22  23
ENDBRANCH  21  22
ENDBRANCH  20  21
ENDBRANCH  19  20
ENDBRANCH  18  19
ENDBRANCH  17  18
ENDBRANCH  16  17
ENDBRANCH  15  16
ENDBRANCH   1  15
TORSDOF 22
ENDMDL
MODEL 3
REMARK VINA RESULT:    -0.630      6.112      9.071
REMARK INTER + INTRA:          -6.490
REMARK INTER:                  -1.287
REMARK INTRA:                  -5.203
REMARK UNBOUND:                -5.048
REMARK SMILES CCCCCCCCCCCCCCCCCCCCCCCC(=O)[O-]
REMARK SMILES IDX 13 1 14 2 15 3 16 4 17 5 18 6 19 7 20 8 21 9 22 10 23 11
REMARK SMILES IDX 24 12 25 13 26 14 12 15 11 16 10 17 9 18 8 19 7 20 6 21 5 22
REMARK SMILES IDX 4 23 3 24 2 25 1 26
REMARK H PARENT
REMARK Flexibility Score: inf
ROOT
ATOM      1  C   UNL     1     -18.811 -18.514  78.622  1.00  0.00     0.000 C 
ENDROOT
BRANCH   1   2
ATOM      2  C   UNL     1     -19.301 -18.570  80.079  1.00  0.00     0.000 C 
BRANCH   2   3
ATOM      3  C   UNL     1     -18.170 -18.417  81.118  1.00  0.00     0.000 C 
BRANCH   3   4
ATOM      4  C   UNL     1     -18.560 -17.461  82.259  1.00  0.00     0.000 C 
BRANCH   4   5
ATOM      5  C   UNL     1     -20.068 -17.170  82.303  1.00  0.00     0.000 C 
BRANCH   5   6
ATOM      6  C   UNL     1     -20.382 -15.737  82.760  1.00  0.00     0.000 C 
BRANCH   6   7
ATOM      7  C   UNL     1     -19.135 -15.064  83.351  1.00  0.00     0.000 C 
BRANCH   7   8
ATOM      8  C   UNL     1     -18.905 -13.644  82.805  1.00  0.00     0.000 C 
BRANCH   8   9
ATOM      9  C   UNL     1     -17.474 -13.096  82.989  1.00  0.00     0.000 C 
BRANCH   9  10
ATOM     10  C   UNL     1     -16.427 -14.140  83.415  1.00  0.00     0.006 C 
BRANCH  10  11
ATOM     11  C   UNL     1     -15.225 -14.200  82.464  1.00  0.00     0.053 C 
BRANCH  11  12
ATOM     12  C   UNL     1     -13.966 -14.463  83.229  1.00  0.00     0.041 C 
ATOM     13  O   UNL     1     -12.896 -14.723  82.617  1.00  0.00    -0.550 OA
ATOM     14  O   UNL     1     -13.981 -14.457  84.619  1.00  0.00    -0.550 OA
ENDBRANCH  11  12
ENDBRANCH  10  11
ENDBRANCH   9  10
ENDBRANCH   8   9
ENDBRANCH   7   8
ENDBRANCH   6   7
ENDBRANCH   5   6
ENDBRANCH   4   5
ENDBRANCH   3   4
ENDBRANCH   2   3
ENDBRANCH   1   2
BRANCH   1  15
ATOM     15  C   UNL     1     -18.785 -17.084  78.056  1.00  0.00     0.000 C 
BRANCH  15  16
ATOM     16  C   UNL     1     -19.889 -16.197  78.653  1.00  0.00     0.000 C 
BRANCH  16  17
ATOM     17  C   UNL     1     -19.336 -14.887  79.244  1.00  0.00     0.000 C 
BRANCH  17  18
ATOM     18  C   UNL     1     -17.824 -14.970  79.547  1.00  0.00    -0.000 C 
BRANCH  18  19
ATOM     19  C   UNL     1     -17.064 -13.654  79.285  1.00  0.00    -0.000 C 
BRANCH  19  20
ATOM     20  C   UNL     1     -15.867 -13.770  78.323  1.00  0.00    -0.000 C 
BRANCH  20  21
ATOM     21  C   UNL     1     -16.240 -13.975  76.842  1.00  0.00    -0.000 C 
BRANCH  21  22
ATOM     22  C   UNL     1     -15.999 -15.414  76.360  1.00  0.00    -0.000 C 
BRANCH  22  23
ATOM     23  C   UNL     1     -14.800 -16.043  77.085  1.00  0.00    -0.000 C 
BRANCH  23  24
ATOM     24  C   UNL     1     -15.100 -17.450  77.634  1.00  0.00    -0.000 C 
BRANCH  24  25
ATOM     25  C   UNL     1     -15.209 -17.539  79.167  1.00  0.00    -0.003 C 
ATOM     26  C   UNL     1     -14.193 -16.658  79.891  1.00  0.00     0.004 C 
ENDBRANCH  24  25
ENDBRANCH  23  24
ENDBRANCH  22  23
ENDBRANCH  21  22
ENDBRANCH  20  21
ENDBRANCH  19  20
ENDBRANCH  18  19
ENDBRANCH  17  18
ENDBRANCH  16  17
ENDBRANCH  15  16
ENDBRANCH   1  15
TORSDOF 22
ENDMDL
MODEL 4
REMARK VINA RESULT:    -0.589      2.699      5.551
REMARK INTER + INTRA:          -6.395
REMARK INTER:                  -1.683
REMARK INTRA:                  -4.712
REMARK UNBOUND:                -5.048
REMARK SMILES CCCCCCCCCCCCCCCCCCCCCCCC(=O)[O-]
REMARK SMILES IDX 13 1 14 2 15 3 16 4 17 5 18 6 19 7 20 8 21 9 22 10 23 11
REMARK SMILES IDX 24 12 25 13 26 14 12 15 11 16 10 17 9 18 8 19 7 20 6 21 5 22
REMARK SMILES IDX 4 23 3 24 2 25 1 26
REMARK H PARENT
REMARK Flexibility Score: inf
ROOT
ATOM      1  C   UNL     1     -13.470 -24.405  84.135  1.00  0.00     0.000 C 
ENDROOT
BRANCH   1   2
ATOM      2  C   UNL     1     -13.260 -24.529  82.616  1.00  0.00     0.000 C 
BRANCH   2   3
ATOM      3  C   UNL     1     -13.024 -23.177  81.912  1.00  0.00     0.000 C 
BRANCH   3   4
ATOM      4  C   UNL     1     -13.449 -23.214  80.433  1.00  0.00     0.000 C 
BRANCH   4   5
ATOM      5  C   UNL     1     -13.817 -21.827  79.884  1.00  0.00     0.000 C 
BRANCH   5   6
ATOM      6  C   UNL     1     -14.333 -20.875  80.973  1.00  0.00     0.000 C 
BRANCH   6   7
ATOM      7  C   UNL     1     -14.985 -19.632  80.351  1.00  0.00     0.000 C 
BRANCH   7   8
ATOM      8  C   UNL     1     -16.429 -19.883  79.883  1.00  0.00     0.000 C 
BRANCH   8   9
ATOM      9  C   UNL     1     -17.524 -19.275  80.785  1.00  0.00     0.000 C 
BRANCH   9  10
ATOM     10  C   UNL     1     -18.757 -20.170  81.007  1.00  0.00     0.006 C 
BRANCH  10  11
ATOM     11  C   UNL     1     -19.297 -20.096  82.441  1.00  0.00     0.053 C 
BRANCH  11  12
ATOM     12  C   UNL     1     -20.007 -21.363  82.798  1.00  0.00     0.041 C 
ATOM     13  O   UNL     1     -20.357 -22.169  81.896  1.00  0.00    -0.550 OA
ATOM     14  O   UNL     1     -20.317 -21.636  84.125  1.00  0.00    -0.550 OA
ENDBRANCH  11  12
ENDBRANCH  10  11
ENDBRANCH   9  10
ENDBRANCH   8   9
ENDBRANCH   7   8
ENDBRANCH   6   7
ENDBRANCH   5   6
ENDBRANCH   4   5
ENDBRANCH   3   4
ENDBRANCH   2   3
ENDBRANCH   1   2
BRANCH   1  15
ATOM     15  C   UNL     1     -13.246 -22.974  84.653  1.00  0.00     0.000 C 
BRANCH  15  16
ATOM     16  C   UNL     1     -14.502 -22.386  85.316  1.00  0.00     0.000 C 
BRANCH  16  17
ATOM     17  C   UNL     1     -15.682 -23.374  85.320  1.00  0.00     0.000 C 
BRANCH  17  18
ATOM     18  C   UNL     1     -16.888 -22.855  84.507  1.00  0.00    -0.000 C 
BRANCH  18  19
ATOM     19  C   UNL     1     -16.581 -22.635  83.011  1.00  0.00    -0.000 C 
BRANCH  19  20
ATOM     20  C   UNL     1     -16.997 -23.792  82.082  1.00  0.00    -0.000 C 
BRANCH  20  21
ATOM     21  C   UNL     1     -17.195 -23.401  80.605  1.00  0.00    -0.000 C 
BRANCH  21  22
ATOM     22  C   UNL     1     -16.703 -24.481  79.631  1.00  0.00    -0.000 C 
BRANCH  22  23
ATOM     23  C   UNL     1     -17.125 -24.156  78.190  1.00  0.00    -0.000 C 
BRANCH  23  24
ATOM     24  C   UNL     1     -16.051 -23.373  77.412  1.00  0.00    -0.000 C 
BRANCH  24  25
ATOM     25  C   UNL     1     -16.508 -22.005  76.875  1.00  0.00    -0.003 C 
ATOM     26  C   UNL     1     -15.343 -21.074  76.543  1.00  0.00     0.004 C 
ENDBRANCH  24  25
ENDBRANCH  23  24
ENDBRANCH  22  23
ENDBRANCH  21  22
ENDBRANCH  20  21
ENDBRANCH  19  20
ENDBRANCH  18  19
ENDBRANCH  17  18
ENDBRANCH  16  17
ENDBRANCH  15  16
ENDBRANCH   1  15
TORSDOF 22
ENDMDL
MODEL 5
REMARK VINA RESULT:    -0.588      5.939      9.031
REMARK INTER + INTRA:          -6.392
REMARK INTER:                  -1.688
REMARK INTRA:                  -4.705
REMARK UNBOUND:                -5.048
REMARK SMILES CCCCCCCCCCCCCCCCCCCCCCCC(=O)[O-]
REMARK SMILES IDX 13 1 14 2 15 3 16 4 17 5 18 6 19 7 20 8 21 9 22 10 23 11
REMARK SMILES IDX 24 12 25 13 26 14 12 15 11 16 10 17 9 18 8 19 7 20 6 21 5 22
REMARK SMILES IDX 4 23 3 24 2 25 1 26
REMARK H PARENT
REMARK Flexibility Score: inf
ROOT
ATOM      1  C   UNL     1     -19.084 -17.472  82.885  1.00  0.00     0.000 C 
ENDROOT
BRANCH   1   2
ATOM      2  C   UNL     1     -18.123 -16.441  82.267  1.00  0.00     0.000 C 
BRANCH   2   3
ATOM      3  C   UNL     1     -18.704 -15.715  81.036  1.00  0.00     0.000 C 
BRANCH   3   4
ATOM      4  C   UNL     1     -17.604 -15.084  80.165  1.00  0.00     0.000 C 
BRANCH   4   5
ATOM      5  C   UNL     1     -16.209 -15.183  80.802  1.00  0.00     0.000 C 
BRANCH   5   6
ATOM      6  C   UNL     1     -15.179 -15.845  79.875  1.00  0.00     0.000 C 
BRANCH   6   7
ATOM      7  C   UNL     1     -15.823 -16.975  79.059  1.00  0.00     0.000 C 
BRANCH   7   8
ATOM      8  C   UNL     1     -15.562 -18.369  79.656  1.00  0.00     0.000 C 
BRANCH   8   9
ATOM      9  C   UNL     1     -16.790 -19.043  80.303  1.00  0.00     0.000 C 
BRANCH   9  10
ATOM     10  C   UNL     1     -17.822 -19.608  79.310  1.00  0.00     0.006 C 
BRANCH  10  11
ATOM     11  C   UNL     1     -19.128 -18.803  79.286  1.00  0.00     0.053 C 
BRANCH  11  12
ATOM     12  C   UNL     1     -19.213 -17.982  78.038  1.00  0.00     0.041 C 
ATOM     13  O   UNL     1     -18.460 -18.237  77.060  1.00  0.00    -0.550 OA
ATOM     14  O   UNL     1     -20.096 -16.912  77.967  1.00  0.00    -0.550 OA
ENDBRANCH  11  12
ENDBRANCH  10  11
ENDBRANCH   9  10
ENDBRANCH   8   9
ENDBRANCH   7   8
ENDBRANCH   6   7
ENDBRANCH   5   6
ENDBRANCH   4   5
ENDBRANCH   3   4
ENDBRANCH   2   3
ENDBRANCH   1   2
BRANCH   1  15
ATOM     15  C   UNL     1     -19.211 -17.328  84.411  1.00  0.00     0.000 C 
BRANCH  15  16
ATOM     16  C   UNL     1     -20.538 -16.675  84.830  1.00  0.00     0.000 C 
BRANCH  16  17
ATOM     17  C   UNL     1     -21.484 -16.447  83.638  1.00  0.00     0.000 C 
BRANCH  17  18
ATOM     18  C   UNL     1     -21.716 -14.948  83.348  1.00  0.00    -0.000 C 
BRANCH  18  19
ATOM     19  C   UNL     1     -20.836 -14.007  84.197  1.00  0.00    -0.000 C 
BRANCH  19  20
ATOM     20  C   UNL     1     -19.850 -13.136  83.396  1.00  0.00    -0.000 C 
BRANCH  20  21
ATOM     21  C   UNL     1     -18.392 -13.178  83.892  1.00  0.00    -0.000 C 
BRANCH  21  22
ATOM     22  C   UNL     1     -18.255 -13.809  85.286  1.00  0.00    -0.000 C 
BRANCH  22  23
ATOM     23  C   UNL     1     -16.919 -14.555  85.423  1.00  0.00    -0.000 C 
BRANCH  23  24
ATOM     24  C   UNL     1     -15.955 -14.282  84.254  1.00  0.00    -0.000 C 
BRANCH  24  25
ATOM     25  C   UNL     1     -14.502 -13.986  84.666  1.00  0.00    -0.003 C 
ATOM     26  C   UNL     1     -13.475 -14.713  83.801  1.00  0.00     0.004 C 
ENDBRANCH  24  25
ENDBRANCH  23  24
ENDBRANCH  22  23
ENDBRANCH  21  22
ENDBRANCH  20  21
ENDBRANCH  19  20
ENDBRANCH  18  19
ENDBRANCH  17  18
ENDBRANCH  16  17
ENDBRANCH  15  16
ENDBRANCH   1  15
TORSDOF 22
ENDMDL
MODEL 6
REMARK VINA RESULT:    -0.569      2.182      4.745
REMARK INTER + INTRA:          -6.350
REMARK INTER:                  -1.494
REMARK INTRA:                  -4.856
REMARK UNBOUND:                -5.048
REMARK SMILES CCCCCCCCCCCCCCCCCCCCCCCC(=O)[O-]
REMARK SMILES IDX 13 1 14 2 15 3 16 4 17 5 18 6 19 7 20 8 21 9 22 10 23 11
REMARK SMILES IDX 24 12 25 13 26 14 12 15 11 16 10 17 9 18 8 19 7 20 6 21 5 22
REMARK SMILES IDX 4 23 3 24 2 25 1 26
REMARK H PARENT
REMARK Flexibility Score: inf
ROOT
ATOM      1  C   UNL     1     -16.214 -19.985  79.333  1.00  0.00     0.000 C 
ENDROOT
BRANCH   1   2
ATOM      2  C   UNL     1     -15.995 -21.411  78.801  1.00  0.00     0.000 C 
BRANCH   2   3
ATOM      3  C   UNL     1     -14.676 -22.055  79.278  1.00  0.00     0.000 C 
BRANCH   3   4
ATOM      4  C   UNL     1     -14.018 -21.249  80.411  1.00  0.00     0.000 C 
BRANCH   4   5
ATOM      5  C   UNL     1     -13.260 -22.137  81.411  1.00  0.00     0.000 C 
BRANCH   5   6
ATOM      6  C   UNL     1     -13.411 -21.659  82.862  1.00  0.00     0.000 C 
BRANCH   6   7
ATOM      7  C   UNL     1     -13.749 -22.832  83.794  1.00  0.00     0.000 C 
BRANCH   7   8
ATOM      8  C   UNL     1     -14.078 -22.383  85.228  1.00  0.00     0.000 C 
BRANCH   8   9
ATOM      9  C   UNL     1     -15.551 -22.569  85.650  1.00  0.00     0.000 C 
BRANCH   9  10
ATOM     10  C   UNL     1     -16.025 -24.031  85.732  1.00  0.00     0.006 C 
BRANCH  10  11
ATOM     11  C   UNL     1     -17.553 -24.161  85.742  1.00  0.00     0.053 C 
BRANCH  11  12
ATOM     12  C   UNL     1     -17.990 -25.267  84.833  1.00  0.00     0.041 C 
ATOM     13  O   UNL     1     -19.197 -25.361  84.485  1.00  0.00    -0.550 OA
ATOM     14  O   UNL     1     -17.071 -26.215  84.400  1.00  0.00    -0.550 OA
ENDBRANCH  11  12
ENDBRANCH  10  11
ENDBRANCH   9  10
ENDBRANCH   8   9
ENDBRANCH   7   8
ENDBRANCH   6   7
ENDBRANCH   5   6
ENDBRANCH   4   5
ENDBRANCH   3   4
ENDBRANCH   2   3
ENDBRANCH   1   2
BRANCH   1  15
ATOM     15  C   UNL     1     -17.691 -19.558  79.304  1.00  0.00     0.000 C 
BRANCH  15  16
ATOM     16  C   UNL     1     -18.650 -20.759  79.320  1.00  0.00     0.000 C 
BRANCH  16  17
ATOM     17  C   UNL     1     -20.033 -20.401  79.892  1.00  0.00     0.000 C 
BRANCH  17  18
ATOM     18  C   UNL     1     -20.318 -21.109  81.234  1.00  0.00    -0.000 C 
BRANCH  18  19
ATOM     19  C   UNL     1     -19.287 -20.791  82.336  1.00  0.00    -0.000 C 
BRANCH  19  20
ATOM     20  C   UNL     1     -18.522 -22.009  82.887  1.00  0.00    -0.000 C 
BRANCH  20  21
ATOM     21  C   UNL     1     -17.082 -22.165  82.363  1.00  0.00    -0.000 C 
BRANCH  21  22
ATOM     22  C   UNL     1     -16.796 -23.570  81.812  1.00  0.00    -0.000 C 
BRANCH  22  23
ATOM     23  C   UNL     1     -18.078 -24.215  81.262  1.00  0.00    -0.000 C 
BRANCH  23  24
ATOM     24  C   UNL     1     -18.085 -24.323  79.726  1.00  0.00    -0.000 C 
BRANCH  24  25
ATOM     25  C   UNL     1     -19.468 -24.582  79.100  1.00  0.00    -0.003 C 
ATOM     26  C   UNL     1     -20.600 -24.563  80.125  1.00  0.00     0.004 C 
ENDBRANCH  24  25
ENDBRANCH  23  24
ENDBRANCH  22  23
ENDBRANCH  21  22
ENDBRANCH  20  21
ENDBRANCH  19  20
ENDBRANCH  18  19
ENDBRANCH  17  18
ENDBRANCH  16  17
ENDBRANCH  15  16
ENDBRANCH   1  15
TORSDOF 22
ENDMDL
MODEL 7
REMARK VINA RESULT:    -0.569      1.265      2.334
REMARK INTER + INTRA:          -6.349
REMARK INTER:                  -1.458
REMARK INTRA:                  -4.892
REMARK UNBOUND:                -5.048
REMARK SMILES CCCCCCCCCCCCCCCCCCCCCCCC(=O)[O-]
REMARK SMILES IDX 13 1 14 2 15 3 16 4 17 5 18 6 19 7 20 8 21 9 22 10 23 11
REMARK SMILES IDX 24 12 25 13 26 14 12 15 11 16 10 17 9 18 8 19 7 20 6 21 5 22
REMARK SMILES IDX 4 23 3 24 2 25 1 26
REMARK H PARENT
REMARK Flexibility Score: inf
ROOT
ATOM      1  C   UNL     1     -16.702 -24.042  79.718  1.00  0.00     0.000 C 
ENDROOT
BRANCH   1   2
ATOM      2  C   UNL     1     -18.136 -23.896  79.181  1.00  0.00     0.000 C 
BRANCH   2   3
ATOM      3  C   UNL     1     -18.457 -22.484  78.648  1.00  0.00     0.000 C 
BRANCH   3   4
ATOM      4  C   UNL     1     -17.224 -21.564  78.671  1.00  0.00     0.000 C 
BRANCH   4   5
ATOM      5  C   UNL     1     -17.587 -20.085  78.875  1.00  0.00     0.000 C 
BRANCH   5   6
ATOM      6  C   UNL     1     -16.677 -19.386  79.896  1.00  0.00     0.000 C 
BRANCH   6   7
ATOM      7  C   UNL     1     -15.941 -20.413  80.768  1.00  0.00     0.000 C 
BRANCH   7   8
ATOM      8  C   UNL     1     -14.417 -20.202  80.785  1.00  0.00     0.000 C 
BRANCH   8   9
ATOM      9  C   UNL     1     -13.609 -21.327  81.465  1.00  0.00     0.000 C 
BRANCH   9  10
ATOM     10  C   UNL     1     -14.454 -22.395  82.183  1.00  0.00     0.006 C 
BRANCH  10  11
ATOM     11  C   UNL     1     -13.606 -23.364  83.016  1.00  0.00     0.053 C 
BRANCH  11  12
ATOM     12  C   UNL     1     -13.926 -23.221  84.471  1.00  0.00     0.041 C 
ATOM     13  O   UNL     1     -14.080 -22.077  84.975  1.00  0.00    -0.550 OA
ATOM     14  O   UNL     1     -14.017 -24.348  85.278  1.00  0.00    -0.550 OA
ENDBRANCH  11  12
ENDBRANCH  10  11
ENDBRANCH   9  10
ENDBRANCH   8   9
ENDBRANCH   7   8
ENDBRANCH   6   7
ENDBRANCH   5   6
ENDBRANCH   4   5
ENDBRANCH   3   4
ENDBRANCH   2   3
ENDBRANCH   1   2
BRANCH   1  15
ATOM     15  C   UNL     1     -16.495 -25.337  80.521  1.00  0.00     0.000 C 
BRANCH  15  16
ATOM     16  C   UNL     1     -17.814 -25.900  81.077  1.00  0.00     0.000 C 
BRANCH  16  17
ATOM     17  C   UNL     1     -17.724 -26.235  82.576  1.00  0.00     0.000 C 
BRANCH  17  18
ATOM     18  C   UNL     1     -16.816 -25.251  83.346  1.00  0.00    -0.000 C 
BRANCH  18  19
ATOM     19  C   UNL     1     -17.533 -24.513  84.495  1.00  0.00    -0.000 C 
BRANCH  19  20
ATOM     20  C   UNL     1     -17.750 -23.004  84.267  1.00  0.00    -0.000 C 
BRANCH  20  21
ATOM     21  C   UNL     1     -17.994 -22.596  82.802  1.00  0.00    -0.000 C 
BRANCH  21  22
ATOM     22  C   UNL     1     -19.486 -22.469  82.459  1.00  0.00    -0.000 C 
BRANCH  22  23
ATOM     23  C   UNL     1     -19.781 -21.125  81.777  1.00  0.00    -0.000 C 
BRANCH  23  24
ATOM     24  C   UNL     1     -19.245 -19.918  82.568  1.00  0.00    -0.000 C 
BRANCH  24  25
ATOM     25  C   UNL     1     -19.742 -18.547  82.076  1.00  0.00    -0.003 C 
ATOM     26  C   UNL     1     -20.436 -18.615  80.718  1.00  0.00     0.004 C 
ENDBRANCH  24  25
ENDBRANCH  23  24
ENDBRANCH  22  23
ENDBRANCH  21  22
ENDBRANCH  20  21
ENDBRANCH  19  20
ENDBRANCH  18  19
ENDBRANCH  17  18
ENDBRANCH  16  17
ENDBRANCH  15  16
ENDBRANCH   1  15
TORSDOF 22
ENDMDL
MODEL 8
REMARK VINA RESULT:    -0.529     16.649     18.706
REMARK INTER + INTRA:          -6.257
REMARK INTER:                  -0.863
REMARK INTRA:                  -5.394
REMARK UNBOUND:                -5.048
REMARK SMILES CCCCCCCCCCCCCCCCCCCCCCCC(=O)[O-]
REMARK SMILES IDX 13 1 14 2 15 3 16 4 17 5 18 6 19 7 20 8 21 9 22 10 23 11
REMARK SMILES IDX 24 12 25 13 26 14 12 15 11 16 10 17 9 18 8 19 7 20 6 21 5 22
REMARK SMILES IDX 4 23 3 24 2 25 1 26
REMARK H PARENT
REMARK Flexibility Score: inf
ROOT
ATOM      1  C   UNL     1     -28.080 -20.464  70.532  1.00  0.00     0.000 C 
ENDROOT
BRANCH   1   2
ATOM      2  C   UNL     1     -26.798 -20.533  69.684  1.00  0.00     0.000 C 
BRANCH   2   3
ATOM      3  C   UNL     1     -26.913 -19.804  68.329  1.00  0.00     0.000 C 
BRANCH   3   4
ATOM      4  C   UNL     1     -25.635 -19.951  67.484  1.00  0.00     0.000 C 
BRANCH   4   5
ATOM      5  C   UNL     1     -25.609 -19.004  66.274  1.00  0.00     0.000 C 
BRANCH   5   6
ATOM      6  C   UNL     1     -26.416 -17.719  66.509  1.00  0.00     0.000 C 
BRANCH   6   7
ATOM      7  C   UNL     1     -25.495 -16.561  66.922  1.00  0.00     0.000 C 
BRANCH   7   8
ATOM      8  C   UNL     1     -25.906 -15.917  68.258  1.00  0.00     0.000 C 
BRANCH   8   9
ATOM      9  C   UNL     1     -25.446 -16.678  69.519  1.00  0.00     0.000 C 
BRANCH   9  10
ATOM     10  C   UNL     1     -26.527 -16.860  70.600  1.00  0.00     0.006 C 
BRANCH  10  11
ATOM     11  C   UNL     1     -27.949 -16.672  70.057  1.00  0.00     0.053 C 
BRANCH  11  12
ATOM     12  C   UNL     1     -28.955 -16.853  71.150  1.00  0.00     0.041 C 
ATOM     13  O   UNL     1     -28.610 -17.364  72.249  1.00  0.00    -0.550 OA
ATOM     14  O   UNL     1     -30.281 -16.494  70.943  1.00  0.00    -0.550 OA
ENDBRANCH  11  12
ENDBRANCH  10  11
ENDBRANCH   9  10
ENDBRANCH   8   9
ENDBRANCH   7   8
ENDBRANCH   6   7
ENDBRANCH   5   6
ENDBRANCH   4   5
ENDBRANCH   3   4
ENDBRANCH   2   3
ENDBRANCH   1   2
BRANCH   1  15
ATOM     15  C   UNL     1     -28.922 -21.747  70.444  1.00  0.00     0.000 C 
BRANCH  15  16
ATOM     16  C   UNL     1     -30.368 -21.471  69.998  1.00  0.00     0.000 C 
BRANCH  16  17
ATOM     17  C   UNL     1     -30.732 -19.978  70.077  1.00  0.00     0.000 C 
BRANCH  17  18
ATOM     18  C   UNL     1     -31.319 -19.443  68.752  1.00  0.00    -0.000 C 
BRANCH  18  19
ATOM     19  C   UNL     1     -30.343 -18.555  67.954  1.00  0.00    -0.000 C 
BRANCH  19  20
ATOM     20  C   UNL     1     -29.949 -19.099  66.567  1.00  0.00    -0.000 C 
BRANCH  20  21
ATOM     21  C   UNL     1     -30.309 -20.577  66.322  1.00  0.00    -0.000 C 
BRANCH  21  22
ATOM     22  C   UNL     1     -29.104 -21.418  65.875  1.00  0.00    -0.000 C 
BRANCH  22  23
ATOM     23  C   UNL     1     -28.890 -22.615  66.815  1.00  0.00    -0.000 C 
BRANCH  23  24
ATOM     24  C   UNL     1     -27.472 -23.206  66.723  1.00  0.00    -0.000 C 
BRANCH  24  25
ATOM     25  C   UNL     1     -26.949 -23.843  68.023  1.00  0.00    -0.003 C 
ATOM     26  C   UNL     1     -25.440 -23.684  68.202  1.00  0.00     0.004 C 
ENDBRANCH  24  25
ENDBRANCH  23  24
ENDBRANCH  22  23
ENDBRANCH  21  22
ENDBRANCH  20  21
ENDBRANCH  19  20
ENDBRANCH  18  19
ENDBRANCH  17  18
ENDBRANCH  16  17
ENDBRANCH  15  16
ENDBRANCH   1  15
TORSDOF 22
ENDMDL
