MODEL 1
REMARK VINA RESULT:     7.024      0.000      0.000
REMARK INTER + INTRA:          10.646
REMARK INTER:                   8.461
REMARK INTRA:                   2.185
REMARK UNBOUND:                 2.185
REMARK SMILES [NH3+][C@H](Cc1c[nH]c2ccccc12)C(=O)[O-]
REMARK SMILES IDX 3 1 2 2 1 3 13 7 14 8 15 9 4 10 12 11 5 12 7 13 11 14 6 15
REMARK SMILES IDX 8 16 10 17 9 19
REMARK H PARENT 1 4 1 5 1 6 6 18
REMARK Flexibility Score: inf
ROOT
ATOM      1  C   UNL     1      11.764   6.037   7.034  1.00  0.00     0.109 C 
ENDROOT
BRANCH   1   2
ATOM      2  C   UNL     1      11.873   7.053   5.878  1.00  0.00     0.232 C 
BRANCH   2   3
ATOM      3  N   UNL     1      10.741   7.991   5.876  1.00  0.00    -0.350 N 
ATOM      4  H   UNL     1      10.640   8.428   6.821  1.00  0.00     0.345 HD
ATOM      5  H   UNL     1      10.912   8.757   5.186  1.00  0.00     0.345 HD
ATOM      6  H   UNL     1       9.851   7.497   5.631  1.00  0.00     0.345 HD
ENDBRANCH   2   3
BRANCH   2   7
ATOM      7  C   UNL     1      13.172   7.804   5.981  1.00  0.00     0.099 C 
ATOM      8  O   UNL     1      14.259   7.185   6.133  1.00  0.00    -0.544 OA
ATOM      9  O   UNL     1      13.180   9.191   5.889  1.00  0.00    -0.544 OA
ENDBRANCH   2   7
ENDBRANCH   1   2
BRANCH   1  10
ATOM     10  C   UNL     1      12.279   4.683   6.637  1.00  0.00    -0.016 A 
ATOM     11  C   UNL     1      13.590   4.306   6.414  1.00  0.00     0.003 A 
ATOM     12  C   UNL     1      11.524   3.523   6.497  1.00  0.00     0.087 A 
ATOM     13  C   UNL     1      13.574   2.961   6.140  1.00  0.00     0.046 A 
ATOM     14  C   UNL     1      14.779   5.035   6.445  1.00  0.00     0.010 A 
ATOM     15  N   UNL     1      12.321   2.475   6.187  1.00  0.00    -0.361 N 
ATOM     16  C   UNL     1      14.745   2.254   5.875  1.00  0.00     0.026 A 
ATOM     17  C   UNL     1      15.977   4.346   6.180  1.00  0.00     0.001 A 
ATOM     18  H   UNL     1      12.022   1.487   6.030  1.00  0.00     0.166 HD
ATOM     19  C   UNL     1      15.960   2.962   5.896  1.00  0.00     0.002 A 
ENDBRANCH   1  10
TORSDOF 4
ENDMDL
MODEL 2
REMARK VINA RESULT:     7.385      2.494      4.419
REMARK INTER + INTRA:          11.081
REMARK INTER:                   8.763
REMARK INTRA:                   2.318
REMARK UNBOUND:                 2.185
REMARK SMILES [NH3+][C@H](Cc1c[nH]c2ccccc12)C(=O)[O-]
REMARK SMILES IDX 3 1 2 2 1 3 13 7 14 8 15 9 4 10 12 11 5 12 7 13 11 14 6 15
REMARK SMILES IDX 8 16 10 17 9 19
REMARK H PARENT 1 4 1 5 1 6 6 18
REMARK Flexibility Score: inf
ROOT
ATOM      1  C   UNL     1      12.355   2.859   5.904  1.00  0.00     0.109 C 
ENDROOT
BRANCH   1   2
ATOM      2  C   UNL     1      11.689   2.695   7.285  1.00  0.00     0.232 C 
BRANCH   2   3
ATOM      3  N   UNL     1      12.592   2.046   8.247  1.00  0.00    -0.350 N 
ATOM      4  H   UNL     1      13.553   2.449   8.159  1.00  0.00     0.345 HD
ATOM      5  H   UNL     1      12.261   2.220   9.223  1.00  0.00     0.345 HD
ATOM      6  H   UNL     1      12.637   1.015   8.075  1.00  0.00     0.345 HD
ENDBRANCH   2   3
BRANCH   2   7
ATOM      7  C   UNL     1      11.254   4.038   7.804  1.00  0.00     0.099 C 
ATOM      8  O   UNL     1      10.134   4.518   7.480  1.00  0.00    -0.544 OA
ATOM      9  O   UNL     1      12.081   4.751   8.664  1.00  0.00    -0.544 OA
ENDBRANCH   2   7
ENDBRANCH   1   2
BRANCH   1  10
ATOM     10  C   UNL     1      13.310   4.019   5.880  1.00  0.00    -0.016 A 
ATOM     11  C   UNL     1      13.007   5.367   5.886  1.00  0.00     0.003 A 
ATOM     12  C   UNL     1      14.698   3.944   5.928  1.00  0.00     0.087 A 
ATOM     13  C   UNL     1      14.202   6.040   5.923  1.00  0.00     0.046 A 
ATOM     14  C   UNL     1      11.785   6.040   5.875  1.00  0.00     0.010 A 
ATOM     15  N   UNL     1      15.238   5.183   5.948  1.00  0.00    -0.361 N 
ATOM     16  C   UNL     1      14.257   7.433   5.948  1.00  0.00     0.026 A 
ATOM     17  C   UNL     1      11.811   7.446   5.899  1.00  0.00     0.001 A 
ATOM     18  H   UNL     1      16.253   5.423   5.989  1.00  0.00     0.166 HD
ATOM     19  C   UNL     1      13.041   8.140   5.935  1.00  0.00     0.002 A 
ENDBRANCH   1  10
TORSDOF 4
ENDMDL
MODEL 3
REMARK VINA RESULT:     9.733      2.241      3.442
REMARK INTER + INTRA:          13.909
REMARK INTER:                  12.226
REMARK INTRA:                   1.683
REMARK UNBOUND:                 2.185
REMARK SMILES [NH3+][C@H](Cc1c[nH]c2ccccc12)C(=O)[O-]
REMARK SMILES IDX 3 1 2 2 1 3 13 7 14 8 15 9 4 10 12 11 5 12 7 13 11 14 6 15
REMARK SMILES IDX 8 16 10 17 9 19
REMARK H PARENT 1 4 1 5 1 6 6 18
REMARK Flexibility Score: inf
ROOT
ATOM      1  C   UNL     1      10.893   5.596   5.983  1.00  0.00     0.109 C 
ENDROOT
BRANCH   1   2
ATOM      2  C   UNL     1      10.456   4.620   7.093  1.00  0.00     0.232 C 
BRANCH   2   3
ATOM      3  N   UNL     1      10.973   3.264   6.855  1.00  0.00    -0.350 N 
ATOM      4  H   UNL     1      10.178   2.588   6.782  1.00  0.00     0.345 HD
ATOM      5  H   UNL     1      11.500   3.235   5.952  1.00  0.00     0.345 HD
ATOM      6  H   UNL     1      11.605   2.966   7.634  1.00  0.00     0.345 HD
ENDBRANCH   2   3
BRANCH   2   7
ATOM      7  C   UNL     1      10.922   5.127   8.431  1.00  0.00     0.099 C 
ATOM      8  O   UNL     1      10.144   5.788   9.171  1.00  0.00    -0.544 OA
ATOM      9  O   UNL     1      12.213   4.853   8.866  1.00  0.00    -0.544 OA
ENDBRANCH   2   7
ENDBRANCH   1   2
BRANCH   1  10
ATOM     10  C   UNL     1      12.370   5.861   6.022  1.00  0.00    -0.016 A 
ATOM     11  C   UNL     1      13.399   4.940   5.978  1.00  0.00     0.003 A 
ATOM     12  C   UNL     1      12.983   7.111   6.030  1.00  0.00     0.087 A 
ATOM     13  C   UNL     1      14.570   5.655   5.974  1.00  0.00     0.046 A 
ATOM     14  C   UNL     1      13.389   3.546   5.927  1.00  0.00     0.010 A 
ATOM     15  N   UNL     1      14.328   6.977   6.006  1.00  0.00    -0.361 N 
ATOM     16  C   UNL     1      15.813   5.025   5.924  1.00  0.00     0.026 A 
ATOM     17  C   UNL     1      14.630   2.883   5.877  1.00  0.00     0.001 A 
ATOM     18  H   UNL     1      15.033   7.747   6.001  1.00  0.00     0.166 HD
ATOM     19  C   UNL     1      15.835   3.618   5.876  1.00  0.00     0.002 A 
ENDBRANCH   1  10
TORSDOF 4
ENDMDL
MODEL 4
REMARK VINA RESULT:     9.985      1.543      2.875
REMARK INTER + INTRA:          14.212
REMARK INTER:                  14.079
REMARK INTRA:                   0.134
REMARK UNBOUND:                 2.185
REMARK SMILES [NH3+][C@H](Cc1c[nH]c2ccccc12)C(=O)[O-]
REMARK SMILES IDX 3 1 2 2 1 3 13 7 14 8 15 9 4 10 12 11 5 12 7 13 11 14 6 15
REMARK SMILES IDX 8 16 10 17 9 19
REMARK H PARENT 1 4 1 5 1 6 6 18
REMARK Flexibility Score: inf
ROOT
ATOM      1  C   UNL     1      14.195   7.230   6.983  1.00  0.00     0.109 C 
ENDROOT
BRANCH   1   2
ATOM      2  C   UNL     1      13.492   8.039   5.875  1.00  0.00     0.232 C 
BRANCH   2   3
ATOM      3  N   UNL     1      12.030   8.005   6.027  1.00  0.00    -0.350 N 
ATOM      4  H   UNL     1      11.613   8.883   5.640  1.00  0.00     0.345 HD
ATOM      5  H   UNL     1      11.632   7.200   5.490  1.00  0.00     0.345 HD
ATOM      6  H   UNL     1      11.764   7.914   7.034  1.00  0.00     0.345 HD
ENDBRANCH   2   3
BRANCH   2   7
ATOM      7  C   UNL     1      13.985   9.460   5.891  1.00  0.00     0.099 C 
ATOM      8  O   UNL     1      13.169  10.420   5.935  1.00  0.00    -0.544 OA
ATOM      9  O   UNL     1      15.349   9.722   5.876  1.00  0.00    -0.544 OA
ENDBRANCH   2   7
ENDBRANCH   1   2
BRANCH   1  10
ATOM     10  C   UNL     1      14.203   5.758   6.681  1.00  0.00    -0.016 A 
ATOM     11  C   UNL     1      13.140   4.876   6.731  1.00  0.00     0.003 A 
ATOM     12  C   UNL     1      15.284   5.019   6.210  1.00  0.00     0.087 A 
ATOM     13  C   UNL     1      13.615   3.660   6.309  1.00  0.00     0.046 A 
ATOM     14  C   UNL     1      11.806   5.057   7.097  1.00  0.00     0.010 A 
ATOM     15  N   UNL     1      14.919   3.736   5.991  1.00  0.00    -0.361 N 
ATOM     16  C   UNL     1      12.790   2.540   6.229  1.00  0.00     0.026 A 
ATOM     17  C   UNL     1      10.950   3.942   7.027  1.00  0.00     0.001 A 
ATOM     18  H   UNL     1      15.526   2.966   5.633  1.00  0.00     0.166 HD
ATOM     19  C   UNL     1      11.440   2.690   6.596  1.00  0.00     0.002 A 
ENDBRANCH   1  10
TORSDOF 4
ENDMDL
