MODEL 1
REMARK VINA RESULT:    -7.567      0.000      0.000
REMARK INTER + INTRA:          -9.643
REMARK INTER:                  -9.337
REMARK INTRA:                  -0.306
REMARK UNBOUND:                -0.306
REMARK SMILES Oc1cc(O)c2cc(O)c(-c3cc(O)c(O)c(O)c3)[o+]c2c1.[Cl-]
REMARK SMILES IDX 10 1 20 2 21 3 22 4 2 5 3 6 4 7 6 8 7 9 8 10 11 11 12 12
REMARK SMILES IDX 13 13 19 14 15 15 17 16 14 17 16 19 18 21 9 23 1 25 5 27
REMARK H PARENT 14 18 16 20 18 22 9 24 1 26 5 28
REMARK Flexibility Score: inf
ROOT
ATOM      1  C   UNL     1       7.359  -1.560  -2.101  1.00  0.00     0.402 A 
ATOM      2  O   UNL     1       7.342  -2.387  -1.059  1.00  0.00    -0.202 OA
ATOM      3  C   UNL     1       7.884  -2.089   0.117  1.00  0.00     0.368 A 
ATOM      4  C   UNL     1       7.819  -3.025   1.152  1.00  0.00     0.162 A 
ATOM      5  C   UNL     1       8.384  -2.738   2.399  1.00  0.00     0.128 A 
ATOM      6  C   UNL     1       9.018  -1.512   2.610  1.00  0.00     0.093 A 
ATOM      7  C   UNL     1       9.097  -0.557   1.589  1.00  0.00     0.136 A 
ATOM      8  C   UNL     1       8.523  -0.842   0.323  1.00  0.00     0.125 A 
ATOM      9  C   UNL     1       8.543   0.059  -0.755  1.00  0.00     0.078 A 
ATOM     10  C   UNL     1       7.951  -0.291  -1.972  1.00  0.00     0.223 A 
ENDROOT
BRANCH   1  11
ATOM     11  C   UNL     1       6.729  -2.011  -3.363  1.00  0.00     0.091 A 
ATOM     12  C   UNL     1       7.500  -2.313  -4.499  1.00  0.00     0.068 A 
ATOM     13  C   UNL     1       6.886  -2.761  -5.678  1.00  0.00     0.162 A 
ATOM     14  C   UNL     1       5.338  -2.198  -3.412  1.00  0.00     0.068 A 
ATOM     15  C   UNL     1       5.491  -2.922  -5.723  1.00  0.00     0.200 A 
ATOM     16  C   UNL     1       4.720  -2.643  -4.588  1.00  0.00     0.162 A 
BRANCH  13  17
ATOM     17  O   UNL     1       7.658  -3.051  -6.801  1.00  0.00    -0.504 OA
ATOM     18  H   UNL     1       8.361  -3.781  -6.789  1.00  0.00     0.293 HD
ENDBRANCH  13  17
BRANCH  15  19
ATOM     19  O   UNL     1       4.857  -3.361  -6.886  1.00  0.00    -0.502 OA
ATOM     20  H   UNL     1       3.848  -3.439  -6.953  1.00  0.00     0.293 HD
ENDBRANCH  15  19
BRANCH  16  21
ATOM     21  O   UNL     1       3.337  -2.812  -4.636  1.00  0.00    -0.504 OA
ATOM     22  H   UNL     1       2.761  -2.701  -3.810  1.00  0.00     0.293 HD
ENDBRANCH  16  21
ENDBRANCH   1  11
BRANCH  10  23
ATOM     23  O   UNL     1       7.926   0.623  -3.026  1.00  0.00    -0.500 OA
ATOM     24  H   UNL     1       7.125   0.706  -3.641  1.00  0.00     0.294 HD
ENDBRANCH  10  23
BRANCH   5  25
ATOM     25  O   UNL     1       8.322  -3.666   3.436  1.00  0.00    -0.507 OA
ATOM     26  H   UNL     1       8.490  -3.398   4.399  1.00  0.00     0.293 HD
ENDBRANCH   5  25
BRANCH   7  27
ATOM     27  O   UNL     1       9.751   0.644   1.879  1.00  0.00    -0.507 OA
ATOM     28  H   UNL     1       9.635   1.498   1.353  1.00  0.00     0.293 HD
ENDBRANCH   7  27
TORSDOF 7
ENDMDL
MODEL 2
REMARK VINA RESULT:    -7.371      1.980      3.459
REMARK INTER + INTRA:          -9.400
REMARK INTER:                  -9.026
REMARK INTRA:                  -0.374
REMARK UNBOUND:                -0.306
REMARK SMILES Oc1cc(O)c2cc(O)c(-c3cc(O)c(O)c(O)c3)[o+]c2c1.[Cl-]
REMARK SMILES IDX 10 1 20 2 21 3 22 4 2 5 3 6 4 7 6 8 7 9 8 10 11 11 12 12
REMARK SMILES IDX 13 13 19 14 15 15 17 16 14 17 16 19 18 21 9 23 1 25 5 27
REMARK H PARENT 14 18 16 20 18 22 9 24 1 26 5 28
REMARK Flexibility Score: inf
ROOT
ATOM      1  C   UNL     1       8.250  -2.144   0.405  1.00  0.00     0.402 A 
ATOM      2  O   UNL     1       8.268  -3.324   1.020  1.00  0.00    -0.202 OA
ATOM      3  C   UNL     1       8.654  -3.483   2.281  1.00  0.00     0.368 A 
ATOM      4  C   UNL     1       8.641  -4.764   2.839  1.00  0.00     0.162 A 
ATOM      5  C   UNL     1       9.045  -4.961   4.163  1.00  0.00     0.128 A 
ATOM      6  C   UNL     1       9.466  -3.872   4.931  1.00  0.00     0.093 A 
ATOM      7  C   UNL     1       9.489  -2.579   4.394  1.00  0.00     0.136 A 
ATOM      8  C   UNL     1       9.077  -2.374   3.052  1.00  0.00     0.125 A 
ATOM      9  C   UNL     1       9.054  -1.111   2.436  1.00  0.00     0.078 A 
ATOM     10  C   UNL     1       8.630  -0.987   1.109  1.00  0.00     0.223 A 
ENDROOT
BRANCH   1  11
ATOM     11  C   UNL     1       7.808  -2.097  -1.007  1.00  0.00     0.091 A 
ATOM     12  C   UNL     1       6.472  -1.822  -1.348  1.00  0.00     0.068 A 
ATOM     13  C   UNL     1       6.078  -1.759  -2.692  1.00  0.00     0.162 A 
ATOM     14  C   UNL     1       8.751  -2.273  -2.032  1.00  0.00     0.068 A 
ATOM     15  C   UNL     1       7.025  -1.960  -3.709  1.00  0.00     0.200 A 
ATOM     16  C   UNL     1       8.362  -2.214  -3.378  1.00  0.00     0.162 A 
BRANCH  13  17
ATOM     17  O   UNL     1       4.749  -1.492  -3.019  1.00  0.00    -0.504 OA
ATOM     18  H   UNL     1       4.254  -2.036  -3.716  1.00  0.00     0.293 HD
ENDBRANCH  13  17
BRANCH  15  19
ATOM     19  O   UNL     1       6.656  -1.907  -5.054  1.00  0.00    -0.502 OA
ATOM     20  H   UNL     1       7.135  -2.447  -5.766  1.00  0.00     0.293 HD
ENDBRANCH  15  19
BRANCH  16  21
ATOM     21  O   UNL     1       9.300  -2.404  -4.391  1.00  0.00    -0.504 OA
ATOM     22  H   UNL     1       9.980  -1.691  -4.624  1.00  0.00     0.293 HD
ENDBRANCH  16  21
ENDBRANCH   1  11
BRANCH  10  23
ATOM     23  O   UNL     1       8.560   0.272   0.513  1.00  0.00    -0.500 OA
ATOM     24  H   UNL     1       9.343   0.664   0.004  1.00  0.00     0.294 HD
ENDBRANCH  10  23
BRANCH   5  25
ATOM     25  O   UNL     1       9.034  -6.234   4.726  1.00  0.00    -0.507 OA
ATOM     26  H   UNL     1       9.122  -6.373   5.726  1.00  0.00     0.293 HD
ENDBRANCH   5  25
BRANCH   7  27
ATOM     27  O   UNL     1       9.926  -1.544   5.227  1.00  0.00    -0.507 OA
ATOM     28  H   UNL     1      10.279  -0.658   4.897  1.00  0.00     0.293 HD
ENDBRANCH   7  27
TORSDOF 7
ENDMDL
MODEL 3
REMARK VINA RESULT:    -7.364      1.944      2.917
REMARK INTER + INTRA:          -9.392
REMARK INTER:                  -9.017
REMARK INTRA:                  -0.375
REMARK UNBOUND:                -0.306
REMARK SMILES Oc1cc(O)c2cc(O)c(-c3cc(O)c(O)c(O)c3)[o+]c2c1.[Cl-]
REMARK SMILES IDX 10 1 20 2 21 3 22 4 2 5 3 6 4 7 6 8 7 9 8 10 11 11 12 12
REMARK SMILES IDX 13 13 19 14 15 15 17 16 14 17 16 19 18 21 9 23 1 25 5 27
REMARK H PARENT 14 18 16 20 18 22 9 24 1 26 5 28
REMARK Flexibility Score: inf
ROOT
ATOM      1  C   UNL     1       8.290  -2.070   0.332  1.00  0.00     0.402 A 
ATOM      2  O   UNL     1       8.308  -3.259   0.930  1.00  0.00    -0.202 OA
ATOM      3  C   UNL     1       8.674  -3.434   2.195  1.00  0.00     0.368 A 
ATOM      4  C   UNL     1       8.662  -4.724   2.733  1.00  0.00     0.162 A 
ATOM      5  C   UNL     1       9.046  -4.937   4.061  1.00  0.00     0.128 A 
ATOM      6  C   UNL     1       9.443  -3.857   4.852  1.00  0.00     0.093 A 
ATOM      7  C   UNL     1       9.464  -2.555   4.336  1.00  0.00     0.136 A 
ATOM      8  C   UNL     1       9.073  -2.334   2.990  1.00  0.00     0.125 A 
ATOM      9  C   UNL     1       9.050  -1.062   2.392  1.00  0.00     0.078 A 
ATOM     10  C   UNL     1       8.647  -0.921   1.061  1.00  0.00     0.223 A 
ENDROOT
BRANCH   1  11
ATOM     11  C   UNL     1       7.872  -2.005  -1.086  1.00  0.00     0.091 A 
ATOM     12  C   UNL     1       8.788  -2.221  -2.131  1.00  0.00     0.068 A 
ATOM     13  C   UNL     1       8.367  -2.178  -3.468  1.00  0.00     0.162 A 
ATOM     14  C   UNL     1       6.522  -1.781  -1.398  1.00  0.00     0.068 A 
ATOM     15  C   UNL     1       7.018  -1.929  -3.769  1.00  0.00     0.200 A 
ATOM     16  C   UNL     1       6.096  -1.734  -2.733  1.00  0.00     0.162 A 
BRANCH  13  17
ATOM     17  O   UNL     1       9.285  -2.387  -4.496  1.00  0.00    -0.504 OA
ATOM     18  H   UNL     1       9.799  -3.256  -4.582  1.00  0.00     0.293 HD
ENDBRANCH  13  17
BRANCH  15  19
ATOM     19  O   UNL     1       6.576  -1.876  -5.092  1.00  0.00    -0.502 OA
ATOM     20  H   UNL     1       6.796  -1.097  -5.703  1.00  0.00     0.293 HD
ENDBRANCH  15  19
BRANCH  16  21
ATOM     21  O   UNL     1       4.757  -1.495  -3.037  1.00  0.00    -0.504 OA
ATOM     22  H   UNL     1       4.013  -1.772  -2.408  1.00  0.00     0.293 HD
ENDBRANCH  16  21
ENDBRANCH   1  11
BRANCH  10  23
ATOM     23  O   UNL     1       8.576   0.346   0.482  1.00  0.00    -0.500 OA
ATOM     24  H   UNL     1       7.689   0.803   0.309  1.00  0.00     0.294 HD
ENDBRANCH  10  23
BRANCH   5  25
ATOM     25  O   UNL     1       9.036  -6.219   4.604  1.00  0.00    -0.507 OA
ATOM     26  H   UNL     1       9.887  -6.763   4.696  1.00  0.00     0.293 HD
ENDBRANCH   5  25
BRANCH   7  27
ATOM     27  O   UNL     1       9.877  -1.530   5.191  1.00  0.00    -0.507 OA
ATOM     28  H   UNL     1      10.763  -1.051   5.120  1.00  0.00     0.293 HD
ENDBRANCH   7  27
TORSDOF 7
ENDMDL
MODEL 4
REMARK VINA RESULT:    -7.247      3.286      5.818
REMARK INTER + INTRA:          -9.248
REMARK INTER:                  -9.286
REMARK INTRA:                   0.039
REMARK UNBOUND:                -0.306
REMARK SMILES Oc1cc(O)c2cc(O)c(-c3cc(O)c(O)c(O)c3)[o+]c2c1.[Cl-]
REMARK SMILES IDX 10 1 20 2 21 3 22 4 2 5 3 6 4 7 6 8 7 9 8 10 11 11 12 12
REMARK SMILES IDX 13 13 19 14 15 15 17 16 14 17 16 19 18 21 9 23 1 25 5 27
REMARK H PARENT 14 18 16 20 18 22 9 24 1 26 5 28
REMARK Flexibility Score: inf
ROOT
ATOM      1  C   UNL     1       9.018  -3.093   2.565  1.00  0.00     0.402 A 
ATOM      2  O   UNL     1       9.192  -2.329   3.640  1.00  0.00    -0.202 OA
ATOM      3  C   UNL     1       9.491  -2.815   4.840  1.00  0.00     0.368 A 
ATOM      4  C   UNL     1       9.651  -1.931   5.910  1.00  0.00     0.162 A 
ATOM      5  C   UNL     1       9.963  -2.416   7.185  1.00  0.00     0.128 A 
ATOM      6  C   UNL     1      10.115  -3.789   7.388  1.00  0.00     0.093 A 
ATOM      7  C   UNL     1       9.959  -4.695   6.332  1.00  0.00     0.136 A 
ATOM      8  C   UNL     1       9.645  -4.208   5.037  1.00  0.00     0.125 A 
ATOM      9  C   UNL     1       9.484  -5.041   3.916  1.00  0.00     0.078 A 
ATOM     10  C   UNL     1       9.180  -4.487   2.670  1.00  0.00     0.223 A 
ENDROOT
BRANCH   1  11
ATOM     11  C   UNL     1       8.677  -2.433   1.284  1.00  0.00     0.091 A 
ATOM     12  C   UNL     1       9.296  -2.810   0.079  1.00  0.00     0.068 A 
ATOM     13  C   UNL     1       8.942  -2.189  -1.127  1.00  0.00     0.162 A 
ATOM     14  C   UNL     1       7.675  -1.450   1.260  1.00  0.00     0.068 A 
ATOM     15  C   UNL     1       7.954  -1.190  -1.137  1.00  0.00     0.200 A 
ATOM     16  C   UNL     1       7.320  -0.824   0.057  1.00  0.00     0.162 A 
BRANCH  13  17
ATOM     17  O   UNL     1       9.565  -2.565  -2.316  1.00  0.00    -0.504 OA
ATOM     18  H   UNL     1       9.618  -1.937  -3.110  1.00  0.00     0.293 HD
ENDBRANCH  13  17
BRANCH  15  19
ATOM     19  O   UNL     1       7.589  -0.553  -2.324  1.00  0.00    -0.502 OA
ATOM     20  H   UNL     1       7.736  -0.980  -3.232  1.00  0.00     0.293 HD
ENDBRANCH  15  19
BRANCH  16  21
ATOM     21  O   UNL     1       6.335   0.161   0.041  1.00  0.00    -0.504 OA
ATOM     22  H   UNL     1       6.374   0.940  -0.606  1.00  0.00     0.293 HD
ENDBRANCH  16  21
ENDBRANCH   1  11
BRANCH  10  23
ATOM     23  O   UNL     1       9.069  -5.308   1.547  1.00  0.00    -0.500 OA
ATOM     24  H   UNL     1       9.877  -5.562   0.991  1.00  0.00     0.294 HD
ENDBRANCH  10  23
BRANCH   5  25
ATOM     25  O   UNL     1      10.125  -1.541   8.256  1.00  0.00    -0.507 OA
ATOM     26  H   UNL     1      11.044  -1.271   8.586  1.00  0.00     0.293 HD
ENDBRANCH   5  25
BRANCH   7  27
ATOM     27  O   UNL     1      10.124  -6.053   6.619  1.00  0.00    -0.507 OA
ATOM     28  H   UNL     1       9.828  -6.494   7.478  1.00  0.00     0.293 HD
ENDBRANCH   7  27
TORSDOF 7
ENDMDL
MODEL 5
REMARK VINA RESULT:    -7.161      3.486      7.175
REMARK INTER + INTRA:          -9.142
REMARK INTER:                  -9.492
REMARK INTRA:                   0.350
REMARK UNBOUND:                -0.306
REMARK SMILES Oc1cc(O)c2cc(O)c(-c3cc(O)c(O)c(O)c3)[o+]c2c1.[Cl-]
REMARK SMILES IDX 10 1 20 2 21 3 22 4 2 5 3 6 4 7 6 8 7 9 8 10 11 11 12 12
REMARK SMILES IDX 13 13 19 14 15 15 17 16 14 17 16 19 18 21 9 23 1 25 5 27
REMARK H PARENT 14 18 16 20 18 22 9 24 1 26 5 28
REMARK Flexibility Score: inf
ROOT
ATOM      1  C   UNL     1       9.025  -1.368   1.435  1.00  0.00     0.402 A 
ATOM      2  O   UNL     1       9.108  -1.344   0.107  1.00  0.00    -0.202 OA
ATOM      3  C   UNL     1       8.856  -0.262  -0.621  1.00  0.00     0.368 A 
ATOM      4  C   UNL     1       8.968  -0.337  -2.011  1.00  0.00     0.162 A 
ATOM      5  C   UNL     1       8.705   0.787  -2.802  1.00  0.00     0.128 A 
ATOM      6  C   UNL     1       8.329   1.989  -2.198  1.00  0.00     0.093 A 
ATOM      7  C   UNL     1       8.209   2.090  -0.807  1.00  0.00     0.136 A 
ATOM      8  C   UNL     1       8.477   0.953  -0.001  1.00  0.00     0.125 A 
ATOM      9  C   UNL     1       8.396   0.965   1.402  1.00  0.00     0.078 A 
ATOM     10  C   UNL     1       8.680  -0.194   2.130  1.00  0.00     0.223 A 
ENDROOT
BRANCH   1  11
ATOM     11  C   UNL     1       9.321  -2.639   2.133  1.00  0.00     0.091 A 
ATOM     12  C   UNL     1       9.546  -2.678   3.520  1.00  0.00     0.068 A 
ATOM     13  C   UNL     1       9.802  -3.896   4.166  1.00  0.00     0.162 A 
ATOM     14  C   UNL     1       9.321  -3.841   1.407  1.00  0.00     0.068 A 
ATOM     15  C   UNL     1       9.823  -5.090   3.427  1.00  0.00     0.200 A 
ATOM     16  C   UNL     1       9.579  -5.061   2.048  1.00  0.00     0.162 A 
BRANCH  13  17
ATOM     17  O   UNL     1      10.030  -3.923   5.541  1.00  0.00    -0.504 OA
ATOM     18  H   UNL     1      10.505  -3.164   6.016  1.00  0.00     0.293 HD
ENDBRANCH  13  17
BRANCH  15  19
ATOM     19  O   UNL     1      10.081  -6.313   4.047  1.00  0.00    -0.502 OA
ATOM     20  H   UNL     1      10.963  -6.509   4.507  1.00  0.00     0.293 HD
ENDBRANCH  15  19
BRANCH  16  21
ATOM     21  O   UNL     1       9.593  -6.249   1.320  1.00  0.00    -0.504 OA
ATOM     22  H   UNL     1       9.066  -7.061   1.620  1.00  0.00     0.293 HD
ENDBRANCH  16  21
ENDBRANCH   1  11
BRANCH  10  23
ATOM     23  O   UNL     1       8.648  -0.170   3.525  1.00  0.00    -0.500 OA
ATOM     24  H   UNL     1       9.132   0.544   4.056  1.00  0.00     0.294 HD
ENDBRANCH  10  23
BRANCH   5  25
ATOM     25  O   UNL     1       8.815   0.720  -4.188  1.00  0.00    -0.507 OA
ATOM     26  H   UNL     1       8.164   0.179  -4.746  1.00  0.00     0.293 HD
ENDBRANCH   5  25
BRANCH   7  27
ATOM     27  O   UNL     1       7.824   3.327  -0.282  1.00  0.00    -0.507 OA
ATOM     28  H   UNL     1       7.254   4.001  -0.771  1.00  0.00     0.293 HD
ENDBRANCH   7  27
TORSDOF 7
ENDMDL
MODEL 6
REMARK VINA RESULT:    -7.065      3.409      8.345
REMARK INTER + INTRA:          -9.024
REMARK INTER:                  -9.351
REMARK INTRA:                   0.327
REMARK UNBOUND:                -0.306
REMARK SMILES Oc1cc(O)c2cc(O)c(-c3cc(O)c(O)c(O)c3)[o+]c2c1.[Cl-]
REMARK SMILES IDX 10 1 20 2 21 3 22 4 2 5 3 6 4 7 6 8 7 9 8 10 11 11 12 12
REMARK SMILES IDX 13 13 19 14 15 15 17 16 14 17 16 19 18 21 9 23 1 25 5 27
REMARK H PARENT 14 18 16 20 18 22 9 24 1 26 5 28
REMARK Flexibility Score: inf
ROOT
ATOM      1  C   UNL     1       9.290  -2.714   2.372  1.00  0.00     0.402 A 
ATOM      2  O   UNL     1       8.884  -1.454   2.244  1.00  0.00    -0.202 OA
ATOM      3  C   UNL     1       8.681  -0.869   1.068  1.00  0.00     0.368 A 
ATOM      4  C   UNL     1       8.257   0.462   1.036  1.00  0.00     0.162 A 
ATOM      5  C   UNL     1       8.038   1.103  -0.188  1.00  0.00     0.128 A 
ATOM      6  C   UNL     1       8.244   0.409  -1.383  1.00  0.00     0.093 A 
ATOM      7  C   UNL     1       8.669  -0.925  -1.377  1.00  0.00     0.136 A 
ATOM      8  C   UNL     1       8.890  -1.580  -0.138  1.00  0.00     0.125 A 
ATOM      9  C   UNL     1       9.304  -2.919  -0.036  1.00  0.00     0.078 A 
ATOM     10  C   UNL     1       9.496  -3.499   1.222  1.00  0.00     0.223 A 
ENDROOT
BRANCH   1  11
ATOM     11  C   UNL     1       9.492  -3.250   3.737  1.00  0.00     0.091 A 
ATOM     12  C   UNL     1       9.723  -2.398   4.831  1.00  0.00     0.068 A 
ATOM     13  C   UNL     1       9.888  -2.923   6.121  1.00  0.00     0.162 A 
ATOM     14  C   UNL     1       9.394  -4.633   3.958  1.00  0.00     0.068 A 
ATOM     15  C   UNL     1       9.812  -4.311   6.327  1.00  0.00     0.200 A 
ATOM     16  C   UNL     1       9.562  -5.164   5.244  1.00  0.00     0.162 A 
BRANCH  13  17
ATOM     17  O   UNL     1      10.124  -2.071   7.198  1.00  0.00    -0.504 OA
ATOM     18  H   UNL     1      10.766  -2.318   7.942  1.00  0.00     0.293 HD
ENDBRANCH  13  17
BRANCH  15  19
ATOM     19  O   UNL     1       9.979  -4.858   7.599  1.00  0.00    -0.502 OA
ATOM     20  H   UNL     1       9.291  -4.733   8.334  1.00  0.00     0.293 HD
ENDBRANCH  15  19
BRANCH  16  21
ATOM     21  O   UNL     1       9.478  -6.539   5.455  1.00  0.00    -0.504 OA
ATOM     22  H   UNL     1       9.413  -6.930   6.387  1.00  0.00     0.293 HD
ENDBRANCH  16  21
ENDBRANCH   1  11
BRANCH  10  23
ATOM     23  O   UNL     1       9.858  -4.842   1.325  1.00  0.00    -0.500 OA
ATOM     24  H   UNL     1      10.327  -5.327   0.569  1.00  0.00     0.294 HD
ENDBRANCH  10  23
BRANCH   5  25
ATOM     25  O   UNL     1       7.615   2.429  -0.228  1.00  0.00    -0.507 OA
ATOM     26  H   UNL     1       6.636   2.671  -0.333  1.00  0.00     0.293 HD
ENDBRANCH   5  25
BRANCH   7  27
ATOM     27  O   UNL     1       8.856  -1.546  -2.615  1.00  0.00    -0.507 OA
ATOM     28  H   UNL     1       9.390  -2.392  -2.754  1.00  0.00     0.293 HD
ENDBRANCH   7  27
TORSDOF 7
ENDMDL
MODEL 7
REMARK VINA RESULT:    -6.967      1.742      7.262
REMARK INTER + INTRA:          -8.902
REMARK INTER:                  -8.877
REMARK INTRA:                  -0.025
REMARK UNBOUND:                -0.306
REMARK SMILES Oc1cc(O)c2cc(O)c(-c3cc(O)c(O)c(O)c3)[o+]c2c1.[Cl-]
REMARK SMILES IDX 10 1 20 2 21 3 22 4 2 5 3 6 4 7 6 8 7 9 8 10 11 11 12 12
REMARK SMILES IDX 13 13 19 14 15 15 17 16 14 17 16 19 18 21 9 23 1 25 5 27
REMARK H PARENT 14 18 16 20 18 22 9 24 1 26 5 28
REMARK Flexibility Score: inf
ROOT
ATOM      1  C   UNL     1       8.040  -2.163  -1.208  1.00  0.00     0.402 A 
ATOM      2  O   UNL     1       8.872  -2.575  -2.161  1.00  0.00    -0.202 OA
ATOM      3  C   UNL     1       8.543  -2.619  -3.447  1.00  0.00     0.368 A 
ATOM      4  C   UNL     1       9.485  -3.070  -4.375  1.00  0.00     0.162 A 
ATOM      5  C   UNL     1       9.164  -3.130  -5.735  1.00  0.00     0.128 A 
ATOM      6  C   UNL     1       7.895  -2.738  -6.167  1.00  0.00     0.093 A 
ATOM      7  C   UNL     1       6.933  -2.283  -5.257  1.00  0.00     0.136 A 
ATOM      8  C   UNL     1       7.255  -2.218  -3.877  1.00  0.00     0.125 A 
ATOM      9  C   UNL     1       6.359  -1.762  -2.896  1.00  0.00     0.078 A 
ATOM     10  C   UNL     1       6.750  -1.722  -1.554  1.00  0.00     0.223 A 
ENDROOT
BRANCH   1  11
ATOM     11  C   UNL     1       8.521  -2.169   0.193  1.00  0.00     0.091 A 
ATOM     12  C   UNL     1       8.364  -1.048   1.026  1.00  0.00     0.068 A 
ATOM     13  C   UNL     1       8.805  -1.082   2.356  1.00  0.00     0.162 A 
ATOM     14  C   UNL     1       9.096  -3.337   0.720  1.00  0.00     0.068 A 
ATOM     15  C   UNL     1       9.400  -2.248   2.867  1.00  0.00     0.200 A 
ATOM     16  C   UNL     1       9.541  -3.375   2.048  1.00  0.00     0.162 A 
BRANCH  13  17
ATOM     17  O   UNL     1       8.650   0.037   3.173  1.00  0.00    -0.504 OA
ATOM     18  H   UNL     1       9.448   0.558   3.518  1.00  0.00     0.293 HD
ENDBRANCH  13  17
BRANCH  15  19
ATOM     19  O   UNL     1       9.852  -2.304   4.186  1.00  0.00    -0.502 OA
ATOM     20  H   UNL     1       9.257  -2.063   4.971  1.00  0.00     0.293 HD
ENDBRANCH  15  19
BRANCH  16  21
ATOM     21  O   UNL     1      10.125  -4.532   2.562  1.00  0.00    -0.504 OA
ATOM     22  H   UNL     1      11.047  -4.835   2.272  1.00  0.00     0.293 HD
ENDBRANCH  16  21
ENDBRANCH   1  11
BRANCH  10  23
ATOM     23  O   UNL     1       5.878  -1.223  -0.586  1.00  0.00    -0.500 OA
ATOM     24  H   UNL     1       6.209  -0.918   0.322  1.00  0.00     0.294 HD
ENDBRANCH  10  23
BRANCH   5  25
ATOM     25  O   UNL     1      10.099  -3.578  -6.665  1.00  0.00    -0.507 OA
ATOM     26  H   UNL     1      10.857  -2.984  -6.983  1.00  0.00     0.293 HD
ENDBRANCH   5  25
BRANCH   7  27
ATOM     27  O   UNL     1       5.687  -1.912  -5.771  1.00  0.00    -0.507 OA
ATOM     28  H   UNL     1       4.862  -1.757  -5.209  1.00  0.00     0.293 HD
ENDBRANCH   7  27
TORSDOF 7
ENDMDL
MODEL 8
REMARK VINA RESULT:    -6.869      1.918      7.215
REMARK INTER + INTRA:          -8.781
REMARK INTER:                  -8.407
REMARK INTRA:                  -0.374
REMARK UNBOUND:                -0.306
REMARK SMILES Oc1cc(O)c2cc(O)c(-c3cc(O)c(O)c(O)c3)[o+]c2c1.[Cl-]
REMARK SMILES IDX 10 1 20 2 21 3 22 4 2 5 3 6 4 7 6 8 7 9 8 10 11 11 12 12
REMARK SMILES IDX 13 13 19 14 15 15 17 16 14 17 16 19 18 21 9 23 1 25 5 27
REMARK H PARENT 14 18 16 20 18 22 9 24 1 26 5 28
REMARK Flexibility Score: inf
ROOT
ATOM      1  C   UNL     1       6.683  -2.095  -3.467  1.00  0.00     0.402 A 
ATOM      2  O   UNL     1       7.681  -2.727  -4.078  1.00  0.00    -0.202 OA
ATOM      3  C   UNL     1       7.512  -3.489  -5.154  1.00  0.00     0.368 A 
ATOM      4  C   UNL     1       8.623  -4.115  -5.724  1.00  0.00     0.162 A 
ATOM      5  C   UNL     1       8.474  -4.925  -6.855  1.00  0.00     0.128 A 
ATOM      6  C   UNL     1       7.208  -5.108  -7.416  1.00  0.00     0.093 A 
ATOM      7  C   UNL     1       6.079  -4.492  -6.862  1.00  0.00     0.136 A 
ATOM      8  C   UNL     1       6.226  -3.668  -5.717  1.00  0.00     0.125 A 
ATOM      9  C   UNL     1       5.152  -3.000  -5.103  1.00  0.00     0.078 A 
ATOM     10  C   UNL     1       5.376  -2.200  -3.979  1.00  0.00     0.223 A 
ENDROOT
BRANCH   1  11
ATOM     11  C   UNL     1       6.996  -1.283  -2.269  1.00  0.00     0.091 A 
ATOM     12  C   UNL     1       6.794  -1.784  -0.971  1.00  0.00     0.068 A 
ATOM     13  C   UNL     1       7.119  -1.008   0.150  1.00  0.00     0.162 A 
ATOM     14  C   UNL     1       7.562  -0.008  -2.429  1.00  0.00     0.068 A 
ATOM     15  C   UNL     1       7.662   0.276  -0.020  1.00  0.00     0.200 A 
ATOM     16  C   UNL     1       7.886   0.773  -1.311  1.00  0.00     0.162 A 
BRANCH  13  17
ATOM     17  O   UNL     1       6.908  -1.511   1.433  1.00  0.00    -0.504 OA
ATOM     18  H   UNL     1       6.027  -1.936   1.700  1.00  0.00     0.293 HD
ENDBRANCH  13  17
BRANCH  15  19
ATOM     19  O   UNL     1       7.989   1.069   1.080  1.00  0.00    -0.502 OA
ATOM     20  H   UNL     1       8.949   1.212   1.376  1.00  0.00     0.293 HD
ENDBRANCH  15  19
BRANCH  16  21
ATOM     21  O   UNL     1       8.434   2.044  -1.475  1.00  0.00    -0.504 OA
ATOM     22  H   UNL     1       8.997   2.476  -0.752  1.00  0.00     0.293 HD
ENDBRANCH  16  21
ENDBRANCH   1  11
BRANCH  10  23
ATOM     23  O   UNL     1       4.320  -1.497  -3.399  1.00  0.00    -0.500 OA
ATOM     24  H   UNL     1       4.465  -0.615  -2.923  1.00  0.00     0.294 HD
ENDBRANCH  10  23
BRANCH   5  25
ATOM     25  O   UNL     1       9.577  -5.551  -7.429  1.00  0.00    -0.507 OA
ATOM     26  H   UNL     1       9.476  -6.195  -8.205  1.00  0.00     0.293 HD
ENDBRANCH   5  25
BRANCH   7  27
ATOM     27  O   UNL     1       4.848  -4.729  -7.481  1.00  0.00    -0.507 OA
ATOM     28  H   UNL     1       4.626  -4.462  -8.429  1.00  0.00     0.293 HD
ENDBRANCH   7  27
TORSDOF 7
ENDMDL
