MODEL 1
REMARK VINA RESULT:    -5.022      0.000      0.000
REMARK INTER + INTRA:          -6.466
REMARK INTER:                  -6.050
REMARK INTRA:                  -0.417
REMARK UNBOUND:                -0.417
REMARK SMILES O=c1c(O)c(-c2ccc(O)cc2O)oc2cc(O)cc(O)c12
REMARK SMILES IDX 5 1 3 2 2 3 1 4 22 5 20 6 19 7 17 8 16 9 15 10 14 11 6 12
REMARK SMILES IDX 8 13 7 14 9 15 11 16 12 17 10 18 13 20 4 22 21 24 18 26
REMARK H PARENT 10 19 13 21 4 23 21 25 18 27
REMARK Flexibility Score: inf
ROOT
ATOM      1  C   UNL     1      89.630  87.219  93.421  1.00  0.00     0.184 A 
ATOM      2  C   UNL     1      89.490  86.008  92.720  1.00  0.00     0.208 A 
ATOM      3  C   UNL     1      88.621  85.958  91.621  1.00  0.00     0.238 A 
ATOM      4  O   UNL     1      88.478  84.875  90.991  1.00  0.00    -0.285 OA
ATOM      5  C   UNL     1      87.924  87.121  91.231  1.00  0.00     0.111 A 
ATOM      6  C   UNL     1      87.030  87.157  90.133  1.00  0.00     0.134 A 
ATOM      7  C   UNL     1      86.382  88.356  89.803  1.00  0.00     0.093 A 
ATOM      8  C   UNL     1      86.608  89.516  90.547  1.00  0.00     0.123 A 
ATOM      9  C   UNL     1      87.488  89.488  91.633  1.00  0.00     0.094 A 
ATOM     10  C   UNL     1      88.144  88.302  91.979  1.00  0.00     0.146 A 
ATOM     11  O   UNL     1      88.971  88.301  93.018  1.00  0.00    -0.451 OA
ENDROOT
BRANCH   1  12
ATOM     12  C   UNL     1      90.521  87.337  94.594  1.00  0.00     0.063 A 
ATOM     13  C   UNL     1      92.716  87.877  95.490  1.00  0.00     0.047 A 
ATOM     14  C   UNL     1      91.848  87.749  94.403  1.00  0.00     0.020 A 
ATOM     15  C   UNL     1      92.261  87.608  96.787  1.00  0.00     0.119 A 
ATOM     16  C   UNL     1      90.934  87.219  96.991  1.00  0.00     0.093 A 
ATOM     17  C   UNL     1      90.055  87.094  95.904  1.00  0.00     0.130 A 
BRANCH  15  18
ATOM     18  O   UNL     1      93.119  87.728  97.879  1.00  0.00    -0.508 OA
ATOM     19  H   UNL     1      93.791  88.483  97.944  1.00  0.00     0.293 HD
ENDBRANCH  15  18
BRANCH  17  20
ATOM     20  O   UNL     1      88.720  86.754  96.127  1.00  0.00    -0.507 OA
ATOM     21  H   UNL     1      88.455  85.837  96.465  1.00  0.00     0.293 HD
ENDBRANCH  17  20
ENDBRANCH   1  12
BRANCH   2  22
ATOM     22  O   UNL     1      90.229  84.886  93.104  1.00  0.00    -0.502 OA
ATOM     23  H   UNL     1      89.929  84.268  93.849  1.00  0.00     0.293 HD
ENDBRANCH   2  22
BRANCH   6  24
ATOM     24  O   UNL     1      86.784  86.015  89.370  1.00  0.00    -0.507 OA
ATOM     25  H   UNL     1      86.790  86.039  88.356  1.00  0.00     0.293 HD
ENDBRANCH   6  24
BRANCH   8  26
ATOM     26  O   UNL     1      85.951  90.695  90.197  1.00  0.00    -0.508 OA
ATOM     27  H   UNL     1      86.459  91.559  90.049  1.00  0.00     0.293 HD
ENDBRANCH   8  26
TORSDOF 6
ENDMDL
MODEL 2
REMARK VINA RESULT:    -4.850      3.212      5.202
REMARK INTER + INTRA:          -6.258
REMARK INTER:                  -6.179
REMARK INTRA:                  -0.080
REMARK UNBOUND:                -0.417
REMARK SMILES O=c1c(O)c(-c2ccc(O)cc2O)oc2cc(O)cc(O)c12
REMARK SMILES IDX 5 1 3 2 2 3 1 4 22 5 20 6 19 7 17 8 16 9 15 10 14 11 6 12
REMARK SMILES IDX 8 13 7 14 9 15 11 16 12 17 10 18 13 20 4 22 21 24 18 26
REMARK H PARENT 10 19 13 21 4 23 21 25 18 27
REMARK Flexibility Score: inf
ROOT
ATOM      1  C   UNL     1      87.864  89.517  94.392  1.00  0.00     0.184 A 
ATOM      2  C   UNL     1      88.641  88.695  95.226  1.00  0.00     0.208 A 
ATOM      3  C   UNL     1      89.050  87.441  94.751  1.00  0.00     0.238 A 
ATOM      4  O   UNL     1      89.738  86.689  95.493  1.00  0.00    -0.285 OA
ATOM      5  C   UNL     1      88.692  87.040  93.446  1.00  0.00     0.111 A 
ATOM      6  C   UNL     1      89.067  85.793  92.888  1.00  0.00     0.134 A 
ATOM      7  C   UNL     1      88.680  85.472  91.579  1.00  0.00     0.093 A 
ATOM      8  C   UNL     1      87.928  86.371  90.818  1.00  0.00     0.123 A 
ATOM      9  C   UNL     1      87.554  87.603  91.362  1.00  0.00     0.094 A 
ATOM     10  C   UNL     1      87.929  87.942  92.667  1.00  0.00     0.146 A 
ATOM     11  O   UNL     1      87.557  89.116  93.161  1.00  0.00    -0.451 OA
ENDROOT
BRANCH   1  12
ATOM     12  C   UNL     1      87.391  90.845  94.834  1.00  0.00     0.063 A 
ATOM     13  C   UNL     1      87.871  92.963  95.928  1.00  0.00     0.047 A 
ATOM     14  C   UNL     1      88.283  91.699  95.501  1.00  0.00     0.020 A 
ATOM     15  C   UNL     1      86.562  93.396  95.682  1.00  0.00     0.119 A 
ATOM     16  C   UNL     1      85.673  92.563  94.997  1.00  0.00     0.093 A 
ATOM     17  C   UNL     1      86.082  91.294  94.560  1.00  0.00     0.130 A 
BRANCH  15  18
ATOM     18  O   UNL     1      86.139  94.654  96.107  1.00  0.00    -0.508 OA
ATOM     19  H   UNL     1      86.646  95.495  95.860  1.00  0.00     0.293 HD
ENDBRANCH  15  18
BRANCH  17  20
ATOM     20  O   UNL     1      85.198  90.492  93.835  1.00  0.00    -0.507 OA
ATOM     21  H   UNL     1      85.425  89.535  93.592  1.00  0.00     0.293 HD
ENDBRANCH  17  20
ENDBRANCH   1  12
BRANCH   2  22
ATOM     22  O   UNL     1      89.016  89.139  96.496  1.00  0.00    -0.502 OA
ATOM     23  H   UNL     1      88.372  89.152  97.278  1.00  0.00     0.293 HD
ENDBRANCH   2  22
BRANCH   6  24
ATOM     24  O   UNL     1      89.818  84.875  93.623  1.00  0.00    -0.507 OA
ATOM     25  H   UNL     1      90.448  85.171  94.361  1.00  0.00     0.293 HD
ENDBRANCH   6  24
BRANCH   8  26
ATOM     26  O   UNL     1      87.557  86.027  89.519  1.00  0.00    -0.508 OA
ATOM     27  H   UNL     1      86.775  86.474  89.057  1.00  0.00     0.293 HD
ENDBRANCH   8  26
TORSDOF 6
ENDMDL
MODEL 3
REMARK VINA RESULT:    -4.754      1.925      6.554
REMARK INTER + INTRA:          -6.143
REMARK INTER:                  -5.872
REMARK INTRA:                  -0.271
REMARK UNBOUND:                -0.417
REMARK SMILES O=c1c(O)c(-c2ccc(O)cc2O)oc2cc(O)cc(O)c12
REMARK SMILES IDX 5 1 3 2 2 3 1 4 22 5 20 6 19 7 17 8 16 9 15 10 14 11 6 12
REMARK SMILES IDX 8 13 7 14 9 15 11 16 12 17 10 18 13 20 4 22 21 24 18 26
REMARK H PARENT 10 19 13 21 4 23 21 25 18 27
REMARK Flexibility Score: inf
ROOT
ATOM      1  C   UNL     1      87.447  89.253  92.048  1.00  0.00     0.184 A 
ATOM      2  C   UNL     1      87.689  87.996  91.468  1.00  0.00     0.208 A 
ATOM      3  C   UNL     1      88.350  87.016  92.224  1.00  0.00     0.238 A 
ATOM      4  O   UNL     1      88.582  85.888  91.712  1.00  0.00    -0.285 OA
ATOM      5  C   UNL     1      88.740  87.306  93.549  1.00  0.00     0.111 A 
ATOM      6  C   UNL     1      89.408  86.374  94.381  1.00  0.00     0.134 A 
ATOM      7  C   UNL     1      89.754  86.734  95.691  1.00  0.00     0.093 A 
ATOM      8  C   UNL     1      89.446  88.003  96.185  1.00  0.00     0.123 A 
ATOM      9  C   UNL     1      88.787  88.928  95.370  1.00  0.00     0.094 A 
ATOM     10  C   UNL     1      88.435  88.589  94.059  1.00  0.00     0.146 A 
ATOM     11  O   UNL     1      87.813  89.488  93.305  1.00  0.00    -0.451 OA
ENDROOT
BRANCH   1  12
ATOM     12  C   UNL     1      86.766  90.332  91.303  1.00  0.00     0.063 A 
ATOM     13  C   UNL     1      86.653  91.738  89.322  1.00  0.00     0.047 A 
ATOM     14  C   UNL     1      87.275  90.726  90.056  1.00  0.00     0.020 A 
ATOM     15  C   UNL     1      85.502  92.362  89.822  1.00  0.00     0.119 A 
ATOM     16  C   UNL     1      84.973  91.961  91.052  1.00  0.00     0.093 A 
ATOM     17  C   UNL     1      85.590  90.940  91.791  1.00  0.00     0.130 A 
BRANCH  15  18
ATOM     18  O   UNL     1      84.875  93.376  89.100  1.00  0.00    -0.508 OA
ATOM     19  H   UNL     1      84.178  93.975  89.526  1.00  0.00     0.293 HD
ENDBRANCH  15  18
BRANCH  17  20
ATOM     20  O   UNL     1      85.024  90.516  92.994  1.00  0.00    -0.507 OA
ATOM     21  H   UNL     1      85.587  90.357  93.821  1.00  0.00     0.293 HD
ENDBRANCH  17  20
ENDBRANCH   1  12
BRANCH   2  22
ATOM     22  O   UNL     1      87.251  87.726  90.169  1.00  0.00    -0.502 OA
ATOM     23  H   UNL     1      87.893  87.563  89.403  1.00  0.00     0.293 HD
ENDBRANCH   2  22
BRANCH   6  24
ATOM     24  O   UNL     1      89.728  85.098  93.915  1.00  0.00    -0.507 OA
ATOM     25  H   UNL     1      90.220  84.958  93.040  1.00  0.00     0.293 HD
ENDBRANCH   6  24
BRANCH   8  26
ATOM     26  O   UNL     1      89.800  88.335  97.492  1.00  0.00    -0.508 OA
ATOM     27  H   UNL     1      89.163  88.189  98.266  1.00  0.00     0.293 HD
ENDBRANCH   8  26
TORSDOF 6
ENDMDL
MODEL 4
REMARK VINA RESULT:    -4.735      2.529      5.566
REMARK INTER + INTRA:          -6.120
REMARK INTER:                  -5.718
REMARK INTRA:                  -0.402
REMARK UNBOUND:                -0.417
REMARK SMILES O=c1c(O)c(-c2ccc(O)cc2O)oc2cc(O)cc(O)c12
REMARK SMILES IDX 5 1 3 2 2 3 1 4 22 5 20 6 19 7 17 8 16 9 15 10 14 11 6 12
REMARK SMILES IDX 8 13 7 14 9 15 11 16 12 17 10 18 13 20 4 22 21 24 18 26
REMARK H PARENT 10 19 13 21 4 23 21 25 18 27
REMARK Flexibility Score: inf
ROOT
ATOM      1  C   UNL     1      87.595  89.565  91.953  1.00  0.00     0.184 A 
ATOM      2  C   UNL     1      86.824  88.999  90.923  1.00  0.00     0.208 A 
ATOM      3  C   UNL     1      87.128  87.703  90.482  1.00  0.00     0.238 A 
ATOM      4  O   UNL     1      86.451  87.188  89.551  1.00  0.00    -0.285 OA
ATOM      5  C   UNL     1      88.182  86.990  91.092  1.00  0.00     0.111 A 
ATOM      6  C   UNL     1      88.551  85.677  90.710  1.00  0.00     0.134 A 
ATOM      7  C   UNL     1      89.606  85.031  91.372  1.00  0.00     0.093 A 
ATOM      8  C   UNL     1      90.296  85.669  92.405  1.00  0.00     0.123 A 
ATOM      9  C   UNL     1      89.937  86.965  92.786  1.00  0.00     0.094 A 
ATOM     10  C   UNL     1      88.889  87.628  92.138  1.00  0.00     0.146 A 
ATOM     11  O   UNL     1      88.571  88.860  92.517  1.00  0.00    -0.451 OA
ENDROOT
BRANCH   1  12
ATOM     12  C   UNL     1      87.335  90.930  92.457  1.00  0.00     0.063 A 
ATOM     13  C   UNL     1      87.364  93.329  92.063  1.00  0.00     0.047 A 
ATOM     14  C   UNL     1      87.603  92.026  91.622  1.00  0.00     0.020 A 
ATOM     15  C   UNL     1      86.839  93.553  93.342  1.00  0.00     0.119 A 
ATOM     16  C   UNL     1      86.545  92.467  94.172  1.00  0.00     0.093 A 
ATOM     17  C   UNL     1      86.778  91.154  93.733  1.00  0.00     0.130 A 
BRANCH  15  18
ATOM     18  O   UNL     1      86.600  94.849  93.794  1.00  0.00    -0.508 OA
ATOM     19  H   UNL     1      86.207  95.558  93.187  1.00  0.00     0.293 HD
ENDBRANCH  15  18
BRANCH  17  20
ATOM     20  O   UNL     1      86.434  90.078  94.552  1.00  0.00    -0.507 OA
ATOM     21  H   UNL     1      86.978  89.224  94.565  1.00  0.00     0.293 HD
ENDBRANCH  17  20
ENDBRANCH   1  12
BRANCH   2  22
ATOM     22  O   UNL     1      85.758  89.714  90.371  1.00  0.00    -0.502 OA
ATOM     23  H   UNL     1      85.670  89.873  89.374  1.00  0.00     0.293 HD
ENDBRANCH   2  22
BRANCH   6  24
ATOM     24  O   UNL     1      87.880  85.013  89.682  1.00  0.00    -0.507 OA
ATOM     25  H   UNL     1      87.198  84.287  89.872  1.00  0.00     0.293 HD
ENDBRANCH   6  24
BRANCH   8  26
ATOM     26  O   UNL     1      91.339  85.004  93.046  1.00  0.00    -0.508 OA
ATOM     27  H   UNL     1      92.109  85.510  93.468  1.00  0.00     0.293 HD
ENDBRANCH   8  26
TORSDOF 6
ENDMDL
MODEL 5
REMARK VINA RESULT:    -4.733      1.635      6.864
REMARK INTER + INTRA:          -6.118
REMARK INTER:                  -5.694
REMARK INTRA:                  -0.424
REMARK UNBOUND:                -0.417
REMARK SMILES O=c1c(O)c(-c2ccc(O)cc2O)oc2cc(O)cc(O)c12
REMARK SMILES IDX 5 1 3 2 2 3 1 4 22 5 20 6 19 7 17 8 16 9 15 10 14 11 6 12
REMARK SMILES IDX 8 13 7 14 9 15 11 16 12 17 10 18 13 20 4 22 21 24 18 26
REMARK H PARENT 10 19 13 21 4 23 21 25 18 27
REMARK Flexibility Score: inf
ROOT
ATOM      1  C   UNL     1      90.384  86.863  93.531  1.00  0.00     0.184 A 
ATOM      2  C   UNL     1      91.747  87.114  93.293  1.00  0.00     0.208 A 
ATOM      3  C   UNL     1      92.596  87.336  94.387  1.00  0.00     0.238 A 
ATOM      4  O   UNL     1      93.818  87.573  94.187  1.00  0.00    -0.285 OA
ATOM      5  C   UNL     1      92.072  87.284  95.697  1.00  0.00     0.111 A 
ATOM      6  C   UNL     1      92.860  87.492  96.855  1.00  0.00     0.134 A 
ATOM      7  C   UNL     1      92.266  87.414  98.123  1.00  0.00     0.093 A 
ATOM      8  C   UNL     1      90.905  87.132  98.256  1.00  0.00     0.123 A 
ATOM      9  C   UNL     1      90.121  86.925  97.117  1.00  0.00     0.094 A 
ATOM     10  C   UNL     1      90.694  87.000  95.843  1.00  0.00     0.146 A 
ATOM     11  O   UNL     1      89.926  86.804  94.778  1.00  0.00    -0.451 OA
ENDROOT
BRANCH   1  12
ATOM     12  C   UNL     1      89.434  86.632  92.423  1.00  0.00     0.063 A 
ATOM     13  C   UNL     1      88.522  85.122  90.749  1.00  0.00     0.047 A 
ATOM     14  C   UNL     1      89.411  85.376  91.796  1.00  0.00     0.020 A 
ATOM     15  C   UNL     1      87.632  86.117  90.325  1.00  0.00     0.119 A 
ATOM     16  C   UNL     1      87.630  87.362  90.960  1.00  0.00     0.093 A 
ATOM     17  C   UNL     1      88.517  87.623  92.016  1.00  0.00     0.130 A 
BRANCH  15  18
ATOM     18  O   UNL     1      86.743  85.875  89.280  1.00  0.00    -0.508 OA
ATOM     19  H   UNL     1      86.789  86.398  88.414  1.00  0.00     0.293 HD
ENDBRANCH  15  18
BRANCH  17  20
ATOM     20  O   UNL     1      88.471  88.854  92.672  1.00  0.00    -0.507 OA
ATOM     21  H   UNL     1      88.614  88.930  93.672  1.00  0.00     0.293 HD
ENDBRANCH  17  20
ENDBRANCH   1  12
BRANCH   2  22
ATOM     22  O   UNL     1      92.243  87.115  91.987  1.00  0.00    -0.502 OA
ATOM     23  H   UNL     1      91.688  86.811  91.196  1.00  0.00     0.293 HD
ENDBRANCH   2  22
BRANCH   6  24
ATOM     24  O   UNL     1      94.223  87.776  96.754  1.00  0.00    -0.507 OA
ATOM     25  H   UNL     1      94.784  87.993  97.571  1.00  0.00     0.293 HD
ENDBRANCH   6  24
BRANCH   8  26
ATOM     26  O   UNL     1      90.341  87.059  99.529  1.00  0.00    -0.508 OA
ATOM     27  H   UNL     1      89.392  87.368  99.705  1.00  0.00     0.293 HD
ENDBRANCH   8  26
TORSDOF 6
ENDMDL
MODEL 6
REMARK VINA RESULT:    -4.631      3.215      4.234
REMARK INTER + INTRA:          -5.995
REMARK INTER:                  -5.579
REMARK INTRA:                  -0.416
REMARK UNBOUND:                -0.417
REMARK SMILES O=c1c(O)c(-c2ccc(O)cc2O)oc2cc(O)cc(O)c12
REMARK SMILES IDX 5 1 3 2 2 3 1 4 22 5 20 6 19 7 17 8 16 9 15 10 14 11 6 12
REMARK SMILES IDX 8 13 7 14 9 15 11 16 12 17 10 18 13 20 4 22 21 24 18 26
REMARK H PARENT 10 19 13 21 4 23 21 25 18 27
REMARK Flexibility Score: inf
ROOT
ATOM      1  C   UNL     1      90.304  88.086  96.306  1.00  0.00     0.184 A 
ATOM      2  C   UNL     1      89.384  87.430  95.469  1.00  0.00     0.208 A 
ATOM      3  C   UNL     1      88.305  88.158  94.946  1.00  0.00     0.238 A 
ATOM      4  O   UNL     1      87.468  87.578  94.203  1.00  0.00    -0.285 OA
ATOM      5  C   UNL     1      88.177  89.529  95.252  1.00  0.00     0.111 A 
ATOM      6  C   UNL     1      87.121  90.336  94.763  1.00  0.00     0.134 A 
ATOM      7  C   UNL     1      87.068  91.695  95.105  1.00  0.00     0.093 A 
ATOM      8  C   UNL     1      88.048  92.262  95.924  1.00  0.00     0.123 A 
ATOM      9  C   UNL     1      89.092  91.471  96.411  1.00  0.00     0.094 A 
ATOM     10  C   UNL     1      89.162  90.113  96.083  1.00  0.00     0.146 A 
ATOM     11  O   UNL     1      90.163  89.383  96.562  1.00  0.00    -0.451 OA
ENDROOT
BRANCH   1  12
ATOM     12  C   UNL     1      91.456  87.376  96.899  1.00  0.00     0.063 A 
ATOM     13  C   UNL     1      93.792  86.717  96.749  1.00  0.00     0.047 A 
ATOM     14  C   UNL     1      92.681  87.374  96.215  1.00  0.00     0.020 A 
ATOM     15  C   UNL     1      93.696  86.065  97.985  1.00  0.00     0.119 A 
ATOM     16  C   UNL     1      92.486  86.082  98.686  1.00  0.00     0.093 A 
ATOM     17  C   UNL     1      91.368  86.745  98.158  1.00  0.00     0.130 A 
BRANCH  15  18
ATOM     18  O   UNL     1      94.796  85.404  98.526  1.00  0.00    -0.508 OA
ATOM     19  H   UNL     1      94.817  85.119  99.497  1.00  0.00     0.293 HD
ENDBRANCH  15  18
BRANCH  17  20
ATOM     20  O   UNL     1      90.181  86.795  98.891  1.00  0.00    -0.507 OA
ATOM     21  H   UNL     1      89.286  86.949  98.444  1.00  0.00     0.293 HD
ENDBRANCH  17  20
ENDBRANCH   1  12
BRANCH   2  22
ATOM     22  O   UNL     1      89.565  86.082  95.149  1.00  0.00    -0.502 OA
ATOM     23  H   UNL     1      89.681  85.368  95.858  1.00  0.00     0.293 HD
ENDBRANCH   2  22
BRANCH   6  24
ATOM     24  O   UNL     1      86.128  89.799  93.942  1.00  0.00    -0.507 OA
ATOM     25  H   UNL     1      85.376  90.370  93.573  1.00  0.00     0.293 HD
ENDBRANCH   6  24
BRANCH   8  26
ATOM     26  O   UNL     1      87.972  93.616  96.249  1.00  0.00    -0.508 OA
ATOM     27  H   UNL     1      87.879  93.925  97.209  1.00  0.00     0.293 HD
ENDBRANCH   8  26
TORSDOF 6
ENDMDL
MODEL 7
REMARK VINA RESULT:    -4.550      3.419      8.243
REMARK INTER + INTRA:          -5.897
REMARK INTER:                  -5.513
REMARK INTRA:                  -0.384
REMARK UNBOUND:                -0.417
REMARK SMILES O=c1c(O)c(-c2ccc(O)cc2O)oc2cc(O)cc(O)c12
REMARK SMILES IDX 5 1 3 2 2 3 1 4 22 5 20 6 19 7 17 8 16 9 15 10 14 11 6 12
REMARK SMILES IDX 8 13 7 14 9 15 11 16 12 17 10 18 13 20 4 22 21 24 18 26
REMARK H PARENT 10 19 13 21 4 23 21 25 18 27
REMARK Flexibility Score: inf
ROOT
ATOM      1  C   UNL     1      91.219  87.557  97.289  1.00  0.00     0.184 A 
ATOM      2  C   UNL     1      91.195  87.517  98.694  1.00  0.00     0.208 A 
ATOM      3  C   UNL     1      92.297  86.983  99.376  1.00  0.00     0.238 A 
ATOM      4  O   UNL     1      92.283  86.931 100.636  1.00  0.00    -0.285 OA
ATOM      5  C   UNL     1      93.410  86.517  98.644  1.00  0.00     0.111 A 
ATOM      6  C   UNL     1      94.564  85.967  99.254  1.00  0.00     0.134 A 
ATOM      7  C   UNL     1      95.633  85.535  98.457  1.00  0.00     0.093 A 
ATOM      8  C   UNL     1      95.573  85.641  97.066  1.00  0.00     0.123 A 
ATOM      9  C   UNL     1      94.438  86.183  96.456  1.00  0.00     0.094 A 
ATOM     10  C   UNL     1      93.359  86.618  97.234  1.00  0.00     0.146 A 
ATOM     11  O   UNL     1      92.290  87.125  96.630  1.00  0.00    -0.451 OA
ENDROOT
BRANCH   1  12
ATOM     12  C   UNL     1      90.087  88.097  96.508  1.00  0.00     0.063 A 
ATOM     13  C   UNL     1      88.732  90.011  95.865  1.00  0.00     0.047 A 
ATOM     14  C   UNL     1      89.792  89.466  96.593  1.00  0.00     0.020 A 
ATOM     15  C   UNL     1      87.960  89.193  95.029  1.00  0.00     0.119 A 
ATOM     16  C   UNL     1      88.261  87.833  94.919  1.00  0.00     0.093 A 
ATOM     17  C   UNL     1      89.328  87.280  95.644  1.00  0.00     0.130 A 
BRANCH  15  18
ATOM     18  O   UNL     1      86.898  89.725  94.301  1.00  0.00    -0.508 OA
ATOM     19  H   UNL     1      86.843  90.714  94.090  1.00  0.00     0.293 HD
ENDBRANCH  15  18
BRANCH  17  20
ATOM     20  O   UNL     1      89.648  85.931  95.486  1.00  0.00    -0.507 OA
ATOM     21  H   UNL     1      90.453  85.518  95.942  1.00  0.00     0.293 HD
ENDBRANCH  17  20
ENDBRANCH   1  12
BRANCH   2  22
ATOM     22  O   UNL     1      90.097  88.027  99.391  1.00  0.00    -0.502 OA
ATOM     23  H   UNL     1      89.479  87.437  99.936  1.00  0.00     0.293 HD
ENDBRANCH   2  22
BRANCH   6  24
ATOM     24  O   UNL     1      94.654  85.848 100.642  1.00  0.00    -0.507 OA
ATOM     25  H   UNL     1      93.830  85.873 101.233  1.00  0.00     0.293 HD
ENDBRANCH   6  24
BRANCH   8  26
ATOM     26  O   UNL     1      96.651  85.205  96.297  1.00  0.00    -0.508 OA
ATOM     27  H   UNL     1      96.940  84.234  96.296  1.00  0.00     0.293 HD
ENDBRANCH   8  26
TORSDOF 6
ENDMDL
MODEL 8
REMARK VINA RESULT:    -4.497      3.568      5.839
REMARK INTER + INTRA:          -5.834
REMARK INTER:                  -5.436
REMARK INTRA:                  -0.398
REMARK UNBOUND:                -0.417
REMARK SMILES O=c1c(O)c(-c2ccc(O)cc2O)oc2cc(O)cc(O)c12
REMARK SMILES IDX 5 1 3 2 2 3 1 4 22 5 20 6 19 7 17 8 16 9 15 10 14 11 6 12
REMARK SMILES IDX 8 13 7 14 9 15 11 16 12 17 10 18 13 20 4 22 21 24 18 26
REMARK H PARENT 10 19 13 21 4 23 21 25 18 27
REMARK Flexibility Score: inf
ROOT
ATOM      1  C   UNL     1      87.143  90.522  93.719  1.00  0.00     0.184 A 
ATOM      2  C   UNL     1      86.817  90.506  92.352  1.00  0.00     0.208 A 
ATOM      3  C   UNL     1      87.120  89.365  91.595  1.00  0.00     0.238 A 
ATOM      4  O   UNL     1      86.842  89.343  90.366  1.00  0.00    -0.285 OA
ATOM      5  C   UNL     1      87.724  88.255  92.223  1.00  0.00     0.111 A 
ATOM      6  C   UNL     1      88.059  87.064  91.533  1.00  0.00     0.134 A 
ATOM      7  C   UNL     1      88.649  86.000  92.230  1.00  0.00     0.093 A 
ATOM      8  C   UNL     1      88.910  86.102  93.598  1.00  0.00     0.123 A 
ATOM      9  C   UNL     1      88.583  87.275  94.285  1.00  0.00     0.094 A 
ATOM     10  C   UNL     1      87.995  88.349  93.608  1.00  0.00     0.146 A 
ATOM     11  O   UNL     1      87.697  89.452  94.283  1.00  0.00    -0.451 OA
ENDROOT
BRANCH   1  12
ATOM     12  C   UNL     1      86.861  91.696  94.571  1.00  0.00     0.063 A 
ATOM     13  C   UNL     1      85.226  93.119  95.672  1.00  0.00     0.047 A 
ATOM     14  C   UNL     1      85.528  92.019  94.866  1.00  0.00     0.020 A 
ATOM     15  C   UNL     1      86.256  93.903  96.206  1.00  0.00     0.119 A 
ATOM     16  C   UNL     1      87.588  93.575  95.938  1.00  0.00     0.093 A 
ATOM     17  C   UNL     1      87.899  92.468  95.133  1.00  0.00     0.130 A 
BRANCH  15  18
ATOM     18  O   UNL     1      85.967  95.005  97.009  1.00  0.00    -0.508 OA
ATOM     19  H   UNL     1      86.193  95.016  97.996  1.00  0.00     0.293 HD
ENDBRANCH  15  18
BRANCH  17  20
ATOM     20  O   UNL     1      89.234  92.123  94.914  1.00  0.00    -0.507 OA
ATOM     21  H   UNL     1      89.893  92.037  95.678  1.00  0.00     0.293 HD
ENDBRANCH  17  20
ENDBRANCH   1  12
BRANCH   2  22
ATOM     22  O   UNL     1      86.178  91.605  91.771  1.00  0.00    -0.502 OA
ATOM     23  H   UNL     1      86.131  92.509  92.227  1.00  0.00     0.293 HD
ENDBRANCH   2  22
BRANCH   6  24
ATOM     24  O   UNL     1      87.810  86.931  90.166  1.00  0.00    -0.507 OA
ATOM     25  H   UNL     1      88.017  86.073  89.668  1.00  0.00     0.293 HD
ENDBRANCH   6  24
BRANCH   8  26
ATOM     26  O   UNL     1      89.497  85.029  94.267  1.00  0.00    -0.508 OA
ATOM     27  H   UNL     1      89.205  84.764  95.200  1.00  0.00     0.293 HD
ENDBRANCH   8  26
TORSDOF 6
ENDMDL
MODEL 9
REMARK VINA RESULT:    -4.494      1.593      7.017
REMARK INTER + INTRA:          -5.830
REMARK INTER:                  -5.491
REMARK INTRA:                  -0.338
REMARK UNBOUND:                -0.417
REMARK SMILES O=c1c(O)c(-c2ccc(O)cc2O)oc2cc(O)cc(O)c12
REMARK SMILES IDX 5 1 3 2 2 3 1 4 22 5 20 6 19 7 17 8 16 9 15 10 14 11 6 12
REMARK SMILES IDX 8 13 7 14 9 15 11 16 12 17 10 18 13 20 4 22 21 24 18 26
REMARK H PARENT 10 19 13 21 4 23 21 25 18 27
REMARK Flexibility Score: inf
ROOT
ATOM      1  C   UNL     1      90.262  86.783  93.839  1.00  0.00     0.184 A 
ATOM      2  C   UNL     1      89.740  86.877  95.141  1.00  0.00     0.208 A 
ATOM      3  C   UNL     1      90.622  87.086  96.211  1.00  0.00     0.238 A 
ATOM      4  O   UNL     1      90.168  87.161  97.385  1.00  0.00    -0.285 OA
ATOM      5  C   UNL     1      92.004  87.217  95.958  1.00  0.00     0.111 A 
ATOM      6  C   UNL     1      92.961  87.433  96.980  1.00  0.00     0.134 A 
ATOM      7  C   UNL     1      94.317  87.562  96.646  1.00  0.00     0.093 A 
ATOM      8  C   UNL     1      94.734  87.480  95.316  1.00  0.00     0.123 A 
ATOM      9  C   UNL     1      93.796  87.267  94.303  1.00  0.00     0.094 A 
ATOM     10  C   UNL     1      92.438  87.134  94.614  1.00  0.00     0.146 A 
ATOM     11  O   UNL     1      91.568  86.927  93.633  1.00  0.00    -0.451 OA
ENDROOT
BRANCH   1  12
ATOM     12  C   UNL     1      89.389  86.553  92.669  1.00  0.00     0.063 A 
ATOM     13  C   UNL     1      88.542  85.023  90.979  1.00  0.00     0.047 A 
ATOM     14  C   UNL     1      89.359  85.278  92.082  1.00  0.00     0.020 A 
ATOM     15  C   UNL     1      87.731  86.039  90.455  1.00  0.00     0.119 A 
ATOM     16  C   UNL     1      87.736  87.305  91.047  1.00  0.00     0.093 A 
ATOM     17  C   UNL     1      88.550  87.566  92.160  1.00  0.00     0.130 A 
BRANCH  15  18
ATOM     18  O   UNL     1      86.915  85.797  89.352  1.00  0.00    -0.508 OA
ATOM     19  H   UNL     1      87.280  85.385  88.503  1.00  0.00     0.293 HD
ENDBRANCH  15  18
BRANCH  17  20
ATOM     20  O   UNL     1      88.508  88.820  92.771  1.00  0.00    -0.507 OA
ATOM     21  H   UNL     1      87.979  89.588  92.374  1.00  0.00     0.293 HD
ENDBRANCH  17  20
ENDBRANCH   1  12
BRANCH   2  22
ATOM     22  O   UNL     1      88.362  86.788  95.353  1.00  0.00    -0.502 OA
ATOM     23  H   UNL     1      87.686  87.100  94.665  1.00  0.00     0.293 HD
ENDBRANCH   2  22
BRANCH   6  24
ATOM     24  O   UNL     1      92.575  87.520  98.318  1.00  0.00    -0.507 OA
ATOM     25  H   UNL     1      93.003  88.184  98.954  1.00  0.00     0.293 HD
ENDBRANCH   6  24
BRANCH   8  26
ATOM     26  O   UNL     1      96.088  87.613  95.012  1.00  0.00    -0.508 OA
ATOM     27  H   UNL     1      96.400  88.141  94.205  1.00  0.00     0.293 HD
ENDBRANCH   8  26
TORSDOF 6
ENDMDL
