MODEL 1
REMARK VINA RESULT:    -7.075      0.000      0.000
REMARK INTER + INTRA:         -10.935
REMARK INTER:                  -9.557
REMARK INTRA:                  -1.378
REMARK UNBOUND:                -1.378
REMARK SMILES O=c1c(-c2ccc(O)cc2)coc2c([C@H]3O[C@@H](CO)[C@@H](O)[C@@H](O)[C@@H]3O)c(O)ccc12
REMARK SMILES IDX 3 1 11 2 12 3 13 4 30 5 2 6 1 7 29 8 28 9 26 10 14 11 4 12
REMARK SMILES IDX 5 13 6 14 7 15 10 16 9 17 8 18 15 20 24 21 16 22 22 23 17 24
REMARK SMILES IDX 20 25 25 26 23 28 18 30 19 31 21 33 27 35
REMARK H PARENT 8 19 25 27 23 29 19 32 21 34 27 36
REMARK Flexibility Score: inf
ROOT
ATOM      1  C   UNL     1      19.007  -1.914 -18.063  1.00  0.00     0.065 A 
ATOM      2  C   UNL     1      18.813  -3.269 -18.364  1.00  0.00     0.208 A 
ATOM      3  O   UNL     1      18.161  -4.066 -17.526  1.00  0.00    -0.463 OA
ATOM      4  C   UNL     1      17.653  -3.656 -16.365  1.00  0.00     0.147 A 
ATOM      5  C   UNL     1      17.783  -2.294 -15.998  1.00  0.00     0.066 A 
ATOM      6  C   UNL     1      18.474  -1.422 -16.860  1.00  0.00     0.200 A 
ATOM      7  O   UNL     1      18.588  -0.199 -16.569  1.00  0.00    -0.288 OA
ATOM      8  C   UNL     1      17.196  -1.838 -14.814  1.00  0.00     0.020 A 
ATOM      9  C   UNL     1      16.446  -2.703 -14.028  1.00  0.00     0.047 A 
ATOM     10  C   UNL     1      16.295  -4.050 -14.382  1.00  0.00     0.125 A 
ATOM     11  C   UNL     1      16.973  -4.577 -15.517  1.00  0.00     0.069 A 
ENDROOT
BRANCH   1  12
ATOM     12  C   UNL     1      19.729  -1.040 -19.022  1.00  0.00    -0.011 A 
ATOM     13  C   UNL     1      20.952  -0.443 -18.668  1.00  0.00     0.013 A 
ATOM     14  C   UNL     1      21.629   0.376 -19.577  1.00  0.00     0.047 A 
ATOM     15  C   UNL     1      21.097   0.608 -20.848  1.00  0.00     0.115 A 
ATOM     16  C   UNL     1      19.203  -0.807 -20.304  1.00  0.00     0.013 A 
ATOM     17  C   UNL     1      19.882   0.014 -21.210  1.00  0.00     0.047 A 
BRANCH  15  18
ATOM     18  O   UNL     1      21.784   1.427 -21.742  1.00  0.00    -0.508 OA
ATOM     19  H   UNL     1      22.111   2.346 -21.472  1.00  0.00     0.293 HD
ENDBRANCH  15  18
ENDBRANCH   1  12
BRANCH  11  20
ATOM     20  C   UNL     1      16.871  -6.057 -15.940  1.00  0.00     0.188 C 
ATOM     21  C   UNL     1      15.559  -6.448 -16.693  1.00  0.00     0.179 C 
ATOM     22  O   UNL     1      16.981  -6.879 -14.788  1.00  0.00    -0.362 OA
ATOM     23  C   UNL     1      15.137  -7.907 -16.381  1.00  0.00     0.177 C 
ATOM     24  C   UNL     1      17.337  -8.212 -15.134  1.00  0.00     0.176 C 
ATOM     25  C   UNL     1      16.389  -8.793 -16.232  1.00  0.00     0.177 C 
BRANCH  21  26
ATOM     26  O   UNL     1      15.769  -6.322 -18.078  1.00  0.00    -0.387 OA
ATOM     27  H   UNL     1      16.286  -5.485 -18.218  1.00  0.00     0.211 HD
ENDBRANCH  21  26
BRANCH  23  28
ATOM     28  O   UNL     1      14.380  -7.931 -15.195  1.00  0.00    -0.387 OA
ATOM     29  H   UNL     1      15.026  -7.953 -14.441  1.00  0.00     0.211 HD
ENDBRANCH  23  28
BRANCH  24  30
ATOM     30  C   UNL     1      17.341  -9.047 -13.844  1.00  0.00     0.191 C 
BRANCH  30  31
ATOM     31  O   UNL     1      16.034  -9.157 -13.349  1.00  0.00    -0.394 OA
ATOM     32  H   UNL     1      15.681  -8.231 -13.295  1.00  0.00     0.210 HD
ENDBRANCH  30  31
ENDBRANCH  24  30
BRANCH  25  33
ATOM     33  O   UNL     1      16.022 -10.125 -15.964  1.00  0.00    -0.388 OA
ATOM     34  H   UNL     1      15.353 -10.383 -16.650  1.00  0.00     0.211 HD
ENDBRANCH  25  33
ENDBRANCH  11  20
BRANCH  10  35
ATOM     35  O   UNL     1      15.453  -4.842 -13.605  1.00  0.00    -0.507 OA
ATOM     36  H   UNL     1      14.470  -4.626 -13.487  1.00  0.00     0.293 HD
ENDBRANCH  10  35
TORSDOF 9
ENDMDL
MODEL 2
REMARK VINA RESULT:    -6.622      1.163      2.113
REMARK INTER + INTRA:         -10.323
REMARK INTER:                  -9.356
REMARK INTRA:                  -0.967
REMARK UNBOUND:                -1.378
REMARK SMILES O=c1c(-c2ccc(O)cc2)coc2c([C@H]3O[C@@H](CO)[C@@H](O)[C@@H](O)[C@@H]3O)c(O)ccc12
REMARK SMILES IDX 3 1 11 2 12 3 13 4 30 5 2 6 1 7 29 8 28 9 26 10 14 11 4 12
REMARK SMILES IDX 5 13 6 14 7 15 10 16 9 17 8 18 15 20 24 21 16 22 22 23 17 24
REMARK SMILES IDX 20 25 25 26 23 28 18 30 19 31 21 33 27 35
REMARK H PARENT 8 19 25 27 23 29 19 32 21 34 27 36
REMARK Flexibility Score: inf
ROOT
ATOM      1  C   UNL     1      18.804  -1.708 -17.512  1.00  0.00     0.065 A 
ATOM      2  C   UNL     1      18.738  -3.107 -17.551  1.00  0.00     0.208 A 
ATOM      3  O   UNL     1      18.131  -3.788 -16.587  1.00  0.00    -0.463 OA
ATOM      4  C   UNL     1      17.550  -3.215 -15.535  1.00  0.00     0.147 A 
ATOM      5  C   UNL     1      17.549  -1.802 -15.432  1.00  0.00     0.066 A 
ATOM      6  C   UNL     1      18.189  -1.049 -16.434  1.00  0.00     0.200 A 
ATOM      7  O   UNL     1      18.187   0.213 -16.380  1.00  0.00    -0.288 OA
ATOM      8  C   UNL     1      16.884  -1.186 -14.367  1.00  0.00     0.020 A 
ATOM      9  C   UNL     1      16.186  -1.953 -13.443  1.00  0.00     0.047 A 
ATOM     10  C   UNL     1      16.165  -3.351 -13.536  1.00  0.00     0.125 A 
ATOM     11  C   UNL     1      16.924  -4.018 -14.538  1.00  0.00     0.069 A 
ENDROOT
BRANCH   1  12
ATOM     12  C   UNL     1      19.480  -0.968 -18.607  1.00  0.00    -0.011 A 
ATOM     13  C   UNL     1      20.786  -0.474 -18.441  1.00  0.00     0.013 A 
ATOM     14  C   UNL     1      21.417   0.219 -19.478  1.00  0.00     0.047 A 
ATOM     15  C   UNL     1      20.757   0.425 -20.692  1.00  0.00     0.115 A 
ATOM     16  C   UNL     1      18.824  -0.761 -19.833  1.00  0.00     0.013 A 
ATOM     17  C   UNL     1      19.458  -0.067 -20.868  1.00  0.00     0.047 A 
BRANCH  15  18
ATOM     18  O   UNL     1      21.401   1.118 -21.716  1.00  0.00    -0.508 OA
ATOM     19  H   UNL     1      20.909   1.796 -22.286  1.00  0.00     0.293 HD
ENDBRANCH  15  18
ENDBRANCH   1  12
BRANCH  11  20
ATOM     20  C   UNL     1      16.965  -5.554 -14.672  1.00  0.00     0.188 C 
ATOM     21  C   UNL     1      18.373  -6.162 -14.973  1.00  0.00     0.179 C 
ATOM     22  O   UNL     1      16.080  -5.956 -15.706  1.00  0.00    -0.362 OA
ATOM     23  C   UNL     1      18.267  -7.436 -15.850  1.00  0.00     0.177 C 
ATOM     24  C   UNL     1      15.735  -7.330 -15.589  1.00  0.00     0.176 C 
ATOM     25  C   UNL     1      17.005  -8.233 -15.465  1.00  0.00     0.177 C 
BRANCH  21  26
ATOM     26  O   UNL     1      18.999  -6.496 -13.759  1.00  0.00    -0.387 OA
ATOM     27  H   UNL     1      18.330  -6.355 -13.039  1.00  0.00     0.211 HD
ENDBRANCH  21  26
BRANCH  23  28
ATOM     28  O   UNL     1      18.213  -7.066 -17.207  1.00  0.00    -0.387 OA
ATOM     29  H   UNL     1      19.136  -6.818 -17.476  1.00  0.00     0.211 HD
ENDBRANCH  23  28
BRANCH  24  30
ATOM     30  C   UNL     1      14.856  -7.698 -16.795  1.00  0.00     0.191 C 
BRANCH  30  31
ATOM     31  O   UNL     1      15.484  -7.288 -17.979  1.00  0.00    -0.394 OA
ATOM     32  H   UNL     1      16.229  -7.924 -18.130  1.00  0.00     0.210 HD
ENDBRANCH  30  31
ENDBRANCH  24  30
BRANCH  25  33
ATOM     33  O   UNL     1      16.902  -9.401 -16.242  1.00  0.00    -0.388 OA
ATOM     34  H   UNL     1      16.156  -9.935 -15.861  1.00  0.00     0.211 HD
ENDBRANCH  25  33
ENDBRANCH  11  20
BRANCH  10  35
ATOM     35  O   UNL     1      15.369  -4.055 -12.636  1.00  0.00    -0.507 OA
ATOM     36  H   UNL     1      15.581  -4.094 -11.646  1.00  0.00     0.293 HD
ENDBRANCH  10  35
TORSDOF 9
ENDMDL
MODEL 3
REMARK VINA RESULT:    -6.426      2.339      5.108
REMARK INTER + INTRA:         -10.058
REMARK INTER:                  -9.074
REMARK INTRA:                  -0.984
REMARK UNBOUND:                -1.378
REMARK SMILES O=c1c(-c2ccc(O)cc2)coc2c([C@H]3O[C@@H](CO)[C@@H](O)[C@@H](O)[C@@H]3O)c(O)ccc12
REMARK SMILES IDX 3 1 11 2 12 3 13 4 30 5 2 6 1 7 29 8 28 9 26 10 14 11 4 12
REMARK SMILES IDX 5 13 6 14 7 15 10 16 9 17 8 18 15 20 24 21 16 22 22 23 17 24
REMARK SMILES IDX 20 25 25 26 23 28 18 30 19 31 21 33 27 35
REMARK H PARENT 8 19 25 27 23 29 19 32 21 34 27 36
REMARK Flexibility Score: inf
ROOT
ATOM      1  C   UNL     1      19.046  -1.544 -18.127  1.00  0.00     0.065 A 
ATOM      2  C   UNL     1      18.589  -0.725 -17.086  1.00  0.00     0.208 A 
ATOM      3  O   UNL     1      17.935  -1.238 -16.052  1.00  0.00    -0.463 OA
ATOM      4  C   UNL     1      17.667  -2.536 -15.921  1.00  0.00     0.147 A 
ATOM      5  C   UNL     1      18.117  -3.437 -16.917  1.00  0.00     0.066 A 
ATOM      6  C   UNL     1      18.809  -2.926 -18.031  1.00  0.00     0.200 A 
ATOM      7  O   UNL     1      19.240  -3.707 -18.925  1.00  0.00    -0.288 OA
ATOM      8  C   UNL     1      17.901  -4.809 -16.758  1.00  0.00     0.020 A 
ATOM      9  C   UNL     1      17.293  -5.291 -15.605  1.00  0.00     0.047 A 
ATOM     10  C   UNL     1      16.853  -4.416 -14.604  1.00  0.00     0.125 A 
ATOM     11  C   UNL     1      16.952  -3.008 -14.783  1.00  0.00     0.069 A 
ENDROOT
BRANCH   1  12
ATOM     12  C   UNL     1      19.786  -0.948 -19.268  1.00  0.00    -0.011 A 
ATOM     13  C   UNL     1      19.475  -1.308 -20.591  1.00  0.00     0.013 A 
ATOM     14  C   UNL     1      20.173  -0.740 -21.661  1.00  0.00     0.047 A 
ATOM     15  C   UNL     1      21.186   0.195 -21.426  1.00  0.00     0.115 A 
ATOM     16  C   UNL     1      20.802  -0.004 -19.039  1.00  0.00     0.013 A 
ATOM     17  C   UNL     1      21.498   0.561 -20.111  1.00  0.00     0.047 A 
BRANCH  15  18
ATOM     18  O   UNL     1      21.872   0.751 -22.503  1.00  0.00    -0.508 OA
ATOM     19  H   UNL     1      22.219   0.177 -23.262  1.00  0.00     0.293 HD
ENDBRANCH  15  18
ENDBRANCH   1  12
BRANCH  11  20
ATOM     20  C   UNL     1      16.458  -1.994 -13.730  1.00  0.00     0.188 C 
ATOM     21  C   UNL     1      17.168  -2.073 -12.340  1.00  0.00     0.179 C 
ATOM     22  O   UNL     1      15.065  -2.177 -13.524  1.00  0.00    -0.362 OA
ATOM     23  C   UNL     1      16.204  -1.700 -11.185  1.00  0.00     0.177 C 
ATOM     24  C   UNL     1      14.473  -1.029 -12.930  1.00  0.00     0.176 C 
ATOM     25  C   UNL     1      15.244  -0.585 -11.645  1.00  0.00     0.177 C 
BRANCH  21  26
ATOM     26  O   UNL     1      18.257  -1.182 -12.330  1.00  0.00    -0.387 OA
ATOM     27  H   UNL     1      19.060  -1.702 -12.598  1.00  0.00     0.211 HD
ENDBRANCH  21  26
BRANCH  23  28
ATOM     28  O   UNL     1      15.475  -2.840 -10.799  1.00  0.00    -0.387 OA
ATOM     29  H   UNL     1      14.522  -2.660 -11.012  1.00  0.00     0.211 HD
ENDBRANCH  23  28
BRANCH  24  30
ATOM     30  C   UNL     1      12.995  -1.349 -12.659  1.00  0.00     0.191 C 
BRANCH  30  31
ATOM     31  O   UNL     1      12.889  -2.601 -12.037  1.00  0.00    -0.394 OA
ATOM     32  H   UNL     1      13.104  -2.452 -11.081  1.00  0.00     0.210 HD
ENDBRANCH  30  31
ENDBRANCH  24  30
BRANCH  25  33
ATOM     33  O   UNL     1      14.371  -0.224 -10.602  1.00  0.00    -0.388 OA
ATOM     34  H   UNL     1      14.475   0.754 -10.466  1.00  0.00     0.211 HD
ENDBRANCH  25  33
ENDBRANCH  11  20
BRANCH  10  35
ATOM     35  O   UNL     1      16.339  -4.967 -13.432  1.00  0.00    -0.507 OA
ATOM     36  H   UNL     1      16.552  -5.915 -13.146  1.00  0.00     0.293 HD
ENDBRANCH  10  35
TORSDOF 9
ENDMDL
MODEL 4
REMARK VINA RESULT:    -6.416      7.720     11.293
REMARK INTER + INTRA:         -10.044
REMARK INTER:                  -9.155
REMARK INTRA:                  -0.889
REMARK UNBOUND:                -1.378
REMARK SMILES O=c1c(-c2ccc(O)cc2)coc2c([C@H]3O[C@@H](CO)[C@@H](O)[C@@H](O)[C@@H]3O)c(O)ccc12
REMARK SMILES IDX 3 1 11 2 12 3 13 4 30 5 2 6 1 7 29 8 28 9 26 10 14 11 4 12
REMARK SMILES IDX 5 13 6 14 7 15 10 16 9 17 8 18 15 20 24 21 16 22 22 23 17 24
REMARK SMILES IDX 20 25 25 26 23 28 18 30 19 31 21 33 27 35
REMARK H PARENT 8 19 25 27 23 29 19 32 21 34 27 36
REMARK Flexibility Score: inf
ROOT
ATOM      1  C   UNL     1      12.932  -8.142 -12.366  1.00  0.00     0.065 A 
ATOM      2  C   UNL     1      12.728  -7.494 -11.140  1.00  0.00     0.208 A 
ATOM      3  O   UNL     1      11.522  -7.450 -10.586  1.00  0.00    -0.463 OA
ATOM      4  C   UNL     1      10.440  -8.001 -11.132  1.00  0.00     0.147 A 
ATOM      5  C   UNL     1      10.566  -8.697 -12.359  1.00  0.00     0.066 A 
ATOM      6  C   UNL     1      11.829  -8.759 -12.978  1.00  0.00     0.200 A 
ATOM      7  O   UNL     1      11.976  -9.390 -14.062  1.00  0.00    -0.288 OA
ATOM      8  C   UNL     1       9.451  -9.337 -12.909  1.00  0.00     0.020 A 
ATOM      9  C   UNL     1       8.239  -9.333 -12.231  1.00  0.00     0.047 A 
ATOM     10  C   UNL     1       8.099  -8.660 -11.010  1.00  0.00     0.125 A 
ATOM     11  C   UNL     1       9.179  -7.903 -10.477  1.00  0.00     0.069 A 
ENDROOT
BRANCH   1  12
ATOM     12  C   UNL     1      14.292  -8.187 -12.960  1.00  0.00    -0.011 A 
ATOM     13  C   UNL     1      14.871  -9.413 -13.336  1.00  0.00     0.013 A 
ATOM     14  C   UNL     1      16.150  -9.448 -13.897  1.00  0.00     0.047 A 
ATOM     15  C   UNL     1      16.867  -8.264 -14.095  1.00  0.00     0.115 A 
ATOM     16  C   UNL     1      15.017  -7.000 -13.165  1.00  0.00     0.013 A 
ATOM     17  C   UNL     1      16.296  -7.039 -13.727  1.00  0.00     0.047 A 
BRANCH  15  18
ATOM     18  O   UNL     1      18.141  -8.316 -14.655  1.00  0.00    -0.508 OA
ATOM     19  H   UNL     1      18.674  -7.475 -14.837  1.00  0.00     0.293 HD
ENDBRANCH  15  18
ENDBRANCH   1  12
BRANCH  11  20
ATOM     20  C   UNL     1       9.076  -7.117  -9.154  1.00  0.00     0.188 C 
ATOM     21  C   UNL     1       9.314  -7.956  -7.857  1.00  0.00     0.179 C 
ATOM     22  O   UNL     1       7.791  -6.520  -9.064  1.00  0.00    -0.362 OA
ATOM     23  C   UNL     1       8.465  -7.428  -6.673  1.00  0.00     0.177 C 
ATOM     24  C   UNL     1       7.780  -5.451  -8.127  1.00  0.00     0.176 C 
ATOM     25  C   UNL     1       8.365  -5.891  -6.746  1.00  0.00     0.177 C 
BRANCH  21  26
ATOM     26  O   UNL     1      10.675  -7.888  -7.508  1.00  0.00    -0.387 OA
ATOM     27  H   UNL     1      10.724  -7.945  -6.518  1.00  0.00     0.211 HD
ENDBRANCH  21  26
BRANCH  23  28
ATOM     28  O   UNL     1       7.182  -8.002  -6.725  1.00  0.00    -0.387 OA
ATOM     29  H   UNL     1       7.290  -8.970  -6.535  1.00  0.00     0.211 HD
ENDBRANCH  23  28
BRANCH  24  30
ATOM     30  C   UNL     1       6.337  -4.930  -8.026  1.00  0.00     0.191 C 
BRANCH  30  31
ATOM     31  O   UNL     1       6.201  -3.765  -8.792  1.00  0.00    -0.394 OA
ATOM     32  H   UNL     1       6.257  -4.051  -9.740  1.00  0.00     0.210 HD
ENDBRANCH  30  31
ENDBRANCH  24  30
BRANCH  25  33
ATOM     33  O   UNL     1       7.610  -5.394  -5.668  1.00  0.00    -0.388 OA
ATOM     34  H   UNL     1       6.663  -5.635  -5.845  1.00  0.00     0.211 HD
ENDBRANCH  25  33
ENDBRANCH  11  20
BRANCH  10  35
ATOM     35  O   UNL     1       6.887  -8.775 -10.334  1.00  0.00    -0.507 OA
ATOM     36  H   UNL     1       6.814  -9.232  -9.433  1.00  0.00     0.293 HD
ENDBRANCH  10  35
TORSDOF 9
ENDMDL
MODEL 5
REMARK VINA RESULT:    -6.339      5.062     10.345
REMARK INTER + INTRA:          -9.941
REMARK INTER:                  -8.377
REMARK INTRA:                  -1.564
REMARK UNBOUND:                -1.378
REMARK SMILES O=c1c(-c2ccc(O)cc2)coc2c([C@H]3O[C@@H](CO)[C@@H](O)[C@@H](O)[C@@H]3O)c(O)ccc12
REMARK SMILES IDX 3 1 11 2 12 3 13 4 30 5 2 6 1 7 29 8 28 9 26 10 14 11 4 12
REMARK SMILES IDX 5 13 6 14 7 15 10 16 9 17 8 18 15 20 24 21 16 22 22 23 17 24
REMARK SMILES IDX 20 25 25 26 23 28 18 30 19 31 21 33 27 35
REMARK H PARENT 8 19 25 27 23 29 19 32 21 34 27 36
REMARK Flexibility Score: inf
ROOT
ATOM      1  C   UNL     1      11.952  -7.942 -11.265  1.00  0.00     0.065 A 
ATOM      2  C   UNL     1      13.199  -7.334 -11.457  1.00  0.00     0.208 A 
ATOM      3  O   UNL     1      13.914  -7.573 -12.549  1.00  0.00    -0.463 OA
ATOM      4  C   UNL     1      13.514  -8.387 -13.526  1.00  0.00     0.147 A 
ATOM      5  C   UNL     1      12.252  -9.022 -13.422  1.00  0.00     0.066 A 
ATOM      6  C   UNL     1      11.471  -8.795 -12.273  1.00  0.00     0.200 A 
ATOM      7  O   UNL     1      10.333  -9.330 -12.161  1.00  0.00    -0.288 OA
ATOM      8  C   UNL     1      11.793  -9.825 -14.470  1.00  0.00     0.020 A 
ATOM      9  C   UNL     1      12.548  -9.958 -15.629  1.00  0.00     0.047 A 
ATOM     10  C   UNL     1      13.793  -9.328 -15.754  1.00  0.00     0.125 A 
ATOM     11  C   UNL     1      14.344  -8.598 -14.665  1.00  0.00     0.069 A 
ENDROOT
BRANCH   1  12
ATOM     12  C   UNL     1      11.167  -7.649 -10.039  1.00  0.00    -0.011 A 
ATOM     13  C   UNL     1      11.071  -8.598  -9.005  1.00  0.00     0.013 A 
ATOM     14  C   UNL     1      10.333  -8.314  -7.852  1.00  0.00     0.047 A 
ATOM     15  C   UNL     1       9.685  -7.083  -7.714  1.00  0.00     0.115 A 
ATOM     16  C   UNL     1      10.517  -6.412  -9.891  1.00  0.00     0.013 A 
ATOM     17  C   UNL     1       9.779  -6.132  -8.737  1.00  0.00     0.047 A 
BRANCH  15  18
ATOM     18  O   UNL     1       8.953  -6.817  -6.558  1.00  0.00    -0.508 OA
ATOM     19  H   UNL     1       9.408  -6.542  -5.696  1.00  0.00     0.293 HD
ENDBRANCH  15  18
ENDBRANCH   1  12
BRANCH  11  20
ATOM     20  C   UNL     1      15.721  -7.907 -14.732  1.00  0.00     0.188 C 
ATOM     21  C   UNL     1      15.704  -6.428 -15.236  1.00  0.00     0.179 C 
ATOM     22  O   UNL     1      16.576  -8.654 -15.585  1.00  0.00    -0.362 OA
ATOM     23  C   UNL     1      16.993  -6.079 -16.023  1.00  0.00     0.177 C 
ATOM     24  C   UNL     1      17.944  -8.345 -15.348  1.00  0.00     0.176 C 
ATOM     25  C   UNL     1      18.201  -6.804 -15.396  1.00  0.00     0.177 C 
BRANCH  21  26
ATOM     26  O   UNL     1      15.600  -5.566 -14.129  1.00  0.00    -0.387 OA
ATOM     27  H   UNL     1      16.290  -4.861 -14.245  1.00  0.00     0.211 HD
ENDBRANCH  21  26
BRANCH  23  28
ATOM     28  O   UNL     1      16.839  -6.466 -17.367  1.00  0.00    -0.387 OA
ATOM     29  H   UNL     1      17.723  -6.352 -17.804  1.00  0.00     0.211 HD
ENDBRANCH  23  28
BRANCH  24  30
ATOM     30  C   UNL     1      18.785  -9.123 -16.373  1.00  0.00     0.191 C 
BRANCH  30  31
ATOM     31  O   UNL     1      18.324  -8.850 -17.668  1.00  0.00    -0.394 OA
ATOM     32  H   UNL     1      19.112  -8.529 -18.178  1.00  0.00     0.210 HD
ENDBRANCH  30  31
ENDBRANCH  24  30
BRANCH  25  33
ATOM     33  O   UNL     1      19.383  -6.486 -16.090  1.00  0.00    -0.388 OA
ATOM     34  H   UNL     1      19.108  -6.079 -16.953  1.00  0.00     0.211 HD
ENDBRANCH  25  33
ENDBRANCH  11  20
BRANCH  10  35
ATOM     35  O   UNL     1      14.454  -9.423 -16.976  1.00  0.00    -0.507 OA
ATOM     36  H   UNL     1      15.135  -8.733 -17.275  1.00  0.00     0.293 HD
ENDBRANCH  10  35
TORSDOF 9
ENDMDL
MODEL 6
REMARK VINA RESULT:    -6.268     13.651     16.873
REMARK INTER + INTRA:          -9.845
REMARK INTER:                  -8.546
REMARK INTRA:                  -1.299
REMARK UNBOUND:                -1.378
REMARK SMILES O=c1c(-c2ccc(O)cc2)coc2c([C@H]3O[C@@H](CO)[C@@H](O)[C@@H](O)[C@@H]3O)c(O)ccc12
REMARK SMILES IDX 3 1 11 2 12 3 13 4 30 5 2 6 1 7 29 8 28 9 26 10 14 11 4 12
REMARK SMILES IDX 5 13 6 14 7 15 10 16 9 17 8 18 15 20 24 21 16 22 22 23 17 24
REMARK SMILES IDX 20 25 25 26 23 28 18 30 19 31 21 33 27 35
REMARK H PARENT 8 19 25 27 23 29 19 32 21 34 27 36
REMARK Flexibility Score: inf
ROOT
ATOM      1  C   UNL     1       5.125   3.790  -9.083  1.00  0.00     0.065 A 
ATOM      2  C   UNL     1       5.360   2.668  -9.888  1.00  0.00     0.208 A 
ATOM      3  O   UNL     1       5.411   2.775 -11.210  1.00  0.00    -0.463 OA
ATOM      4  C   UNL     1       5.248   3.926 -11.861  1.00  0.00     0.147 A 
ATOM      5  C   UNL     1       5.032   5.113 -11.120  1.00  0.00     0.066 A 
ATOM      6  C   UNL     1       4.966   5.034  -9.716  1.00  0.00     0.200 A 
ATOM      7  O   UNL     1       4.794   6.079  -9.028  1.00  0.00    -0.288 OA
ATOM      8  C   UNL     1       4.927   6.337 -11.789  1.00  0.00     0.020 A 
ATOM      9  C   UNL     1       5.084   6.395 -13.168  1.00  0.00     0.047 A 
ATOM     10  C   UNL     1       5.311   5.232 -13.916  1.00  0.00     0.125 A 
ATOM     11  C   UNL     1       5.310   3.957 -13.284  1.00  0.00     0.069 A 
ENDROOT
BRANCH   1  12
ATOM     12  C   UNL     1       5.083   3.645  -7.606  1.00  0.00    -0.011 A 
ATOM     13  C   UNL     1       6.127   3.002  -6.918  1.00  0.00     0.013 A 
ATOM     14  C   UNL     1       6.082   2.871  -5.527  1.00  0.00     0.047 A 
ATOM     15  C   UNL     1       5.000   3.383  -4.805  1.00  0.00     0.115 A 
ATOM     16  C   UNL     1       4.000   4.162  -6.873  1.00  0.00     0.013 A 
ATOM     17  C   UNL     1       3.959   4.029  -5.482  1.00  0.00     0.047 A 
BRANCH  15  18
ATOM     18  O   UNL     1       4.971   3.245  -3.419  1.00  0.00    -0.508 OA
ATOM     19  H   UNL     1       5.721   2.783  -2.918  1.00  0.00     0.293 HD
ENDBRANCH  15  18
ENDBRANCH   1  12
BRANCH  11  20
ATOM     20  C   UNL     1       5.524   2.640 -14.059  1.00  0.00     0.188 C 
ATOM     21  C   UNL     1       7.011   2.298 -14.398  1.00  0.00     0.179 C 
ATOM     22  O   UNL     1       4.794   2.690 -15.275  1.00  0.00    -0.362 OA
ATOM     23  C   UNL     1       7.128   1.536 -15.742  1.00  0.00     0.177 C 
ATOM     24  C   UNL     1       4.585   1.389 -15.809  1.00  0.00     0.176 C 
ATOM     25  C   UNL     1       5.923   0.588 -15.913  1.00  0.00     0.177 C 
BRANCH  21  26
ATOM     26  O   UNL     1       7.543   1.496 -13.373  1.00  0.00    -0.387 OA
ATOM     27  H   UNL     1       7.155   1.822 -12.518  1.00  0.00     0.211 HD
ENDBRANCH  21  26
BRANCH  23  28
ATOM     28  O   UNL     1       7.172   2.461 -16.802  1.00  0.00    -0.387 OA
ATOM     29  H   UNL     1       6.244   2.787 -16.940  1.00  0.00     0.211 HD
ENDBRANCH  23  28
BRANCH  24  30
ATOM     30  C   UNL     1       3.875   1.545 -17.163  1.00  0.00     0.191 C 
BRANCH  30  31
ATOM     31  O   UNL     1       4.574   2.462 -17.960  1.00  0.00    -0.394 OA
ATOM     32  H   UNL     1       4.582   2.081 -18.875  1.00  0.00     0.210 HD
ENDBRANCH  30  31
ENDBRANCH  24  30
BRANCH  25  33
ATOM     33  O   UNL     1       6.022  -0.123 -17.122  1.00  0.00    -0.388 OA
ATOM     34  H   UNL     1       5.416   0.325 -17.770  1.00  0.00     0.211 HD
ENDBRANCH  25  33
ENDBRANCH  11  20
BRANCH  10  35
ATOM     35  O   UNL     1       5.556   5.369 -15.280  1.00  0.00    -0.507 OA
ATOM     36  H   UNL     1       6.418   5.767 -15.635  1.00  0.00     0.293 HD
ENDBRANCH  10  35
TORSDOF 9
ENDMDL
MODEL 7
REMARK VINA RESULT:    -6.259      6.090     11.346
REMARK INTER + INTRA:          -9.833
REMARK INTER:                  -8.410
REMARK INTRA:                  -1.423
REMARK UNBOUND:                -1.378
REMARK SMILES O=c1c(-c2ccc(O)cc2)coc2c([C@H]3O[C@@H](CO)[C@@H](O)[C@@H](O)[C@@H]3O)c(O)ccc12
REMARK SMILES IDX 3 1 11 2 12 3 13 4 30 5 2 6 1 7 29 8 28 9 26 10 14 11 4 12
REMARK SMILES IDX 5 13 6 14 7 15 10 16 9 17 8 18 15 20 24 21 16 22 22 23 17 24
REMARK SMILES IDX 20 25 25 26 23 28 18 30 19 31 21 33 27 35
REMARK H PARENT 8 19 25 27 23 29 19 32 21 34 27 36
REMARK Flexibility Score: inf
ROOT
ATOM      1  C   UNL     1      11.335  -7.164  -9.827  1.00  0.00     0.065 A 
ATOM      2  C   UNL     1      11.950  -5.907  -9.758  1.00  0.00     0.208 A 
ATOM      3  O   UNL     1      12.992  -5.615 -10.527  1.00  0.00    -0.463 OA
ATOM      4  C   UNL     1      13.523  -6.468 -11.402  1.00  0.00     0.147 A 
ATOM      5  C   UNL     1      12.944  -7.752 -11.552  1.00  0.00     0.066 A 
ATOM      6  C   UNL     1      11.841  -8.097 -10.748  1.00  0.00     0.200 A 
ATOM      7  O   UNL     1      11.292  -9.227 -10.873  1.00  0.00    -0.288 OA
ATOM      8  C   UNL     1      13.450  -8.632 -12.514  1.00  0.00     0.020 A 
ATOM      9  C   UNL     1      14.482  -8.230 -13.353  1.00  0.00     0.047 A 
ATOM     10  C   UNL     1      15.058  -6.959 -13.228  1.00  0.00     0.125 A 
ATOM     11  C   UNL     1      14.647  -6.081 -12.186  1.00  0.00     0.069 A 
ENDROOT
BRANCH   1  12
ATOM     12  C   UNL     1      10.165  -7.463  -8.964  1.00  0.00    -0.011 A 
ATOM     13  C   UNL     1      10.295  -8.300  -7.841  1.00  0.00     0.013 A 
ATOM     14  C   UNL     1       9.189  -8.574  -7.031  1.00  0.00     0.047 A 
ATOM     15  C   UNL     1       7.942  -8.017  -7.328  1.00  0.00     0.115 A 
ATOM     16  C   UNL     1       8.909  -6.902  -9.253  1.00  0.00     0.013 A 
ATOM     17  C   UNL     1       7.805  -7.179  -8.441  1.00  0.00     0.047 A 
BRANCH  15  18
ATOM     18  O   UNL     1       6.850  -8.300  -6.511  1.00  0.00    -0.508 OA
ATOM     19  H   UNL     1       6.112  -8.925  -6.812  1.00  0.00     0.293 HD
ENDBRANCH  15  18
ENDBRANCH   1  12
BRANCH  11  20
ATOM     20  C   UNL     1      15.265  -4.682 -11.980  1.00  0.00     0.188 C 
ATOM     21  C   UNL     1      14.625  -3.537 -12.828  1.00  0.00     0.179 C 
ATOM     22  O   UNL     1      16.651  -4.735 -12.282  1.00  0.00    -0.362 OA
ATOM     23  C   UNL     1      15.673  -2.462 -13.215  1.00  0.00     0.177 C 
ATOM     24  C   UNL     1      17.351  -3.641 -11.703  1.00  0.00     0.176 C 
ATOM     25  C   UNL     1      16.681  -2.275 -12.064  1.00  0.00     0.177 C 
BRANCH  21  26
ATOM     26  O   UNL     1      13.603  -2.926 -12.079  1.00  0.00    -0.387 OA
ATOM     27  H   UNL     1      12.769  -3.437 -12.257  1.00  0.00     0.211 HD
ENDBRANCH  21  26
BRANCH  23  28
ATOM     28  O   UNL     1      16.341  -2.861 -14.387  1.00  0.00    -0.387 OA
ATOM     29  H   UNL     1      17.057  -3.492 -14.110  1.00  0.00     0.211 HD
ENDBRANCH  23  28
BRANCH  24  30
ATOM     30  C   UNL     1      18.816  -3.727 -12.159  1.00  0.00     0.191 C 
BRANCH  30  31
ATOM     31  O   UNL     1      18.897  -4.449 -13.358  1.00  0.00    -0.394 OA
ATOM     32  H   UNL     1      19.863  -4.602 -13.522  1.00  0.00     0.210 HD
ENDBRANCH  30  31
ENDBRANCH  24  30
BRANCH  25  33
ATOM     33  O   UNL     1      17.631  -1.291 -12.393  1.00  0.00    -0.388 OA
ATOM     34  H   UNL     1      17.350  -0.900 -13.262  1.00  0.00     0.211 HD
ENDBRANCH  25  33
ENDBRANCH  11  20
BRANCH  10  35
ATOM     35  O   UNL     1      16.021  -6.582 -14.160  1.00  0.00    -0.507 OA
ATOM     36  H   UNL     1      15.947  -6.829 -15.141  1.00  0.00     0.293 HD
ENDBRANCH  10  35
TORSDOF 9
ENDMDL
MODEL 8
REMARK VINA RESULT:    -6.152      6.173      8.911
REMARK INTER + INTRA:          -9.688
REMARK INTER:                  -8.126
REMARK INTRA:                  -1.562
REMARK UNBOUND:                -1.378
REMARK SMILES O=c1c(-c2ccc(O)cc2)coc2c([C@H]3O[C@@H](CO)[C@@H](O)[C@@H](O)[C@@H]3O)c(O)ccc12
REMARK SMILES IDX 3 1 11 2 12 3 13 4 30 5 2 6 1 7 29 8 28 9 26 10 14 11 4 12
REMARK SMILES IDX 5 13 6 14 7 15 10 16 9 17 8 18 15 20 24 21 16 22 22 23 17 24
REMARK SMILES IDX 20 25 25 26 23 28 18 30 19 31 21 33 27 35
REMARK H PARENT 8 19 25 27 23 29 19 32 21 34 27 36
REMARK Flexibility Score: inf
ROOT
ATOM      1  C   UNL     1      14.787  -4.918 -12.150  1.00  0.00     0.065 A 
ATOM      2  C   UNL     1      13.704  -4.620 -11.311  1.00  0.00     0.208 A 
ATOM      3  O   UNL     1      12.816  -5.552 -10.988  1.00  0.00    -0.463 OA
ATOM      4  C   UNL     1      12.878  -6.810 -11.421  1.00  0.00     0.147 A 
ATOM      5  C   UNL     1      13.956  -7.200 -12.253  1.00  0.00     0.066 A 
ATOM      6  C   UNL     1      14.913  -6.236 -12.620  1.00  0.00     0.200 A 
ATOM      7  O   UNL     1      15.896  -6.559 -13.344  1.00  0.00    -0.288 OA
ATOM      8  C   UNL     1      14.069  -8.534 -12.660  1.00  0.00     0.020 A 
ATOM      9  C   UNL     1      13.157  -9.480 -12.209  1.00  0.00     0.047 A 
ATOM     10  C   UNL     1      12.092  -9.114 -11.375  1.00  0.00     0.125 A 
ATOM     11  C   UNL     1      11.879  -7.750 -11.035  1.00  0.00     0.069 A 
ENDROOT
BRANCH   1  12
ATOM     12  C   UNL     1      15.773  -3.862 -12.488  1.00  0.00    -0.011 A 
ATOM     13  C   UNL     1      15.608  -3.066 -13.635  1.00  0.00     0.013 A 
ATOM     14  C   UNL     1      16.540  -2.071 -13.946  1.00  0.00     0.047 A 
ATOM     15  C   UNL     1      17.643  -1.854 -13.116  1.00  0.00     0.115 A 
ATOM     16  C   UNL     1      16.883  -3.635 -11.655  1.00  0.00     0.013 A 
ATOM     17  C   UNL     1      17.813  -2.639 -11.969  1.00  0.00     0.047 A 
BRANCH  15  18
ATOM     18  O   UNL     1      18.562  -0.858 -13.440  1.00  0.00    -0.508 OA
ATOM     19  H   UNL     1      19.551  -1.060 -13.530  1.00  0.00     0.293 HD
ENDBRANCH  15  18
ENDBRANCH   1  12
BRANCH  11  20
ATOM     20  C   UNL     1      10.708  -7.282 -10.146  1.00  0.00     0.188 C 
ATOM     21  C   UNL     1      10.992  -7.285  -8.610  1.00  0.00     0.179 C 
ATOM     22  O   UNL     1       9.580  -8.110 -10.389  1.00  0.00    -0.362 OA
ATOM     23  C   UNL     1       9.714  -7.608  -7.795  1.00  0.00     0.177 C 
ATOM     24  C   UNL     1       8.377  -7.485  -9.961  1.00  0.00     0.176 C 
ATOM     25  C   UNL     1       8.483  -6.985  -8.483  1.00  0.00     0.177 C 
BRANCH  21  26
ATOM     26  O   UNL     1      11.466  -6.017  -8.228  1.00  0.00    -0.387 OA
ATOM     27  H   UNL     1      11.624  -5.503  -9.063  1.00  0.00     0.211 HD
ENDBRANCH  21  26
BRANCH  23  28
ATOM     28  O   UNL     1       9.562  -9.004  -7.699  1.00  0.00    -0.387 OA
ATOM     29  H   UNL     1       8.730  -9.169  -7.181  1.00  0.00     0.211 HD
ENDBRANCH  23  28
BRANCH  24  30
ATOM     30  C   UNL     1       7.228  -8.483 -10.172  1.00  0.00     0.191 C 
BRANCH  30  31
ATOM     31  O   UNL     1       7.324  -9.521  -9.235  1.00  0.00    -0.394 OA
ATOM     32  H   UNL     1       8.221  -9.434  -8.820  1.00  0.00     0.210 HD
ENDBRANCH  30  31
ENDBRANCH  24  30
BRANCH  25  33
ATOM     33  O   UNL     1       7.315  -7.257  -7.748  1.00  0.00    -0.388 OA
ATOM     34  H   UNL     1       7.007  -8.160  -8.021  1.00  0.00     0.211 HD
ENDBRANCH  25  33
ENDBRANCH  11  20
BRANCH  10  35
ATOM     35  O   UNL     1      11.271 -10.125 -10.881  1.00  0.00    -0.507 OA
ATOM     36  H   UNL     1      10.745 -10.018 -10.022  1.00  0.00     0.293 HD
ENDBRANCH  10  35
TORSDOF 9
ENDMDL
MODEL 9
REMARK VINA RESULT:    -5.963      5.751     11.097
REMARK INTER + INTRA:          -9.432
REMARK INTER:                  -8.500
REMARK INTRA:                  -0.933
REMARK UNBOUND:                -1.378
REMARK SMILES O=c1c(-c2ccc(O)cc2)coc2c([C@H]3O[C@@H](CO)[C@@H](O)[C@@H](O)[C@@H]3O)c(O)ccc12
REMARK SMILES IDX 3 1 11 2 12 3 13 4 30 5 2 6 1 7 29 8 28 9 26 10 14 11 4 12
REMARK SMILES IDX 5 13 6 14 7 15 10 16 9 17 8 18 15 20 24 21 16 22 22 23 17 24
REMARK SMILES IDX 20 25 25 26 23 28 18 30 19 31 21 33 27 35
REMARK H PARENT 8 19 25 27 23 29 19 32 21 34 27 36
REMARK Flexibility Score: inf
ROOT
ATOM      1  C   UNL     1      11.764  -6.835 -10.282  1.00  0.00     0.065 A 
ATOM      2  C   UNL     1      12.471  -5.626 -10.305  1.00  0.00     0.208 A 
ATOM      3  O   UNL     1      13.535  -5.473 -11.083  1.00  0.00    -0.463 OA
ATOM      4  C   UNL     1      14.005  -6.429 -11.883  1.00  0.00     0.147 A 
ATOM      5  C   UNL     1      13.332  -7.674 -11.938  1.00  0.00     0.066 A 
ATOM      6  C   UNL     1      12.203  -7.873 -11.121  1.00  0.00     0.200 A 
ATOM      7  O   UNL     1      11.571  -8.965 -11.164  1.00  0.00    -0.288 OA
ATOM      8  C   UNL     1      13.776  -8.662 -12.823  1.00  0.00     0.020 A 
ATOM      9  C   UNL     1      14.839  -8.405 -13.680  1.00  0.00     0.047 A 
ATOM     10  C   UNL     1      15.508  -7.174 -13.648  1.00  0.00     0.125 A 
ATOM     11  C   UNL     1      15.159  -6.189 -12.683  1.00  0.00     0.069 A 
ENDROOT
BRANCH   1  12
ATOM     12  C   UNL     1      10.570  -6.977  -9.411  1.00  0.00    -0.011 A 
ATOM     13  C   UNL     1      10.673  -7.578  -8.144  1.00  0.00     0.013 A 
ATOM     14  C   UNL     1       9.546  -7.706  -7.327  1.00  0.00     0.047 A 
ATOM     15  C   UNL     1       8.303  -7.235  -7.762  1.00  0.00     0.115 A 
ATOM     16  C   UNL     1       9.319  -6.501  -9.839  1.00  0.00     0.013 A 
ATOM     17  C   UNL     1       8.193  -6.631  -9.020  1.00  0.00     0.047 A 
BRANCH  15  18
ATOM     18  O   UNL     1       7.190  -7.370  -6.936  1.00  0.00    -0.508 OA
ATOM     19  H   UNL     1       6.997  -8.235  -6.445  1.00  0.00     0.293 HD
ENDBRANCH  15  18
ENDBRANCH   1  12
BRANCH  11  20
ATOM     20  C   UNL     1      15.878  -4.828 -12.580  1.00  0.00     0.188 C 
ATOM     21  C   UNL     1      16.699  -4.603 -11.269  1.00  0.00     0.179 C 
ATOM     22  O   UNL     1      14.921  -3.786 -12.685  1.00  0.00    -0.362 OA
ATOM     23  C   UNL     1      16.696  -3.113 -10.844  1.00  0.00     0.177 C 
ATOM     24  C   UNL     1      15.533  -2.552 -13.041  1.00  0.00     0.176 C 
ATOM     25  C   UNL     1      16.730  -2.212 -12.094  1.00  0.00     0.177 C 
BRANCH  21  26
ATOM     26  O   UNL     1      18.028  -5.013 -11.483  1.00  0.00    -0.387 OA
ATOM     27  H   UNL     1      18.267  -5.624 -10.738  1.00  0.00     0.211 HD
ENDBRANCH  21  26
BRANCH  23  28
ATOM     28  O   UNL     1      15.542  -2.847 -10.084  1.00  0.00    -0.387 OA
ATOM     29  H   UNL     1      15.794  -2.953  -9.129  1.00  0.00     0.211 HD
ENDBRANCH  23  28
BRANCH  24  30
ATOM     30  C   UNL     1      14.443  -1.469 -13.039  1.00  0.00     0.191 C 
BRANCH  30  31
ATOM     31  O   UNL     1      13.651  -1.597 -11.890  1.00  0.00    -0.394 OA
ATOM     32  H   UNL     1      13.084  -2.398 -12.035  1.00  0.00     0.210 HD
ENDBRANCH  30  31
ENDBRANCH  24  30
BRANCH  25  33
ATOM     33  O   UNL     1      16.743  -0.855 -11.725  1.00  0.00    -0.388 OA
ATOM     34  H   UNL     1      17.684  -0.625 -11.508  1.00  0.00     0.211 HD
ENDBRANCH  25  33
ENDBRANCH  11  20
BRANCH  10  35
ATOM     35  O   UNL     1      16.501  -6.945 -14.597  1.00  0.00    -0.507 OA
ATOM     36  H   UNL     1      17.340  -6.419 -14.382  1.00  0.00     0.293 HD
ENDBRANCH  10  35
TORSDOF 9
ENDMDL
