MODEL 1
REMARK VINA RESULT:    -3.944      0.000      0.000
REMARK INTER + INTRA:          -6.088
REMARK INTER:                  -6.019
REMARK INTRA:                  -0.070
REMARK UNBOUND:                -0.070
REMARK SMILES CC1=CCC[C@@H](C)C(=O)C[C@H](C(C)C)C(=O)C1
REMARK SMILES IDX 8 1 9 2 6 3 7 4 5 5 4 6 3 7 2 8 1 9 10 11 11 12 15 13 16 14
REMARK SMILES IDX 17 15 12 17 13 18 14 19
REMARK H PARENT
REMARK Flexibility Score: 70.00
ROOT
ATOM      1  C   UNL     1       7.722   1.883  -6.359  1.00  0.00     0.136 C 
ATOM      2  O   UNL     1       6.941   1.042  -5.939  1.00  0.00    -0.299 OA
ENDROOT
BRANCH   1   3
ATOM      3  C   UNL     1       8.616   2.643  -5.371  1.00  0.00     0.053 C 
ATOM      4  C   UNL     1       9.354   1.689  -4.415  1.00  0.00     0.016 C 
BRANCH   3   5
ATOM      5  C   UNL     1       7.827   3.704  -4.551  1.00  0.00     0.015 C 
BRANCH   5   6
ATOM      6  C   UNL     1       6.523   4.234  -5.186  1.00  0.00     0.028 C 
BRANCH   6   7
ATOM      7  C   UNL     1       6.535   5.586  -5.874  1.00  0.00    -0.028 C 
ATOM      8  C   UNL     1       6.730   5.852  -7.191  1.00  0.00    -0.070 CG0
ATOM      9  C   UNL     1       6.481   7.266  -7.658  1.00  0.00     0.039 C 
ATOM     10  G   UNL     1       7.317   4.872  -8.194  1.00  0.00     0.000 G0
ENDBRANCH   6   7
ENDBRANCH   5   6
ENDBRANCH   3   5
ENDBRANCH   1   3
BRANCH   1  11
ATOM     11  C   UNL     1       7.819   2.061  -7.870  1.00  0.00     0.087 C 
BRANCH  11  12
ATOM     12  C   UNL     1       6.477   2.382  -8.583  1.00  0.00     0.066 C 
BRANCH  12  13
ATOM     13  C   UNL     1       6.274   3.891  -8.705  1.00  0.00     0.140 C 
ATOM     14  O   UNL     1       5.251   4.319  -9.223  1.00  0.00    -0.299 OA
BRANCH  13  15
ATOM     15  C   UNL     1       7.314   4.882  -8.208  1.00  0.00     0.106 CG0
ATOM     16  G   UNL     1       6.715   5.831  -7.182  1.00  0.00     0.000 G0
ENDBRANCH  13  15
ENDBRANCH  12  13
BRANCH  12  17
ATOM     17  C   UNL     1       6.298   1.642  -9.957  1.00  0.00    -0.006 C 
ATOM     18  C   UNL     1       5.973   0.149  -9.738  1.00  0.00     0.008 C 
ATOM     19  C   UNL     1       7.537   1.733 -10.867  1.00  0.00     0.008 C 
ENDBRANCH  12  17
ENDBRANCH  11  12
ENDBRANCH   1  11
TORSDOF 1
ENDMDL
MODEL 2
REMARK VINA RESULT:    -3.832      1.859      3.984
REMARK INTER + INTRA:          -5.918
REMARK INTER:                  -5.594
REMARK INTRA:                  -0.324
REMARK UNBOUND:                -0.070
REMARK SMILES CC1=CCC[C@@H](C)C(=O)C[C@H](C(C)C)C(=O)C1
REMARK SMILES IDX 8 1 9 2 6 3 7 4 5 5 4 6 3 7 2 8 1 9 10 11 11 12 15 13 16 14
REMARK SMILES IDX 17 15 12 17 13 18 14 19
REMARK H PARENT
REMARK Flexibility Score: 70.00
ROOT
ATOM      1  C   UNL     1       7.219   1.754  -5.777  1.00  0.00     0.136 C 
ATOM      2  O   UNL     1       6.793   0.611  -5.859  1.00  0.00    -0.299 OA
ENDROOT
BRANCH   1   3
ATOM      3  C   UNL     1       8.566   2.009  -5.089  1.00  0.00     0.053 C 
ATOM      4  C   UNL     1       8.557   3.314  -4.274  1.00  0.00     0.016 C 
BRANCH   3   5
ATOM      5  C   UNL     1       9.754   2.023  -6.095  1.00  0.00     0.015 C 
BRANCH   5   6
ATOM      6  C   UNL     1       9.783   0.889  -7.141  1.00  0.00     0.028 C 
BRANCH   6   7
ATOM      7  C   UNL     1       9.923   1.244  -8.610  1.00  0.00    -0.028 C 
ATOM      8  C   UNL     1       8.941   1.570  -9.488  1.00  0.00    -0.070 CG0
ATOM      9  C   UNL     1       9.364   2.091 -10.841  1.00  0.00     0.039 C 
ATOM     10  G   UNL     1       7.459   1.314  -9.264  1.00  0.00     0.000 G0
ENDBRANCH   6   7
ENDBRANCH   5   6
ENDBRANCH   3   5
ENDBRANCH   1   3
BRANCH   1  11
ATOM     11  C   UNL     1       6.411   2.857  -6.450  1.00  0.00     0.087 C 
BRANCH  11  12
ATOM     12  C   UNL     1       7.043   3.443  -7.741  1.00  0.00     0.066 C 
BRANCH  12  13
ATOM     13  C   UNL     1       6.688   2.586  -8.956  1.00  0.00     0.140 C 
ATOM     14  O   UNL     1       5.764   2.928  -9.682  1.00  0.00    -0.299 OA
BRANCH  13  15
ATOM     15  C   UNL     1       7.446   1.311  -9.285  1.00  0.00     0.106 CG0
ATOM     16  G   UNL     1       8.926   1.595  -9.490  1.00  0.00     0.000 G0
ENDBRANCH  13  15
ENDBRANCH  12  13
BRANCH  12  17
ATOM     17  C   UNL     1       6.724   4.963  -7.969  1.00  0.00    -0.006 C 
ATOM     18  C   UNL     1       7.788   5.617  -8.876  1.00  0.00     0.008 C 
ATOM     19  C   UNL     1       6.646   5.774  -6.663  1.00  0.00     0.008 C 
ENDBRANCH  12  17
ENDBRANCH  11  12
ENDBRANCH   1  11
TORSDOF 1
ENDMDL
MODEL 3
REMARK VINA RESULT:    -3.793      1.407      1.836
REMARK INTER + INTRA:          -5.859
REMARK INTER:                  -6.045
REMARK INTRA:                   0.186
REMARK UNBOUND:                -0.070
REMARK SMILES CC1=CCC[C@@H](C)C(=O)C[C@H](C(C)C)C(=O)C1
REMARK SMILES IDX 8 1 9 2 6 3 7 4 5 5 4 6 3 7 2 8 1 9 10 11 11 12 15 13 16 14
REMARK SMILES IDX 17 15 12 17 13 18 14 19
REMARK H PARENT
REMARK Flexibility Score: 70.00
ROOT
ATOM      1  C   UNL     1       6.834   2.153  -6.294  1.00  0.00     0.136 C 
ATOM      2  O   UNL     1       6.536   1.265  -5.507  1.00  0.00    -0.299 OA
ENDROOT
BRANCH   1   3
ATOM      3  C   UNL     1       7.438   3.459  -5.762  1.00  0.00     0.053 C 
ATOM      4  C   UNL     1       8.296   3.225  -4.506  1.00  0.00     0.016 C 
BRANCH   3   5
ATOM      5  C   UNL     1       6.357   4.538  -5.468  1.00  0.00     0.015 C 
BRANCH   5   6
ATOM      6  C   UNL     1       6.721   5.994  -5.831  1.00  0.00     0.028 C 
BRANCH   6   7
ATOM      7  C   UNL     1       6.343   6.528  -7.200  1.00  0.00    -0.028 C 
ATOM      8  C   UNL     1       6.743   6.072  -8.415  1.00  0.00    -0.070 CG0
ATOM      9  C   UNL     1       6.055   6.643  -9.631  1.00  0.00     0.039 C 
ATOM     10  G   UNL     1       7.924   5.142  -8.644  1.00  0.00     0.000 G0
ENDBRANCH   6   7
ENDBRANCH   5   6
ENDBRANCH   3   5
ENDBRANCH   1   3
BRANCH   1  11
ATOM     11  C   UNL     1       6.663   1.864  -7.780  1.00  0.00     0.087 C 
BRANCH  11  12
ATOM     12  C   UNL     1       6.234   3.082  -8.643  1.00  0.00     0.066 C 
BRANCH  12  13
ATOM     13  C   UNL     1       7.456   3.799  -9.214  1.00  0.00     0.140 C 
ATOM     14  O   UNL     1       8.080   3.283 -10.132  1.00  0.00    -0.299 OA
BRANCH  13  15
ATOM     15  C   UNL     1       7.929   5.136  -8.667  1.00  0.00     0.106 CG0
ATOM     16  G   UNL     1       6.753   6.065  -8.411  1.00  0.00     0.000 G0
ENDBRANCH  13  15
ENDBRANCH  12  13
BRANCH  12  17
ATOM     17  C   UNL     1       5.175   2.733  -9.749  1.00  0.00    -0.006 C 
ATOM     18  C   UNL     1       3.792   3.313  -9.387  1.00  0.00     0.008 C 
ATOM     19  C   UNL     1       5.012   1.220  -9.984  1.00  0.00     0.008 C 
ENDBRANCH  12  17
ENDBRANCH  11  12
ENDBRANCH   1  11
TORSDOF 1
ENDMDL
MODEL 4
REMARK VINA RESULT:    -3.736      2.012      3.894
REMARK INTER + INTRA:          -5.772
REMARK INTER:                  -5.694
REMARK INTRA:                  -0.077
REMARK UNBOUND:                -0.070
REMARK SMILES CC1=CCC[C@@H](C)C(=O)C[C@H](C(C)C)C(=O)C1
REMARK SMILES IDX 8 1 9 2 6 3 7 4 5 5 4 6 3 7 2 8 1 9 10 11 11 12 15 13 16 14
REMARK SMILES IDX 17 15 12 17 13 18 14 19
REMARK H PARENT
REMARK Flexibility Score: 70.00
ROOT
ATOM      1  C   UNL     1       7.644   5.275  -8.414  1.00  0.00     0.136 C 
ATOM      2  O   UNL     1       8.807   5.421  -8.067  1.00  0.00    -0.299 OA
ENDROOT
BRANCH   1   3
ATOM      3  C   UNL     1       6.520   5.853  -7.546  1.00  0.00     0.053 C 
ATOM      4  C   UNL     1       6.402   7.380  -7.701  1.00  0.00     0.016 C 
BRANCH   3   5
ATOM      5  C   UNL     1       6.683   5.488  -6.042  1.00  0.00     0.015 C 
BRANCH   5   6
ATOM      6  C   UNL     1       6.143   4.108  -5.607  1.00  0.00     0.028 C 
BRANCH   6   7
ATOM      7  C   UNL     1       7.128   2.999  -5.287  1.00  0.00    -0.028 C 
ATOM      8  C   UNL     1       7.596   2.031  -6.116  1.00  0.00    -0.070 CG0
ATOM      9  C   UNL     1       8.733   1.175  -5.612  1.00  0.00     0.039 C 
ATOM     10  G   UNL     1       6.965   1.653  -7.447  1.00  0.00     0.000 G0
ENDBRANCH   6   7
ENDBRANCH   5   6
ENDBRANCH   3   5
ENDBRANCH   1   3
BRANCH   1  11
ATOM     11  C   UNL     1       7.389   4.593  -9.753  1.00  0.00     0.087 C 
BRANCH  11  12
ATOM     12  C   UNL     1       6.862   3.136  -9.661  1.00  0.00     0.066 C 
BRANCH  12  13
ATOM     13  C   UNL     1       7.650   2.338  -8.623  1.00  0.00     0.140 C 
ATOM     14  O   UNL     1       8.867   2.255  -8.729  1.00  0.00    -0.299 OA
BRANCH  13  15
ATOM     15  C   UNL     1       6.965   1.633  -7.464  1.00  0.00     0.106 CG0
ATOM     16  G   UNL     1       7.595   2.029  -6.138  1.00  0.00     0.000 G0
ENDBRANCH  13  15
ENDBRANCH  12  13
BRANCH  12  17
ATOM     17  C   UNL     1       5.310   3.037  -9.437  1.00  0.00    -0.006 C 
ATOM     18  C   UNL     1       4.727   1.813 -10.174  1.00  0.00     0.008 C 
ATOM     19  C   UNL     1       4.544   4.287  -9.907  1.00  0.00     0.008 C 
ENDBRANCH  12  17
ENDBRANCH  11  12
ENDBRANCH   1  11
TORSDOF 1
ENDMDL
MODEL 5
REMARK VINA RESULT:    -3.591      1.756      4.358
REMARK INTER + INTRA:          -5.550
REMARK INTER:                  -5.198
REMARK INTRA:                  -0.352
REMARK UNBOUND:                -0.070
REMARK SMILES CC1=CCC[C@@H](C)C(=O)C[C@H](C(C)C)C(=O)C1
REMARK SMILES IDX 8 1 9 2 6 3 7 4 5 5 4 6 3 7 2 8 1 9 10 11 11 12 15 13 16 14
REMARK SMILES IDX 17 15 12 17 13 18 14 19
REMARK H PARENT
REMARK Flexibility Score: 70.00
ROOT
ATOM      1  C   UNL     1       6.178   2.071  -8.762  1.00  0.00     0.136 C 
ATOM      2  O   UNL     1       6.420   1.070  -8.104  1.00  0.00    -0.299 OA
ENDROOT
BRANCH   1   3
ATOM      3  C   UNL     1       6.109   1.968 -10.291  1.00  0.00     0.053 C 
ATOM      4  C   UNL     1       5.455   0.652 -10.749  1.00  0.00     0.016 C 
BRANCH   3   5
ATOM      5  C   UNL     1       7.505   2.124 -10.961  1.00  0.00     0.015 C 
BRANCH   5   6
ATOM      6  C   UNL     1       8.063   3.560 -11.060  1.00  0.00     0.028 C 
BRANCH   6   7
ATOM      7  C   UNL     1       7.094   4.726 -11.110  1.00  0.00    -0.028 C 
ATOM      8  C   UNL     1       7.115   5.862 -10.367  1.00  0.00    -0.070 CG0
ATOM      9  C   UNL     1       6.160   6.965 -10.758  1.00  0.00     0.039 C 
ATOM     10  G   UNL     1       7.920   6.047  -9.090  1.00  0.00     0.000 G0
ENDBRANCH   6   7
ENDBRANCH   5   6
ENDBRANCH   3   5
ENDBRANCH   1   3
BRANCH   1  11
ATOM     11  C   UNL     1       5.870   3.356  -8.004  1.00  0.00     0.087 C 
BRANCH  11  12
ATOM     12  C   UNL     1       7.110   4.103  -7.442  1.00  0.00     0.066 C 
BRANCH  12  13
ATOM     13  C   UNL     1       7.103   5.569  -7.875  1.00  0.00     0.140 C 
ATOM     14  O   UNL     1       6.431   6.376  -7.246  1.00  0.00    -0.299 OA
BRANCH  13  15
ATOM     15  C   UNL     1       7.901   6.054  -9.073  1.00  0.00     0.106 CG0
ATOM     16  G   UNL     1       7.129   5.840 -10.365  1.00  0.00     0.000 G0
ENDBRANCH  13  15
ENDBRANCH  12  13
BRANCH  12  17
ATOM     17  C   UNL     1       7.301   3.938  -5.892  1.00  0.00    -0.006 C 
ATOM     18  C   UNL     1       8.408   2.910  -5.581  1.00  0.00     0.008 C 
ATOM     19  C   UNL     1       6.019   3.495  -5.163  1.00  0.00     0.008 C 
ENDBRANCH  12  17
ENDBRANCH  11  12
ENDBRANCH   1  11
TORSDOF 1
ENDMDL
MODEL 6
REMARK VINA RESULT:    -3.583      2.224      2.903
REMARK INTER + INTRA:          -5.537
REMARK INTER:                  -5.605
REMARK INTRA:                   0.067
REMARK UNBOUND:                -0.070
REMARK SMILES CC1=CCC[C@@H](C)C(=O)C[C@H](C(C)C)C(=O)C1
REMARK SMILES IDX 8 1 9 2 6 3 7 4 5 5 4 6 3 7 2 8 1 9 10 11 11 12 15 13 16 14
REMARK SMILES IDX 17 15 12 17 13 18 14 19
REMARK H PARENT
REMARK Flexibility Score: 70.00
ROOT
ATOM      1  C   UNL     1       7.623   3.884  -7.414  1.00  0.00     0.136 C 
ATOM      2  O   UNL     1       8.802   4.180  -7.546  1.00  0.00    -0.299 OA
ENDROOT
BRANCH   1   3
ATOM      3  C   UNL     1       6.938   4.107  -6.060  1.00  0.00     0.053 C 
ATOM      4  C   UNL     1       5.587   3.375  -5.972  1.00  0.00     0.016 C 
BRANCH   3   5
ATOM      5  C   UNL     1       6.742   5.616  -5.734  1.00  0.00     0.015 C 
BRANCH   5   6
ATOM      6  C   UNL     1       6.358   6.531  -6.917  1.00  0.00     0.028 C 
BRANCH   6   7
ATOM      7  C   UNL     1       7.450   7.294  -7.643  1.00  0.00    -0.028 C 
ATOM      8  C   UNL     1       7.516   7.606  -8.962  1.00  0.00    -0.070 CG0
ATOM      9  C   UNL     1       8.604   8.559  -9.397  1.00  0.00     0.039 C 
ATOM     10  G   UNL     1       6.671   6.958 -10.048  1.00  0.00     0.000 G0
ENDBRANCH   6   7
ENDBRANCH   5   6
ENDBRANCH   3   5
ENDBRANCH   1   3
BRANCH   1  11
ATOM     11  C   UNL     1       6.878   3.387  -8.647  1.00  0.00     0.087 C 
BRANCH  11  12
ATOM     12  C   UNL     1       6.024   4.457  -9.378  1.00  0.00     0.066 C 
BRANCH  12  13
ATOM     13  C   UNL     1       6.918   5.449 -10.122  1.00  0.00     0.140 C 
ATOM     14  O   UNL     1       7.860   5.029 -10.781  1.00  0.00    -0.299 OA
BRANCH  13  15
ATOM     15  C   UNL     1       6.676   6.948 -10.060  1.00  0.00     0.106 CG0
ATOM     16  G   UNL     1       7.519   7.591  -8.971  1.00  0.00     0.000 G0
ENDBRANCH  13  15
ENDBRANCH  12  13
BRANCH  12  17
ATOM     17  C   UNL     1       4.904   3.854 -10.299  1.00  0.00    -0.006 C 
ATOM     18  C   UNL     1       3.597   3.644  -9.507  1.00  0.00     0.008 C 
ATOM     19  C   UNL     1       5.298   2.510 -10.938  1.00  0.00     0.008 C 
ENDBRANCH  12  17
ENDBRANCH  11  12
ENDBRANCH   1  11
TORSDOF 1
ENDMDL
MODEL 7
REMARK VINA RESULT:    -3.563      2.239      4.141
REMARK INTER + INTRA:          -5.507
REMARK INTER:                  -5.314
REMARK INTRA:                  -0.193
REMARK UNBOUND:                -0.070
REMARK SMILES CC1=CCC[C@@H](C)C(=O)C[C@H](C(C)C)C(=O)C1
REMARK SMILES IDX 8 1 9 2 6 3 7 4 5 5 4 6 3 7 2 8 1 9 10 11 11 12 15 13 16 14
REMARK SMILES IDX 17 15 12 17 13 18 14 19
REMARK H PARENT
REMARK Flexibility Score: 70.00
ROOT
ATOM      1  C   UNL     1       6.819   4.191  -6.509  1.00  0.00     0.136 C 
ATOM      2  O   UNL     1       7.131   5.370  -6.433  1.00  0.00    -0.299 OA
ENDROOT
BRANCH   1   3
ATOM      3  C   UNL     1       7.068   3.267  -5.310  1.00  0.00     0.053 C 
ATOM      4  C   UNL     1       7.512   4.052  -4.063  1.00  0.00     0.016 C 
BRANCH   3   5
ATOM      5  C   UNL     1       8.104   2.149  -5.625  1.00  0.00     0.015 C 
BRANCH   5   6
ATOM      6  C   UNL     1       9.128   2.455  -6.739  1.00  0.00     0.028 C 
BRANCH   6   7
ATOM      7  C   UNL     1       9.455   1.378  -7.756  1.00  0.00    -0.028 C 
ATOM      8  C   UNL     1       8.771   1.059  -8.885  1.00  0.00    -0.070 CG0
ATOM      9  C   UNL     1       9.423   0.088  -9.841  1.00  0.00     0.039 C 
ATOM     10  G   UNL     1       7.344   1.492  -9.184  1.00  0.00     0.000 G0
ENDBRANCH   6   7
ENDBRANCH   5   6
ENDBRANCH   3   5
ENDBRANCH   1   3
BRANCH   1  11
ATOM     11  C   UNL     1       6.113   3.729  -7.778  1.00  0.00     0.087 C 
BRANCH  11  12
ATOM     12  C   UNL     1       6.833   4.095  -9.104  1.00  0.00     0.066 C 
BRANCH  12  13
ATOM     13  C   UNL     1       7.258   2.835  -9.857  1.00  0.00     0.140 C 
ATOM     14  O   UNL     1       7.550   2.915 -11.043  1.00  0.00    -0.299 OA
BRANCH  13  15
ATOM     15  C   UNL     1       7.320   1.478  -9.176  1.00  0.00     0.106 CG0
ATOM     16  G   UNL     1       8.759   1.078  -8.891  1.00  0.00     0.000 G0
ENDBRANCH  13  15
ENDBRANCH  12  13
BRANCH  12  17
ATOM     17  C   UNL     1       6.023   5.089 -10.011  1.00  0.00    -0.006 C 
ATOM     18  C   UNL     1       6.030   6.510  -9.410  1.00  0.00     0.008 C 
ATOM     19  C   UNL     1       4.557   4.667 -10.223  1.00  0.00     0.008 C 
ENDBRANCH  12  17
ENDBRANCH  11  12
ENDBRANCH   1  11
TORSDOF 1
ENDMDL
MODEL 8
REMARK VINA RESULT:    -3.544      2.311      5.240
REMARK INTER + INTRA:          -5.478
REMARK INTER:                  -5.586
REMARK INTRA:                   0.107
REMARK UNBOUND:                -0.070
REMARK SMILES CC1=CCC[C@@H](C)C(=O)C[C@H](C(C)C)C(=O)C1
REMARK SMILES IDX 8 1 9 2 6 3 7 4 5 5 4 6 3 7 2 8 1 9 10 11 11 12 15 13 16 14
REMARK SMILES IDX 17 15 12 17 13 18 14 19
REMARK H PARENT
REMARK Flexibility Score: 70.00
ROOT
ATOM      1  C   UNL     1       5.712   4.343 -10.178  1.00  0.00     0.136 C 
ATOM      2  O   UNL     1       6.445   4.801 -11.043  1.00  0.00    -0.299 OA
ENDROOT
BRANCH   1   3
ATOM      3  C   UNL     1       4.726   3.225 -10.541  1.00  0.00     0.053 C 
ATOM      4  C   UNL     1       3.304   3.529 -10.037  1.00  0.00     0.016 C 
BRANCH   3   5
ATOM      5  C   UNL     1       5.185   1.834 -10.015  1.00  0.00     0.015 C 
BRANCH   5   6
ATOM      6  C   UNL     1       6.583   1.356 -10.463  1.00  0.00     0.028 C 
BRANCH   6   7
ATOM      7  C   UNL     1       7.596   0.952  -9.408  1.00  0.00    -0.028 C 
ATOM      8  C   UNL     1       8.523   1.733  -8.797  1.00  0.00    -0.070 CG0
ATOM      9  C   UNL     1       9.270   1.138  -7.627  1.00  0.00     0.039 C 
ATOM     10  G   UNL     1       8.964   3.102  -9.292  1.00  0.00     0.000 G0
ENDBRANCH   6   7
ENDBRANCH   5   6
ENDBRANCH   3   5
ENDBRANCH   1   3
BRANCH   1  11
ATOM     11  C   UNL     1       5.891   4.861  -8.756  1.00  0.00     0.087 C 
BRANCH  11  12
ATOM     12  C   UNL     1       6.933   4.091  -7.900  1.00  0.00     0.066 C 
BRANCH  12  13
ATOM     13  C   UNL     1       8.333   4.230  -8.495  1.00  0.00     0.140 C 
ATOM     14  O   UNL     1       8.957   5.270  -8.324  1.00  0.00    -0.299 OA
BRANCH  13  15
ATOM     15  C   UNL     1       8.975   3.115  -9.303  1.00  0.00     0.106 CG0
ATOM     16  G   UNL     1       8.525   1.751  -8.802  1.00  0.00     0.000 G0
ENDBRANCH  13  15
ENDBRANCH  12  13
BRANCH  12  17
ATOM     17  C   UNL     1       6.893   4.456  -6.373  1.00  0.00    -0.006 C 
ATOM     18  C   UNL     1       5.964   3.495  -5.603  1.00  0.00     0.008 C 
ATOM     19  C   UNL     1       6.420   5.897  -6.102  1.00  0.00     0.008 C 
ENDBRANCH  12  17
ENDBRANCH  11  12
ENDBRANCH   1  11
TORSDOF 1
ENDMDL
MODEL 9
REMARK VINA RESULT:    -3.456      1.743      2.216
REMARK INTER + INTRA:          -5.344
REMARK INTER:                  -5.320
REMARK INTRA:                  -0.025
REMARK UNBOUND:                -0.070
REMARK SMILES CC1=CCC[C@@H](C)C(=O)C[C@H](C(C)C)C(=O)C1
REMARK SMILES IDX 8 1 9 2 6 3 7 4 5 5 4 6 3 7 2 8 1 9 10 11 11 12 15 13 16 14
REMARK SMILES IDX 17 15 12 17 13 18 14 19
REMARK H PARENT
REMARK Flexibility Score: 70.00
ROOT
ATOM      1  C   UNL     1       8.561   1.529  -6.098  1.00  0.00     0.136 C 
ATOM      2  O   UNL     1       8.004   0.564  -5.594  1.00  0.00    -0.299 OA
ENDROOT
BRANCH   1   3
ATOM      3  C   UNL     1       8.668   2.836  -5.304  1.00  0.00     0.053 C 
ATOM      4  C   UNL     1       9.469   2.654  -4.002  1.00  0.00     0.016 C 
BRANCH   3   5
ATOM      5  C   UNL     1       7.276   3.454  -4.983  1.00  0.00     0.015 C 
BRANCH   5   6
ATOM      6  C   UNL     1       6.744   4.506  -5.980  1.00  0.00     0.028 C 
BRANCH   6   7
ATOM      7  C   UNL     1       5.781   4.069  -7.067  1.00  0.00    -0.028 C 
ATOM      8  C   UNL     1       6.050   3.829  -8.376  1.00  0.00    -0.070 CG0
ATOM      9  C   UNL     1       4.957   3.199  -9.206  1.00  0.00     0.039 C 
ATOM     10  G   UNL     1       7.311   4.279  -9.097  1.00  0.00     0.000 G0
ENDBRANCH   6   7
ENDBRANCH   5   6
ENDBRANCH   3   5
ENDBRANCH   1   3
BRANCH   1  11
ATOM     11  C   UNL     1       9.198   1.338  -7.470  1.00  0.00     0.087 C 
BRANCH  11  12
ATOM     12  C   UNL     1       8.364   1.877  -8.664  1.00  0.00     0.066 C 
BRANCH  12  13
ATOM     13  C   UNL     1       8.498   3.395  -8.778  1.00  0.00     0.140 C 
ATOM     14  O   UNL     1       9.588   3.917  -8.584  1.00  0.00    -0.299 OA
BRANCH  13  15
ATOM     15  C   UNL     1       7.310   4.280  -9.116  1.00  0.00     0.106 CG0
ATOM     16  G   UNL     1       6.063   3.824  -8.377  1.00  0.00     0.000 G0
ENDBRANCH  13  15
ENDBRANCH  12  13
BRANCH  12  17
ATOM     17  C   UNL     1       8.660   1.147 -10.023  1.00  0.00    -0.006 C 
ATOM     18  C   UNL     1       7.368   0.985 -10.851  1.00  0.00     0.008 C 
ATOM     19  C   UNL     1       9.291  -0.246  -9.844  1.00  0.00     0.008 C 
ENDBRANCH  12  17
ENDBRANCH  11  12
ENDBRANCH   1  11
TORSDOF 1
ENDMDL
