MODEL 1
REMARK VINA RESULT:    -3.151      0.000      0.000
REMARK INTER + INTRA:          -3.529
REMARK INTER:                  -3.519
REMARK INTRA:                  -0.010
REMARK UNBOUND:                -0.010
REMARK SMILES CCCC(=O)[O-]
REMARK SMILES IDX 3 1 4 2 5 3 6 4 2 5 1 6
REMARK H PARENT
REMARK Flexibility Score: inf
ROOT
ATOM      1  C   UNL     1       7.686  -1.895  46.741  1.00  0.00     0.052 C 
ENDROOT
BRANCH   1   2
ATOM      2  C   UNL     1       6.491  -1.034  46.472  1.00  0.00     0.041 C 
ATOM      3  O   UNL     1       6.462   0.157  46.878  1.00  0.00    -0.550 OA
ATOM      4  O   UNL     1       5.421  -1.538  45.743  1.00  0.00    -0.550 OA
ENDBRANCH   1   2
BRANCH   1   5
ATOM      5  C   UNL     1       8.197  -1.725  48.178  1.00  0.00     0.003 C 
ATOM      6  C   UNL     1       9.565  -2.373  48.390  1.00  0.00     0.004 C 
ENDBRANCH   1   5
TORSDOF 2
ENDMDL
MODEL 2
REMARK VINA RESULT:    -3.145      2.854      3.754
REMARK INTER + INTRA:          -3.522
REMARK INTER:                  -3.512
REMARK INTRA:                  -0.010
REMARK UNBOUND:                -0.010
REMARK SMILES CCCC(=O)[O-]
REMARK SMILES IDX 3 1 4 2 5 3 6 4 2 5 1 6
REMARK H PARENT
REMARK Flexibility Score: inf
ROOT
ATOM      1  C   UNL     1       8.184  -1.839  47.629  1.00  0.00     0.052 C 
ENDROOT
BRANCH   1   2
ATOM      2  C   UNL     1       8.824  -2.300  48.901  1.00  0.00     0.041 C 
ATOM      3  O   UNL     1      10.026  -2.674  48.908  1.00  0.00    -0.550 OA
ATOM      4  O   UNL     1       8.102  -2.286  50.088  1.00  0.00    -0.550 OA
ENDBRANCH   1   2
BRANCH   1   5
ATOM      5  C   UNL     1       6.861  -1.107  47.891  1.00  0.00     0.003 C 
ATOM      6  C   UNL     1       6.559  -0.051  46.828  1.00  0.00     0.004 C 
ENDBRANCH   1   5
TORSDOF 2
ENDMDL
MODEL 3
REMARK VINA RESULT:    -3.118      0.121      1.327
REMARK INTER + INTRA:          -3.492
REMARK INTER:                  -3.483
REMARK INTRA:                  -0.009
REMARK UNBOUND:                -0.010
REMARK SMILES CCCC(=O)[O-]
REMARK SMILES IDX 3 1 4 2 5 3 6 4 2 5 1 6
REMARK H PARENT
REMARK Flexibility Score: inf
ROOT
ATOM      1  C   UNL     1       7.693  -2.048  46.802  1.00  0.00     0.052 C 
ENDROOT
BRANCH   1   2
ATOM      2  C   UNL     1       6.531  -1.169  46.459  1.00  0.00     0.041 C 
ATOM      3  O   UNL     1       5.559  -1.627  45.805  1.00  0.00    -0.550 OA
ATOM      4  O   UNL     1       6.507   0.152  46.890  1.00  0.00    -0.550 OA
ENDBRANCH   1   2
BRANCH   1   5
ATOM      5  C   UNL     1       8.242  -1.743  48.201  1.00  0.00     0.003 C 
ATOM      6  C   UNL     1       9.605  -2.392  48.446  1.00  0.00     0.004 C 
ENDBRANCH   1   5
TORSDOF 2
ENDMDL
MODEL 4
REMARK VINA RESULT:    -3.086      1.751      2.544
REMARK INTER + INTRA:          -3.457
REMARK INTER:                  -3.441
REMARK INTRA:                  -0.016
REMARK UNBOUND:                -0.010
REMARK SMILES CCCC(=O)[O-]
REMARK SMILES IDX 3 1 4 2 5 3 6 4 2 5 1 6
REMARK H PARENT
REMARK Flexibility Score: inf
ROOT
ATOM      1  C   UNL     1       5.515  -1.834  47.943  1.00  0.00     0.052 C 
ENDROOT
BRANCH   1   2
ATOM      2  C   UNL     1       5.880  -1.018  46.741  1.00  0.00     0.041 C 
ATOM      3  O   UNL     1       5.490  -1.366  45.596  1.00  0.00    -0.550 OA
ATOM      4  O   UNL     1       6.624   0.145  46.890  1.00  0.00    -0.550 OA
ENDBRANCH   1   2
BRANCH   1   5
ATOM      5  C   UNL     1       6.532  -1.659  49.078  1.00  0.00     0.003 C 
ATOM      6  C   UNL     1       5.889  -1.779  50.459  1.00  0.00     0.004 C 
ENDBRANCH   1   5
TORSDOF 2
ENDMDL
MODEL 5
REMARK VINA RESULT:    -3.051      2.378      3.397
REMARK INTER + INTRA:          -3.417
REMARK INTER:                  -3.382
REMARK INTRA:                  -0.035
REMARK UNBOUND:                -0.010
REMARK SMILES CCCC(=O)[O-]
REMARK SMILES IDX 3 1 4 2 5 3 6 4 2 5 1 6
REMARK H PARENT
REMARK Flexibility Score: inf
ROOT
ATOM      1  C   UNL     1       7.683  -1.207  47.720  1.00  0.00     0.052 C 
ENDROOT
BRANCH   1   2
ATOM      2  C   UNL     1       7.332  -1.767  49.064  1.00  0.00     0.041 C 
ATOM      3  O   UNL     1       8.198  -2.380  49.742  1.00  0.00    -0.550 OA
ATOM      4  O   UNL     1       6.057  -1.582  49.582  1.00  0.00    -0.550 OA
ENDBRANCH   1   2
BRANCH   1   5
ATOM      5  C   UNL     1       6.523  -0.402  47.120  1.00  0.00     0.003 C 
ATOM      6  C   UNL     1       5.737  -1.200  46.080  1.00  0.00     0.004 C 
ENDBRANCH   1   5
TORSDOF 2
ENDMDL
MODEL 6
REMARK VINA RESULT:    -3.026      1.624      2.216
REMARK INTER + INTRA:          -3.390
REMARK INTER:                  -3.319
REMARK INTRA:                  -0.071
REMARK UNBOUND:                -0.010
REMARK SMILES CCCC(=O)[O-]
REMARK SMILES IDX 3 1 4 2 5 3 6 4 2 5 1 6
REMARK H PARENT
REMARK Flexibility Score: inf
ROOT
ATOM      1  C   UNL     1       5.875  -0.709  47.247  1.00  0.00     0.052 C 
ENDROOT
BRANCH   1   2
ATOM      2  C   UNL     1       5.289  -2.038  46.881  1.00  0.00     0.041 C 
ATOM      3  O   UNL     1       5.326  -2.442  45.690  1.00  0.00    -0.550 OA
ATOM      4  O   UNL     1       4.729  -2.844  47.864  1.00  0.00    -0.550 OA
ENDBRANCH   1   2
BRANCH   1   5
ATOM      5  C   UNL     1       7.396  -0.685  47.049  1.00  0.00     0.003 C 
ATOM      6  C   UNL     1       8.121  -1.641  47.997  1.00  0.00     0.004 C 
ENDBRANCH   1   5
TORSDOF 2
ENDMDL
MODEL 7
REMARK VINA RESULT:    -3.003     12.796     13.606
REMARK INTER + INTRA:          -3.364
REMARK INTER:                  -3.326
REMARK INTRA:                  -0.038
REMARK UNBOUND:                -0.010
REMARK SMILES CCCC(=O)[O-]
REMARK SMILES IDX 3 1 4 2 5 3 6 4 2 5 1 6
REMARK H PARENT
REMARK Flexibility Score: inf
ROOT
ATOM      1  C   UNL     1      -2.898   2.768  38.609  1.00  0.00     0.052 C 
ENDROOT
BRANCH   1   2
ATOM      2  C   UNL     1      -1.811   3.749  38.292  1.00  0.00     0.041 C 
ATOM      3  O   UNL     1      -0.777   3.376  37.679  1.00  0.00    -0.550 OA
ATOM      4  O   UNL     1      -1.957   5.085  38.645  1.00  0.00    -0.550 OA
ENDBRANCH   1   2
BRANCH   1   5
ATOM      5  C   UNL     1      -2.568   1.366  38.081  1.00  0.00     0.003 C 
ATOM      6  C   UNL     1      -2.106   0.420  39.190  1.00  0.00     0.004 C 
ENDBRANCH   1   5
TORSDOF 2
ENDMDL
MODEL 8
REMARK VINA RESULT:    -2.963     11.899     13.041
REMARK INTER + INTRA:          -3.319
REMARK INTER:                  -3.287
REMARK INTRA:                  -0.033
REMARK UNBOUND:                -0.010
REMARK SMILES CCCC(=O)[O-]
REMARK SMILES IDX 3 1 4 2 5 3 6 4 2 5 1 6
REMARK H PARENT
REMARK Flexibility Score: inf
ROOT
ATOM      1  C   UNL     1      -2.598   0.747  38.403  1.00  0.00     0.052 C 
ENDROOT
BRANCH   1   2
ATOM      2  C   UNL     1      -2.889   2.158  38.813  1.00  0.00     0.041 C 
ATOM      3  O   UNL     1      -3.105   2.437  40.021  1.00  0.00    -0.550 OA
ATOM      4  O   UNL     1      -2.888   3.172  37.863  1.00  0.00    -0.550 OA
ENDBRANCH   1   2
BRANCH   1   5
ATOM      5  C   UNL     1      -2.580  -0.202  39.608  1.00  0.00     0.003 C 
ATOM      6  C   UNL     1      -1.220  -0.875  39.798  1.00  0.00     0.004 C 
ENDBRANCH   1   5
TORSDOF 2
ENDMDL
MODEL 9
REMARK VINA RESULT:    -2.794      2.090      2.940
REMARK INTER + INTRA:          -3.131
REMARK INTER:                  -3.093
REMARK INTRA:                  -0.038
REMARK UNBOUND:                -0.010
REMARK SMILES CCCC(=O)[O-]
REMARK SMILES IDX 3 1 4 2 5 3 6 4 2 5 1 6
REMARK H PARENT
REMARK Flexibility Score: inf
ROOT
ATOM      1  C   UNL     1       5.874  -1.483  48.239  1.00  0.00     0.052 C 
ENDROOT
BRANCH   1   2
ATOM      2  C   UNL     1       6.089  -0.844  46.902  1.00  0.00     0.041 C 
ATOM      3  O   UNL     1       5.548  -1.326  45.874  1.00  0.00    -0.550 OA
ATOM      4  O   UNL     1       6.863   0.305  46.798  1.00  0.00    -0.550 OA
ENDBRANCH   1   2
BRANCH   1   5
ATOM      5  C   UNL     1       5.790  -3.011  48.132  1.00  0.00     0.003 C 
ATOM      6  C   UNL     1       4.440  -3.554  48.598  1.00  0.00     0.004 C 
ENDBRANCH   1   5
TORSDOF 2
ENDMDL
