MODEL 1
REMARK VINA RESULT:    -3.986      0.000      0.000
REMARK INTER + INTRA:         -12.437
REMARK INTER:                  -8.647
REMARK INTRA:                  -3.790
REMARK UNBOUND:                -3.790
REMARK SMILES CCCCCCCCCCCCCCCCCCCCCC(=O)[O-]
REMARK SMILES IDX 12 1 11 2 10 3 9 4 8 5 7 6 6 7 5 8 4 9 3 10 2 11 1 12 13 13
REMARK SMILES IDX 14 14 15 15 16 16 17 17 18 18 19 19 20 20 21 21 22 22 23 23
REMARK SMILES IDX 24 24
REMARK H PARENT
REMARK Flexibility Score: inf
ROOT
ATOM      1  C   UNL     1      18.390  30.568  44.991  1.00  0.00     0.000 C 
ENDROOT
BRANCH   1   2
ATOM      2  C   UNL     1      19.481  31.223  44.135  1.00  0.00     0.000 C 
BRANCH   2   3
ATOM      3  C   UNL     1      19.264  32.741  44.034  1.00  0.00     0.000 C 
BRANCH   3   4
ATOM      4  C   UNL     1      18.152  33.250  44.969  1.00  0.00    -0.000 C 
BRANCH   4   5
ATOM      5  C   UNL     1      18.585  34.355  45.953  1.00  0.00    -0.000 C 
BRANCH   5   6
ATOM      6  C   UNL     1      18.803  33.888  47.406  1.00  0.00    -0.000 C 
BRANCH   6   7
ATOM      7  C   UNL     1      19.931  34.615  48.165  1.00  0.00    -0.000 C 
BRANCH   7   8
ATOM      8  C   UNL     1      21.301  33.912  48.125  1.00  0.00    -0.000 C 
BRANCH   8   9
ATOM      9  C   UNL     1      21.278  32.474  47.572  1.00  0.00    -0.000 C 
BRANCH   9  10
ATOM     10  C   UNL     1      22.630  31.740  47.687  1.00  0.00    -0.000 C 
BRANCH  10  11
ATOM     11  C   UNL     1      22.782  30.988  49.017  1.00  0.00    -0.003 C 
ATOM     12  C   UNL     1      22.537  29.492  48.836  1.00  0.00     0.004 C 
ENDBRANCH  10  11
ENDBRANCH   9  10
ENDBRANCH   8   9
ENDBRANCH   7   8
ENDBRANCH   6   7
ENDBRANCH   5   6
ENDBRANCH   4   5
ENDBRANCH   3   4
ENDBRANCH   2   3
ENDBRANCH   1   2
BRANCH   1  13
ATOM     13  C   UNL     1      18.988  29.938  46.257  1.00  0.00     0.000 C 
BRANCH  13  14
ATOM     14  C   UNL     1      18.160  30.236  47.520  1.00  0.00     0.000 C 
BRANCH  14  15
ATOM     15  C   UNL     1      18.902  30.012  48.854  1.00  0.00     0.000 C 
BRANCH  15  16
ATOM     16  C   UNL     1      18.533  30.993  49.986  1.00  0.00     0.000 C 
BRANCH  16  17
ATOM     17  C   UNL     1      19.709  31.422  50.882  1.00  0.00     0.000 C 
BRANCH  17  18
ATOM     18  C   UNL     1      19.560  32.855  51.415  1.00  0.00     0.000 C 
BRANCH  18  19
ATOM     19  C   UNL     1      20.920  33.428  51.840  1.00  0.00     0.000 C 
BRANCH  19  20
ATOM     20  C   UNL     1      20.983  34.959  51.724  1.00  0.00     0.006 C 
BRANCH  20  21
ATOM     21  C   UNL     1      21.142  35.651  53.083  1.00  0.00     0.053 C 
BRANCH  21  22
ATOM     22  C   UNL     1      19.906  36.421  53.428  1.00  0.00     0.041 C 
ATOM     23  O   UNL     1      18.821  35.815  53.633  1.00  0.00    -0.550 OA
ATOM     24  O   UNL     1      19.942  37.808  53.483  1.00  0.00    -0.550 OA
ENDBRANCH  21  22
ENDBRANCH  20  21
ENDBRANCH  19  20
ENDBRANCH  18  19
ENDBRANCH  17  18
ENDBRANCH  16  17
ENDBRANCH  15  16
ENDBRANCH  14  15
ENDBRANCH  13  14
ENDBRANCH   1  13
TORSDOF 20
ENDMDL
MODEL 2
REMARK VINA RESULT:    -3.952      2.764      4.498
REMARK INTER + INTRA:         -12.363
REMARK INTER:                  -8.535
REMARK INTRA:                  -3.827
REMARK UNBOUND:                -3.790
REMARK SMILES CCCCCCCCCCCCCCCCCCCCCC(=O)[O-]
REMARK SMILES IDX 12 1 11 2 10 3 9 4 8 5 7 6 6 7 5 8 4 9 3 10 2 11 1 12 13 13
REMARK SMILES IDX 14 14 15 15 16 16 17 17 18 18 19 19 20 20 21 21 22 22 23 23
REMARK SMILES IDX 24 24
REMARK H PARENT
REMARK Flexibility Score: inf
ROOT
ATOM      1  C   UNL     1      17.988  31.342  46.546  1.00  0.00     0.000 C 
ENDROOT
BRANCH   1   2
ATOM      2  C   UNL     1      18.861  30.428  45.678  1.00  0.00     0.000 C 
BRANCH   2   3
ATOM      3  C   UNL     1      18.997  30.987  44.253  1.00  0.00     0.000 C 
BRANCH   3   4
ATOM      4  C   UNL     1      20.223  31.903  44.085  1.00  0.00    -0.000 C 
BRANCH   4   5
ATOM      5  C   UNL     1      19.900  33.406  43.958  1.00  0.00    -0.000 C 
BRANCH   5   6
ATOM      6  C   UNL     1      20.467  34.293  45.083  1.00  0.00    -0.000 C 
BRANCH   6   7
ATOM      7  C   UNL     1      19.416  35.103  45.869  1.00  0.00    -0.000 C 
BRANCH   7   8
ATOM      8  C   UNL     1      19.284  34.729  47.357  1.00  0.00    -0.000 C 
BRANCH   8   9
ATOM      9  C   UNL     1      20.621  34.553  48.104  1.00  0.00    -0.000 C 
BRANCH   9  10
ATOM     10  C   UNL     1      20.488  34.606  49.641  1.00  0.00    -0.000 C 
BRANCH  10  11
ATOM     11  C   UNL     1      20.701  33.233  50.298  1.00  0.00    -0.003 C 
ATOM     12  C   UNL     1      19.858  33.092  51.563  1.00  0.00     0.004 C 
ENDBRANCH  10  11
ENDBRANCH   9  10
ENDBRANCH   8   9
ENDBRANCH   7   8
ENDBRANCH   6   7
ENDBRANCH   5   6
ENDBRANCH   4   5
ENDBRANCH   3   4
ENDBRANCH   2   3
ENDBRANCH   1   2
BRANCH   1  13
ATOM     13  C   UNL     1      18.383  31.237  48.026  1.00  0.00     0.000 C 
BRANCH  13  14
ATOM     14  C   UNL     1      18.961  29.858  48.393  1.00  0.00     0.000 C 
BRANCH  14  15
ATOM     15  C   UNL     1      19.593  29.771  49.797  1.00  0.00     0.000 C 
BRANCH  15  16
ATOM     16  C   UNL     1      20.945  29.030  49.866  1.00  0.00     0.000 C 
BRANCH  16  17
ATOM     17  C   UNL     1      21.855  29.224  48.639  1.00  0.00     0.000 C 
BRANCH  17  18
ATOM     18  C   UNL     1      22.503  30.615  48.591  1.00  0.00     0.000 C 
BRANCH  18  19
ATOM     19  C   UNL     1      22.120  31.356  47.301  1.00  0.00     0.000 C 
BRANCH  19  20
ATOM     20  C   UNL     1      23.171  32.394  46.877  1.00  0.00     0.006 C 
BRANCH  20  21
ATOM     21  C   UNL     1      24.584  32.038  47.358  1.00  0.00     0.053 C 
BRANCH  21  22
ATOM     22  C   UNL     1      25.101  33.088  48.289  1.00  0.00     0.041 C 
ATOM     23  O   UNL     1      24.312  33.928  48.796  1.00  0.00    -0.550 OA
ATOM     24  O   UNL     1      26.460  33.164  48.568  1.00  0.00    -0.550 OA
ENDBRANCH  21  22
ENDBRANCH  20  21
ENDBRANCH  19  20
ENDBRANCH  18  19
ENDBRANCH  17  18
ENDBRANCH  16  17
ENDBRANCH  15  16
ENDBRANCH  14  15
ENDBRANCH  13  14
ENDBRANCH   1  13
TORSDOF 20
ENDMDL
MODEL 3
REMARK VINA RESULT:    -3.947      2.416      4.941
REMARK INTER + INTRA:         -12.351
REMARK INTER:                  -8.625
REMARK INTRA:                  -3.726
REMARK UNBOUND:                -3.790
REMARK SMILES CCCCCCCCCCCCCCCCCCCCCC(=O)[O-]
REMARK SMILES IDX 12 1 11 2 10 3 9 4 8 5 7 6 6 7 5 8 4 9 3 10 2 11 1 12 13 13
REMARK SMILES IDX 14 14 15 15 16 16 17 17 18 18 19 19 20 20 21 21 22 22 23 23
REMARK SMILES IDX 24 24
REMARK H PARENT
REMARK Flexibility Score: inf
ROOT
ATOM      1  C   UNL     1      19.634  31.427  44.140  1.00  0.00     0.000 C 
ENDROOT
BRANCH   1   2
ATOM      2  C   UNL     1      18.628  30.297  43.888  1.00  0.00     0.000 C 
BRANCH   2   3
ATOM      3  C   UNL     1      18.360  29.501  45.174  1.00  0.00     0.000 C 
BRANCH   3   4
ATOM      4  C   UNL     1      19.353  29.834  46.302  1.00  0.00    -0.000 C 
BRANCH   4   5
ATOM      5  C   UNL     1      18.711  30.381  47.594  1.00  0.00    -0.000 C 
BRANCH   5   6
ATOM      6  C   UNL     1      18.890  29.491  48.839  1.00  0.00    -0.000 C 
BRANCH   6   7
ATOM      7  C   UNL     1      20.304  28.902  49.025  1.00  0.00    -0.000 C 
BRANCH   7   8
ATOM      8  C   UNL     1      21.302  29.821  49.754  1.00  0.00    -0.000 C 
BRANCH   8   9
ATOM      9  C   UNL     1      20.736  30.542  50.992  1.00  0.00    -0.000 C 
BRANCH   9  10
ATOM     10  C   UNL     1      21.146  32.026  51.091  1.00  0.00    -0.000 C 
BRANCH  10  11
ATOM     11  C   UNL     1      19.979  32.933  51.512  1.00  0.00    -0.003 C 
ATOM     12  C   UNL     1      18.643  32.368  51.037  1.00  0.00     0.004 C 
ENDBRANCH  10  11
ENDBRANCH   9  10
ENDBRANCH   8   9
ENDBRANCH   7   8
ENDBRANCH   6   7
ENDBRANCH   5   6
ENDBRANCH   4   5
ENDBRANCH   3   4
ENDBRANCH   2   3
ENDBRANCH   1   2
BRANCH   1  13
ATOM     13  C   UNL     1      18.976  32.802  43.959  1.00  0.00     0.000 C 
BRANCH  13  14
ATOM     14  C   UNL     1      18.386  33.358  45.268  1.00  0.00     0.000 C 
BRANCH  14  15
ATOM     15  C   UNL     1      19.129  34.579  45.849  1.00  0.00     0.000 C 
BRANCH  15  16
ATOM     16  C   UNL     1      19.493  34.478  47.344  1.00  0.00     0.000 C 
BRANCH  16  17
ATOM     17  C   UNL     1      20.512  33.377  47.692  1.00  0.00     0.000 C 
BRANCH  17  18
ATOM     18  C   UNL     1      21.658  33.282  46.675  1.00  0.00     0.000 C 
BRANCH  18  19
ATOM     19  C   UNL     1      22.393  31.939  46.797  1.00  0.00     0.000 C 
BRANCH  19  20
ATOM     20  C   UNL     1      23.431  31.929  47.930  1.00  0.00     0.006 C 
BRANCH  20  21
ATOM     21  C   UNL     1      24.541  32.967  47.726  1.00  0.00     0.053 C 
BRANCH  21  22
ATOM     22  C   UNL     1      24.646  33.865  48.919  1.00  0.00     0.041 C 
ATOM     23  O   UNL     1      25.768  34.095  49.441  1.00  0.00    -0.550 OA
ATOM     24  O   UNL     1      23.499  34.416  49.478  1.00  0.00    -0.550 OA
ENDBRANCH  21  22
ENDBRANCH  20  21
ENDBRANCH  19  20
ENDBRANCH  18  19
ENDBRANCH  17  18
ENDBRANCH  16  17
ENDBRANCH  15  16
ENDBRANCH  14  15
ENDBRANCH  13  14
ENDBRANCH   1  13
TORSDOF 20
ENDMDL
MODEL 4
REMARK VINA RESULT:    -3.910      1.442      3.918
REMARK INTER + INTRA:         -12.272
REMARK INTER:                  -8.314
REMARK INTRA:                  -3.958
REMARK UNBOUND:                -3.790
REMARK SMILES CCCCCCCCCCCCCCCCCCCCCC(=O)[O-]
REMARK SMILES IDX 12 1 11 2 10 3 9 4 8 5 7 6 6 7 5 8 4 9 3 10 2 11 1 12 13 13
REMARK SMILES IDX 14 14 15 15 16 16 17 17 18 18 19 19 20 20 21 21 22 22 23 23
REMARK SMILES IDX 24 24
REMARK H PARENT
REMARK Flexibility Score: inf
ROOT
ATOM      1  C   UNL     1      19.080  30.977  45.628  1.00  0.00     0.000 C 
ENDROOT
BRANCH   1   2
ATOM      2  C   UNL     1      18.025  31.669  46.500  1.00  0.00     0.000 C 
BRANCH   2   3
ATOM      3  C   UNL     1      17.907  30.983  47.870  1.00  0.00     0.000 C 
BRANCH   3   4
ATOM      4  C   UNL     1      18.263  31.918  49.040  1.00  0.00    -0.000 C 
BRANCH   4   5
ATOM      5  C   UNL     1      18.633  31.203  50.356  1.00  0.00    -0.000 C 
BRANCH   5   6
ATOM      6  C   UNL     1      20.123  30.837  50.503  1.00  0.00    -0.000 C 
BRANCH   6   7
ATOM      7  C   UNL     1      20.567  29.580  49.728  1.00  0.00    -0.000 C 
BRANCH   7   8
ATOM      8  C   UNL     1      21.758  29.790  48.774  1.00  0.00    -0.000 C 
BRANCH   8   9
ATOM      9  C   UNL     1      21.871  31.206  48.177  1.00  0.00    -0.000 C 
BRANCH   9  10
ATOM     10  C   UNL     1      23.058  31.382  47.207  1.00  0.00    -0.000 C 
BRANCH  10  11
ATOM     11  C   UNL     1      23.713  32.766  47.321  1.00  0.00    -0.003 C 
ATOM     12  C   UNL     1      24.097  33.077  48.766  1.00  0.00     0.004 C 
ENDBRANCH  10  11
ENDBRANCH   9  10
ENDBRANCH   8   9
ENDBRANCH   7   8
ENDBRANCH   6   7
ENDBRANCH   5   6
ENDBRANCH   4   5
ENDBRANCH   3   4
ENDBRANCH   2   3
ENDBRANCH   1   2
BRANCH   1  13
ATOM     13  C   UNL     1      19.343  31.776  44.344  1.00  0.00     0.000 C 
BRANCH  13  14
ATOM     14  C   UNL     1      20.827  32.146  44.166  1.00  0.00     0.000 C 
BRANCH  14  15
ATOM     15  C   UNL     1      21.223  33.530  44.721  1.00  0.00     0.000 C 
BRANCH  15  16
ATOM     16  C   UNL     1      20.106  34.594  44.696  1.00  0.00     0.000 C 
BRANCH  16  17
ATOM     17  C   UNL     1      19.652  35.091  46.081  1.00  0.00     0.000 C 
BRANCH  17  18
ATOM     18  C   UNL     1      20.364  34.374  47.236  1.00  0.00     0.000 C 
BRANCH  18  19
ATOM     19  C   UNL     1      20.102  35.085  48.572  1.00  0.00     0.000 C 
BRANCH  19  20
ATOM     20  C   UNL     1      20.721  34.348  49.770  1.00  0.00     0.006 C 
BRANCH  20  21
ATOM     21  C   UNL     1      21.560  35.269  50.664  1.00  0.00     0.053 C 
BRANCH  21  22
ATOM     22  C   UNL     1      20.696  35.936  51.688  1.00  0.00     0.041 C 
ATOM     23  O   UNL     1      20.350  35.314  52.726  1.00  0.00    -0.550 OA
ATOM     24  O   UNL     1      20.240  37.231  51.476  1.00  0.00    -0.550 OA
ENDBRANCH  21  22
ENDBRANCH  20  21
ENDBRANCH  19  20
ENDBRANCH  18  19
ENDBRANCH  17  18
ENDBRANCH  16  17
ENDBRANCH  15  16
ENDBRANCH  14  15
ENDBRANCH  13  14
ENDBRANCH   1  13
TORSDOF 20
ENDMDL
MODEL 5
REMARK VINA RESULT:    -3.906      3.025      5.420
REMARK INTER + INTRA:         -12.263
REMARK INTER:                  -8.461
REMARK INTRA:                  -3.801
REMARK UNBOUND:                -3.790
REMARK SMILES CCCCCCCCCCCCCCCCCCCCCC(=O)[O-]
REMARK SMILES IDX 12 1 11 2 10 3 9 4 8 5 7 6 6 7 5 8 4 9 3 10 2 11 1 12 13 13
REMARK SMILES IDX 14 14 15 15 16 16 17 17 18 18 19 19 20 20 21 21 22 22 23 23
REMARK SMILES IDX 24 24
REMARK H PARENT
REMARK Flexibility Score: inf
ROOT
ATOM      1  C   UNL     1      19.521  31.001  45.672  1.00  0.00     0.000 C 
ENDROOT
BRANCH   1   2
ATOM      2  C   UNL     1      18.606  30.029  46.426  1.00  0.00     0.000 C 
BRANCH   2   3
ATOM      3  C   UNL     1      18.071  30.667  47.718  1.00  0.00     0.000 C 
BRANCH   3   4
ATOM      4  C   UNL     1      19.009  30.460  48.921  1.00  0.00    -0.000 C 
BRANCH   4   5
ATOM      5  C   UNL     1      19.349  28.989  49.237  1.00  0.00    -0.000 C 
BRANCH   5   6
ATOM      6  C   UNL     1      20.840  28.621  49.109  1.00  0.00    -0.000 C 
BRANCH   6   7
ATOM      7  C   UNL     1      21.789  29.812  48.865  1.00  0.00    -0.000 C 
BRANCH   7   8
ATOM      8  C   UNL     1      23.039  29.843  49.765  1.00  0.00    -0.000 C 
BRANCH   8   9
ATOM      9  C   UNL     1      22.929  30.760  50.998  1.00  0.00    -0.000 C 
BRANCH   9  10
ATOM     10  C   UNL     1      21.479  31.130  51.373  1.00  0.00    -0.000 C 
BRANCH  10  11
ATOM     11  C   UNL     1      21.312  32.624  51.686  1.00  0.00    -0.003 C 
ATOM     12  C   UNL     1      19.858  33.062  51.529  1.00  0.00     0.004 C 
ENDBRANCH  10  11
ENDBRANCH   9  10
ENDBRANCH   8   9
ENDBRANCH   7   8
ENDBRANCH   6   7
ENDBRANCH   5   6
ENDBRANCH   4   5
ENDBRANCH   3   4
ENDBRANCH   2   3
ENDBRANCH   1   2
BRANCH   1  13
ATOM     13  C   UNL     1      18.952  31.330  44.285  1.00  0.00     0.000 C 
BRANCH  13  14
ATOM     14  C   UNL     1      19.187  32.795  43.875  1.00  0.00     0.000 C 
BRANCH  14  15
ATOM     15  C   UNL     1      20.406  33.468  44.539  1.00  0.00     0.000 C 
BRANCH  15  16
ATOM     16  C   UNL     1      20.174  34.914  45.027  1.00  0.00     0.000 C 
BRANCH  16  17
ATOM     17  C   UNL     1      18.991  35.091  45.997  1.00  0.00     0.000 C 
BRANCH  17  18
ATOM     18  C   UNL     1      19.134  34.247  47.272  1.00  0.00     0.000 C 
BRANCH  18  19
ATOM     19  C   UNL     1      20.483  34.508  47.958  1.00  0.00     0.000 C 
BRANCH  19  20
ATOM     20  C   UNL     1      21.278  33.219  48.217  1.00  0.00     0.006 C 
BRANCH  20  21
ATOM     21  C   UNL     1      22.784  33.471  48.368  1.00  0.00     0.053 C 
BRANCH  21  22
ATOM     22  C   UNL     1      23.548  32.726  47.320  1.00  0.00     0.041 C 
ATOM     23  O   UNL     1      22.937  32.039  46.460  1.00  0.00    -0.550 OA
ATOM     24  O   UNL     1      24.937  32.759  47.315  1.00  0.00    -0.550 OA
ENDBRANCH  21  22
ENDBRANCH  20  21
ENDBRANCH  19  20
ENDBRANCH  18  19
ENDBRANCH  17  18
ENDBRANCH  16  17
ENDBRANCH  15  16
ENDBRANCH  14  15
ENDBRANCH  13  14
ENDBRANCH   1  13
TORSDOF 20
ENDMDL
MODEL 6
REMARK VINA RESULT:    -3.883      3.203      6.054
REMARK INTER + INTRA:         -12.212
REMARK INTER:                  -8.603
REMARK INTRA:                  -3.609
REMARK UNBOUND:                -3.790
REMARK SMILES CCCCCCCCCCCCCCCCCCCCCC(=O)[O-]
REMARK SMILES IDX 12 1 11 2 10 3 9 4 8 5 7 6 6 7 5 8 4 9 3 10 2 11 1 12 13 13
REMARK SMILES IDX 14 14 15 15 16 16 17 17 18 18 19 19 20 20 21 21 22 22 23 23
REMARK SMILES IDX 24 24
REMARK H PARENT
REMARK Flexibility Score: inf
ROOT
ATOM      1  C   UNL     1      19.338  35.006  47.410  1.00  0.00     0.000 C 
ENDROOT
BRANCH   1   2
ATOM      2  C   UNL     1      20.450  34.131  48.002  1.00  0.00     0.000 C 
BRANCH   2   3
ATOM      3  C   UNL     1      20.486  34.248  49.534  1.00  0.00     0.000 C 
BRANCH   3   4
ATOM      4  C   UNL     1      19.666  33.152  50.238  1.00  0.00    -0.000 C 
BRANCH   4   5
ATOM      5  C   UNL     1      20.461  32.278  51.229  1.00  0.00    -0.000 C 
BRANCH   5   6
ATOM      6  C   UNL     1      21.982  32.523  51.240  1.00  0.00    -0.000 C 
BRANCH   6   7
ATOM      7  C   UNL     1      22.847  31.257  51.415  1.00  0.00    -0.000 C 
BRANCH   7   8
ATOM      8  C   UNL     1      24.145  31.236  50.587  1.00  0.00    -0.000 C 
BRANCH   8   9
ATOM      9  C   UNL     1      24.588  32.605  50.036  1.00  0.00    -0.000 C 
BRANCH   9  10
ATOM     10  C   UNL     1      24.567  32.694  48.496  1.00  0.00    -0.000 C 
BRANCH  10  11
ATOM     11  C   UNL     1      23.783  31.542  47.849  1.00  0.00    -0.003 C 
ATOM     12  C   UNL     1      23.120  31.988  46.548  1.00  0.00     0.004 C 
ENDBRANCH  10  11
ENDBRANCH   9  10
ENDBRANCH   8   9
ENDBRANCH   7   8
ENDBRANCH   6   7
ENDBRANCH   5   6
ENDBRANCH   4   5
ENDBRANCH   3   4
ENDBRANCH   2   3
ENDBRANCH   1   2
BRANCH   1  13
ATOM     13  C   UNL     1      19.397  35.007  45.876  1.00  0.00     0.000 C 
BRANCH  13  14
ATOM     14  C   UNL     1      20.577  34.188  45.324  1.00  0.00     0.000 C 
BRANCH  14  15
ATOM     15  C   UNL     1      20.321  33.515  43.959  1.00  0.00     0.000 C 
BRANCH  15  16
ATOM     16  C   UNL     1      20.456  31.978  43.947  1.00  0.00     0.000 C 
BRANCH  16  17
ATOM     17  C   UNL     1      19.124  31.209  43.876  1.00  0.00     0.000 C 
BRANCH  17  18
ATOM     18  C   UNL     1      18.845  30.380  45.137  1.00  0.00     0.000 C 
BRANCH  18  19
ATOM     19  C   UNL     1      18.271  31.259  46.258  1.00  0.00     0.000 C 
BRANCH  19  20
ATOM     20  C   UNL     1      18.811  30.880  47.647  1.00  0.00     0.006 C 
BRANCH  20  21
ATOM     21  C   UNL     1      20.123  30.088  47.577  1.00  0.00     0.053 C 
BRANCH  21  22
ATOM     22  C   UNL     1      20.253  29.184  48.763  1.00  0.00     0.041 C 
ATOM     23  O   UNL     1      19.224  28.767  49.356  1.00  0.00    -0.550 OA
ATOM     24  O   UNL     1      21.511  28.834  49.237  1.00  0.00    -0.550 OA
ENDBRANCH  21  22
ENDBRANCH  20  21
ENDBRANCH  19  20
ENDBRANCH  18  19
ENDBRANCH  17  18
ENDBRANCH  16  17
ENDBRANCH  15  16
ENDBRANCH  14  15
ENDBRANCH  13  14
ENDBRANCH   1  13
TORSDOF 20
ENDMDL
MODEL 7
REMARK VINA RESULT:    -3.845     10.966     12.938
REMARK INTER + INTRA:         -12.130
REMARK INTER:                  -9.164
REMARK INTRA:                  -2.965
REMARK UNBOUND:                -3.790
REMARK SMILES CCCCCCCCCCCCCCCCCCCCCC(=O)[O-]
REMARK SMILES IDX 12 1 11 2 10 3 9 4 8 5 7 6 6 7 5 8 4 9 3 10 2 11 1 12 13 13
REMARK SMILES IDX 14 14 15 15 16 16 17 17 18 18 19 19 20 20 21 21 22 22 23 23
REMARK SMILES IDX 24 24
REMARK H PARENT
REMARK Flexibility Score: inf
ROOT
ATOM      1  C   UNL     1      29.285  39.568  44.988  1.00  0.00     0.000 C 
ENDROOT
BRANCH   1   2
ATOM      2  C   UNL     1      30.605  40.239  45.389  1.00  0.00     0.000 C 
BRANCH   2   3
ATOM      3  C   UNL     1      31.105  39.706  46.740  1.00  0.00     0.000 C 
BRANCH   3   4
ATOM      4  C   UNL     1      30.472  40.431  47.941  1.00  0.00    -0.000 C 
BRANCH   4   5
ATOM      5  C   UNL     1      30.727  39.769  49.310  1.00  0.00    -0.000 C 
BRANCH   5   6
ATOM      6  C   UNL     1      31.482  38.426  49.256  1.00  0.00    -0.000 C 
BRANCH   6   7
ATOM      7  C   UNL     1      32.914  38.458  49.827  1.00  0.00    -0.000 C 
BRANCH   7   8
ATOM      8  C   UNL     1      33.887  37.440  49.203  1.00  0.00    -0.000 C 
BRANCH   8   9
ATOM      9  C   UNL     1      34.669  36.583  50.216  1.00  0.00    -0.000 C 
BRANCH   9  10
ATOM     10  C   UNL     1      34.110  36.651  51.653  1.00  0.00    -0.000 C 
BRANCH  10  11
ATOM     11  C   UNL     1      35.213  36.837  52.707  1.00  0.00    -0.003 C 
ATOM     12  C   UNL     1      35.634  38.300  52.811  1.00  0.00     0.004 C 
ENDBRANCH  10  11
ENDBRANCH   9  10
ENDBRANCH   8   9
ENDBRANCH   7   8
ENDBRANCH   6   7
ENDBRANCH   5   6
ENDBRANCH   4   5
ENDBRANCH   3   4
ENDBRANCH   2   3
ENDBRANCH   1   2
BRANCH   1  13
ATOM     13  C   UNL     1      29.532  38.168  44.411  1.00  0.00     0.000 C 
BRANCH  13  14
ATOM     14  C   UNL     1      28.662  37.086  45.077  1.00  0.00     0.000 C 
BRANCH  14  15
ATOM     15  C   UNL     1      29.035  36.759  46.538  1.00  0.00     0.000 C 
BRANCH  15  16
ATOM     16  C   UNL     1      27.869  36.825  47.546  1.00  0.00     0.000 C 
BRANCH  16  17
ATOM     17  C   UNL     1      27.540  38.235  48.069  1.00  0.00     0.000 C 
BRANCH  17  18
ATOM     18  C   UNL     1      26.204  38.772  47.537  1.00  0.00     0.000 C 
BRANCH  18  19
ATOM     19  C   UNL     1      26.411  40.059  46.725  1.00  0.00     0.000 C 
BRANCH  19  20
ATOM     20  C   UNL     1      26.415  41.322  47.601  1.00  0.00     0.006 C 
BRANCH  20  21
ATOM     21  C   UNL     1      27.416  42.377  47.115  1.00  0.00     0.053 C 
BRANCH  21  22
ATOM     22  C   UNL     1      26.967  42.967  45.815  1.00  0.00     0.041 C 
ATOM     23  O   UNL     1      25.921  43.666  45.765  1.00  0.00    -0.550 OA
ATOM     24  O   UNL     1      27.681  42.712  44.651  1.00  0.00    -0.550 OA
ENDBRANCH  21  22
ENDBRANCH  20  21
ENDBRANCH  19  20
ENDBRANCH  18  19
ENDBRANCH  17  18
ENDBRANCH  16  17
ENDBRANCH  15  16
ENDBRANCH  14  15
ENDBRANCH  13  14
ENDBRANCH   1  13
TORSDOF 20
ENDMDL
MODEL 8
REMARK VINA RESULT:    -3.786      3.796      5.571
REMARK INTER + INTRA:         -12.003
REMARK INTER:                  -8.256
REMARK INTRA:                  -3.747
REMARK UNBOUND:                -3.790
REMARK SMILES CCCCCCCCCCCCCCCCCCCCCC(=O)[O-]
REMARK SMILES IDX 12 1 11 2 10 3 9 4 8 5 7 6 6 7 5 8 4 9 3 10 2 11 1 12 13 13
REMARK SMILES IDX 14 14 15 15 16 16 17 17 18 18 19 19 20 20 21 21 22 22 23 23
REMARK SMILES IDX 24 24
REMARK H PARENT
REMARK Flexibility Score: inf
ROOT
ATOM      1  C   UNL     1      20.465  33.320  43.875  1.00  0.00     0.000 C 
ENDROOT
BRANCH   1   2
ATOM      2  C   UNL     1      20.380  31.969  44.596  1.00  0.00     0.000 C 
BRANCH   2   3
ATOM      3  C   UNL     1      19.384  31.032  43.896  1.00  0.00     0.000 C 
BRANCH   3   4
ATOM      4  C   UNL     1      18.437  30.322  44.879  1.00  0.00    -0.000 C 
BRANCH   4   5
ATOM      5  C   UNL     1      18.156  31.093  46.185  1.00  0.00    -0.000 C 
BRANCH   5   6
ATOM      6  C   UNL     1      18.202  30.243  47.469  1.00  0.00    -0.000 C 
BRANCH   6   7
ATOM      7  C   UNL     1      19.602  30.082  48.097  1.00  0.00    -0.000 C 
BRANCH   7   8
ATOM      8  C   UNL     1      19.628  30.077  49.637  1.00  0.00    -0.000 C 
BRANCH   8   9
ATOM      9  C   UNL     1      20.807  30.842  50.269  1.00  0.00    -0.000 C 
BRANCH   9  10
ATOM     10  C   UNL     1      22.124  30.039  50.307  1.00  0.00    -0.000 C 
BRANCH  10  11
ATOM     11  C   UNL     1      23.110  30.571  51.357  1.00  0.00    -0.003 C 
ATOM     12  C   UNL     1      22.790  32.017  51.730  1.00  0.00     0.004 C 
ENDBRANCH  10  11
ENDBRANCH   9  10
ENDBRANCH   8   9
ENDBRANCH   7   8
ENDBRANCH   6   7
ENDBRANCH   5   6
ENDBRANCH   4   5
ENDBRANCH   3   4
ENDBRANCH   2   3
ENDBRANCH   1   2
BRANCH   1  13
ATOM     13  C   UNL     1      20.400  34.483  44.875  1.00  0.00     0.000 C 
BRANCH  13  14
ATOM     14  C   UNL     1      19.025  34.608  45.555  1.00  0.00     0.000 C 
BRANCH  14  15
ATOM     15  C   UNL     1      19.072  34.869  47.074  1.00  0.00     0.000 C 
BRANCH  15  16
ATOM     16  C   UNL     1      19.873  33.838  47.895  1.00  0.00     0.000 C 
BRANCH  16  17
ATOM     17  C   UNL     1      20.825  34.441  48.945  1.00  0.00     0.000 C 
BRANCH  17  18
ATOM     18  C   UNL     1      22.281  33.993  48.758  1.00  0.00     0.000 C 
BRANCH  18  19
ATOM     19  C   UNL     1      22.402  32.974  47.614  1.00  0.00     0.000 C 
BRANCH  19  20
ATOM     20  C   UNL     1      23.664  32.104  47.722  1.00  0.00     0.006 C 
BRANCH  20  21
ATOM     21  C   UNL     1      23.872  31.206  46.497  1.00  0.00     0.053 C 
BRANCH  21  22
ATOM     22  C   UNL     1      24.980  30.231  46.743  1.00  0.00     0.041 C 
ATOM     23  O   UNL     1      24.728  29.098  47.233  1.00  0.00    -0.550 OA
ATOM     24  O   UNL     1      26.294  30.586  46.469  1.00  0.00    -0.550 OA
ENDBRANCH  21  22
ENDBRANCH  20  21
ENDBRANCH  19  20
ENDBRANCH  18  19
ENDBRANCH  17  18
ENDBRANCH  16  17
ENDBRANCH  15  16
ENDBRANCH  14  15
ENDBRANCH  13  14
ENDBRANCH   1  13
TORSDOF 20
ENDMDL
MODEL 9
REMARK VINA RESULT:    -3.782     10.126     12.534
REMARK INTER + INTRA:         -11.993
REMARK INTER:                  -8.412
REMARK INTRA:                  -3.581
REMARK UNBOUND:                -3.790
REMARK SMILES CCCCCCCCCCCCCCCCCCCCCC(=O)[O-]
REMARK SMILES IDX 12 1 11 2 10 3 9 4 8 5 7 6 6 7 5 8 4 9 3 10 2 11 1 12 13 13
REMARK SMILES IDX 14 14 15 15 16 16 17 17 18 18 19 19 20 20 21 21 22 22 23 23
REMARK SMILES IDX 24 24
REMARK H PARENT
REMARK Flexibility Score: inf
ROOT
ATOM      1  C   UNL     1      28.160  39.657  49.918  1.00  0.00     0.000 C 
ENDROOT
BRANCH   1   2
ATOM      2  C   UNL     1      29.537  40.087  49.397  1.00  0.00     0.000 C 
BRANCH   2   3
ATOM      3  C   UNL     1      29.446  41.416  48.631  1.00  0.00     0.000 C 
BRANCH   3   4
ATOM      4  C   UNL     1      30.355  41.455  47.390  1.00  0.00    -0.000 C 
BRANCH   4   5
ATOM      5  C   UNL     1      30.646  40.081  46.752  1.00  0.00    -0.000 C 
BRANCH   5   6
ATOM      6  C   UNL     1      30.461  40.019  45.223  1.00  0.00    -0.000 C 
BRANCH   6   7
ATOM      7  C   UNL     1      29.139  39.382  44.750  1.00  0.00    -0.000 C 
BRANCH   7   8
ATOM      8  C   UNL     1      28.071  40.381  44.267  1.00  0.00    -0.000 C 
BRANCH   8   9
ATOM      9  C   UNL     1      27.386  41.191  45.384  1.00  0.00    -0.000 C 
BRANCH   9  10
ATOM     10  C   UNL     1      27.577  42.717  45.255  1.00  0.00    -0.000 C 
BRANCH  10  11
ATOM     11  C   UNL     1      26.379  43.510  45.799  1.00  0.00    -0.003 C 
ATOM     12  C   UNL     1      26.246  43.339  47.310  1.00  0.00     0.004 C 
ENDBRANCH  10  11
ENDBRANCH   9  10
ENDBRANCH   8   9
ENDBRANCH   7   8
ENDBRANCH   6   7
ENDBRANCH   5   6
ENDBRANCH   4   5
ENDBRANCH   3   4
ENDBRANCH   2   3
ENDBRANCH   1   2
BRANCH   1  13
ATOM     13  C   UNL     1      27.037  40.219  49.035  1.00  0.00     0.000 C 
BRANCH  13  14
ATOM     14  C   UNL     1      26.256  39.120  48.292  1.00  0.00     0.000 C 
BRANCH  14  15
ATOM     15  C   UNL     1      26.342  37.717  48.928  1.00  0.00     0.000 C 
BRANCH  15  16
ATOM     16  C   UNL     1      26.586  36.559  47.938  1.00  0.00     0.000 C 
BRANCH  16  17
ATOM     17  C   UNL     1      27.654  36.837  46.864  1.00  0.00     0.000 C 
BRANCH  17  18
ATOM     18  C   UNL     1      29.067  36.972  47.447  1.00  0.00     0.000 C 
BRANCH  18  19
ATOM     19  C   UNL     1      29.555  35.634  48.023  1.00  0.00     0.000 C 
BRANCH  19  20
ATOM     20  C   UNL     1      30.421  35.808  49.281  1.00  0.00     0.006 C 
BRANCH  20  21
ATOM     21  C   UNL     1      31.548  36.831  49.089  1.00  0.00     0.053 C 
BRANCH  21  22
ATOM     22  C   UNL     1      32.862  36.246  49.501  1.00  0.00     0.041 C 
ATOM     23  O   UNL     1      33.918  36.580  48.902  1.00  0.00    -0.550 OA
ATOM     24  O   UNL     1      32.916  35.303  50.520  1.00  0.00    -0.550 OA
ENDBRANCH  21  22
ENDBRANCH  20  21
ENDBRANCH  19  20
ENDBRANCH  18  19
ENDBRANCH  17  18
ENDBRANCH  16  17
ENDBRANCH  15  16
ENDBRANCH  14  15
ENDBRANCH  13  14
ENDBRANCH   1  13
TORSDOF 20
ENDMDL
