MODEL 1
REMARK VINA RESULT:    -5.108      0.000      0.000
REMARK INTER + INTRA:          -5.585
REMARK INTER:                  -5.556
REMARK INTRA:                  -0.029
REMARK UNBOUND:                -0.029
REMARK SMILES O=C([O-])c1ccc(O)cc1
REMARK SMILES IDX 4 1 5 2 10 3 6 4 9 5 7 6 2 7 1 8 3 9 8 10
REMARK H PARENT 8 11
REMARK Flexibility Score: inf
ROOT
ATOM      1  C   UNL     1      -0.179  -0.292  23.569  1.00  0.00    -0.003 A 
ATOM      2  C   UNL     1       1.069  -0.821  23.939  1.00  0.00     0.014 A 
ATOM      3  C   UNL     1      -0.304   1.098  23.384  1.00  0.00     0.014 A 
ATOM      4  C   UNL     1       2.170   0.022  24.122  1.00  0.00     0.047 A 
ATOM      5  C   UNL     1       0.799   1.937  23.567  1.00  0.00     0.047 A 
ATOM      6  C   UNL     1       2.037   1.403  23.936  1.00  0.00     0.115 A 
ENDROOT
BRANCH   1   7
ATOM      7  C   UNL     1      -1.343  -1.186  23.377  1.00  0.00     0.071 C 
ATOM      8  O   UNL     1      -1.298  -2.125  22.538  1.00  0.00    -0.545 OA
ATOM      9  O   UNL     1      -2.502  -1.002  24.121  1.00  0.00    -0.545 OA
ENDBRANCH   1   7
BRANCH   6  10
ATOM     10  O   UNL     1       3.127   2.252  24.114  1.00  0.00    -0.508 OA
ATOM     11  H   UNL     1       3.774   2.449  23.360  1.00  0.00     0.293 HD
ENDBRANCH   6  10
TORSDOF 2
ENDMDL
MODEL 2
REMARK VINA RESULT:    -4.899      1.469      4.139
REMARK INTER + INTRA:          -5.358
REMARK INTER:                  -5.331
REMARK INTRA:                  -0.027
REMARK UNBOUND:                -0.029
REMARK SMILES O=C([O-])c1ccc(O)cc1
REMARK SMILES IDX 4 1 5 2 10 3 6 4 9 5 7 6 2 7 1 8 3 9 8 10
REMARK H PARENT 8 11
REMARK Flexibility Score: inf
ROOT
ATOM      1  C   UNL     1       0.643   1.541  24.419  1.00  0.00    -0.003 A 
ATOM      2  C   UNL     1       0.909   0.318  25.058  1.00  0.00     0.014 A 
ATOM      3  C   UNL     1      -0.235   1.560  23.318  1.00  0.00     0.014 A 
ATOM      4  C   UNL     1       0.311  -0.863  24.605  1.00  0.00     0.047 A 
ATOM      5  C   UNL     1      -0.830   0.378  22.869  1.00  0.00     0.047 A 
ATOM      6  C   UNL     1      -0.561  -0.835  23.509  1.00  0.00     0.115 A 
ENDROOT
BRANCH   1   7
ATOM      7  C   UNL     1       1.277   2.788  24.899  1.00  0.00     0.071 C 
ATOM      8  O   UNL     1       2.263   3.283  24.289  1.00  0.00    -0.545 OA
ATOM      9  O   UNL     1       0.794   3.434  26.031  1.00  0.00    -0.545 OA
ENDBRANCH   1   7
BRANCH   6  10
ATOM     10  O   UNL     1      -1.163  -2.004  23.050  1.00  0.00    -0.508 OA
ATOM     11  H   UNL     1      -1.262  -2.196  22.061  1.00  0.00     0.293 HD
ENDBRANCH   6  10
TORSDOF 2
ENDMDL
MODEL 3
REMARK VINA RESULT:    -4.833      0.962      2.066
REMARK INTER + INTRA:          -5.286
REMARK INTER:                  -5.254
REMARK INTRA:                  -0.032
REMARK UNBOUND:                -0.029
REMARK SMILES O=C([O-])c1ccc(O)cc1
REMARK SMILES IDX 4 1 5 2 10 3 6 4 9 5 7 6 2 7 1 8 3 9 8 10
REMARK H PARENT 8 11
REMARK Flexibility Score: inf
ROOT
ATOM      1  C   UNL     1       0.410  -0.116  23.384  1.00  0.00    -0.003 A 
ATOM      2  C   UNL     1      -0.183   1.151  23.527  1.00  0.00     0.014 A 
ATOM      3  C   UNL     1       1.748  -0.292  23.785  1.00  0.00     0.014 A 
ATOM      4  C   UNL     1       0.547   2.219  24.057  1.00  0.00     0.047 A 
ATOM      5  C   UNL     1       2.474   0.779  24.315  1.00  0.00     0.047 A 
ATOM      6  C   UNL     1       1.877   2.035  24.453  1.00  0.00     0.115 A 
ENDROOT
BRANCH   1   7
ATOM      7  C   UNL     1      -0.364  -1.245  22.822  1.00  0.00     0.071 C 
ATOM      8  O   UNL     1      -1.565  -1.428  23.156  1.00  0.00    -0.545 OA
ATOM      9  O   UNL     1       0.224  -2.119  21.917  1.00  0.00    -0.545 OA
ENDBRANCH   1   7
BRANCH   6  10
ATOM     10  O   UNL     1       2.613   3.092  24.983  1.00  0.00    -0.508 OA
ATOM     11  H   UNL     1       2.424   3.458  25.909  1.00  0.00     0.293 HD
ENDBRANCH   6  10
TORSDOF 2
ENDMDL
MODEL 4
REMARK VINA RESULT:    -4.641     13.784     14.445
REMARK INTER + INTRA:          -5.077
REMARK INTER:                  -5.047
REMARK INTRA:                  -0.030
REMARK UNBOUND:                -0.029
REMARK SMILES O=C([O-])c1ccc(O)cc1
REMARK SMILES IDX 4 1 5 2 10 3 6 4 9 5 7 6 2 7 1 8 3 9 8 10
REMARK H PARENT 8 11
REMARK Flexibility Score: inf
ROOT
ATOM      1  C   UNL     1     -10.516   9.334  24.933  1.00  0.00    -0.003 A 
ATOM      2  C   UNL     1     -10.042  10.641  25.144  1.00  0.00     0.014 A 
ATOM      3  C   UNL     1     -10.306   8.725  23.681  1.00  0.00     0.014 A 
ATOM      4  C   UNL     1      -9.373  11.325  24.124  1.00  0.00     0.047 A 
ATOM      5  C   UNL     1      -9.637   9.412  22.664  1.00  0.00     0.047 A 
ATOM      6  C   UNL     1      -9.169  10.712  22.882  1.00  0.00     0.115 A 
ENDROOT
BRANCH   1   7
ATOM      7  C   UNL     1     -11.223   8.613  26.014  1.00  0.00     0.071 C 
ATOM      8  O   UNL     1     -12.177   9.158  26.632  1.00  0.00    -0.545 OA
ATOM      9  O   UNL     1     -10.846   7.322  26.363  1.00  0.00    -0.545 OA
ENDBRANCH   1   7
BRANCH   6  10
ATOM     10  O   UNL     1      -8.504  11.383  21.858  1.00  0.00    -0.508 OA
ATOM     11  H   UNL     1      -9.009  11.876  21.132  1.00  0.00     0.293 HD
ENDBRANCH   6  10
TORSDOF 2
ENDMDL
MODEL 5
REMARK VINA RESULT:    -4.531      2.490      3.155
REMARK INTER + INTRA:          -4.957
REMARK INTER:                  -4.930
REMARK INTRA:                  -0.027
REMARK UNBOUND:                -0.029
REMARK SMILES O=C([O-])c1ccc(O)cc1
REMARK SMILES IDX 4 1 5 2 10 3 6 4 9 5 7 6 2 7 1 8 3 9 8 10
REMARK H PARENT 8 11
REMARK Flexibility Score: inf
ROOT
ATOM      1  C   UNL     1       1.918  -0.022  24.071  1.00  0.00    -0.003 A 
ATOM      2  C   UNL     1       0.583   0.144  24.480  1.00  0.00     0.014 A 
ATOM      3  C   UNL     1       2.778   1.093  24.077  1.00  0.00     0.014 A 
ATOM      4  C   UNL     1       0.118   1.398  24.885  1.00  0.00     0.047 A 
ATOM      5  C   UNL     1       2.308   2.345  24.483  1.00  0.00     0.047 A 
ATOM      6  C   UNL     1       0.979   2.502  24.888  1.00  0.00     0.115 A 
ENDROOT
BRANCH   1   7
ATOM      7  C   UNL     1       2.408  -1.351  23.642  1.00  0.00     0.071 C 
ATOM      8  O   UNL     1       2.131  -1.798  22.497  1.00  0.00    -0.545 OA
ATOM      9  O   UNL     1       3.184  -2.125  24.497  1.00  0.00    -0.545 OA
ENDBRANCH   1   7
BRANCH   6  10
ATOM     10  O   UNL     1       0.527   3.757  25.290  1.00  0.00    -0.508 OA
ATOM     11  H   UNL     1      -0.191   4.251  24.774  1.00  0.00     0.293 HD
ENDBRANCH   6  10
TORSDOF 2
ENDMDL
MODEL 6
REMARK VINA RESULT:    -4.420      1.171      4.437
REMARK INTER + INTRA:          -4.837
REMARK INTER:                  -4.801
REMARK INTRA:                  -0.036
REMARK UNBOUND:                -0.029
REMARK SMILES O=C([O-])c1ccc(O)cc1
REMARK SMILES IDX 4 1 5 2 10 3 6 4 9 5 7 6 2 7 1 8 3 9 8 10
REMARK H PARENT 8 11
REMARK Flexibility Score: inf
ROOT
ATOM      1  C   UNL     1       0.666   0.261  23.985  1.00  0.00    -0.003 A 
ATOM      2  C   UNL     1      -0.527   0.738  23.415  1.00  0.00     0.014 A 
ATOM      3  C   UNL     1       0.681  -1.024  24.562  1.00  0.00     0.014 A 
ATOM      4  C   UNL     1      -1.681  -0.052  23.423  1.00  0.00     0.047 A 
ATOM      5  C   UNL     1      -0.475  -1.810  24.567  1.00  0.00     0.047 A 
ATOM      6  C   UNL     1      -1.657  -1.328  23.998  1.00  0.00     0.115 A 
ENDROOT
BRANCH   1   7
ATOM      7  C   UNL     1       1.885   1.098  23.977  1.00  0.00     0.071 C 
ATOM      8  O   UNL     1       2.986   0.633  24.377  1.00  0.00    -0.545 OA
ATOM      9  O   UNL     1       1.834   2.412  23.526  1.00  0.00    -0.545 OA
ENDBRANCH   1   7
BRANCH   6  10
ATOM     10  O   UNL     1      -2.801  -2.124  24.010  1.00  0.00    -0.508 OA
ATOM     11  H   UNL     1      -3.599  -1.896  24.591  1.00  0.00     0.293 HD
ENDBRANCH   6  10
TORSDOF 2
ENDMDL
MODEL 7
REMARK VINA RESULT:    -4.393     12.688     14.220
REMARK INTER + INTRA:          -4.807
REMARK INTER:                  -4.772
REMARK INTRA:                  -0.035
REMARK UNBOUND:                -0.029
REMARK SMILES O=C([O-])c1ccc(O)cc1
REMARK SMILES IDX 4 1 5 2 10 3 6 4 9 5 7 6 2 7 1 8 3 9 8 10
REMARK H PARENT 8 11
REMARK Flexibility Score: inf
ROOT
ATOM      1  C   UNL     1     -11.656   4.412  19.660  1.00  0.00    -0.003 A 
ATOM      2  C   UNL     1     -11.110   3.490  18.749  1.00  0.00     0.014 A 
ATOM      3  C   UNL     1     -12.692   5.263  19.230  1.00  0.00     0.014 A 
ATOM      4  C   UNL     1     -11.589   3.422  17.437  1.00  0.00     0.047 A 
ATOM      5  C   UNL     1     -13.168   5.192  17.918  1.00  0.00     0.047 A 
ATOM      6  C   UNL     1     -12.620   4.273  17.019  1.00  0.00     0.115 A 
ENDROOT
BRANCH   1   7
ATOM      7  C   UNL     1     -11.148   4.482  21.047  1.00  0.00     0.071 C 
ATOM      8  O   UNL     1     -10.501   3.521  21.543  1.00  0.00    -0.545 OA
ATOM      9  O   UNL     1     -11.375   5.611  21.825  1.00  0.00    -0.545 OA
ENDBRANCH   1   7
BRANCH   6  10
ATOM     10  O   UNL     1     -13.105   4.214  15.715  1.00  0.00    -0.508 OA
ATOM     11  H   UNL     1     -14.097   4.147  15.521  1.00  0.00     0.293 HD
ENDBRANCH   6  10
TORSDOF 2
ENDMDL
MODEL 8
REMARK VINA RESULT:    -4.304     13.519     14.195
REMARK INTER + INTRA:          -4.710
REMARK INTER:                  -4.679
REMARK INTRA:                  -0.031
REMARK UNBOUND:                -0.029
REMARK SMILES O=C([O-])c1ccc(O)cc1
REMARK SMILES IDX 4 1 5 2 10 3 6 4 9 5 7 6 2 7 1 8 3 9 8 10
REMARK H PARENT 8 11
REMARK Flexibility Score: inf
ROOT
ATOM      1  C   UNL     1     -10.703   8.625  23.841  1.00  0.00    -0.003 A 
ATOM      2  C   UNL     1      -9.790   9.345  23.050  1.00  0.00     0.014 A 
ATOM      3  C   UNL     1     -11.041   9.119  25.115  1.00  0.00     0.014 A 
ATOM      4  C   UNL     1      -9.226  10.534  23.524  1.00  0.00     0.047 A 
ATOM      5  C   UNL     1     -10.476  10.308  25.585  1.00  0.00     0.047 A 
ATOM      6  C   UNL     1      -9.568  11.018  24.793  1.00  0.00     0.115 A 
ENDROOT
BRANCH   1   7
ATOM      7  C   UNL     1     -11.297   7.367  23.337  1.00  0.00     0.071 C 
ATOM      8  O   UNL     1     -10.584   6.510  22.750  1.00  0.00    -0.545 OA
ATOM      9  O   UNL     1     -12.653   7.112  23.505  1.00  0.00    -0.545 OA
ENDBRANCH   1   7
BRANCH   6  10
ATOM     10  O   UNL     1      -9.014  12.202  25.275  1.00  0.00    -0.508 OA
ATOM     11  H   UNL     1      -9.028  12.430  26.262  1.00  0.00     0.293 HD
ENDBRANCH   6  10
TORSDOF 2
ENDMDL
MODEL 9
REMARK VINA RESULT:    -4.200     11.178     12.786
REMARK INTER + INTRA:          -4.598
REMARK INTER:                  -4.566
REMARK INTRA:                  -0.032
REMARK UNBOUND:                -0.029
REMARK SMILES O=C([O-])c1ccc(O)cc1
REMARK SMILES IDX 4 1 5 2 10 3 6 4 9 5 7 6 2 7 1 8 3 9 8 10
REMARK H PARENT 8 11
REMARK Flexibility Score: inf
ROOT
ATOM      1  C   UNL     1     -10.341   3.304  20.347  1.00  0.00    -0.003 A 
ATOM      2  C   UNL     1     -10.816   3.966  21.493  1.00  0.00     0.014 A 
ATOM      3  C   UNL     1     -11.011   3.492  19.123  1.00  0.00     0.014 A 
ATOM      4  C   UNL     1     -11.938   4.798  21.416  1.00  0.00     0.047 A 
ATOM      5  C   UNL     1     -12.131   4.324  19.051  1.00  0.00     0.047 A 
ATOM      6  C   UNL     1     -12.598   4.979  20.195  1.00  0.00     0.115 A 
ENDROOT
BRANCH   1   7
ATOM      7  C   UNL     1      -9.155   2.424  20.431  1.00  0.00     0.071 C 
ATOM      8  O   UNL     1      -9.003   1.643  21.409  1.00  0.00    -0.545 OA
ATOM      9  O   UNL     1      -8.190   2.446  19.431  1.00  0.00    -0.545 OA
ENDBRANCH   1   7
BRANCH   6  10
ATOM     10  O   UNL     1     -13.715   5.806  20.106  1.00  0.00    -0.508 OA
ATOM     11  H   UNL     1     -14.641   5.429  19.943  1.00  0.00     0.293 HD
ENDBRANCH   6  10
TORSDOF 2
ENDMDL
