MODEL 1
REMARK VINA RESULT:    -5.950      0.000      0.000
REMARK INTER + INTRA:          -6.679
REMARK INTER:                  -6.472
REMARK INTRA:                  -0.207
REMARK UNBOUND:                -0.207
REMARK SMILES CC1=CCC[C@]2(C)CC[C@H](C(C)(C)O)C[C@H]12
REMARK SMILES IDX 11 1 12 2 13 3 10 4 1 5 2 6 3 7 16 8 4 9 6 10 15 11 5 12
REMARK SMILES IDX 7 13 8 14 9 15 14 16
REMARK H PARENT 14 17
REMARK Flexibility Score: inf
ROOT
ATOM      1  C   UNL     1      -1.198  21.889  47.022  1.00  0.00     0.062 C 
ATOM      2  C   UNL     1      -1.260  23.157  47.909  1.00  0.00     0.042 C 
ATOM      3  C   UNL     1       0.026  22.025  46.081  1.00  0.00     0.042 C 
ENDROOT
BRANCH   1   4
ATOM      4  C   UNL     1      -1.077  20.595  47.909  1.00  0.00     0.021 C 
ATOM      5  C   UNL     1       2.308  17.410  47.337  1.00  0.00     0.039 C 
ATOM      6  C   UNL     1       0.812  17.236  47.351  1.00  0.00    -0.074 C 
ATOM      7  C   UNL     1       0.266  16.246  46.614  1.00  0.00    -0.028 C 
ATOM      8  C   UNL     1      -0.048  18.239  48.108  1.00  0.00     0.021 C 
ATOM      9  C   UNL     1      -1.202  15.896  46.637  1.00  0.00     0.028 C 
ATOM     10  C   UNL     1      -1.422  17.632  48.520  1.00  0.00    -0.026 C 
ATOM     11  C   UNL     1      -0.187  19.516  47.247  1.00  0.00     0.015 C 
ATOM     12  C   UNL     1      -2.089  16.972  47.283  1.00  0.00     0.011 C 
ATOM     13  C   UNL     1      -1.215  16.567  49.630  1.00  0.00     0.012 C 
ATOM     14  C   UNL     1      -2.339  18.735  49.113  1.00  0.00     0.008 C 
ATOM     15  C   UNL     1      -2.460  19.983  48.232  1.00  0.00     0.007 C 
ENDBRANCH   1   4
BRANCH   1  16
ATOM     16  O   UNL     1      -2.372  21.805  46.247  1.00  0.00    -0.390 OA
ATOM     17  H   UNL     1      -3.040  21.276  46.757  1.00  0.00     0.211 HD
ENDBRANCH   1  16
TORSDOF 2
ENDMDL
MODEL 2
REMARK VINA RESULT:    -5.596      2.540      4.928
REMARK INTER + INTRA:          -6.294
REMARK INTER:                  -6.096
REMARK INTRA:                  -0.197
REMARK UNBOUND:                -0.207
REMARK SMILES CC1=CCC[C@]2(C)CC[C@H](C(C)(C)O)C[C@H]12
REMARK SMILES IDX 11 1 12 2 13 3 10 4 1 5 2 6 3 7 16 8 4 9 6 10 15 11 5 12
REMARK SMILES IDX 7 13 8 14 9 15 14 16
REMARK H PARENT 14 17
REMARK Flexibility Score: inf
ROOT
ATOM      1  C   UNL     1       3.852  17.598  47.378  1.00  0.00     0.062 C 
ATOM      2  C   UNL     1       5.031  17.395  46.395  1.00  0.00     0.042 C 
ATOM      3  C   UNL     1       4.000  19.001  48.018  1.00  0.00     0.042 C 
ENDROOT
BRANCH   1   4
ATOM      4  C   UNL     1       2.474  17.471  46.629  1.00  0.00     0.021 C 
ATOM      5  C   UNL     1      -1.160  20.304  47.459  1.00  0.00     0.039 C 
ATOM      6  C   UNL     1      -1.082  18.801  47.494  1.00  0.00    -0.074 C 
ATOM      7  C   UNL     1      -1.888  18.128  48.342  1.00  0.00    -0.028 C 
ATOM      8  C   UNL     1      -0.028  18.090  46.655  1.00  0.00     0.021 C 
ATOM      9  C   UNL     1      -1.988  16.622  48.386  1.00  0.00     0.028 C 
ATOM     10  C   UNL     1      -0.435  16.620  46.337  1.00  0.00    -0.026 C 
ATOM     11  C   UNL     1       1.332  18.195  47.381  1.00  0.00     0.015 C 
ATOM     12  C   UNL     1      -0.848  15.901  47.650  1.00  0.00     0.011 C 
ATOM     13  C   UNL     1      -1.624  16.607  45.340  1.00  0.00     0.012 C 
ATOM     14  C   UNL     1       0.741  15.875  45.651  1.00  0.00     0.008 C 
ATOM     15  C   UNL     1       2.074  15.994  46.400  1.00  0.00     0.007 C 
ENDBRANCH   1   4
BRANCH   1  16
ATOM     16  O   UNL     1       3.915  16.618  48.389  1.00  0.00    -0.390 OA
ATOM     17  H   UNL     1       2.986  16.371  48.636  1.00  0.00     0.211 HD
ENDBRANCH   1  16
TORSDOF 2
ENDMDL
MODEL 3
REMARK VINA RESULT:    -5.561      2.416      5.982
REMARK INTER + INTRA:          -6.256
REMARK INTER:                  -6.050
REMARK INTRA:                  -0.206
REMARK UNBOUND:                -0.207
REMARK SMILES CC1=CCC[C@]2(C)CC[C@H](C(C)(C)O)C[C@H]12
REMARK SMILES IDX 11 1 12 2 13 3 10 4 1 5 2 6 3 7 16 8 4 9 6 10 15 11 5 12
REMARK SMILES IDX 7 13 8 14 9 15 14 16
REMARK H PARENT 14 17
REMARK Flexibility Score: inf
ROOT
ATOM      1  C   UNL     1      -2.304  18.887  48.293  1.00  0.00     0.062 C 
ATOM      2  C   UNL     1      -1.402  18.374  47.143  1.00  0.00     0.042 C 
ATOM      3  C   UNL     1      -2.834  17.656  49.070  1.00  0.00     0.042 C 
ENDROOT
BRANCH   1   4
ATOM      4  C   UNL     1      -1.498  19.843  49.248  1.00  0.00     0.021 C 
ATOM      5  C   UNL     1      -3.470  23.405  51.562  1.00  0.00     0.039 C 
ATOM      6  C   UNL     1      -2.288  23.397  50.630  1.00  0.00    -0.074 C 
ATOM      7  C   UNL     1      -2.031  24.501  49.897  1.00  0.00    -0.028 C 
ATOM      8  C   UNL     1      -1.479  22.117  50.463  1.00  0.00     0.021 C 
ATOM      9  C   UNL     1      -0.813  24.660  49.019  1.00  0.00     0.028 C 
ATOM     10  C   UNL     1      -0.027  22.408  49.978  1.00  0.00    -0.026 C 
ATOM     11  C   UNL     1      -2.251  21.168  49.518  1.00  0.00     0.015 C 
ATOM     12  C   UNL     1      -0.071  23.343  48.739  1.00  0.00     0.011 C 
ATOM     13  C   UNL     1       0.781  23.087  51.116  1.00  0.00     0.012 C 
ATOM     14  C   UNL     1       0.699  21.079  49.635  1.00  0.00     0.008 C 
ATOM     15  C   UNL     1      -0.090  20.164  48.692  1.00  0.00     0.007 C 
ENDBRANCH   1   4
BRANCH   1  16
ATOM     16  O   UNL     1      -3.393  19.597  47.748  1.00  0.00    -0.390 OA
ATOM     17  H   UNL     1      -3.179  19.812  46.803  1.00  0.00     0.211 HD
ENDBRANCH   1  16
TORSDOF 2
ENDMDL
MODEL 4
REMARK VINA RESULT:    -5.548      8.597     11.263
REMARK INTER + INTRA:          -6.242
REMARK INTER:                  -5.995
REMARK INTRA:                  -0.247
REMARK UNBOUND:                -0.207
REMARK SMILES CC1=CCC[C@]2(C)CC[C@H](C(C)(C)O)C[C@H]12
REMARK SMILES IDX 11 1 12 2 13 3 10 4 1 5 2 6 3 7 16 8 4 9 6 10 15 11 5 12
REMARK SMILES IDX 7 13 8 14 9 15 14 16
REMARK H PARENT 14 17
REMARK Flexibility Score: inf
ROOT
ATOM      1  C   UNL     1       0.074  27.111  37.027  1.00  0.00     0.062 C 
ATOM      2  C   UNL     1      -1.444  27.133  37.333  1.00  0.00     0.042 C 
ATOM      3  C   UNL     1       0.703  28.385  37.644  1.00  0.00     0.042 C 
ENDROOT
BRANCH   1   4
ATOM      4  C   UNL     1       0.742  25.817  37.621  1.00  0.00     0.021 C 
ATOM      5  C   UNL     1      -0.924  23.570  41.376  1.00  0.00     0.039 C 
ATOM      6  C   UNL     1       0.454  24.117  41.112  1.00  0.00    -0.074 C 
ATOM      7  C   UNL     1       1.194  24.545  42.157  1.00  0.00    -0.028 C 
ATOM      8  C   UNL     1       0.932  24.270  39.675  1.00  0.00     0.021 C 
ATOM      9  C   UNL     1       2.628  25.002  42.037  1.00  0.00     0.028 C 
ATOM     10  C   UNL     1       2.488  24.267  39.577  1.00  0.00    -0.026 C 
ATOM     11  C   UNL     1       0.293  25.544  39.077  1.00  0.00     0.015 C 
ATOM     12  C   UNL     1       3.072  25.286  40.593  1.00  0.00     0.011 C 
ATOM     13  C   UNL     1       3.032  22.848  39.890  1.00  0.00     0.012 C 
ATOM     14  C   UNL     1       2.934  24.617  38.133  1.00  0.00     0.008 C 
ATOM     15  C   UNL     1       2.287  25.889  37.572  1.00  0.00     0.007 C 
ENDBRANCH   1   4
BRANCH   1  16
ATOM     16  O   UNL     1       0.267  27.127  35.631  1.00  0.00    -0.390 OA
ATOM     17  H   UNL     1      -0.625  27.114  35.196  1.00  0.00     0.211 HD
ENDBRANCH   1  16
TORSDOF 2
ENDMDL
MODEL 5
REMARK VINA RESULT:    -5.407      2.282      5.378
REMARK INTER + INTRA:          -6.089
REMARK INTER:                  -5.828
REMARK INTRA:                  -0.260
REMARK UNBOUND:                -0.207
REMARK SMILES CC1=CCC[C@]2(C)CC[C@H](C(C)(C)O)C[C@H]12
REMARK SMILES IDX 11 1 12 2 13 3 10 4 1 5 2 6 3 7 16 8 4 9 6 10 15 11 5 12
REMARK SMILES IDX 7 13 8 14 9 15 14 16
REMARK H PARENT 14 17
REMARK Flexibility Score: inf
ROOT
ATOM      1  C   UNL     1      -2.135  17.446  48.533  1.00  0.00     0.062 C 
ATOM      2  C   UNL     1      -3.485  18.084  48.123  1.00  0.00     0.042 C 
ATOM      3  C   UNL     1      -1.624  16.603  47.338  1.00  0.00     0.042 C 
ENDROOT
BRANCH   1   4
ATOM      4  C   UNL     1      -1.089  18.557  48.918  1.00  0.00     0.021 C 
ATOM      5  C   UNL     1      -2.251  22.491  51.176  1.00  0.00     0.039 C 
ATOM      6  C   UNL     1      -1.522  22.307  49.872  1.00  0.00    -0.074 C 
ATOM      7  C   UNL     1      -1.643  23.257  48.920  1.00  0.00    -0.028 C 
ATOM      8  C   UNL     1      -0.756  21.015  49.622  1.00  0.00     0.021 C 
ATOM      9  C   UNL     1      -0.872  23.247  47.623  1.00  0.00     0.028 C 
ATOM     10  C   UNL     1       0.373  21.205  48.565  1.00  0.00    -0.026 C 
ATOM     11  C   UNL     1      -1.767  19.912  49.231  1.00  0.00     0.015 C 
ATOM     12  C   UNL     1      -0.208  21.898  47.303  1.00  0.00     0.011 C 
ATOM     13  C   UNL     1       1.510  22.077  49.162  1.00  0.00     0.012 C 
ATOM     14  C   UNL     1       0.998  19.833  48.197  1.00  0.00     0.008 C 
ATOM     15  C   UNL     1      -0.030  18.764  47.809  1.00  0.00     0.007 C 
ENDBRANCH   1   4
BRANCH   1  16
ATOM     16  O   UNL     1      -2.337  16.603  49.644  1.00  0.00    -0.390 OA
ATOM     17  H   UNL     1      -2.912  15.847  49.356  1.00  0.00     0.211 HD
ENDBRANCH   1  16
TORSDOF 2
ENDMDL
MODEL 6
REMARK VINA RESULT:    -5.393      2.095      4.792
REMARK INTER + INTRA:          -6.073
REMARK INTER:                  -5.812
REMARK INTRA:                  -0.260
REMARK UNBOUND:                -0.207
REMARK SMILES CC1=CCC[C@]2(C)CC[C@H](C(C)(C)O)C[C@H]12
REMARK SMILES IDX 11 1 12 2 13 3 10 4 1 5 2 6 3 7 16 8 4 9 6 10 15 11 5 12
REMARK SMILES IDX 7 13 8 14 9 15 14 16
REMARK H PARENT 14 17
REMARK Flexibility Score: inf
ROOT
ATOM      1  C   UNL     1      -1.649  17.376  47.489  1.00  0.00     0.062 C 
ATOM      2  C   UNL     1      -0.293  17.014  46.835  1.00  0.00     0.042 C 
ATOM      3  C   UNL     1      -1.768  16.581  48.813  1.00  0.00     0.042 C 
ENDROOT
BRANCH   1   4
ATOM      4  C   UNL     1      -1.742  18.923  47.758  1.00  0.00     0.021 C 
ATOM      5  C   UNL     1       1.485  21.975  46.274  1.00  0.00     0.039 C 
ATOM      6  C   UNL     1       0.947  21.738  47.660  1.00  0.00    -0.074 C 
ATOM      7  C   UNL     1       1.755  21.965  48.718  1.00  0.00    -0.028 C 
ATOM      8  C   UNL     1      -0.449  21.153  47.828  1.00  0.00     0.021 C 
ATOM      9  C   UNL     1       1.299  21.879  50.154  1.00  0.00     0.028 C 
ATOM     10  C   UNL     1      -1.065  21.512  49.213  1.00  0.00    -0.026 C 
ATOM     11  C   UNL     1      -0.377  19.629  47.577  1.00  0.00     0.015 C 
ATOM     12  C   UNL     1      -0.051  21.167  50.337  1.00  0.00     0.011 C 
ATOM     13  C   UNL     1      -1.403  23.026  49.262  1.00  0.00     0.012 C 
ATOM     14  C   UNL     1      -2.397  20.742  49.422  1.00  0.00     0.008 C 
ATOM     15  C   UNL     1      -2.289  19.233  49.172  1.00  0.00     0.007 C 
ENDBRANCH   1   4
BRANCH   1  16
ATOM     16  O   UNL     1      -2.698  16.998  46.625  1.00  0.00    -0.390 OA
ATOM     17  H   UNL     1      -2.693  17.616  45.848  1.00  0.00     0.211 HD
ENDBRANCH   1  16
TORSDOF 2
ENDMDL
MODEL 7
REMARK VINA RESULT:    -5.324      4.480      8.081
REMARK INTER + INTRA:          -5.998
REMARK INTER:                  -5.759
REMARK INTRA:                  -0.239
REMARK UNBOUND:                -0.207
REMARK SMILES CC1=CCC[C@]2(C)CC[C@H](C(C)(C)O)C[C@H]12
REMARK SMILES IDX 11 1 12 2 13 3 10 4 1 5 2 6 3 7 16 8 4 9 6 10 15 11 5 12
REMARK SMILES IDX 7 13 8 14 9 15 14 16
REMARK H PARENT 14 17
REMARK Flexibility Score: inf
ROOT
ATOM      1  C   UNL     1      -1.404  21.418  49.940  1.00  0.00     0.062 C 
ATOM      2  C   UNL     1      -2.648  20.691  49.373  1.00  0.00     0.042 C 
ATOM      3  C   UNL     1      -0.758  22.227  48.787  1.00  0.00     0.042 C 
ENDROOT
BRANCH   1   4
ATOM      4  C   UNL     1      -1.807  22.368  51.128  1.00  0.00     0.021 C 
ATOM      5  C   UNL     1      -4.980  25.786  50.705  1.00  0.00     0.039 C 
ATOM      6  C   UNL     1      -3.555  25.847  51.188  1.00  0.00    -0.074 C 
ATOM      7  C   UNL     1      -2.851  26.982  50.993  1.00  0.00    -0.028 C 
ATOM      8  C   UNL     1      -2.917  24.600  51.786  1.00  0.00     0.021 C 
ATOM      9  C   UNL     1      -1.460  27.209  51.533  1.00  0.00     0.028 C 
ATOM     10  C   UNL     1      -1.733  24.953  52.736  1.00  0.00    -0.026 C 
ATOM     11  C   UNL     1      -2.503  23.658  50.632  1.00  0.00     0.015 C 
ATOM     12  C   UNL     1      -0.762  25.927  52.014  1.00  0.00     0.011 C 
ATOM     13  C   UNL     1      -2.276  25.620  54.027  1.00  0.00     0.012 C 
ATOM     14  C   UNL     1      -0.991  23.661  53.169  1.00  0.00     0.008 C 
ATOM     15  C   UNL     1      -0.590  22.752  52.001  1.00  0.00     0.007 C 
ENDBRANCH   1   4
BRANCH   1  16
ATOM     16  O   UNL     1      -0.481  20.462  50.411  1.00  0.00    -0.390 OA
ATOM     17  H   UNL     1       0.424  20.733  50.108  1.00  0.00     0.211 HD
ENDBRANCH   1  16
TORSDOF 2
ENDMDL
MODEL 8
REMARK VINA RESULT:    -5.292      7.539     10.045
REMARK INTER + INTRA:          -5.963
REMARK INTER:                  -5.756
REMARK INTRA:                  -0.207
REMARK UNBOUND:                -0.207
REMARK SMILES CC1=CCC[C@]2(C)CC[C@H](C(C)(C)O)C[C@H]12
REMARK SMILES IDX 11 1 12 2 13 3 10 4 1 5 2 6 3 7 16 8 4 9 6 10 15 11 5 12
REMARK SMILES IDX 7 13 8 14 9 15 14 16
REMARK H PARENT 14 17
REMARK Flexibility Score: inf
ROOT
ATOM      1  C   UNL     1       6.093  21.098  40.671  1.00  0.00     0.062 C 
ATOM      2  C   UNL     1       5.854  21.033  39.142  1.00  0.00     0.042 C 
ATOM      3  C   UNL     1       4.717  21.270  41.361  1.00  0.00     0.042 C 
ENDROOT
BRANCH   1   4
ATOM      4  C   UNL     1       6.810  19.793  41.177  1.00  0.00     0.021 C 
ATOM      5  C   UNL     1       5.144  17.146  44.662  1.00  0.00     0.039 C 
ATOM      6  C   UNL     1       6.498  17.783  44.498  1.00  0.00    -0.074 C 
ATOM      7  C   UNL     1       7.179  18.156  45.603  1.00  0.00    -0.028 C 
ATOM      8  C   UNL     1       7.015  18.085  43.098  1.00  0.00     0.021 C 
ATOM      9  C   UNL     1       8.589  18.694  45.576  1.00  0.00     0.028 C 
ATOM     10  C   UNL     1       8.571  18.170  43.060  1.00  0.00    -0.026 C 
ATOM     11  C   UNL     1       6.328  19.372  42.586  1.00  0.00     0.015 C 
ATOM     12  C   UNL     1       9.065  19.125  44.180  1.00  0.00     0.011 C 
ATOM     13  C   UNL     1       9.180  16.759  43.271  1.00  0.00     0.012 C 
ATOM     14  C   UNL     1       9.046  18.666  41.668  1.00  0.00     0.008 C 
ATOM     15  C   UNL     1       8.350  19.947  41.193  1.00  0.00     0.007 C 
ENDBRANCH   1   4
BRANCH   1  16
ATOM     16  O   UNL     1       6.905  22.211  40.968  1.00  0.00    -0.390 OA
ATOM     17  H   UNL     1       7.259  22.096  41.888  1.00  0.00     0.211 HD
ENDBRANCH   1  16
TORSDOF 2
ENDMDL
MODEL 9
REMARK VINA RESULT:    -5.191      2.540      4.466
REMARK INTER + INTRA:          -5.853
REMARK INTER:                  -5.650
REMARK INTRA:                  -0.203
REMARK UNBOUND:                -0.207
REMARK SMILES CC1=CCC[C@]2(C)CC[C@H](C(C)(C)O)C[C@H]12
REMARK SMILES IDX 11 1 12 2 13 3 10 4 1 5 2 6 3 7 16 8 4 9 6 10 15 11 5 12
REMARK SMILES IDX 7 13 8 14 9 15 14 16
REMARK H PARENT 14 17
REMARK Flexibility Score: inf
ROOT
ATOM      1  C   UNL     1      -1.922  23.202  51.367  1.00  0.00     0.062 C 
ATOM      2  C   UNL     1      -0.898  24.346  51.571  1.00  0.00     0.042 C 
ATOM      3  C   UNL     1      -3.324  23.744  51.741  1.00  0.00     0.042 C 
ENDROOT
BRANCH   1   4
ATOM      4  C   UNL     1      -1.900  22.697  49.877  1.00  0.00     0.021 C 
ATOM      5  C   UNL     1      -3.183  18.370  48.627  1.00  0.00     0.039 C 
ATOM      6  C   UNL     1      -1.902  19.112  48.355  1.00  0.00    -0.074 C 
ATOM      7  C   UNL     1      -0.756  18.408  48.234  1.00  0.00    -0.028 C 
ATOM      8  C   UNL     1      -1.914  20.635  48.329  1.00  0.00     0.021 C 
ATOM      9  C   UNL     1       0.567  19.022  47.846  1.00  0.00     0.028 C 
ATOM     10  C   UNL     1      -0.734  21.210  47.489  1.00  0.00    -0.026 C 
ATOM     11  C   UNL     1      -1.924  21.152  49.785  1.00  0.00     0.015 C 
ATOM     12  C   UNL     1       0.597  20.555  47.948  1.00  0.00     0.011 C 
ATOM     13  C   UNL     1      -0.968  20.915  45.983  1.00  0.00     0.012 C 
ATOM     14  C   UNL     1      -0.667  22.753  47.645  1.00  0.00     0.008 C 
ATOM     15  C   UNL     1      -0.673  23.231  49.101  1.00  0.00     0.007 C 
ENDBRANCH   1   4
BRANCH   1  16
ATOM     16  O   UNL     1      -1.595  22.128  52.219  1.00  0.00    -0.390 OA
ATOM     17  H   UNL     1      -2.442  21.737  52.559  1.00  0.00     0.211 HD
ENDBRANCH   1  16
TORSDOF 2
ENDMDL
