MODEL 1
REMARK VINA RESULT:    -4.668      0.000      0.000
REMARK INTER + INTRA:          -5.292
REMARK INTER:                  -5.077
REMARK INTRA:                  -0.214
REMARK UNBOUND:                -0.214
REMARK SMILES O=C([O-])c1ccccc1O
REMARK SMILES IDX 4 1 9 2 5 3 8 4 6 5 7 6 2 7 1 8 3 9 10 10
REMARK H PARENT 10 11
REMARK Flexibility Score: inf
ROOT
ATOM      1  C   UNL     1      15.021   3.977  15.343  1.00  0.00     0.039 A 
ATOM      2  C   UNL     1      14.572   5.009  16.205  1.00  0.00     0.124 A 
ATOM      3  C   UNL     1      14.372   3.790  14.108  1.00  0.00     0.014 A 
ATOM      4  C   UNL     1      13.456   5.777  15.844  1.00  0.00     0.047 A 
ATOM      5  C   UNL     1      13.274   4.578  13.754  1.00  0.00     0.001 A 
ATOM      6  C   UNL     1      12.811   5.564  14.625  1.00  0.00     0.004 A 
ENDROOT
BRANCH   1   7
ATOM      7  C   UNL     1      16.126   3.064  15.707  1.00  0.00     0.075 C 
ATOM      8  O   UNL     1      16.044   2.351  16.743  1.00  0.00    -0.545 OA
ATOM      9  O   UNL     1      17.296   3.028  14.957  1.00  0.00    -0.545 OA
ENDBRANCH   1   7
BRANCH   2  10
ATOM     10  O   UNL     1      15.219   5.326  17.401  1.00  0.00    -0.507 OA
ATOM     11  H   UNL     1      15.848   6.110  17.502  1.00  0.00     0.293 HD
ENDBRANCH   2  10
TORSDOF 2
ENDMDL
MODEL 2
REMARK VINA RESULT:    -4.100      2.226      4.025
REMARK INTER + INTRA:          -4.674
REMARK INTER:                  -4.465
REMARK INTRA:                  -0.209
REMARK UNBOUND:                -0.214
REMARK SMILES O=C([O-])c1ccccc1O
REMARK SMILES IDX 4 1 9 2 5 3 8 4 6 5 7 6 2 7 1 8 3 9 10 10
REMARK H PARENT 10 11
REMARK Flexibility Score: inf
ROOT
ATOM      1  C   UNL     1      14.283   5.174  15.484  1.00  0.00     0.039 A 
ATOM      2  C   UNL     1      14.628   4.079  14.653  1.00  0.00     0.124 A 
ATOM      3  C   UNL     1      14.528   5.083  16.868  1.00  0.00     0.014 A 
ATOM      4  C   UNL     1      15.144   2.909  15.226  1.00  0.00     0.047 A 
ATOM      5  C   UNL     1      15.062   3.916  17.421  1.00  0.00     0.001 A 
ATOM      6  C   UNL     1      15.361   2.827  16.603  1.00  0.00     0.004 A 
ENDROOT
BRANCH   1   7
ATOM      7  C   UNL     1      13.640   6.398  14.959  1.00  0.00     0.075 C 
ATOM      8  O   UNL     1      12.524   6.329  14.379  1.00  0.00    -0.545 OA
ATOM      9  O   UNL     1      14.285   7.628  15.034  1.00  0.00    -0.545 OA
ENDBRANCH   1   7
BRANCH   2  10
ATOM     10  O   UNL     1      14.510   4.124  13.263  1.00  0.00    -0.507 OA
ATOM     11  H   UNL     1      14.064   4.883  12.767  1.00  0.00     0.293 HD
ENDBRANCH   2  10
TORSDOF 2
ENDMDL
MODEL 3
REMARK VINA RESULT:    -3.369      1.041      2.166
REMARK INTER + INTRA:          -3.879
REMARK INTER:                  -3.662
REMARK INTRA:                  -0.217
REMARK UNBOUND:                -0.214
REMARK SMILES O=C([O-])c1ccccc1O
REMARK SMILES IDX 4 1 9 2 5 3 8 4 6 5 7 6 2 7 1 8 3 9 10 10
REMARK H PARENT 10 11
REMARK Flexibility Score: inf
ROOT
ATOM      1  C   UNL     1      15.031   3.923  15.483  1.00  0.00     0.039 A 
ATOM      2  C   UNL     1      14.455   3.949  14.188  1.00  0.00     0.124 A 
ATOM      3  C   UNL     1      14.543   4.808  16.464  1.00  0.00     0.014 A 
ATOM      4  C   UNL     1      13.462   4.891  13.890  1.00  0.00     0.047 A 
ATOM      5  C   UNL     1      13.537   5.727  16.156  1.00  0.00     0.001 A 
ATOM      6  C   UNL     1      13.004   5.775  14.868  1.00  0.00     0.004 A 
ENDROOT
BRANCH   1   7
ATOM      7  C   UNL     1      16.152   3.025  15.836  1.00  0.00     0.075 C 
ATOM      8  O   UNL     1      16.081   2.294  16.860  1.00  0.00    -0.545 OA
ATOM      9  O   UNL     1      17.325   3.025  15.089  1.00  0.00    -0.545 OA
ENDBRANCH   1   7
BRANCH   2  10
ATOM     10  O   UNL     1      14.812   3.041  13.189  1.00  0.00    -0.507 OA
ATOM     11  H   UNL     1      15.124   3.321  12.269  1.00  0.00     0.293 HD
ENDBRANCH   2  10
TORSDOF 2
ENDMDL
MODEL 4
REMARK VINA RESULT:    -3.198      2.237      3.468
REMARK INTER + INTRA:          -3.693
REMARK INTER:                  -3.443
REMARK INTRA:                  -0.250
REMARK UNBOUND:                -0.214
REMARK SMILES O=C([O-])c1ccccc1O
REMARK SMILES IDX 4 1 9 2 5 3 8 4 6 5 7 6 2 7 1 8 3 9 10 10
REMARK H PARENT 10 11
REMARK Flexibility Score: inf
ROOT
ATOM      1  C   UNL     1      14.098   5.118  15.481  1.00  0.00     0.039 A 
ATOM      2  C   UNL     1      14.757   5.137  16.736  1.00  0.00     0.124 A 
ATOM      3  C   UNL     1      14.001   3.901  14.780  1.00  0.00     0.014 A 
ATOM      4  C   UNL     1      15.351   3.966  17.224  1.00  0.00     0.047 A 
ATOM      5  C   UNL     1      14.582   2.738  15.291  1.00  0.00     0.001 A 
ATOM      6  C   UNL     1      15.264   2.772  16.507  1.00  0.00     0.004 A 
ENDROOT
BRANCH   1   7
ATOM      7  C   UNL     1      13.539   6.338  14.859  1.00  0.00     0.075 C 
ATOM      8  O   UNL     1      12.439   6.290  14.247  1.00  0.00    -0.545 OA
ATOM      9  O   UNL     1      14.246   7.535  14.880  1.00  0.00    -0.545 OA
ENDBRANCH   1   7
BRANCH   2  10
ATOM     10  O   UNL     1      14.811   6.278  17.539  1.00  0.00    -0.507 OA
ATOM     11  H   UNL     1      14.405   6.328  18.463  1.00  0.00     0.293 HD
ENDBRANCH   2  10
TORSDOF 2
ENDMDL
MODEL 5
REMARK VINA RESULT:    -2.582      1.874      3.402
REMARK INTER + INTRA:          -3.023
REMARK INTER:                  -2.848
REMARK INTRA:                  -0.175
REMARK UNBOUND:                -0.214
REMARK SMILES O=C([O-])c1ccccc1O
REMARK SMILES IDX 4 1 9 2 5 3 8 4 6 5 7 6 2 7 1 8 3 9 10 10
REMARK H PARENT 10 11
REMARK Flexibility Score: inf
ROOT
ATOM      1  C   UNL     1      14.418   4.425  15.062  1.00  0.00     0.039 A 
ATOM      2  C   UNL     1      15.150   4.091  16.230  1.00  0.00     0.124 A 
ATOM      3  C   UNL     1      14.886   3.976  13.812  1.00  0.00     0.014 A 
ATOM      4  C   UNL     1      16.351   3.379  16.115  1.00  0.00     0.047 A 
ATOM      5  C   UNL     1      16.075   3.249  13.718  1.00  0.00     0.001 A 
ATOM      6  C   UNL     1      16.812   2.959  14.866  1.00  0.00     0.004 A 
ENDROOT
BRANCH   1   7
ATOM      7  C   UNL     1      13.198   5.261  15.102  1.00  0.00     0.075 C 
ATOM      8  O   UNL     1      12.131   4.802  15.590  1.00  0.00    -0.545 OA
ATOM      9  O   UNL     1      13.189   6.533  14.541  1.00  0.00    -0.545 OA
ENDBRANCH   1   7
BRANCH   2  10
ATOM     10  O   UNL     1      14.705   4.412  17.514  1.00  0.00    -0.507 OA
ATOM     11  H   UNL     1      14.041   5.150  17.704  1.00  0.00     0.293 HD
ENDBRANCH   2  10
TORSDOF 2
ENDMDL
MODEL 6
REMARK VINA RESULT:    -1.990      1.722      3.128
REMARK INTER + INTRA:          -2.379
REMARK INTER:                  -2.182
REMARK INTRA:                  -0.196
REMARK UNBOUND:                -0.214
REMARK SMILES O=C([O-])c1ccccc1O
REMARK SMILES IDX 4 1 9 2 5 3 8 4 6 5 7 6 2 7 1 8 3 9 10 10
REMARK H PARENT 10 11
REMARK Flexibility Score: inf
ROOT
ATOM      1  C   UNL     1      14.552   5.398  15.782  1.00  0.00     0.039 A 
ATOM      2  C   UNL     1      14.871   4.247  16.546  1.00  0.00     0.124 A 
ATOM      3  C   UNL     1      14.116   5.234  14.453  1.00  0.00     0.014 A 
ATOM      4  C   UNL     1      14.807   2.980  15.950  1.00  0.00     0.047 A 
ATOM      5  C   UNL     1      14.038   3.962  13.881  1.00  0.00     0.001 A 
ATOM      6  C   UNL     1      14.392   2.838  14.625  1.00  0.00     0.004 A 
ENDROOT
BRANCH   1   7
ATOM      7  C   UNL     1      14.696   6.770  16.315  1.00  0.00     0.075 C 
ATOM      8  O   UNL     1      14.855   6.956  17.551  1.00  0.00    -0.545 OA
ATOM      9  O   UNL     1      14.587   7.874  15.477  1.00  0.00    -0.545 OA
ENDBRANCH   1   7
BRANCH   2  10
ATOM     10  O   UNL     1      15.216   4.314  17.897  1.00  0.00    -0.507 OA
ATOM     11  H   UNL     1      14.906   3.641  18.585  1.00  0.00     0.293 HD
ENDBRANCH   2  10
TORSDOF 2
ENDMDL
