MODEL 1
REMARK VINA RESULT:    -7.381      0.000      0.000
REMARK INTER + INTRA:          -8.277
REMARK INTER:                  -8.028
REMARK INTRA:                  -0.248
REMARK UNBOUND:                -0.248
REMARK SMILES CC1(C)CC[C@]2(C(=O)[O-])CC[C@@]3(C)C(=CC[C@@H]4[C@@]5(C)CC[C@H](O)C(C)(C)[C@H]5CC[C@@]43C)[C@@H]2C1
REMARK SMILES IDX 6 1 5 2 10 3 32 4 4 5 11 6 14 7 33 8 2 9 12 10 15 11 1 12
REMARK SMILES IDX 3 13 13 14 30 15 16 16 17 17 29 18 31 19 18 20 28 21 27 22
REMARK SMILES IDX 20 23 19 24 24 25 21 26 22 27 25 28 26 29 7 30 8 31 9 32
REMARK SMILES IDX 23 33
REMARK H PARENT 23 34
REMARK Flexibility Score: inf
ROOT
ATOM      1  C   UNL     1     114.490 107.838 114.314  1.00  0.00     0.017 C 
ATOM      2  C   UNL     1     115.243 107.247 113.085  1.00  0.00     0.014 C 
ATOM      3  C   UNL     1     113.950 109.280 113.989  1.00  0.00     0.014 C 
ATOM      4  C   UNL     1     115.420 107.819 115.581  1.00  0.00     0.028 C 
ATOM      5  C   UNL     1     116.647 107.827 112.872  1.00  0.00     0.007 C 
ATOM      6  C   UNL     1     114.230 110.359 115.054  1.00  0.00     0.013 C 
ATOM      7  C   UNL     1     114.798 108.590 116.745  1.00  0.00    -0.064 C 
ATOM      8  C   UNL     1     116.872 108.306 115.335  1.00  0.00     0.015 C 
ATOM      9  C   UNL     1     117.558 107.661 114.109  1.00  0.00    -0.035 C 
ATOM     10  C   UNL     1     114.012 109.889 116.536  1.00  0.00    -0.006 C 
ATOM     11  C   UNL     1     114.982 108.134 117.991  1.00  0.00    -0.027 C 
ATOM     12  C   UNL     1     118.890 108.396 113.840  1.00  0.00     0.011 C 
ATOM     13  C   UNL     1     117.886 106.172 114.375  1.00  0.00     0.011 C 
ATOM     14  C   UNL     1     112.492 109.568 116.677  1.00  0.00     0.017 C 
ATOM     15  C   UNL     1     114.487 110.996 117.630  1.00  0.00    -0.020 C 
ATOM     16  C   UNL     1     114.427 108.860 119.172  1.00  0.00     0.032 C 
ATOM     17  C   UNL     1     114.725 110.392 119.101  1.00  0.00     0.006 C 
ATOM     18  C   UNL     1     113.490 112.195 117.656  1.00  0.00     0.008 C 
ATOM     19  C   UNL     1     115.862 111.599 117.191  1.00  0.00     0.012 C 
ATOM     20  C   UNL     1     114.117 111.214 120.333  1.00  0.00    -0.025 C 
ATOM     21  C   UNL     1     112.326 112.115 118.652  1.00  0.00     0.005 C 
ATOM     22  C   UNL     1     112.593 111.529 120.084  1.00  0.00     0.003 C 
ATOM     23  C   UNL     1     114.891 112.550 120.576  1.00  0.00     0.010 C 
ATOM     24  C   UNL     1     114.343 110.343 121.614  1.00  0.00     0.012 C 
ATOM     25  C   UNL     1     111.907 112.433 121.208  1.00  0.00    -0.006 C 
ATOM     26  C   UNL     1     114.248 113.467 121.638  1.00  0.00     0.033 C 
ATOM     27  C   UNL     1     112.749 113.738 121.398  1.00  0.00     0.120 C 
ATOM     28  C   UNL     1     110.449 112.813 120.792  1.00  0.00     0.014 C 
ATOM     29  C   UNL     1     111.748 111.670 122.563  1.00  0.00     0.014 C 
ENDROOT
BRANCH   1  30
ATOM     30  C   UNL     1     113.287 106.916 114.526  1.00  0.00     0.048 C 
ATOM     31  O   UNL     1     113.366 105.879 115.239  1.00  0.00    -0.550 OA
ATOM     32  O   UNL     1     112.080 107.201 113.896  1.00  0.00    -0.550 OA
ENDBRANCH   1  30
BRANCH  27  33
ATOM     33  O   UNL     1     112.255 114.493 122.478  1.00  0.00    -0.393 OA
ATOM     34  H   UNL     1     111.972 113.852 123.182  1.00  0.00     0.210 HD
ENDBRANCH  27  33
TORSDOF 2
ENDMDL
MODEL 2
REMARK VINA RESULT:    -7.082      8.074     10.439
REMARK INTER + INTRA:          -7.951
REMARK INTER:                  -7.703
REMARK INTRA:                  -0.248
REMARK UNBOUND:                -0.248
REMARK SMILES CC1(C)CC[C@]2(C(=O)[O-])CC[C@@]3(C)C(=CC[C@@H]4[C@@]5(C)CC[C@H](O)C(C)(C)[C@H]5CC[C@@]43C)[C@@H]2C1
REMARK SMILES IDX 6 1 5 2 10 3 32 4 4 5 11 6 14 7 33 8 2 9 12 10 15 11 1 12
REMARK SMILES IDX 3 13 13 14 30 15 16 16 17 17 29 18 31 19 18 20 28 21 27 22
REMARK SMILES IDX 20 23 19 24 24 25 21 26 22 27 25 28 26 29 7 30 8 31 9 32
REMARK SMILES IDX 23 33
REMARK H PARENT 23 34
REMARK Flexibility Score: inf
ROOT
ATOM      1  C   UNL     1     108.677 110.123 116.746  1.00  0.00     0.017 C 
ATOM      2  C   UNL     1     110.180 109.802 116.995  1.00  0.00     0.014 C 
ATOM      3  C   UNL     1     108.181 109.444 115.416  1.00  0.00     0.014 C 
ATOM      4  C   UNL     1     108.446 111.678 116.746  1.00  0.00     0.028 C 
ATOM      5  C   UNL     1     111.146 110.605 116.114  1.00  0.00     0.007 C 
ATOM      6  C   UNL     1     107.378 110.346 114.458  1.00  0.00     0.013 C 
ATOM      7  C   UNL     1     107.032 112.035 116.286  1.00  0.00    -0.064 C 
ATOM      8  C   UNL     1     109.489 112.495 115.941  1.00  0.00     0.015 C 
ATOM      9  C   UNL     1     110.959 112.132 116.257  1.00  0.00    -0.035 C 
ATOM     10  C   UNL     1     106.323 111.273 115.161  1.00  0.00    -0.006 C 
ATOM     11  C   UNL     1     106.411 113.074 116.861  1.00  0.00    -0.027 C 
ATOM     12  C   UNL     1     111.876 112.837 115.234  1.00  0.00     0.011 C 
ATOM     13  C   UNL     1     111.362 112.624 117.668  1.00  0.00     0.011 C 
ATOM     14  C   UNL     1     105.265 110.325 115.804  1.00  0.00     0.017 C 
ATOM     15  C   UNL     1     105.627 112.331 114.140  1.00  0.00    -0.020 C 
ATOM     16  C   UNL     1     105.043 113.491 116.432  1.00  0.00     0.032 C 
ATOM     17  C   UNL     1     104.924 113.575 114.877  1.00  0.00     0.006 C 
ATOM     18  C   UNL     1     104.636 111.594 113.187  1.00  0.00     0.008 C 
ATOM     19  C   UNL     1     106.723 112.952 113.213  1.00  0.00     0.012 C 
ATOM     20  C   UNL     1     103.461 113.988 114.375  1.00  0.00    -0.025 C 
ATOM     21  C   UNL     1     103.174 111.494 113.641  1.00  0.00     0.005 C 
ATOM     22  C   UNL     1     102.513 112.728 114.349  1.00  0.00     0.003 C 
ATOM     23  C   UNL     1     103.499 114.638 112.954  1.00  0.00     0.010 C 
ATOM     24  C   UNL     1     102.945 115.101 115.347  1.00  0.00     0.012 C 
ATOM     25  C   UNL     1     101.052 113.006 113.769  1.00  0.00    -0.006 C 
ATOM     26  C   UNL     1     102.106 114.900 112.343  1.00  0.00     0.033 C 
ATOM     27  C   UNL     1     101.180 113.668 112.356  1.00  0.00     0.120 C 
ATOM     28  C   UNL     1     100.248 111.671 113.644  1.00  0.00     0.014 C 
ATOM     29  C   UNL     1     100.196 113.897 114.726  1.00  0.00     0.014 C 
ENDROOT
BRANCH   1  30
ATOM     30  C   UNL     1     107.932 109.477 117.916  1.00  0.00     0.048 C 
ATOM     31  O   UNL     1     107.750 110.089 119.003  1.00  0.00    -0.550 OA
ATOM     32  O   UNL     1     107.467 108.171 117.801  1.00  0.00    -0.550 OA
ENDBRANCH   1  30
BRANCH  27  33
ATOM     33  O   UNL     1      99.916 114.055 111.875  1.00  0.00    -0.393 OA
ATOM     34  H   UNL     1      99.264 113.366 112.169  1.00  0.00     0.210 HD
ENDBRANCH  27  33
TORSDOF 2
ENDMDL
MODEL 3
REMARK VINA RESULT:    -7.059      8.052     10.158
REMARK INTER + INTRA:          -7.926
REMARK INTER:                  -7.657
REMARK INTRA:                  -0.269
REMARK UNBOUND:                -0.248
REMARK SMILES CC1(C)CC[C@]2(C(=O)[O-])CC[C@@]3(C)C(=CC[C@@H]4[C@@]5(C)CC[C@H](O)C(C)(C)[C@H]5CC[C@@]43C)[C@@H]2C1
REMARK SMILES IDX 6 1 5 2 10 3 32 4 4 5 11 6 14 7 33 8 2 9 12 10 15 11 1 12
REMARK SMILES IDX 3 13 13 14 30 15 16 16 17 17 29 18 31 19 18 20 28 21 27 22
REMARK SMILES IDX 20 23 19 24 24 25 21 26 22 27 25 28 26 29 7 30 8 31 9 32
REMARK SMILES IDX 23 33
REMARK H PARENT 23 34
REMARK Flexibility Score: inf
ROOT
ATOM      1  C   UNL     1     106.815 106.752 116.341  1.00  0.00     0.017 C 
ATOM      2  C   UNL     1     107.629 105.440 116.134  1.00  0.00     0.014 C 
ATOM      3  C   UNL     1     105.330 106.561 115.858  1.00  0.00     0.014 C 
ATOM      4  C   UNL     1     107.529 107.953 115.620  1.00  0.00     0.028 C 
ATOM      5  C   UNL     1     108.037 105.178 114.679  1.00  0.00     0.007 C 
ATOM      6  C   UNL     1     104.767 107.676 114.955  1.00  0.00     0.013 C 
ATOM      7  C   UNL     1     106.650 109.204 115.612  1.00  0.00    -0.064 C 
ATOM      8  C   UNL     1     108.034 107.649 114.186  1.00  0.00     0.015 C 
ATOM      9  C   UNL     1     108.850 106.341 114.066  1.00  0.00    -0.035 C 
ATOM     10  C   UNL     1     105.132 109.134 115.410  1.00  0.00    -0.006 C 
ATOM     11  C   UNL     1     107.234 110.402 115.747  1.00  0.00    -0.027 C 
ATOM     12  C   UNL     1     109.087 106.039 112.569  1.00  0.00     0.011 C 
ATOM     13  C   UNL     1     110.234 106.483 114.743  1.00  0.00     0.011 C 
ATOM     14  C   UNL     1     104.445 109.349 116.794  1.00  0.00     0.017 C 
ATOM     15  C   UNL     1     104.672 110.268 114.338  1.00  0.00    -0.020 C 
ATOM     16  C   UNL     1     106.433 111.662 115.715  1.00  0.00     0.032 C 
ATOM     17  C   UNL     1     105.426 111.677 114.522  1.00  0.00     0.006 C 
ATOM     18  C   UNL     1     103.123 110.439 114.361  1.00  0.00     0.008 C 
ATOM     19  C   UNL     1     105.023 109.785 112.893  1.00  0.00     0.012 C 
ATOM     20  C   UNL     1     104.523 112.998 114.471  1.00  0.00    -0.025 C 
ATOM     21  C   UNL     1     102.550 111.500 115.310  1.00  0.00     0.005 C 
ATOM     22  C   UNL     1     103.303 112.868 115.461  1.00  0.00     0.003 C 
ATOM     23  C   UNL     1     103.993 113.282 113.028  1.00  0.00     0.010 C 
ATOM     24  C   UNL     1     105.458 114.200 114.834  1.00  0.00     0.012 C 
ATOM     25  C   UNL     1     102.279 114.093 115.420  1.00  0.00    -0.006 C 
ATOM     26  C   UNL     1     102.978 114.442 112.946  1.00  0.00     0.033 C 
ATOM     27  C   UNL     1     101.810 114.317 113.944  1.00  0.00     0.120 C 
ATOM     28  C   UNL     1     101.034 113.797 116.319  1.00  0.00     0.014 C 
ATOM     29  C   UNL     1     102.897 115.399 116.013  1.00  0.00     0.014 C 
ENDROOT
BRANCH   1  30
ATOM     30  C   UNL     1     106.798 106.977 117.854  1.00  0.00     0.048 C 
ATOM     31  O   UNL     1     105.831 106.599 118.569  1.00  0.00    -0.550 OA
ATOM     32  O   UNL     1     107.856 107.644 118.464  1.00  0.00    -0.550 OA
ENDBRANCH   1  30
BRANCH  27  33
ATOM     33  O   UNL     1     101.016 115.475 113.848  1.00  0.00    -0.393 OA
ATOM     34  H   UNL     1     100.246 115.358 114.463  1.00  0.00     0.210 HD
ENDBRANCH  27  33
TORSDOF 2
ENDMDL
MODEL 4
REMARK VINA RESULT:    -6.886      8.209     10.562
REMARK INTER + INTRA:          -7.738
REMARK INTER:                  -7.470
REMARK INTRA:                  -0.268
REMARK UNBOUND:                -0.248
REMARK SMILES CC1(C)CC[C@]2(C(=O)[O-])CC[C@@]3(C)C(=CC[C@@H]4[C@@]5(C)CC[C@H](O)C(C)(C)[C@H]5CC[C@@]43C)[C@@H]2C1
REMARK SMILES IDX 6 1 5 2 10 3 32 4 4 5 11 6 14 7 33 8 2 9 12 10 15 11 1 12
REMARK SMILES IDX 3 13 13 14 30 15 16 16 17 17 29 18 31 19 18 20 28 21 27 22
REMARK SMILES IDX 20 23 19 24 24 25 21 26 22 27 25 28 26 29 7 30 8 31 9 32
REMARK SMILES IDX 23 33
REMARK H PARENT 23 34
REMARK Flexibility Score: inf
ROOT
ATOM      1  C   UNL     1     108.739 108.883 115.625  1.00  0.00     0.017 C 
ATOM      2  C   UNL     1     109.622 107.664 116.025  1.00  0.00     0.014 C 
ATOM      3  C   UNL     1     108.069 109.519 116.899  1.00  0.00     0.014 C 
ATOM      4  C   UNL     1     107.682 108.457 114.543  1.00  0.00     0.028 C 
ATOM      5  C   UNL     1     108.826 106.395 116.355  1.00  0.00     0.007 C 
ATOM      6  C   UNL     1     106.560 109.813 116.790  1.00  0.00     0.013 C 
ATOM      7  C   UNL     1     106.658 109.565 114.292  1.00  0.00    -0.064 C 
ATOM      8  C   UNL     1     106.956 107.117 114.829  1.00  0.00     0.015 C 
ATOM      9  C   UNL     1     107.901 105.951 115.200  1.00  0.00    -0.035 C 
ATOM     10  C   UNL     1     106.112 110.443 115.423  1.00  0.00    -0.006 C 
ATOM     11  C   UNL     1     106.197 109.745 113.047  1.00  0.00    -0.027 C 
ATOM     12  C   UNL     1     107.050 104.756 115.684  1.00  0.00     0.011 C 
ATOM     13  C   UNL     1     108.715 105.482 113.970  1.00  0.00     0.011 C 
ATOM     14  C   UNL     1     106.803 111.839 115.335  1.00  0.00     0.017 C 
ATOM     15  C   UNL     1     104.496 110.571 115.282  1.00  0.00    -0.020 C 
ATOM     16  C   UNL     1     105.173 110.788 112.745  1.00  0.00     0.032 C 
ATOM     17  C   UNL     1     103.991 110.753 113.766  1.00  0.00     0.006 C 
ATOM     18  C   UNL     1     103.960 111.708 116.205  1.00  0.00     0.008 C 
ATOM     19  C   UNL     1     103.826 109.256 115.797  1.00  0.00     0.012 C 
ATOM     20  C   UNL     1     102.887 111.880 113.496  1.00  0.00    -0.025 C 
ATOM     21  C   UNL     1     103.848 113.111 115.595  1.00  0.00     0.005 C 
ATOM     22  C   UNL     1     103.342 113.256 114.116  1.00  0.00     0.003 C 
ATOM     23  C   UNL     1     101.495 111.480 114.086  1.00  0.00     0.010 C 
ATOM     24  C   UNL     1     102.692 111.962 111.945  1.00  0.00     0.012 C 
ATOM     25  C   UNL     1     102.268 114.431 113.991  1.00  0.00    -0.006 C 
ATOM     26  C   UNL     1     100.433 112.597 114.010  1.00  0.00     0.033 C 
ATOM     27  C   UNL     1     100.907 113.945 114.590  1.00  0.00     0.120 C 
ATOM     28  C   UNL     1     102.752 115.700 114.767  1.00  0.00     0.014 C 
ATOM     29  C   UNL     1     102.088 114.912 112.515  1.00  0.00     0.014 C 
ENDROOT
BRANCH   1  30
ATOM     30  C   UNL     1     109.713 109.907 115.039  1.00  0.00     0.048 C 
ATOM     31  O   UNL     1     110.128 109.822 113.852  1.00  0.00    -0.550 OA
ATOM     32  O   UNL     1     110.186 110.945 115.837  1.00  0.00    -0.550 OA
ENDBRANCH   1  30
BRANCH  27  33
ATOM     33  O   UNL     1      99.900 114.903 114.370  1.00  0.00    -0.393 OA
ATOM     34  H   UNL     1      99.616 114.822 113.422  1.00  0.00     0.210 HD
ENDBRANCH  27  33
TORSDOF 2
ENDMDL
MODEL 5
REMARK VINA RESULT:    -6.855      4.898      7.610
REMARK INTER + INTRA:          -7.704
REMARK INTER:                  -7.437
REMARK INTRA:                  -0.267
REMARK UNBOUND:                -0.248
REMARK SMILES CC1(C)CC[C@]2(C(=O)[O-])CC[C@@]3(C)C(=CC[C@@H]4[C@@]5(C)CC[C@H](O)C(C)(C)[C@H]5CC[C@@]43C)[C@@H]2C1
REMARK SMILES IDX 6 1 5 2 10 3 32 4 4 5 11 6 14 7 33 8 2 9 12 10 15 11 1 12
REMARK SMILES IDX 3 13 13 14 30 15 16 16 17 17 29 18 31 19 18 20 28 21 27 22
REMARK SMILES IDX 20 23 19 24 24 25 21 26 22 27 25 28 26 29 7 30 8 31 9 32
REMARK SMILES IDX 23 33
REMARK H PARENT 23 34
REMARK Flexibility Score: inf
ROOT
ATOM      1  C   UNL     1     106.870 111.342 114.639  1.00  0.00     0.017 C 
ATOM      2  C   UNL     1     105.602 110.850 113.881  1.00  0.00     0.014 C 
ATOM      3  C   UNL     1     108.104 110.427 114.301  1.00  0.00     0.014 C 
ATOM      4  C   UNL     1     106.585 111.416 116.183  1.00  0.00     0.028 C 
ATOM      5  C   UNL     1     104.957 109.596 114.486  1.00  0.00     0.007 C 
ATOM      6  C   UNL     1     108.938 109.949 115.506  1.00  0.00     0.013 C 
ATOM      7  C   UNL     1     107.865 111.679 116.978  1.00  0.00    -0.064 C 
ATOM      8  C   UNL     1     105.837 110.191 116.770  1.00  0.00     0.015 C 
ATOM      9  C   UNL     1     104.579 109.775 115.973  1.00  0.00    -0.035 C 
ATOM     10  C   UNL     1     109.208 111.048 116.595  1.00  0.00    -0.006 C 
ATOM     11  C   UNL     1     107.798 112.456 118.067  1.00  0.00    -0.027 C 
ATOM     12  C   UNL     1     104.071 108.421 116.517  1.00  0.00     0.011 C 
ATOM     13  C   UNL     1     103.442 110.810 116.149  1.00  0.00     0.011 C 
ATOM     14  C   UNL     1     110.083 112.141 115.907  1.00  0.00     0.017 C 
ATOM     15  C   UNL     1     109.934 110.459 117.926  1.00  0.00    -0.020 C 
ATOM     16  C   UNL     1     109.006 112.724 118.902  1.00  0.00     0.032 C 
ATOM     17  C   UNL     1     109.797 111.412 119.213  1.00  0.00     0.006 C 
ATOM     18  C   UNL     1     111.424 110.113 117.623  1.00  0.00     0.008 C 
ATOM     19  C   UNL     1     109.259 109.106 118.327  1.00  0.00     0.012 C 
ATOM     20  C   UNL     1     111.120 111.661 120.080  1.00  0.00    -0.025 C 
ATOM     21  C   UNL     1     112.463 111.213 117.880  1.00  0.00     0.005 C 
ATOM     22  C   UNL     1     112.307 112.121 119.150  1.00  0.00     0.003 C 
ATOM     23  C   UNL     1     111.545 110.380 120.868  1.00  0.00     0.010 C 
ATOM     24  C   UNL     1     110.759 112.735 121.160  1.00  0.00     0.012 C 
ATOM     25  C   UNL     1     113.706 112.304 119.898  1.00  0.00    -0.006 C 
ATOM     26  C   UNL     1     112.906 110.503 121.586  1.00  0.00     0.033 C 
ATOM     27  C   UNL     1     114.048 110.986 120.671  1.00  0.00     0.120 C 
ATOM     28  C   UNL     1     114.842 112.610 118.868  1.00  0.00     0.014 C 
ATOM     29  C   UNL     1     113.704 113.532 120.864  1.00  0.00     0.014 C 
ENDROOT
BRANCH   1  30
ATOM     30  C   UNL     1     107.149 112.741 114.085  1.00  0.00     0.048 C 
ATOM     31  O   UNL     1     106.524 113.754 114.501  1.00  0.00    -0.550 OA
ATOM     32  O   UNL     1     108.089 112.908 113.074  1.00  0.00    -0.550 OA
ENDBRANCH   1  30
BRANCH  27  33
ATOM     33  O   UNL     1     115.204 111.158 121.454  1.00  0.00    -0.393 OA
ATOM     34  H   UNL     1     114.931 111.631 122.284  1.00  0.00     0.210 HD
ENDBRANCH  27  33
TORSDOF 2
ENDMDL
MODEL 6
REMARK VINA RESULT:    -6.781      4.234      7.098
REMARK INTER + INTRA:          -7.624
REMARK INTER:                  -7.352
REMARK INTRA:                  -0.272
REMARK UNBOUND:                -0.248
REMARK SMILES CC1(C)CC[C@]2(C(=O)[O-])CC[C@@]3(C)C(=CC[C@@H]4[C@@]5(C)CC[C@H](O)C(C)(C)[C@H]5CC[C@@]43C)[C@@H]2C1
REMARK SMILES IDX 6 1 5 2 10 3 32 4 4 5 11 6 14 7 33 8 2 9 12 10 15 11 1 12
REMARK SMILES IDX 3 13 13 14 30 15 16 16 17 17 29 18 31 19 18 20 28 21 27 22
REMARK SMILES IDX 20 23 19 24 24 25 21 26 22 27 25 28 26 29 7 30 8 31 9 32
REMARK SMILES IDX 23 33
REMARK H PARENT 23 34
REMARK Flexibility Score: inf
ROOT
ATOM      1  C   UNL     1     107.328 110.622 116.499  1.00  0.00     0.017 C 
ATOM      2  C   UNL     1     105.918 110.926 115.913  1.00  0.00     0.014 C 
ATOM      3  C   UNL     1     107.211 110.123 117.987  1.00  0.00     0.014 C 
ATOM      4  C   UNL     1     108.256 111.884 116.363  1.00  0.00     0.028 C 
ATOM      5  C   UNL     1     105.305 112.243 116.406  1.00  0.00     0.007 C 
ATOM      6  C   UNL     1     108.165 110.790 118.998  1.00  0.00     0.013 C 
ATOM      7  C   UNL     1     109.570 111.699 117.123  1.00  0.00    -0.064 C 
ATOM      8  C   UNL     1     107.595 113.229 116.762  1.00  0.00     0.015 C 
ATOM      9  C   UNL     1     106.206 113.465 116.125  1.00  0.00    -0.035 C 
ATOM     10  C   UNL     1     109.634 110.989 118.480  1.00  0.00    -0.006 C 
ATOM     11  C   UNL     1     110.693 112.210 116.602  1.00  0.00    -0.027 C 
ATOM     12  C   UNL     1     105.565 114.709 116.780  1.00  0.00     0.011 C 
ATOM     13  C   UNL     1     106.330 113.742 114.607  1.00  0.00     0.011 C 
ATOM     14  C   UNL     1     110.219 109.560 118.256  1.00  0.00     0.017 C 
ATOM     15  C   UNL     1     110.557 111.852 119.504  1.00  0.00    -0.020 C 
ATOM     16  C   UNL     1     112.001 112.090 117.312  1.00  0.00     0.032 C 
ATOM     17  C   UNL     1     111.876 112.471 118.822  1.00  0.00     0.006 C 
ATOM     18  C   UNL     1     110.907 111.004 120.765  1.00  0.00     0.008 C 
ATOM     19  C   UNL     1     109.739 113.076 120.031  1.00  0.00     0.012 C 
ATOM     20  C   UNL     1     113.251 112.323 119.629  1.00  0.00    -0.025 C 
ATOM     21  C   UNL     1     112.206 110.188 120.720  1.00  0.00     0.005 C 
ATOM     22  C   UNL     1     113.479 110.823 120.057  1.00  0.00     0.003 C 
ATOM     23  C   UNL     1     113.278 113.235 120.898  1.00  0.00     0.010 C 
ATOM     24  C   UNL     1     114.386 112.854 118.690  1.00  0.00     0.012 C 
ATOM     25  C   UNL     1     114.776 110.577 120.955  1.00  0.00    -0.006 C 
ATOM     26  C   UNL     1     114.503 113.011 121.810  1.00  0.00     0.033 C 
ATOM     27  C   UNL     1     114.731 111.535 122.191  1.00  0.00     0.120 C 
ATOM     28  C   UNL     1     114.826 109.094 121.450  1.00  0.00     0.014 C 
ATOM     29  C   UNL     1     116.099 110.771 120.146  1.00  0.00     0.014 C 
ENDROOT
BRANCH   1  30
ATOM     30  C   UNL     1     107.873 109.470 115.652  1.00  0.00     0.048 C 
ATOM     31  O   UNL     1     107.805 108.273 116.041  1.00  0.00    -0.550 OA
ATOM     32  O   UNL     1     108.491 109.741 114.435  1.00  0.00    -0.550 OA
ENDBRANCH   1  30
BRANCH  27  33
ATOM     33  O   UNL     1     115.925 111.445 122.929  1.00  0.00    -0.393 OA
ATOM     34  H   UNL     1     116.361 110.587 122.684  1.00  0.00     0.210 HD
ENDBRANCH  27  33
TORSDOF 2
ENDMDL
MODEL 7
REMARK VINA RESULT:    -6.763      4.593      6.764
REMARK INTER + INTRA:          -7.604
REMARK INTER:                  -7.333
REMARK INTRA:                  -0.271
REMARK UNBOUND:                -0.248
REMARK SMILES CC1(C)CC[C@]2(C(=O)[O-])CC[C@@]3(C)C(=CC[C@@H]4[C@@]5(C)CC[C@H](O)C(C)(C)[C@H]5CC[C@@]43C)[C@@H]2C1
REMARK SMILES IDX 6 1 5 2 10 3 32 4 4 5 11 6 14 7 33 8 2 9 12 10 15 11 1 12
REMARK SMILES IDX 3 13 13 14 30 15 16 16 17 17 29 18 31 19 18 20 28 21 27 22
REMARK SMILES IDX 20 23 19 24 24 25 21 26 22 27 25 28 26 29 7 30 8 31 9 32
REMARK SMILES IDX 23 33
REMARK H PARENT 23 34
REMARK Flexibility Score: inf
ROOT
ATOM      1  C   UNL     1     106.143 109.934 115.692  1.00  0.00     0.017 C 
ATOM      2  C   UNL     1     105.113 110.000 114.526  1.00  0.00     0.014 C 
ATOM      3  C   UNL     1     105.943 111.148 116.673  1.00  0.00     0.014 C 
ATOM      4  C   UNL     1     107.605 109.860 115.122  1.00  0.00     0.028 C 
ATOM      5  C   UNL     1     105.448 111.044 113.453  1.00  0.00     0.007 C 
ATOM      6  C   UNL     1     107.224 111.907 117.074  1.00  0.00     0.013 C 
ATOM      7  C   UNL     1     108.648 110.018 116.229  1.00  0.00    -0.064 C 
ATOM      8  C   UNL     1     107.907 110.845 113.963  1.00  0.00     0.015 C 
ATOM      9  C   UNL     1     106.849 110.839 112.835  1.00  0.00    -0.035 C 
ATOM     10  C   UNL     1     108.456 110.989 117.398  1.00  0.00    -0.006 C 
ATOM     11  C   UNL     1     109.783 109.311 116.149  1.00  0.00    -0.027 C 
ATOM     12  C   UNL     1     107.139 112.015 111.875  1.00  0.00     0.011 C 
ATOM     13  C   UNL     1     106.920 109.530 112.012  1.00  0.00     0.011 C 
ATOM     14  C   UNL     1     108.066 110.161 118.662  1.00  0.00     0.017 C 
ATOM     15  C   UNL     1     109.828 111.829 117.641  1.00  0.00    -0.020 C 
ATOM     16  C   UNL     1     110.853 109.446 117.183  1.00  0.00     0.032 C 
ATOM     17  C   UNL     1     111.162 110.943 117.503  1.00  0.00     0.006 C 
ATOM     18  C   UNL     1     109.772 112.574 119.010  1.00  0.00     0.008 C 
ATOM     19  C   UNL     1     109.947 112.948 116.555  1.00  0.00     0.012 C 
ATOM     20  C   UNL     1     112.282 111.131 118.632  1.00  0.00    -0.025 C 
ATOM     21  C   UNL     1     110.335 111.836 120.231  1.00  0.00     0.005 C 
ATOM     22  C   UNL     1     111.645 110.987 120.067  1.00  0.00     0.003 C 
ATOM     23  C   UNL     1     112.993 112.519 118.517  1.00  0.00     0.010 C 
ATOM     24  C   UNL     1     113.386 110.055 118.359  1.00  0.00     0.012 C 
ATOM     25  C   UNL     1     112.656 111.254 121.274  1.00  0.00    -0.006 C 
ATOM     26  C   UNL     1     113.960 112.830 119.678  1.00  0.00     0.033 C 
ATOM     27  C   UNL     1     113.332 112.652 121.074  1.00  0.00     0.120 C 
ATOM     28  C   UNL     1     111.895 111.237 122.640  1.00  0.00     0.014 C 
ATOM     29  C   UNL     1     113.732 110.128 121.403  1.00  0.00     0.014 C 
ENDROOT
BRANCH   1  30
ATOM     30  C   UNL     1     105.805 108.649 116.451  1.00  0.00     0.048 C 
ATOM     31  O   UNL     1     105.085 108.661 117.486  1.00  0.00    -0.550 OA
ATOM     32  O   UNL     1     106.326 107.434 116.017  1.00  0.00    -0.550 OA
ENDBRANCH   1  30
BRANCH  27  33
ATOM     33  O   UNL     1     114.331 112.860 122.043  1.00  0.00    -0.393 OA
ATOM     34  H   UNL     1     115.080 113.335 121.597  1.00  0.00     0.210 HD
ENDBRANCH  27  33
TORSDOF 2
ENDMDL
MODEL 8
REMARK VINA RESULT:    -6.694      4.856      7.782
REMARK INTER + INTRA:          -7.530
REMARK INTER:                  -7.261
REMARK INTRA:                  -0.269
REMARK UNBOUND:                -0.248
REMARK SMILES CC1(C)CC[C@]2(C(=O)[O-])CC[C@@]3(C)C(=CC[C@@H]4[C@@]5(C)CC[C@H](O)C(C)(C)[C@H]5CC[C@@]43C)[C@@H]2C1
REMARK SMILES IDX 6 1 5 2 10 3 32 4 4 5 11 6 14 7 33 8 2 9 12 10 15 11 1 12
REMARK SMILES IDX 3 13 13 14 30 15 16 16 17 17 29 18 31 19 18 20 28 21 27 22
REMARK SMILES IDX 20 23 19 24 24 25 21 26 22 27 25 28 26 29 7 30 8 31 9 32
REMARK SMILES IDX 23 33
REMARK H PARENT 23 34
REMARK Flexibility Score: inf
ROOT
ATOM      1  C   UNL     1     112.624 112.053 118.033  1.00  0.00     0.017 C 
ATOM      2  C   UNL     1     113.916 112.473 118.795  1.00  0.00     0.014 C 
ATOM      3  C   UNL     1     111.349 112.640 118.744  1.00  0.00     0.014 C 
ATOM      4  C   UNL     1     112.563 110.490 117.887  1.00  0.00     0.028 C 
ATOM      5  C   UNL     1     114.162 111.687 120.090  1.00  0.00     0.007 C 
ATOM      6  C   UNL     1     110.191 111.648 118.975  1.00  0.00     0.013 C 
ATOM      7  C   UNL     1     111.209 110.030 117.345  1.00  0.00    -0.064 C 
ATOM      8  C   UNL     1     112.917 109.698 119.173  1.00  0.00     0.015 C 
ATOM      9  C   UNL     1     114.222 110.160 119.862  1.00  0.00    -0.035 C 
ATOM     10  C   UNL     1     109.893 110.695 117.763  1.00  0.00    -0.006 C 
ATOM     11  C   UNL     1     111.173 108.984 116.507  1.00  0.00    -0.027 C 
ATOM     12  C   UNL     1     114.333 109.463 121.236  1.00  0.00     0.011 C 
ATOM     13  C   UNL     1     115.463 109.760 119.028  1.00  0.00     0.011 C 
ATOM     14  C   UNL     1     109.415 111.609 116.592  1.00  0.00     0.017 C 
ATOM     15  C   UNL     1     108.789 109.551 118.110  1.00  0.00    -0.020 C 
ATOM     16  C   UNL     1     109.879 108.468 115.969  1.00  0.00     0.032 C 
ATOM     17  C   UNL     1     108.809 108.304 117.095  1.00  0.00     0.006 C 
ATOM     18  C   UNL     1     107.368 110.184 118.215  1.00  0.00     0.008 C 
ATOM     19  C   UNL     1     109.092 108.953 119.522  1.00  0.00     0.012 C 
ATOM     20  C   UNL     1     107.395 107.784 116.554  1.00  0.00    -0.025 C 
ATOM     21  C   UNL     1     106.522 110.220 116.936  1.00  0.00     0.005 C 
ATOM     22  C   UNL     1     106.554 108.983 115.970  1.00  0.00     0.003 C 
ATOM     23  C   UNL     1     106.572 107.071 117.676  1.00  0.00     0.010 C 
ATOM     24  C   UNL     1     107.697 106.689 115.476  1.00  0.00     0.012 C 
ATOM     25  C   UNL     1     105.082 108.594 115.490  1.00  0.00    -0.006 C 
ATOM     26  C   UNL     1     105.132 106.700 117.263  1.00  0.00     0.033 C 
ATOM     27  C   UNL     1     104.335 107.875 116.663  1.00  0.00     0.120 C 
ATOM     28  C   UNL     1     104.285 109.873 115.075  1.00  0.00     0.014 C 
ATOM     29  C   UNL     1     105.096 107.700 114.208  1.00  0.00     0.014 C 
ENDROOT
BRANCH   1  30
ATOM     30  C   UNL     1     112.743 112.709 116.655  1.00  0.00     0.048 C 
ATOM     31  O   UNL     1     112.131 113.774 116.374  1.00  0.00    -0.550 OA
ATOM     32  O   UNL     1     113.517 112.106 115.669  1.00  0.00    -0.550 OA
ENDBRANCH   1  30
BRANCH  27  33
ATOM     33  O   UNL     1     103.086 107.393 116.232  1.00  0.00    -0.393 OA
ATOM     34  H   UNL     1     102.516 107.287 117.038  1.00  0.00     0.210 HD
ENDBRANCH  27  33
TORSDOF 2
ENDMDL
MODEL 9
REMARK VINA RESULT:    -6.371      5.102      8.100
REMARK INTER + INTRA:          -7.178
REMARK INTER:                  -6.910
REMARK INTRA:                  -0.268
REMARK UNBOUND:                -0.248
REMARK SMILES CC1(C)CC[C@]2(C(=O)[O-])CC[C@@]3(C)C(=CC[C@@H]4[C@@]5(C)CC[C@H](O)C(C)(C)[C@H]5CC[C@@]43C)[C@@H]2C1
REMARK SMILES IDX 6 1 5 2 10 3 32 4 4 5 11 6 14 7 33 8 2 9 12 10 15 11 1 12
REMARK SMILES IDX 3 13 13 14 30 15 16 16 17 17 29 18 31 19 18 20 28 21 27 22
REMARK SMILES IDX 20 23 19 24 24 25 21 26 22 27 25 28 26 29 7 30 8 31 9 32
REMARK SMILES IDX 23 33
REMARK H PARENT 23 34
REMARK Flexibility Score: inf
ROOT
ATOM      1  C   UNL     1     112.819 111.042 118.101  1.00  0.00     0.017 C 
ATOM      2  C   UNL     1     113.946 111.186 119.166  1.00  0.00     0.014 C 
ATOM      3  C   UNL     1     112.546 112.423 117.397  1.00  0.00     0.014 C 
ATOM      4  C   UNL     1     111.524 110.439 118.757  1.00  0.00     0.028 C 
ATOM      5  C   UNL     1     113.496 111.866 120.466  1.00  0.00     0.007 C 
ATOM      6  C   UNL     1     111.066 112.836 117.278  1.00  0.00     0.013 C 
ATOM      7  C   UNL     1     110.334 110.491 117.799  1.00  0.00    -0.064 C 
ATOM      8  C   UNL     1     111.134 111.058 120.125  1.00  0.00     0.015 C 
ATOM      9  C   UNL     1     112.301 111.149 121.135  1.00  0.00    -0.035 C 
ATOM     10  C   UNL     1     110.093 111.677 116.860  1.00  0.00    -0.006 C 
ATOM     11  C   UNL     1     109.452 109.482 117.813  1.00  0.00    -0.027 C 
ATOM     12  C   UNL     1     111.844 111.987 122.349  1.00  0.00     0.011 C 
ATOM     13  C   UNL     1     112.700 109.746 121.653  1.00  0.00     0.011 C 
ATOM     14  C   UNL     1     110.510 111.251 115.418  1.00  0.00     0.017 C 
ATOM     15  C   UNL     1     108.526 112.111 116.919  1.00  0.00    -0.020 C 
ATOM     16  C   UNL     1     108.252 109.490 116.924  1.00  0.00     0.032 C 
ATOM     17  C   UNL     1     107.511 110.864 116.967  1.00  0.00     0.006 C 
ATOM     18  C   UNL     1     108.188 113.082 115.747  1.00  0.00     0.008 C 
ATOM     19  C   UNL     1     108.263 112.921 118.230  1.00  0.00     0.012 C 
ATOM     20  C   UNL     1     106.236 110.926 116.000  1.00  0.00    -0.025 C 
ATOM     21  C   UNL     1     107.679 112.454 114.443  1.00  0.00     0.005 C 
ATOM     22  C   UNL     1     106.681 111.245 114.522  1.00  0.00     0.003 C 
ATOM     23  C   UNL     1     105.202 111.999 116.474  1.00  0.00     0.010 C 
ATOM     24  C   UNL     1     105.511 109.543 116.118  1.00  0.00     0.012 C 
ATOM     25  C   UNL     1     105.478 111.427 113.489  1.00  0.00    -0.006 C 
ATOM     26  C   UNL     1     104.034 112.226 115.491  1.00  0.00     0.033 C 
ATOM     27  C   UNL     1     104.486 112.504 114.043  1.00  0.00     0.120 C 
ATOM     28  C   UNL     1     106.017 111.889 112.095  1.00  0.00     0.014 C 
ATOM     29  C   UNL     1     104.737 110.082 113.202  1.00  0.00     0.014 C 
ENDROOT
BRANCH   1  30
ATOM     30  C   UNL     1     113.380 110.077 117.054  1.00  0.00     0.048 C 
ATOM     31  O   UNL     1     113.364 108.829 117.228  1.00  0.00    -0.550 OA
ATOM     32  O   UNL     1     113.956 110.580 115.891  1.00  0.00    -0.550 OA
ENDBRANCH   1  30
BRANCH  27  33
ATOM     33  O   UNL     1     103.343 112.589 113.228  1.00  0.00    -0.393 OA
ATOM     34  H   UNL     1     103.572 113.172 112.458  1.00  0.00     0.210 HD
ENDBRANCH  27  33
TORSDOF 2
ENDMDL
