MODEL 1
REMARK VINA RESULT:    -4.286      0.000      0.000
REMARK INTER + INTRA:          -6.023
REMARK INTER:                  -5.789
REMARK INTRA:                  -0.233
REMARK UNBOUND:                -0.233
REMARK SMILES CCCCCCCC(=O)[O-]
REMARK SMILES IDX 5 1 6 2 7 3 8 4 9 5 10 6 4 7 3 8 2 9 1 10
REMARK H PARENT
REMARK Flexibility Score: inf
ROOT
ATOM      1  C   UNL     1      -1.135  10.294  -8.536  1.00  0.00     0.000 C 
ENDROOT
BRANCH   1   2
ATOM      2  C   UNL     1      -2.643  10.376  -8.836  1.00  0.00     0.006 C 
BRANCH   2   3
ATOM      3  C   UNL     1      -2.949  11.034 -10.188  1.00  0.00     0.053 C 
BRANCH   3   4
ATOM      4  C   UNL     1      -4.080  10.328 -10.866  1.00  0.00     0.041 C 
ATOM      5  O   UNL     1      -5.162  10.932 -11.090  1.00  0.00    -0.550 OA
ATOM      6  O   UNL     1      -3.922   9.016 -11.298  1.00  0.00    -0.550 OA
ENDBRANCH   3   4
ENDBRANCH   2   3
ENDBRANCH   1   2
BRANCH   1   7
ATOM      7  C   UNL     1      -0.402  11.647  -8.494  1.00  0.00     0.000 C 
BRANCH   7   8
ATOM      8  C   UNL     1       1.098  11.506  -8.180  1.00  0.00    -0.000 C 
BRANCH   8   9
ATOM      9  C   UNL     1       1.584  10.051  -8.270  1.00  0.00    -0.003 C 
ATOM     10  C   UNL     1       2.811   9.891  -9.169  1.00  0.00     0.004 C 
ENDBRANCH   8   9
ENDBRANCH   7   8
ENDBRANCH   1   7
TORSDOF 6
ENDMDL
MODEL 2
REMARK VINA RESULT:    -4.283      3.549      5.872
REMARK INTER + INTRA:          -6.018
REMARK INTER:                  -5.897
REMARK INTRA:                  -0.121
REMARK UNBOUND:                -0.233
REMARK SMILES CCCCCCCC(=O)[O-]
REMARK SMILES IDX 5 1 6 2 7 3 8 4 9 5 10 6 4 7 3 8 2 9 1 10
REMARK H PARENT
REMARK Flexibility Score: inf
ROOT
ATOM      1  C   UNL     1      -0.705  11.721  -8.663  1.00  0.00     0.000 C 
ENDROOT
BRANCH   1   2
ATOM      2  C   UNL     1       0.419  11.163  -7.772  1.00  0.00     0.006 C 
BRANCH   2   3
ATOM      3  C   UNL     1       1.012   9.853  -8.308  1.00  0.00     0.053 C 
BRANCH   3   4
ATOM      4  C   UNL     1       2.481  10.003  -8.543  1.00  0.00     0.041 C 
ATOM      5  O   UNL     1       3.005   9.551  -9.596  1.00  0.00    -0.550 OA
ATOM      6  O   UNL     1       3.267  10.687  -7.623  1.00  0.00    -0.550 OA
ENDBRANCH   3   4
ENDBRANCH   2   3
ENDBRANCH   1   2
BRANCH   1   7
ATOM      7  C   UNL     1      -1.834  10.727  -8.992  1.00  0.00     0.000 C 
BRANCH   7   8
ATOM      8  C   UNL     1      -2.996  11.375  -9.764  1.00  0.00    -0.000 C 
BRANCH   8   9
ATOM      9  C   UNL     1      -3.692  10.389 -10.716  1.00  0.00    -0.003 C 
ATOM     10  C   UNL     1      -5.086  10.855 -11.137  1.00  0.00     0.004 C 
ENDBRANCH   8   9
ENDBRANCH   7   8
ENDBRANCH   1   7
TORSDOF 6
ENDMDL
MODEL 3
REMARK VINA RESULT:    -4.074      3.234      5.859
REMARK INTER + INTRA:          -5.736
REMARK INTER:                  -5.577
REMARK INTRA:                  -0.160
REMARK UNBOUND:                -0.233
REMARK SMILES CCCCCCCC(=O)[O-]
REMARK SMILES IDX 5 1 6 2 7 3 8 4 9 5 10 6 4 7 3 8 2 9 1 10
REMARK H PARENT
REMARK Flexibility Score: inf
ROOT
ATOM      1  C   UNL     1      -2.434  10.259  -9.315  1.00  0.00     0.000 C 
ENDROOT
BRANCH   1   2
ATOM      2  C   UNL     1      -1.200  10.983  -8.748  1.00  0.00     0.006 C 
BRANCH   2   3
ATOM      3  C   UNL     1      -0.192  10.027  -8.096  1.00  0.00     0.053 C 
BRANCH   3   4
ATOM      4  C   UNL     1       1.207  10.465  -8.392  1.00  0.00     0.041 C 
ATOM      5  O   UNL     1       1.658  11.531  -7.893  1.00  0.00    -0.550 OA
ATOM      6  O   UNL     1       2.033   9.670  -9.178  1.00  0.00    -0.550 OA
ENDBRANCH   3   4
ENDBRANCH   2   3
ENDBRANCH   1   2
BRANCH   1   7
ATOM      7  C   UNL     1      -3.295  11.093 -10.281  1.00  0.00     0.000 C 
BRANCH   7   8
ATOM      8  C   UNL     1      -4.392  10.265 -10.973  1.00  0.00    -0.000 C 
BRANCH   8   9
ATOM      9  C   UNL     1      -5.755  10.975 -10.968  1.00  0.00    -0.003 C 
ATOM     10  C   UNL     1      -5.901  11.971  -9.817  1.00  0.00     0.004 C 
ENDBRANCH   8   9
ENDBRANCH   7   8
ENDBRANCH   1   7
TORSDOF 6
ENDMDL
MODEL 4
REMARK VINA RESULT:    -4.052      1.339      1.696
REMARK INTER + INTRA:          -5.706
REMARK INTER:                  -5.486
REMARK INTRA:                  -0.220
REMARK UNBOUND:                -0.233
REMARK SMILES CCCCCCCC(=O)[O-]
REMARK SMILES IDX 5 1 6 2 7 3 8 4 9 5 10 6 4 7 3 8 2 9 1 10
REMARK H PARENT
REMARK Flexibility Score: inf
ROOT
ATOM      1  C   UNL     1      -0.745  11.802  -8.328  1.00  0.00     0.000 C 
ENDROOT
BRANCH   1   2
ATOM      2  C   UNL     1      -1.576  10.593  -8.795  1.00  0.00     0.006 C 
BRANCH   2   3
ATOM      3  C   UNL     1      -2.659  10.968  -9.813  1.00  0.00     0.053 C 
BRANCH   3   4
ATOM      4  C   UNL     1      -4.011  10.928  -9.175  1.00  0.00     0.041 C 
ATOM      5  O   UNL     1      -5.045  11.137  -9.864  1.00  0.00    -0.550 OA
ATOM      6  O   UNL     1      -4.135  10.612  -7.827  1.00  0.00    -0.550 OA
ENDBRANCH   3   4
ENDBRANCH   2   3
ENDBRANCH   1   2
BRANCH   1   7
ATOM      7  C   UNL     1       0.780  11.597  -8.354  1.00  0.00     0.000 C 
BRANCH   7   8
ATOM      8  C   UNL     1       1.184  10.115  -8.448  1.00  0.00    -0.000 C 
BRANCH   8   9
ATOM      9  C   UNL     1       2.707   9.917  -8.411  1.00  0.00    -0.003 C 
ATOM     10  C   UNL     1       3.288   9.526  -9.770  1.00  0.00     0.004 C 
ENDBRANCH   8   9
ENDBRANCH   7   8
ENDBRANCH   1   7
TORSDOF 6
ENDMDL
MODEL 5
REMARK VINA RESULT:    -4.017      0.926      1.396
REMARK INTER + INTRA:          -5.660
REMARK INTER:                  -5.534
REMARK INTRA:                  -0.126
REMARK UNBOUND:                -0.233
REMARK SMILES CCCCCCCC(=O)[O-]
REMARK SMILES IDX 5 1 6 2 7 3 8 4 9 5 10 6 4 7 3 8 2 9 1 10
REMARK H PARENT
REMARK Flexibility Score: inf
ROOT
ATOM      1  C   UNL     1      -1.942  10.347  -8.827  1.00  0.00     0.000 C 
ENDROOT
BRANCH   1   2
ATOM      2  C   UNL     1      -2.814  10.987  -9.922  1.00  0.00     0.006 C 
BRANCH   2   3
ATOM      3  C   UNL     1      -4.312  10.725  -9.724  1.00  0.00     0.053 C 
BRANCH   3   4
ATOM      4  C   UNL     1      -4.794   9.692 -10.693  1.00  0.00     0.041 C 
ATOM      5  O   UNL     1      -3.972   9.067 -11.414  1.00  0.00    -0.550 OA
ATOM      6  O   UNL     1      -6.147   9.384 -10.766  1.00  0.00    -0.550 OA
ENDBRANCH   3   4
ENDBRANCH   2   3
ENDBRANCH   1   2
BRANCH   1   7
ATOM      7  C   UNL     1      -0.557  10.990  -8.635  1.00  0.00     0.000 C 
BRANCH   7   8
ATOM      8  C   UNL     1       0.552   9.958  -8.367  1.00  0.00    -0.000 C 
BRANCH   8   9
ATOM      9  C   UNL     1       1.958  10.574  -8.432  1.00  0.00    -0.003 C 
ATOM     10  C   UNL     1       2.919   9.768  -9.307  1.00  0.00     0.004 C 
ENDBRANCH   8   9
ENDBRANCH   7   8
ENDBRANCH   1   7
TORSDOF 6
ENDMDL
MODEL 6
REMARK VINA RESULT:    -3.978     14.028     15.980
REMARK INTER + INTRA:          -5.606
REMARK INTER:                  -5.343
REMARK INTRA:                  -0.263
REMARK UNBOUND:                -0.233
REMARK SMILES CCCCCCCC(=O)[O-]
REMARK SMILES IDX 5 1 6 2 7 3 8 4 9 5 10 6 4 7 3 8 2 9 1 10
REMARK H PARENT
REMARK Flexibility Score: inf
ROOT
ATOM      1  C   UNL     1       9.239  11.849 -19.082  1.00  0.00     0.000 C 
ENDROOT
BRANCH   1   2
ATOM      2  C   UNL     1      10.285  10.730 -18.924  1.00  0.00     0.006 C 
BRANCH   2   3
ATOM      3  C   UNL     1      11.638  11.082 -19.556  1.00  0.00     0.053 C 
BRANCH   3   4
ATOM      4  C   UNL     1      12.284  12.207 -18.812  1.00  0.00     0.041 C 
ATOM      5  O   UNL     1      12.506  12.106 -17.576  1.00  0.00    -0.550 OA
ATOM      6  O   UNL     1      12.689  13.350 -19.493  1.00  0.00    -0.550 OA
ENDBRANCH   3   4
ENDBRANCH   2   3
ENDBRANCH   1   2
BRANCH   1   7
ATOM      7  C   UNL     1       8.546  11.907 -20.455  1.00  0.00     0.000 C 
BRANCH   7   8
ATOM      8  C   UNL     1       7.011  11.888 -20.353  1.00  0.00    -0.000 C 
BRANCH   8   9
ATOM      9  C   UNL     1       6.401  13.297 -20.407  1.00  0.00    -0.003 C 
ATOM     10  C   UNL     1       6.061  13.850 -19.022  1.00  0.00     0.004 C 
ENDBRANCH   8   9
ENDBRANCH   7   8
ENDBRANCH   1   7
TORSDOF 6
ENDMDL
MODEL 7
REMARK VINA RESULT:    -3.953     14.073     16.001
REMARK INTER + INTRA:          -5.573
REMARK INTER:                  -5.229
REMARK INTRA:                  -0.344
REMARK UNBOUND:                -0.233
REMARK SMILES CCCCCCCC(=O)[O-]
REMARK SMILES IDX 5 1 6 2 7 3 8 4 9 5 10 6 4 7 3 8 2 9 1 10
REMARK H PARENT
REMARK Flexibility Score: inf
ROOT
ATOM      1  C   UNL     1       8.834  11.492 -22.448  1.00  0.00     0.000 C 
ENDROOT
BRANCH   1   2
ATOM      2  C   UNL     1      10.181  11.876 -21.808  1.00  0.00     0.006 C 
BRANCH   2   3
ATOM      3  C   UNL     1      10.655  10.862 -20.759  1.00  0.00     0.053 C 
BRANCH   3   4
ATOM      4  C   UNL     1      10.802  11.522 -19.425  1.00  0.00     0.041 C 
ATOM      5  O   UNL     1      11.860  12.141 -19.135  1.00  0.00    -0.550 OA
ATOM      6  O   UNL     1       9.750  11.495 -18.517  1.00  0.00    -0.550 OA
ENDBRANCH   3   4
ENDBRANCH   2   3
ENDBRANCH   1   2
BRANCH   1   7
ATOM      7  C   UNL     1       7.715  11.136 -21.453  1.00  0.00     0.000 C 
BRANCH   7   8
ATOM      8  C   UNL     1       6.750  12.305 -21.193  1.00  0.00    -0.000 C 
BRANCH   8   9
ATOM      9  C   UNL     1       6.777  12.775 -19.730  1.00  0.00    -0.003 C 
ATOM     10  C   UNL     1       6.035  14.095 -19.518  1.00  0.00     0.004 C 
ENDBRANCH   8   9
ENDBRANCH   7   8
ENDBRANCH   1   7
TORSDOF 6
ENDMDL
MODEL 8
REMARK VINA RESULT:    -3.884      2.926      5.355
REMARK INTER + INTRA:          -5.479
REMARK INTER:                  -5.065
REMARK INTRA:                  -0.414
REMARK UNBOUND:                -0.233
REMARK SMILES CCCCCCCC(=O)[O-]
REMARK SMILES IDX 5 1 6 2 7 3 8 4 9 5 10 6 4 7 3 8 2 9 1 10
REMARK H PARENT
REMARK Flexibility Score: inf
ROOT
ATOM      1  C   UNL     1      -3.922  12.094  -9.244  1.00  0.00     0.000 C 
ENDROOT
BRANCH   1   2
ATOM      2  C   UNL     1      -2.639  11.418  -9.760  1.00  0.00     0.006 C 
BRANCH   2   3
ATOM      3  C   UNL     1      -1.974  10.517  -8.712  1.00  0.00     0.053 C 
BRANCH   3   4
ATOM      4  C   UNL     1      -0.550  10.925  -8.502  1.00  0.00     0.041 C 
ATOM      5  O   UNL     1      -0.264  12.127  -8.255  1.00  0.00    -0.550 OA
ATOM      6  O   UNL     1       0.459   9.969  -8.531  1.00  0.00    -0.550 OA
ENDBRANCH   3   4
ENDBRANCH   2   3
ENDBRANCH   1   2
BRANCH   1   7
ATOM      7  C   UNL     1      -5.220  11.655  -9.946  1.00  0.00     0.000 C 
BRANCH   7   8
ATOM      8  C   UNL     1      -4.989  10.562 -11.003  1.00  0.00    -0.000 C 
BRANCH   8   9
ATOM      9  C   UNL     1      -5.523   9.191 -10.558  1.00  0.00    -0.003 C 
ATOM     10  C   UNL     1      -4.650   8.031 -11.037  1.00  0.00     0.004 C 
ENDBRANCH   8   9
ENDBRANCH   7   8
ENDBRANCH   1   7
TORSDOF 6
ENDMDL
MODEL 9
REMARK VINA RESULT:    -3.799     13.913     15.309
REMARK INTER + INTRA:          -5.365
REMARK INTER:                  -4.863
REMARK INTRA:                  -0.503
REMARK UNBOUND:                -0.233
REMARK SMILES CCCCCCCC(=O)[O-]
REMARK SMILES IDX 5 1 6 2 7 3 8 4 9 5 10 6 4 7 3 8 2 9 1 10
REMARK H PARENT
REMARK Flexibility Score: inf
ROOT
ATOM      1  C   UNL     1       8.987  11.354 -22.284  1.00  0.00     0.000 C 
ENDROOT
BRANCH   1   2
ATOM      2  C   UNL     1       7.733  11.085 -21.434  1.00  0.00     0.006 C 
BRANCH   2   3
ATOM      3  C   UNL     1       6.769  12.278 -21.395  1.00  0.00     0.053 C 
BRANCH   3   4
ATOM      4  C   UNL     1       6.852  12.973 -20.073  1.00  0.00     0.041 C 
ATOM      5  O   UNL     1       7.622  12.538 -19.175  1.00  0.00    -0.550 OA
ATOM      6  O   UNL     1       6.116  14.130 -19.848  1.00  0.00    -0.550 OA
ENDBRANCH   3   4
ENDBRANCH   2   3
ENDBRANCH   1   2
BRANCH   1   7
ATOM      7  C   UNL     1      10.325  11.023 -21.599  1.00  0.00     0.000 C 
BRANCH   7   8
ATOM      8  C   UNL     1      10.936  12.228 -20.863  1.00  0.00    -0.000 C 
BRANCH   8   9
ATOM      9  C   UNL     1      11.227  11.929 -19.384  1.00  0.00    -0.003 C 
ATOM     10  C   UNL     1      10.520  10.669 -18.884  1.00  0.00     0.004 C 
ENDBRANCH   8   9
ENDBRANCH   7   8
ENDBRANCH   1   7
TORSDOF 6
ENDMDL
