MODEL 1
REMARK VINA RESULT:    -3.756      0.000      0.000
REMARK INTER + INTRA:          -4.324
REMARK INTER:                  -4.086
REMARK INTRA:                  -0.238
REMARK UNBOUND:                -0.238
REMARK SMILES O=C([O-])c1ccccc1O
REMARK SMILES IDX 4 1 9 2 5 3 8 4 6 5 7 6 2 7 1 8 3 9 10 10
REMARK H PARENT 10 11
REMARK Flexibility Score: inf
ROOT
ATOM      1  C   UNL     1       7.966  14.974  67.812  1.00  0.00     0.039 A 
ATOM      2  C   UNL     1       6.698  14.341  67.888  1.00  0.00     0.124 A 
ATOM      3  C   UNL     1       9.126  14.193  67.977  1.00  0.00     0.014 A 
ATOM      4  C   UNL     1       6.626  12.952  68.060  1.00  0.00     0.047 A 
ATOM      5  C   UNL     1       9.035  12.813  68.168  1.00  0.00     0.001 A 
ATOM      6  C   UNL     1       7.788  12.192  68.201  1.00  0.00     0.004 A 
ENDROOT
BRANCH   1   7
ATOM      7  C   UNL     1       8.127  16.419  67.535  1.00  0.00     0.075 C 
ATOM      8  O   UNL     1       9.138  17.047  67.944  1.00  0.00    -0.545 OA
ATOM      9  O   UNL     1       7.122  17.116  66.875  1.00  0.00    -0.545 OA
ENDBRANCH   1   7
BRANCH   2  10
ATOM     10  O   UNL     1       5.496  15.051  67.832  1.00  0.00    -0.507 OA
ATOM     11  H   UNL     1       4.683  14.818  68.383  1.00  0.00     0.293 HD
ENDBRANCH   2  10
TORSDOF 2
ENDMDL
MODEL 2
REMARK VINA RESULT:    -3.641     17.752     18.917
REMARK INTER + INTRA:          -4.199
REMARK INTER:                  -3.957
REMARK INTRA:                  -0.242
REMARK UNBOUND:                -0.238
REMARK SMILES O=C([O-])c1ccccc1O
REMARK SMILES IDX 4 1 9 2 5 3 8 4 6 5 7 6 2 7 1 8 3 9 10 10
REMARK H PARENT 10 11
REMARK Flexibility Score: inf
ROOT
ATOM      1  C   UNL     1      12.478  26.423  81.988  1.00  0.00     0.039 A 
ATOM      2  C   UNL     1      12.735  25.086  82.392  1.00  0.00     0.124 A 
ATOM      3  C   UNL     1      12.615  26.760  80.629  1.00  0.00     0.014 A 
ATOM      4  C   UNL     1      13.056  24.121  81.428  1.00  0.00     0.047 A 
ATOM      5  C   UNL     1      12.956  25.789  79.685  1.00  0.00     0.001 A 
ATOM      6  C   UNL     1      13.167  24.470  80.082  1.00  0.00     0.004 A 
ENDROOT
BRANCH   1   7
ATOM      7  C   UNL     1      12.040  27.476  82.931  1.00  0.00     0.075 C 
ATOM      8  O   UNL     1      11.119  27.258  83.760  1.00  0.00    -0.545 OA
ATOM      9  O   UNL     1      12.598  28.747  82.862  1.00  0.00    -0.545 OA
ENDBRANCH   1   7
BRANCH   2  10
ATOM     10  O   UNL     1      12.717  24.686  83.730  1.00  0.00    -0.507 OA
ATOM     11  H   UNL     1      12.841  23.730  84.030  1.00  0.00     0.293 HD
ENDBRANCH   2  10
TORSDOF 2
ENDMDL
MODEL 3
REMARK VINA RESULT:    -3.462      9.609     10.997
REMARK INTER + INTRA:          -4.004
REMARK INTER:                  -3.753
REMARK INTRA:                  -0.251
REMARK UNBOUND:                -0.238
REMARK SMILES O=C([O-])c1ccccc1O
REMARK SMILES IDX 4 1 9 2 5 3 8 4 6 5 7 6 2 7 1 8 3 9 10 10
REMARK H PARENT 10 11
REMARK Flexibility Score: inf
ROOT
ATOM      1  C   UNL     1       4.362  24.395  72.137  1.00  0.00     0.039 A 
ATOM      2  C   UNL     1       4.518  23.900  70.815  1.00  0.00     0.124 A 
ATOM      3  C   UNL     1       5.228  23.928  73.143  1.00  0.00     0.014 A 
ATOM      4  C   UNL     1       5.562  23.012  70.527  1.00  0.00     0.047 A 
ATOM      5  C   UNL     1       6.250  23.026  72.842  1.00  0.00     0.001 A 
ATOM      6  C   UNL     1       6.423  22.576  71.534  1.00  0.00     0.004 A 
ENDROOT
BRANCH   1   7
ATOM      7  C   UNL     1       3.347  25.409  72.500  1.00  0.00     0.075 C 
ATOM      8  O   UNL     1       3.636  26.369  73.261  1.00  0.00    -0.545 OA
ATOM      9  O   UNL     1       2.037  25.270  72.057  1.00  0.00    -0.545 OA
ENDBRANCH   1   7
BRANCH   2  10
ATOM     10  O   UNL     1       3.645  24.236  69.777  1.00  0.00    -0.507 OA
ATOM     11  H   UNL     1       3.947  24.424  68.832  1.00  0.00     0.293 HD
ENDBRANCH   2  10
TORSDOF 2
ENDMDL
MODEL 4
REMARK VINA RESULT:    -3.415     17.197     18.505
REMARK INTER + INTRA:          -3.953
REMARK INTER:                  -3.876
REMARK INTRA:                  -0.077
REMARK UNBOUND:                -0.238
REMARK SMILES O=C([O-])c1ccccc1O
REMARK SMILES IDX 4 1 9 2 5 3 8 4 6 5 7 6 2 7 1 8 3 9 10 10
REMARK H PARENT 10 11
REMARK Flexibility Score: inf
ROOT
ATOM      1  C   UNL     1      12.937  25.083  81.367  1.00  0.00     0.039 A 
ATOM      2  C   UNL     1      12.687  25.510  82.697  1.00  0.00     0.124 A 
ATOM      3  C   UNL     1      12.874  26.028  80.327  1.00  0.00     0.014 A 
ATOM      4  C   UNL     1      12.446  26.866  82.955  1.00  0.00     0.047 A 
ATOM      5  C   UNL     1      12.612  27.372  80.600  1.00  0.00     0.001 A 
ATOM      6  C   UNL     1      12.408  27.793  81.913  1.00  0.00     0.004 A 
ENDROOT
BRANCH   1   7
ATOM      7  C   UNL     1      13.294  23.688  81.027  1.00  0.00     0.075 C 
ATOM      8  O   UNL     1      14.490  23.298  81.070  1.00  0.00    -0.545 OA
ATOM      9  O   UNL     1      12.314  22.807  80.586  1.00  0.00    -0.545 OA
ENDBRANCH   1   7
BRANCH   2  10
ATOM     10  O   UNL     1      12.634  24.625  83.777  1.00  0.00    -0.507 OA
ATOM     11  H   UNL     1      13.442  24.358  84.321  1.00  0.00     0.293 HD
ENDBRANCH   2  10
TORSDOF 2
ENDMDL
MODEL 5
REMARK VINA RESULT:    -3.352      9.397     10.761
REMARK INTER + INTRA:          -3.884
REMARK INTER:                  -3.639
REMARK INTRA:                  -0.245
REMARK UNBOUND:                -0.238
REMARK SMILES O=C([O-])c1ccccc1O
REMARK SMILES IDX 4 1 9 2 5 3 8 4 6 5 7 6 2 7 1 8 3 9 10 10
REMARK H PARENT 10 11
REMARK Flexibility Score: inf
ROOT
ATOM      1  C   UNL     1       5.259  23.745  71.939  1.00  0.00     0.039 A 
ATOM      2  C   UNL     1       4.750  23.720  70.614  1.00  0.00     0.124 A 
ATOM      3  C   UNL     1       4.601  24.530  72.904  1.00  0.00     0.014 A 
ATOM      4  C   UNL     1       3.576  24.421  70.310  1.00  0.00     0.047 A 
ATOM      5  C   UNL     1       3.443  25.239  72.578  1.00  0.00     0.001 A 
ATOM      6  C   UNL     1       2.926  25.177  71.286  1.00  0.00     0.004 A 
ENDROOT
BRANCH   1   7
ATOM      7  C   UNL     1       6.437  22.955  72.362  1.00  0.00     0.075 C 
ATOM      8  O   UNL     1       7.207  23.375  73.264  1.00  0.00    -0.545 OA
ATOM      9  O   UNL     1       6.745  21.766  71.713  1.00  0.00    -0.545 OA
ENDBRANCH   1   7
BRANCH   2  10
ATOM     10  O   UNL     1       5.392  23.047  69.572  1.00  0.00    -0.507 OA
ATOM     11  H   UNL     1       4.903  22.580  68.823  1.00  0.00     0.293 HD
ENDBRANCH   2  10
TORSDOF 2
ENDMDL
MODEL 6
REMARK VINA RESULT:    -3.305      9.233     10.826
REMARK INTER + INTRA:          -3.833
REMARK INTER:                  -3.600
REMARK INTRA:                  -0.233
REMARK UNBOUND:                -0.238
REMARK SMILES O=C([O-])c1ccccc1O
REMARK SMILES IDX 4 1 9 2 5 3 8 4 6 5 7 6 2 7 1 8 3 9 10 10
REMARK H PARENT 10 11
REMARK Flexibility Score: inf
ROOT
ATOM      1  C   UNL     1       3.705  24.341  70.672  1.00  0.00     0.039 A 
ATOM      2  C   UNL     1       4.589  23.294  70.300  1.00  0.00     0.124 A 
ATOM      3  C   UNL     1       3.756  24.839  71.987  1.00  0.00     0.014 A 
ATOM      4  C   UNL     1       5.533  22.825  71.223  1.00  0.00     0.047 A 
ATOM      5  C   UNL     1       4.690  24.345  72.900  1.00  0.00     0.001 A 
ATOM      6  C   UNL     1       5.583  23.347  72.517  1.00  0.00     0.004 A 
ENDROOT
BRANCH   1   7
ATOM      7  C   UNL     1       2.747  24.956  69.725  1.00  0.00     0.075 C 
ATOM      8  O   UNL     1       1.709  25.533  70.141  1.00  0.00    -0.545 OA
ATOM      9  O   UNL     1       2.952  24.840  68.356  1.00  0.00    -0.545 OA
ENDBRANCH   1   7
BRANCH   2  10
ATOM     10  O   UNL     1       4.543  22.676  69.049  1.00  0.00    -0.507 OA
ATOM     11  H   UNL     1       3.718  22.656  68.465  1.00  0.00     0.293 HD
ENDBRANCH   2  10
TORSDOF 2
ENDMDL
MODEL 7
REMARK VINA RESULT:    -3.299     10.427     11.582
REMARK INTER + INTRA:          -3.826
REMARK INTER:                  -3.576
REMARK INTRA:                  -0.250
REMARK UNBOUND:                -0.238
REMARK SMILES O=C([O-])c1ccccc1O
REMARK SMILES IDX 4 1 9 2 5 3 8 4 6 5 7 6 2 7 1 8 3 9 10 10
REMARK H PARENT 10 11
REMARK Flexibility Score: inf
ROOT
ATOM      1  C   UNL     1       3.713  24.856  71.386  1.00  0.00     0.039 A 
ATOM      2  C   UNL     1       4.291  24.700  72.673  1.00  0.00     0.124 A 
ATOM      3  C   UNL     1       4.152  24.023  70.340  1.00  0.00     0.014 A 
ATOM      4  C   UNL     1       5.233  23.686  72.892  1.00  0.00     0.047 A 
ATOM      5  C   UNL     1       5.107  23.031  70.571  1.00  0.00     0.001 A 
ATOM      6  C   UNL     1       5.639  22.856  71.847  1.00  0.00     0.004 A 
ENDROOT
BRANCH   1   7
ATOM      7  C   UNL     1       2.643  25.837  71.099  1.00  0.00     0.075 C 
ATOM      8  O   UNL     1       2.593  26.433  69.992  1.00  0.00    -0.545 OA
ATOM      9  O   UNL     1       1.719  26.164  72.084  1.00  0.00    -0.545 OA
ENDBRANCH   1   7
BRANCH   2  10
ATOM     10  O   UNL     1       3.986  25.544  73.744  1.00  0.00    -0.507 OA
ATOM     11  H   UNL     1       3.628  25.217  74.630  1.00  0.00     0.293 HD
ENDBRANCH   2  10
TORSDOF 2
ENDMDL
MODEL 8
REMARK VINA RESULT:    -3.294     16.045     17.162
REMARK INTER + INTRA:          -3.821
REMARK INTER:                  -3.617
REMARK INTRA:                  -0.204
REMARK UNBOUND:                -0.238
REMARK SMILES O=C([O-])c1ccccc1O
REMARK SMILES IDX 4 1 9 2 5 3 8 4 6 5 7 6 2 7 1 8 3 9 10 10
REMARK H PARENT 10 11
REMARK Flexibility Score: inf
ROOT
ATOM      1  C   UNL     1      13.350  23.717  81.145  1.00  0.00     0.039 A 
ATOM      2  C   UNL     1      14.691  23.305  80.927  1.00  0.00     0.124 A 
ATOM      3  C   UNL     1      12.315  23.049  80.465  1.00  0.00     0.014 A 
ATOM      4  C   UNL     1      14.952  22.208  80.095  1.00  0.00     0.047 A 
ATOM      5  C   UNL     1      12.595  21.971  79.624  1.00  0.00     0.001 A 
ATOM      6  C   UNL     1      13.910  21.545  79.446  1.00  0.00     0.004 A 
ENDROOT
BRANCH   1   7
ATOM      7  C   UNL     1      12.987  24.803  82.084  1.00  0.00     0.075 C 
ATOM      8  O   UNL     1      12.395  25.836  81.678  1.00  0.00    -0.545 OA
ATOM      9  O   UNL     1      13.361  24.720  83.419  1.00  0.00    -0.545 OA
ENDBRANCH   1   7
BRANCH   2  10
ATOM     10  O   UNL     1      15.785  23.972  81.484  1.00  0.00    -0.507 OA
ATOM     11  H   UNL     1      16.740  23.820  81.192  1.00  0.00     0.293 HD
ENDBRANCH   2  10
TORSDOF 2
ENDMDL
MODEL 9
REMARK VINA RESULT:    -3.264     10.965     12.474
REMARK INTER + INTRA:          -3.789
REMARK INTER:                  -3.561
REMARK INTRA:                  -0.227
REMARK UNBOUND:                -0.238
REMARK SMILES O=C([O-])c1ccccc1O
REMARK SMILES IDX 4 1 9 2 5 3 8 4 6 5 7 6 2 7 1 8 3 9 10 10
REMARK H PARENT 10 11
REMARK Flexibility Score: inf
ROOT
ATOM      1  C   UNL     1       2.430  25.302  71.724  1.00  0.00     0.039 A 
ATOM      2  C   UNL     1       2.964  24.630  70.594  1.00  0.00     0.124 A 
ATOM      3  C   UNL     1       3.287  25.617  72.795  1.00  0.00     0.014 A 
ATOM      4  C   UNL     1       4.336  24.353  70.537  1.00  0.00     0.047 A 
ATOM      5  C   UNL     1       4.649  25.314  72.730  1.00  0.00     0.001 A 
ATOM      6  C   UNL     1       5.174  24.692  71.600  1.00  0.00     0.004 A 
ENDROOT
BRANCH   1   7
ATOM      7  C   UNL     1       1.012  25.715  71.816  1.00  0.00     0.075 C 
ATOM      8  O   UNL     1       0.085  24.868  71.731  1.00  0.00    -0.545 OA
ATOM      9  O   UNL     1       0.687  27.062  71.928  1.00  0.00    -0.545 OA
ENDBRANCH   1   7
BRANCH   2  10
ATOM     10  O   UNL     1       2.170  24.194  69.530  1.00  0.00    -0.507 OA
ATOM     11  H   UNL     1       1.239  23.820  69.644  1.00  0.00     0.293 HD
ENDBRANCH   2  10
TORSDOF 2
ENDMDL
