MODEL 1
REMARK VINA RESULT:    -4.022      0.000      0.000
REMARK INTER + INTRA:          -5.081
REMARK INTER:                  -4.963
REMARK INTRA:                  -0.119
REMARK UNBOUND:                -0.119
REMARK SMILES CCCCCC(=O)[O-]
REMARK SMILES IDX 4 1 5 2 6 3 7 4 8 5 3 6 2 7 1 8
REMARK H PARENT
REMARK Flexibility Score: inf
ROOT
ATOM      1  C   UNL     1      -4.319  -0.759   3.183  1.00  0.00     0.006 C 
ENDROOT
BRANCH   1   2
ATOM      2  C   UNL     1      -3.307  -0.123   2.222  1.00  0.00     0.053 C 
BRANCH   2   3
ATOM      3  C   UNL     1      -2.059   0.256   2.954  1.00  0.00     0.041 C 
ATOM      4  O   UNL     1      -2.046   0.284   4.212  1.00  0.00    -0.550 OA
ATOM      5  O   UNL     1      -0.923   0.629   2.246  1.00  0.00    -0.550 OA
ENDBRANCH   2   3
ENDBRANCH   1   2
BRANCH   1   6
ATOM      6  C   UNL     1      -5.007  -1.997   2.584  1.00  0.00     0.000 C 
BRANCH   6   7
ATOM      7  C   UNL     1      -5.313  -1.837   1.088  1.00  0.00    -0.003 C 
ATOM      8  C   UNL     1      -5.016  -3.125   0.326  1.00  0.00     0.004 C 
ENDBRANCH   6   7
ENDBRANCH   1   6
TORSDOF 4
ENDMDL
MODEL 2
REMARK VINA RESULT:    -3.736      3.058      4.466
REMARK INTER + INTRA:          -4.728
REMARK INTER:                  -4.817
REMARK INTRA:                   0.090
REMARK UNBOUND:                -0.119
REMARK SMILES CCCCCC(=O)[O-]
REMARK SMILES IDX 4 1 5 2 6 3 7 4 8 5 3 6 2 7 1 8
REMARK H PARENT
REMARK Flexibility Score: inf
ROOT
ATOM      1  C   UNL     1      -5.002  -1.597   2.272  1.00  0.00     0.006 C 
ENDROOT
BRANCH   1   2
ATOM      2  C   UNL     1      -5.163  -2.772   1.298  1.00  0.00     0.053 C 
BRANCH   2   3
ATOM      3  C   UNL     1      -5.116  -2.288  -0.116  1.00  0.00     0.041 C 
ATOM      4  O   UNL     1      -5.632  -1.182  -0.425  1.00  0.00    -0.550 OA
ATOM      5  O   UNL     1      -4.548  -3.081  -1.105  1.00  0.00    -0.550 OA
ENDBRANCH   2   3
ENDBRANCH   1   2
BRANCH   1   6
ATOM      6  C   UNL     1      -3.702  -0.810   2.040  1.00  0.00     0.000 C 
BRANCH   6   7
ATOM      7  C   UNL     1      -3.216  -0.089   3.305  1.00  0.00    -0.003 C 
ATOM      8  C   UNL     1      -1.747   0.305   3.181  1.00  0.00     0.004 C 
ENDBRANCH   6   7
ENDBRANCH   1   6
TORSDOF 4
ENDMDL
MODEL 3
REMARK VINA RESULT:    -3.691      3.085      4.350
REMARK INTER + INTRA:          -4.673
REMARK INTER:                  -4.559
REMARK INTRA:                  -0.114
REMARK UNBOUND:                -0.119
REMARK SMILES CCCCCC(=O)[O-]
REMARK SMILES IDX 4 1 5 2 6 3 7 4 8 5 3 6 2 7 1 8
REMARK H PARENT
REMARK Flexibility Score: inf
ROOT
ATOM      1  C   UNL     1      -4.637  -1.364   2.524  1.00  0.00     0.006 C 
ENDROOT
BRANCH   1   2
ATOM      2  C   UNL     1      -4.271  -1.256   1.038  1.00  0.00     0.053 C 
BRANCH   2   3
ATOM      3  C   UNL     1      -4.966  -2.320   0.250  1.00  0.00     0.041 C 
ATOM      4  O   UNL     1      -5.746  -3.125   0.822  1.00  0.00    -0.550 OA
ATOM      5  O   UNL     1      -4.712  -2.456  -1.109  1.00  0.00    -0.550 OA
ENDBRANCH   2   3
ENDBRANCH   1   2
BRANCH   1   6
ATOM      6  C   UNL     1      -3.826  -0.401   3.405  1.00  0.00     0.000 C 
BRANCH   6   7
ATOM      7  C   UNL     1      -2.695   0.294   2.635  1.00  0.00    -0.003 C 
ATOM      8  C   UNL     1      -1.388   0.251   3.422  1.00  0.00     0.004 C 
ENDBRANCH   6   7
ENDBRANCH   1   6
TORSDOF 4
ENDMDL
