MODEL 1
REMARK VINA RESULT:    -4.269      0.000      0.000
REMARK INTER + INTRA:         -12.971
REMARK INTER:                  -9.260
REMARK INTRA:                  -3.711
REMARK UNBOUND:                -3.711
REMARK SMILES CCCCCCCCCCCCCCCCCCCCCC(=O)[O-]
REMARK SMILES IDX 12 1 11 2 10 3 9 4 8 5 7 6 6 7 5 8 4 9 3 10 2 11 1 12 13 13
REMARK SMILES IDX 14 14 15 15 16 16 17 17 18 18 19 19 20 20 21 21 22 22 23 23
REMARK SMILES IDX 24 24
REMARK H PARENT
REMARK Flexibility Score: inf
ROOT
ATOM      1  C   UNL     1      88.045 123.536 130.376  1.00  0.00     0.000 C 
ENDROOT
BRANCH   1   2
ATOM      2  C   UNL     1      88.115 122.067 129.933  1.00  0.00     0.000 C 
BRANCH   2   3
ATOM      3  C   UNL     1      87.903 121.123 131.123  1.00  0.00     0.000 C 
BRANCH   3   4
ATOM      4  C   UNL     1      86.946 119.979 130.755  1.00  0.00    -0.000 C 
BRANCH   4   5
ATOM      5  C   UNL     1      86.923 119.681 129.245  1.00  0.00    -0.000 C 
BRANCH   5   6
ATOM      6  C   UNL     1      85.524 119.423 128.655  1.00  0.00    -0.000 C 
BRANCH   6   7
ATOM      7  C   UNL     1      85.048 120.466 127.627  1.00  0.00    -0.000 C 
BRANCH   7   8
ATOM      8  C   UNL     1      83.530 120.415 127.350  1.00  0.00    -0.000 C 
BRANCH   8   9
ATOM      9  C   UNL     1      83.124 121.273 126.142  1.00  0.00    -0.000 C 
BRANCH   9  10
ATOM     10  C   UNL     1      84.360 121.766 125.379  1.00  0.00    -0.000 C 
BRANCH  10  11
ATOM     11  C   UNL     1      83.997 122.542 124.103  1.00  0.00    -0.003 C 
ATOM     12  C   UNL     1      83.161 121.715 123.125  1.00  0.00     0.004 C 
ENDBRANCH  10  11
ENDBRANCH   9  10
ENDBRANCH   8   9
ENDBRANCH   7   8
ENDBRANCH   6   7
ENDBRANCH   5   6
ENDBRANCH   4   5
ENDBRANCH   3   4
ENDBRANCH   2   3
ENDBRANCH   1   2
BRANCH   1  13
ATOM     13  C   UNL     1      87.704 123.694 131.868  1.00  0.00     0.000 C 
BRANCH  13  14
ATOM     14  C   UNL     1      86.724 124.837 132.198  1.00  0.00     0.000 C 
BRANCH  14  15
ATOM     15  C   UNL     1      85.296 124.386 132.557  1.00  0.00     0.000 C 
BRANCH  15  16
ATOM     16  C   UNL     1      85.202 122.876 132.830  1.00  0.00     0.000 C 
BRANCH  16  17
ATOM     17  C   UNL     1      84.205 122.170 131.897  1.00  0.00     0.000 C 
BRANCH  17  18
ATOM     18  C   UNL     1      84.350 122.616 130.433  1.00  0.00     0.000 C 
BRANCH  18  19
ATOM     19  C   UNL     1      83.009 123.021 129.797  1.00  0.00     0.000 C 
BRANCH  19  20
ATOM     20  C   UNL     1      83.145 124.114 128.715  1.00  0.00     0.006 C 
BRANCH  20  21
ATOM     21  C   UNL     1      84.221 125.149 129.068  1.00  0.00     0.053 C 
BRANCH  21  22
ATOM     22  C   UNL     1      85.203 125.293 127.948  1.00  0.00     0.041 C 
ATOM     23  O   UNL     1      84.881 124.961 126.776  1.00  0.00    -0.550 OA
ATOM     24  O   UNL     1      86.463 125.826 128.192  1.00  0.00    -0.550 OA
ENDBRANCH  21  22
ENDBRANCH  20  21
ENDBRANCH  19  20
ENDBRANCH  18  19
ENDBRANCH  17  18
ENDBRANCH  16  17
ENDBRANCH  15  16
ENDBRANCH  14  15
ENDBRANCH  13  14
ENDBRANCH   1  13
TORSDOF 20
ENDMDL
MODEL 2
REMARK VINA RESULT:    -4.236      2.000      6.362
REMARK INTER + INTRA:         -12.899
REMARK INTER:                  -9.558
REMARK INTRA:                  -3.341
REMARK UNBOUND:                -3.711
REMARK SMILES CCCCCCCCCCCCCCCCCCCCCC(=O)[O-]
REMARK SMILES IDX 12 1 11 2 10 3 9 4 8 5 7 6 6 7 5 8 4 9 3 10 2 11 1 12 13 13
REMARK SMILES IDX 14 14 15 15 16 16 17 17 18 18 19 19 20 20 21 21 22 22 23 23
REMARK SMILES IDX 24 24
REMARK H PARENT
REMARK Flexibility Score: inf
ROOT
ATOM      1  C   UNL     1      85.127 124.933 127.652  1.00  0.00     0.000 C 
ENDROOT
BRANCH   1   2
ATOM      2  C   UNL     1      85.199 125.939 128.810  1.00  0.00     0.000 C 
BRANCH   2   3
ATOM      3  C   UNL     1      83.950 125.851 129.694  1.00  0.00     0.000 C 
BRANCH   3   4
ATOM      4  C   UNL     1      84.331 125.659 131.169  1.00  0.00    -0.000 C 
BRANCH   4   5
ATOM      5  C   UNL     1      84.273 124.187 131.616  1.00  0.00    -0.000 C 
BRANCH   5   6
ATOM      6  C   UNL     1      85.597 123.623 132.165  1.00  0.00    -0.000 C 
BRANCH   6   7
ATOM      7  C   UNL     1      86.785 124.602 132.134  1.00  0.00    -0.000 C 
BRANCH   7   8
ATOM      8  C   UNL     1      88.025 124.048 131.402  1.00  0.00    -0.000 C 
BRANCH   8   9
ATOM      9  C   UNL     1      87.681 123.458 130.026  1.00  0.00    -0.000 C 
BRANCH   9  10
ATOM     10  C   UNL     1      88.257 122.043 129.876  1.00  0.00    -0.000 C 
BRANCH  10  11
ATOM     11  C   UNL     1      88.270 121.266 131.201  1.00  0.00    -0.003 C 
ATOM     12  C   UNL     1      87.061 120.344 131.360  1.00  0.00     0.004 C 
ENDBRANCH  10  11
ENDBRANCH   9  10
ENDBRANCH   8   9
ENDBRANCH   7   8
ENDBRANCH   6   7
ENDBRANCH   5   6
ENDBRANCH   4   5
ENDBRANCH   3   4
ENDBRANCH   2   3
ENDBRANCH   1   2
BRANCH   1  13
ATOM     13  C   UNL     1      83.765 124.223 127.562  1.00  0.00     0.000 C 
BRANCH  13  14
ATOM     14  C   UNL     1      83.198 124.072 126.136  1.00  0.00     0.000 C 
BRANCH  14  15
ATOM     15  C   UNL     1      84.256 123.922 125.028  1.00  0.00     0.000 C 
BRANCH  15  16
ATOM     16  C   UNL     1      84.615 122.454 124.744  1.00  0.00     0.000 C 
BRANCH  16  17
ATOM     17  C   UNL     1      83.520 121.722 123.951  1.00  0.00     0.000 C 
BRANCH  17  18
ATOM     18  C   UNL     1      82.782 120.672 124.798  1.00  0.00     0.000 C 
BRANCH  18  19
ATOM     19  C   UNL     1      83.580 120.241 126.041  1.00  0.00     0.000 C 
BRANCH  19  20
ATOM     20  C   UNL     1      82.857 120.542 127.372  1.00  0.00     0.006 C 
BRANCH  20  21
ATOM     21  C   UNL     1      83.839 120.723 128.537  1.00  0.00     0.053 C 
BRANCH  21  22
ATOM     22  C   UNL     1      83.114 121.136 129.780  1.00  0.00     0.041 C 
ATOM     23  O   UNL     1      83.502 120.725 130.905  1.00  0.00    -0.550 OA
ATOM     24  O   UNL     1      82.030 122.001 129.697  1.00  0.00    -0.550 OA
ENDBRANCH  21  22
ENDBRANCH  20  21
ENDBRANCH  19  20
ENDBRANCH  18  19
ENDBRANCH  17  18
ENDBRANCH  16  17
ENDBRANCH  15  16
ENDBRANCH  14  15
ENDBRANCH  13  14
ENDBRANCH   1  13
TORSDOF 20
ENDMDL
MODEL 3
REMARK VINA RESULT:    -4.201      2.113      4.264
REMARK INTER + INTRA:         -12.824
REMARK INTER:                  -9.739
REMARK INTRA:                  -3.085
REMARK UNBOUND:                -3.711
REMARK SMILES CCCCCCCCCCCCCCCCCCCCCC(=O)[O-]
REMARK SMILES IDX 12 1 11 2 10 3 9 4 8 5 7 6 6 7 5 8 4 9 3 10 2 11 1 12 13 13
REMARK SMILES IDX 14 14 15 15 16 16 17 17 18 18 19 19 20 20 21 21 22 22 23 23
REMARK SMILES IDX 24 24
REMARK H PARENT
REMARK Flexibility Score: inf
ROOT
ATOM      1  C   UNL     1      86.642 125.597 128.533  1.00  0.00     0.000 C 
ENDROOT
BRANCH   1   2
ATOM      2  C   UNL     1      85.157 125.987 128.540  1.00  0.00     0.000 C 
BRANCH   2   3
ATOM      3  C   UNL     1      84.467 125.501 129.819  1.00  0.00     0.000 C 
BRANCH   3   4
ATOM      4  C   UNL     1      82.940 125.497 129.654  1.00  0.00    -0.000 C 
BRANCH   4   5
ATOM      5  C   UNL     1      82.405 124.175 129.074  1.00  0.00    -0.000 C 
BRANCH   5   6
ATOM      6  C   UNL     1      82.461 124.070 127.538  1.00  0.00    -0.000 C 
BRANCH   6   7
ATOM      7  C   UNL     1      83.362 122.945 126.995  1.00  0.00    -0.000 C 
BRANCH   7   8
ATOM      8  C   UNL     1      84.309 123.401 125.864  1.00  0.00    -0.000 C 
BRANCH   8   9
ATOM      9  C   UNL     1      84.478 122.333 124.773  1.00  0.00    -0.000 C 
BRANCH   9  10
ATOM     10  C   UNL     1      83.379 122.456 123.709  1.00  0.00    -0.000 C 
BRANCH  10  11
ATOM     11  C   UNL     1      82.974 121.098 123.117  1.00  0.00    -0.003 C 
ATOM     12  C   UNL     1      82.908 121.113 121.590  1.00  0.00     0.004 C 
ENDBRANCH  10  11
ENDBRANCH   9  10
ENDBRANCH   8   9
ENDBRANCH   7   8
ENDBRANCH   6   7
ENDBRANCH   5   6
ENDBRANCH   4   5
ENDBRANCH   3   4
ENDBRANCH   2   3
ENDBRANCH   1   2
BRANCH   1  13
ATOM     13  C   UNL     1      86.875 124.124 128.914  1.00  0.00     0.000 C 
BRANCH  13  14
ATOM     14  C   UNL     1      87.736 123.900 130.173  1.00  0.00     0.000 C 
BRANCH  14  15
ATOM     15  C   UNL     1      88.595 122.623 130.155  1.00  0.00     0.000 C 
BRANCH  15  16
ATOM     16  C   UNL     1      88.221 121.639 131.277  1.00  0.00     0.000 C 
BRANCH  16  17
ATOM     17  C   UNL     1      87.146 122.203 132.220  1.00  0.00     0.000 C 
BRANCH  17  18
ATOM     18  C   UNL     1      85.836 121.400 132.167  1.00  0.00     0.000 C 
BRANCH  18  19
ATOM     19  C   UNL     1      84.748 122.090 131.325  1.00  0.00     0.000 C 
BRANCH  19  20
ATOM     20  C   UNL     1      84.492 121.404 129.966  1.00  0.00     0.006 C 
BRANCH  20  21
ATOM     21  C   UNL     1      85.181 120.036 129.868  1.00  0.00     0.053 C 
BRANCH  21  22
ATOM     22  C   UNL     1      85.956 119.925 128.592  1.00  0.00     0.041 C 
ATOM     23  O   UNL     1      87.201 119.737 128.622  1.00  0.00    -0.550 OA
ATOM     24  O   UNL     1      85.298 119.995 127.370  1.00  0.00    -0.550 OA
ENDBRANCH  21  22
ENDBRANCH  20  21
ENDBRANCH  19  20
ENDBRANCH  18  19
ENDBRANCH  17  18
ENDBRANCH  16  17
ENDBRANCH  15  16
ENDBRANCH  14  15
ENDBRANCH  13  14
ENDBRANCH   1  13
TORSDOF 20
ENDMDL
MODEL 4
REMARK VINA RESULT:    -4.151      1.314      4.351
REMARK INTER + INTRA:         -12.715
REMARK INTER:                  -8.849
REMARK INTRA:                  -3.867
REMARK UNBOUND:                -3.711
REMARK SMILES CCCCCCCCCCCCCCCCCCCCCC(=O)[O-]
REMARK SMILES IDX 12 1 11 2 10 3 9 4 8 5 7 6 6 7 5 8 4 9 3 10 2 11 1 12 13 13
REMARK SMILES IDX 14 14 15 15 16 16 17 17 18 18 19 19 20 20 21 21 22 22 23 23
REMARK SMILES IDX 24 24
REMARK H PARENT
REMARK Flexibility Score: inf
ROOT
ATOM      1  C   UNL     1      88.001 122.821 130.051  1.00  0.00     0.000 C 
ENDROOT
BRANCH   1   2
ATOM      2  C   UNL     1      88.308 123.739 131.243  1.00  0.00     0.000 C 
BRANCH   2   3
ATOM      3  C   UNL     1      87.062 124.527 131.666  1.00  0.00     0.000 C 
BRANCH   3   4
ATOM      4  C   UNL     1      86.128 123.661 132.524  1.00  0.00    -0.000 C 
BRANCH   4   5
ATOM      5  C   UNL     1      84.641 123.866 132.182  1.00  0.00    -0.000 C 
BRANCH   5   6
ATOM      6  C   UNL     1      83.845 122.570 131.941  1.00  0.00    -0.000 C 
BRANCH   6   7
ATOM      7  C   UNL     1      83.692 122.166 130.462  1.00  0.00    -0.000 C 
BRANCH   7   8
ATOM      8  C   UNL     1      82.694 123.045 129.680  1.00  0.00    -0.000 C 
BRANCH   8   9
ATOM      9  C   UNL     1      83.386 123.934 128.636  1.00  0.00    -0.000 C 
BRANCH   9  10
ATOM     10  C   UNL     1      84.814 123.444 128.358  1.00  0.00    -0.000 C 
BRANCH  10  11
ATOM     11  C   UNL     1      85.803 124.599 128.137  1.00  0.00    -0.003 C 
ATOM     12  C   UNL     1      85.259 125.944 128.618  1.00  0.00     0.004 C 
ENDBRANCH  10  11
ENDBRANCH   9  10
ENDBRANCH   8   9
ENDBRANCH   7   8
ENDBRANCH   6   7
ENDBRANCH   5   6
ENDBRANCH   4   5
ENDBRANCH   3   4
ENDBRANCH   2   3
ENDBRANCH   1   2
BRANCH   1  13
ATOM     13  C   UNL     1      88.355 121.348 130.323  1.00  0.00     0.000 C 
BRANCH  13  14
ATOM     14  C   UNL     1      87.288 120.551 131.100  1.00  0.00     0.000 C 
BRANCH  14  15
ATOM     15  C   UNL     1      86.553 119.476 130.279  1.00  0.00     0.000 C 
BRANCH  15  16
ATOM     16  C   UNL     1      86.083 119.994 128.909  1.00  0.00     0.000 C 
BRANCH  16  17
ATOM     17  C   UNL     1      85.033 119.077 128.262  1.00  0.00     0.000 C 
BRANCH  17  18
ATOM     18  C   UNL     1      83.780 119.844 127.808  1.00  0.00     0.000 C 
BRANCH  18  19
ATOM     19  C   UNL     1      83.757 120.104 126.292  1.00  0.00     0.000 C 
BRANCH  19  20
ATOM     20  C   UNL     1      82.889 121.315 125.887  1.00  0.00     0.006 C 
BRANCH  20  21
ATOM     21  C   UNL     1      83.307 121.902 124.533  1.00  0.00     0.053 C 
BRANCH  21  22
ATOM     22  C   UNL     1      84.363 122.947 124.713  1.00  0.00     0.041 C 
ATOM     23  O   UNL     1      85.575 122.661 124.527  1.00  0.00    -0.550 OA
ATOM     24  O   UNL     1      84.005 124.246 125.055  1.00  0.00    -0.550 OA
ENDBRANCH  21  22
ENDBRANCH  20  21
ENDBRANCH  19  20
ENDBRANCH  18  19
ENDBRANCH  17  18
ENDBRANCH  16  17
ENDBRANCH  15  16
ENDBRANCH  14  15
ENDBRANCH  13  14
ENDBRANCH   1  13
TORSDOF 20
ENDMDL
MODEL 5
REMARK VINA RESULT:    -4.045      2.223      3.832
REMARK INTER + INTRA:         -12.485
REMARK INTER:                  -8.788
REMARK INTRA:                  -3.697
REMARK UNBOUND:                -3.711
REMARK SMILES CCCCCCCCCCCCCCCCCCCCCC(=O)[O-]
REMARK SMILES IDX 12 1 11 2 10 3 9 4 8 5 7 6 6 7 5 8 4 9 3 10 2 11 1 12 13 13
REMARK SMILES IDX 14 14 15 15 16 16 17 17 18 18 19 19 20 20 21 21 22 22 23 23
REMARK SMILES IDX 24 24
REMARK H PARENT
REMARK Flexibility Score: inf
ROOT
ATOM      1  C   UNL     1      85.787 125.859 128.315  1.00  0.00     0.000 C 
ENDROOT
BRANCH   1   2
ATOM      2  C   UNL     1      86.710 125.145 129.312  1.00  0.00     0.000 C 
BRANCH   2   3
ATOM      3  C   UNL     1      87.111 123.758 128.794  1.00  0.00     0.000 C 
BRANCH   3   4
ATOM      4  C   UNL     1      85.957 123.105 128.020  1.00  0.00    -0.000 C 
BRANCH   4   5
ATOM      5  C   UNL     1      85.549 121.737 128.596  1.00  0.00    -0.000 C 
BRANCH   5   6
ATOM      6  C   UNL     1      84.383 121.046 127.864  1.00  0.00    -0.000 C 
BRANCH   6   7
ATOM      7  C   UNL     1      84.640 120.735 126.377  1.00  0.00    -0.000 C 
BRANCH   7   8
ATOM      8  C   UNL     1      83.363 120.752 125.511  1.00  0.00    -0.000 C 
BRANCH   8   9
ATOM      9  C   UNL     1      83.390 121.859 124.446  1.00  0.00    -0.000 C 
BRANCH   9  10
ATOM     10  C   UNL     1      84.472 122.900 124.764  1.00  0.00    -0.000 C 
BRANCH  10  11
ATOM     11  C   UNL     1      83.885 124.228 125.270  1.00  0.00    -0.003 C 
ATOM     12  C   UNL     1      82.811 124.031 126.339  1.00  0.00     0.004 C 
ENDBRANCH  10  11
ENDBRANCH   9  10
ENDBRANCH   8   9
ENDBRANCH   7   8
ENDBRANCH   6   7
ENDBRANCH   5   6
ENDBRANCH   4   5
ENDBRANCH   3   4
ENDBRANCH   2   3
ENDBRANCH   1   2
BRANCH   1  13
ATOM     13  C   UNL     1      84.428 126.242 128.927  1.00  0.00     0.000 C 
BRANCH  13  14
ATOM     14  C   UNL     1      84.119 125.596 130.293  1.00  0.00     0.000 C 
BRANCH  14  15
ATOM     15  C   UNL     1      83.115 124.430 130.248  1.00  0.00     0.000 C 
BRANCH  15  16
ATOM     16  C   UNL     1      83.035 123.664 131.579  1.00  0.00     0.000 C 
BRANCH  16  17
ATOM     17  C   UNL     1      83.337 122.166 131.416  1.00  0.00     0.000 C 
BRANCH  17  18
ATOM     18  C   UNL     1      84.709 121.776 131.989  1.00  0.00     0.000 C 
BRANCH  18  19
ATOM     19  C   UNL     1      85.571 122.997 132.354  1.00  0.00     0.000 C 
BRANCH  19  20
ATOM     20  C   UNL     1      87.086 122.757 132.176  1.00  0.00     0.006 C 
BRANCH  20  21
ATOM     21  C   UNL     1      87.411 121.286 131.888  1.00  0.00     0.053 C 
BRANCH  21  22
ATOM     22  C   UNL     1      88.626 121.173 131.021  1.00  0.00     0.041 C 
ATOM     23  O   UNL     1      88.506 120.921 129.793  1.00  0.00    -0.550 OA
ATOM     24  O   UNL     1      89.889 121.378 131.563  1.00  0.00    -0.550 OA
ENDBRANCH  21  22
ENDBRANCH  20  21
ENDBRANCH  19  20
ENDBRANCH  18  19
ENDBRANCH  17  18
ENDBRANCH  16  17
ENDBRANCH  15  16
ENDBRANCH  14  15
ENDBRANCH  13  14
ENDBRANCH   1  13
TORSDOF 20
ENDMDL
MODEL 6
REMARK VINA RESULT:    -4.032      2.028      5.622
REMARK INTER + INTRA:         -12.458
REMARK INTER:                  -8.989
REMARK INTRA:                  -3.469
REMARK UNBOUND:                -3.711
REMARK SMILES CCCCCCCCCCCCCCCCCCCCCC(=O)[O-]
REMARK SMILES IDX 12 1 11 2 10 3 9 4 8 5 7 6 6 7 5 8 4 9 3 10 2 11 1 12 13 13
REMARK SMILES IDX 14 14 15 15 16 16 17 17 18 18 19 19 20 20 21 21 22 22 23 23
REMARK SMILES IDX 24 24
REMARK H PARENT
REMARK Flexibility Score: inf
ROOT
ATOM      1  C   UNL     1      86.762 125.188 128.566  1.00  0.00     0.000 C 
ENDROOT
BRANCH   1   2
ATOM      2  C   UNL     1      87.151 124.493 129.880  1.00  0.00     0.000 C 
BRANCH   2   3
ATOM      3  C   UNL     1      88.123 123.336 129.622  1.00  0.00     0.000 C 
BRANCH   3   4
ATOM      4  C   UNL     1      88.449 122.591 130.925  1.00  0.00    -0.000 C 
BRANCH   4   5
ATOM      5  C   UNL     1      87.237 122.475 131.867  1.00  0.00    -0.000 C 
BRANCH   5   6
ATOM      6  C   UNL     1      86.507 121.119 131.821  1.00  0.00    -0.000 C 
BRANCH   6   7
ATOM      7  C   UNL     1      85.388 121.017 130.768  1.00  0.00    -0.000 C 
BRANCH   7   8
ATOM      8  C   UNL     1      84.467 122.255 130.721  1.00  0.00    -0.000 C 
BRANCH   8   9
ATOM      9  C   UNL     1      83.343 122.192 131.767  1.00  0.00    -0.000 C 
BRANCH   9  10
ATOM     10  C   UNL     1      83.255 123.505 132.557  1.00  0.00    -0.000 C 
BRANCH  10  11
ATOM     11  C   UNL     1      83.907 124.685 131.821  1.00  0.00    -0.003 C 
ATOM     12  C   UNL     1      84.976 125.387 132.657  1.00  0.00     0.004 C 
ENDBRANCH  10  11
ENDBRANCH   9  10
ENDBRANCH   8   9
ENDBRANCH   7   8
ENDBRANCH   6   7
ENDBRANCH   5   6
ENDBRANCH   4   5
ENDBRANCH   3   4
ENDBRANCH   2   3
ENDBRANCH   1   2
BRANCH   1  13
ATOM     13  C   UNL     1      85.337 125.768 128.596  1.00  0.00     0.000 C 
BRANCH  13  14
ATOM     14  C   UNL     1      84.238 124.836 128.047  1.00  0.00     0.000 C 
BRANCH  14  15
ATOM     15  C   UNL     1      84.724 123.786 127.031  1.00  0.00     0.000 C 
BRANCH  15  16
ATOM     16  C   UNL     1      84.098 123.973 125.638  1.00  0.00     0.000 C 
BRANCH  16  17
ATOM     17  C   UNL     1      84.733 123.058 124.579  1.00  0.00     0.000 C 
BRANCH  17  18
ATOM     18  C   UNL     1      83.685 122.255 123.791  1.00  0.00     0.000 C 
BRANCH  18  19
ATOM     19  C   UNL     1      82.495 121.813 124.660  1.00  0.00     0.000 C 
BRANCH  19  20
ATOM     20  C   UNL     1      82.688 120.426 125.310  1.00  0.00     0.006 C 
BRANCH  20  21
ATOM     21  C   UNL     1      82.775 120.508 126.839  1.00  0.00     0.053 C 
BRANCH  21  22
ATOM     22  C   UNL     1      84.055 119.908 127.329  1.00  0.00     0.041 C 
ATOM     23  O   UNL     1      84.035 118.981 128.181  1.00  0.00    -0.550 OA
ATOM     24  O   UNL     1      85.270 120.351 126.820  1.00  0.00    -0.550 OA
ENDBRANCH  21  22
ENDBRANCH  20  21
ENDBRANCH  19  20
ENDBRANCH  18  19
ENDBRANCH  17  18
ENDBRANCH  16  17
ENDBRANCH  15  16
ENDBRANCH  14  15
ENDBRANCH  13  14
ENDBRANCH   1  13
TORSDOF 20
ENDMDL
MODEL 7
REMARK VINA RESULT:    -4.018      2.349      4.841
REMARK INTER + INTRA:         -12.428
REMARK INTER:                  -9.429
REMARK INTRA:                  -2.999
REMARK UNBOUND:                -3.711
REMARK SMILES CCCCCCCCCCCCCCCCCCCCCC(=O)[O-]
REMARK SMILES IDX 12 1 11 2 10 3 9 4 8 5 7 6 6 7 5 8 4 9 3 10 2 11 1 12 13 13
REMARK SMILES IDX 14 14 15 15 16 16 17 17 18 18 19 19 20 20 21 21 22 22 23 23
REMARK SMILES IDX 24 24
REMARK H PARENT
REMARK Flexibility Score: inf
ROOT
ATOM      1  C   UNL     1      83.246 122.604 129.925  1.00  0.00     0.000 C 
ENDROOT
BRANCH   1   2
ATOM      2  C   UNL     1      83.136 123.089 128.472  1.00  0.00     0.000 C 
BRANCH   2   3
ATOM      3  C   UNL     1      84.524 123.275 127.847  1.00  0.00     0.000 C 
BRANCH   3   4
ATOM      4  C   UNL     1      84.527 124.443 126.850  1.00  0.00    -0.000 C 
BRANCH   4   5
ATOM      5  C   UNL     1      83.837 124.095 125.518  1.00  0.00    -0.000 C 
BRANCH   5   6
ATOM      6  C   UNL     1      84.575 123.052 124.658  1.00  0.00    -0.000 C 
BRANCH   6   7
ATOM      7  C   UNL     1      83.673 122.215 123.732  1.00  0.00    -0.000 C 
BRANCH   7   8
ATOM      8  C   UNL     1      82.509 121.517 124.468  1.00  0.00    -0.000 C 
BRANCH   8   9
ATOM      9  C   UNL     1      82.433 120.015 124.158  1.00  0.00    -0.000 C 
BRANCH   9  10
ATOM     10  C   UNL     1      82.668 119.180 125.425  1.00  0.00    -0.000 C 
BRANCH  10  11
ATOM     11  C   UNL     1      83.309 119.995 126.560  1.00  0.00    -0.003 C 
ATOM     12  C   UNL     1      84.201 119.147 127.466  1.00  0.00     0.004 C 
ENDBRANCH  10  11
ENDBRANCH   9  10
ENDBRANCH   8   9
ENDBRANCH   7   8
ENDBRANCH   6   7
ENDBRANCH   5   6
ENDBRANCH   4   5
ENDBRANCH   3   4
ENDBRANCH   2   3
ENDBRANCH   1   2
BRANCH   1  13
ATOM     13  C   UNL     1      82.813 123.671 130.946  1.00  0.00     0.000 C 
BRANCH  13  14
ATOM     14  C   UNL     1      83.100 125.129 130.532  1.00  0.00     0.000 C 
BRANCH  14  15
ATOM     15  C   UNL     1      84.551 125.593 130.753  1.00  0.00     0.000 C 
BRANCH  15  16
ATOM     16  C   UNL     1      85.067 125.277 132.167  1.00  0.00     0.000 C 
BRANCH  16  17
ATOM     17  C   UNL     1      86.435 124.576 132.151  1.00  0.00     0.000 C 
BRANCH  17  18
ATOM     18  C   UNL     1      86.844 124.114 130.743  1.00  0.00     0.000 C 
BRANCH  18  19
ATOM     19  C   UNL     1      88.275 123.550 130.693  1.00  0.00     0.000 C 
BRANCH  19  20
ATOM     20  C   UNL     1      88.329 122.024 130.468  1.00  0.00     0.006 C 
BRANCH  20  21
ATOM     21  C   UNL     1      87.077 121.498 129.756  1.00  0.00     0.053 C 
BRANCH  21  22
ATOM     22  C   UNL     1      87.084 120.002 129.709  1.00  0.00     0.041 C 
ATOM     23  O   UNL     1      86.474 119.338 130.589  1.00  0.00    -0.550 OA
ATOM     24  O   UNL     1      87.737 119.341 128.676  1.00  0.00    -0.550 OA
ENDBRANCH  21  22
ENDBRANCH  20  21
ENDBRANCH  19  20
ENDBRANCH  18  19
ENDBRANCH  17  18
ENDBRANCH  16  17
ENDBRANCH  15  16
ENDBRANCH  14  15
ENDBRANCH  13  14
ENDBRANCH   1  13
TORSDOF 20
ENDMDL
MODEL 8
REMARK VINA RESULT:    -3.984      1.905      5.828
REMARK INTER + INTRA:         -12.353
REMARK INTER:                  -8.664
REMARK INTRA:                  -3.689
REMARK UNBOUND:                -3.711
REMARK SMILES CCCCCCCCCCCCCCCCCCCCCC(=O)[O-]
REMARK SMILES IDX 12 1 11 2 10 3 9 4 8 5 7 6 6 7 5 8 4 9 3 10 2 11 1 12 13 13
REMARK SMILES IDX 14 14 15 15 16 16 17 17 18 18 19 19 20 20 21 21 22 22 23 23
REMARK SMILES IDX 24 24
REMARK H PARENT
REMARK Flexibility Score: inf
ROOT
ATOM      1  C   UNL     1      84.136 124.192 127.340  1.00  0.00     0.000 C 
ENDROOT
BRANCH   1   2
ATOM      2  C   UNL     1      85.189 125.165 127.892  1.00  0.00     0.000 C 
BRANCH   2   3
ATOM      3  C   UNL     1      86.515 124.444 128.161  1.00  0.00     0.000 C 
BRANCH   3   4
ATOM      4  C   UNL     1      86.920 124.570 129.637  1.00  0.00    -0.000 C 
BRANCH   4   5
ATOM      5  C   UNL     1      85.744 124.968 130.548  1.00  0.00    -0.000 C 
BRANCH   5   6
ATOM      6  C   UNL     1      85.801 124.384 131.973  1.00  0.00    -0.000 C 
BRANCH   6   7
ATOM      7  C   UNL     1      84.621 123.468 132.348  1.00  0.00    -0.000 C 
BRANCH   7   8
ATOM      8  C   UNL     1      85.055 122.082 132.872  1.00  0.00    -0.000 C 
BRANCH   8   9
ATOM      9  C   UNL     1      86.523 121.766 132.549  1.00  0.00    -0.000 C 
BRANCH   9  10
ATOM     10  C   UNL     1      86.628 120.769 131.387  1.00  0.00    -0.000 C 
BRANCH  10  11
ATOM     11  C   UNL     1      87.870 121.005 130.514  1.00  0.00    -0.003 C 
ATOM     12  C   UNL     1      88.899 121.917 131.183  1.00  0.00     0.004 C 
ENDBRANCH  10  11
ENDBRANCH   9  10
ENDBRANCH   8   9
ENDBRANCH   7   8
ENDBRANCH   6   7
ENDBRANCH   5   6
ENDBRANCH   4   5
ENDBRANCH   3   4
ENDBRANCH   2   3
ENDBRANCH   1   2
BRANCH   1  13
ATOM     13  C   UNL     1      82.892 124.085 128.239  1.00  0.00     0.000 C 
BRANCH  13  14
ATOM     14  C   UNL     1      82.788 122.785 129.061  1.00  0.00     0.000 C 
BRANCH  14  15
ATOM     15  C   UNL     1      84.034 121.882 129.011  1.00  0.00     0.000 C 
BRANCH  15  16
ATOM     16  C   UNL     1      83.751 120.450 129.495  1.00  0.00     0.000 C 
BRANCH  16  17
ATOM     17  C   UNL     1      83.638 119.448 128.335  1.00  0.00     0.000 C 
BRANCH  17  18
ATOM     18  C   UNL     1      84.155 120.024 127.006  1.00  0.00     0.000 C 
BRANCH  18  19
ATOM     19  C   UNL     1      83.110 119.953 125.879  1.00  0.00     0.000 C 
BRANCH  19  20
ATOM     20  C   UNL     1      82.397 121.297 125.614  1.00  0.00     0.006 C 
BRANCH  20  21
ATOM     21  C   UNL     1      81.961 121.444 124.151  1.00  0.00     0.053 C 
BRANCH  21  22
ATOM     22  C   UNL     1      83.107 121.892 123.300  1.00  0.00     0.041 C 
ATOM     23  O   UNL     1      83.079 121.714 122.053  1.00  0.00    -0.550 OA
ATOM     24  O   UNL     1      84.193 122.537 123.879  1.00  0.00    -0.550 OA
ENDBRANCH  21  22
ENDBRANCH  20  21
ENDBRANCH  19  20
ENDBRANCH  18  19
ENDBRANCH  17  18
ENDBRANCH  16  17
ENDBRANCH  15  16
ENDBRANCH  14  15
ENDBRANCH  13  14
ENDBRANCH   1  13
TORSDOF 20
ENDMDL
MODEL 9
REMARK VINA RESULT:    -3.981      2.356      4.040
REMARK INTER + INTRA:         -12.347
REMARK INTER:                  -8.708
REMARK INTRA:                  -3.639
REMARK UNBOUND:                -3.711
REMARK SMILES CCCCCCCCCCCCCCCCCCCCCC(=O)[O-]
REMARK SMILES IDX 12 1 11 2 10 3 9 4 8 5 7 6 6 7 5 8 4 9 3 10 2 11 1 12 13 13
REMARK SMILES IDX 14 14 15 15 16 16 17 17 18 18 19 19 20 20 21 21 22 22 23 23
REMARK SMILES IDX 24 24
REMARK H PARENT
REMARK Flexibility Score: inf
ROOT
ATOM      1  C   UNL     1      84.930 124.677 127.806  1.00  0.00     0.000 C 
ENDROOT
BRANCH   1   2
ATOM      2  C   UNL     1      84.470 123.334 128.391  1.00  0.00     0.000 C 
BRANCH   2   3
ATOM      3  C   UNL     1      82.985 123.379 128.770  1.00  0.00     0.000 C 
BRANCH   3   4
ATOM      4  C   UNL     1      82.396 121.964 128.859  1.00  0.00    -0.000 C 
BRANCH   4   5
ATOM      5  C   UNL     1      83.462 120.889 129.142  1.00  0.00    -0.000 C 
BRANCH   5   6
ATOM      6  C   UNL     1      83.358 119.626 128.267  1.00  0.00    -0.000 C 
BRANCH   6   7
ATOM      7  C   UNL     1      83.706 119.832 126.781  1.00  0.00    -0.000 C 
BRANCH   7   8
ATOM      8  C   UNL     1      82.483 119.759 125.842  1.00  0.00    -0.000 C 
BRANCH   8   9
ATOM      9  C   UNL     1      82.557 120.782 124.699  1.00  0.00    -0.000 C 
BRANCH   9  10
ATOM     10  C   UNL     1      82.719 122.206 125.246  1.00  0.00    -0.000 C 
BRANCH  10  11
ATOM     11  C   UNL     1      83.824 122.995 124.525  1.00  0.00    -0.003 C 
ATOM     12  C   UNL     1      85.226 122.475 124.843  1.00  0.00     0.004 C 
ENDBRANCH  10  11
ENDBRANCH   9  10
ENDBRANCH   8   9
ENDBRANCH   7   8
ENDBRANCH   6   7
ENDBRANCH   5   6
ENDBRANCH   4   5
ENDBRANCH   3   4
ENDBRANCH   2   3
ENDBRANCH   1   2
BRANCH   1  13
ATOM     13  C   UNL     1      85.277 125.714 128.889  1.00  0.00     0.000 C 
BRANCH  13  14
ATOM     14  C   UNL     1      86.049 125.159 130.103  1.00  0.00     0.000 C 
BRANCH  14  15
ATOM     15  C   UNL     1      85.286 125.213 131.439  1.00  0.00     0.000 C 
BRANCH  15  16
ATOM     16  C   UNL     1      85.751 124.136 132.433  1.00  0.00     0.000 C 
BRANCH  16  17
ATOM     17  C   UNL     1      85.211 122.740 132.084  1.00  0.00     0.000 C 
BRANCH  17  18
ATOM     18  C   UNL     1      86.319 121.674 132.041  1.00  0.00     0.000 C 
BRANCH  18  19
ATOM     19  C   UNL     1      87.674 122.241 131.585  1.00  0.00     0.000 C 
BRANCH  19  20
ATOM     20  C   UNL     1      88.141 121.697 130.218  1.00  0.00     0.006 C 
BRANCH  20  21
ATOM     21  C   UNL     1      86.979 121.136 129.389  1.00  0.00     0.053 C 
BRANCH  21  22
ATOM     22  C   UNL     1      87.045 119.642 129.330  1.00  0.00     0.041 C 
ATOM     23  O   UNL     1      87.835 119.074 128.531  1.00  0.00    -0.550 OA
ATOM     24  O   UNL     1      86.257 118.877 130.181  1.00  0.00    -0.550 OA
ENDBRANCH  21  22
ENDBRANCH  20  21
ENDBRANCH  19  20
ENDBRANCH  18  19
ENDBRANCH  17  18
ENDBRANCH  16  17
ENDBRANCH  15  16
ENDBRANCH  14  15
ENDBRANCH  13  14
ENDBRANCH   1  13
TORSDOF 20
ENDMDL
