MODEL 1
REMARK VINA RESULT:    -3.419      0.000      0.000
REMARK INTER + INTRA:          -4.638
REMARK INTER:                  -4.518
REMARK INTRA:                  -0.120
REMARK UNBOUND:                -0.120
REMARK SMILES CCCCCCCO
REMARK SMILES IDX 5 1 4 2 3 3 2 4 1 5 6 6 7 7 8 8
REMARK H PARENT 8 9
REMARK Flexibility Score: inf
ROOT
ATOM      1  C   UNL     1      35.346  -6.734  24.363  1.00  0.00     0.002 C 
ENDROOT
BRANCH   1   2
ATOM      2  C   UNL     1      36.058  -7.685  25.342  1.00  0.00     0.000 C 
BRANCH   2   3
ATOM      3  C   UNL     1      35.106  -8.726  25.950  1.00  0.00    -0.000 C 
BRANCH   3   4
ATOM      4  C   UNL     1      34.356  -9.538  24.883  1.00  0.00    -0.003 C 
ATOM      5  C   UNL     1      32.847  -9.345  25.007  1.00  0.00     0.004 C 
ENDBRANCH   3   4
ENDBRANCH   2   3
ENDBRANCH   1   2
BRANCH   1   6
ATOM      6  C   UNL     1      36.200  -5.511  23.988  1.00  0.00     0.028 C 
BRANCH   6   7
ATOM      7  C   UNL     1      35.385  -4.340  23.431  1.00  0.00     0.156 C 
BRANCH   7   8
ATOM      8  O   UNL     1      34.641  -4.749  22.316  1.00  0.00    -0.396 OA
ATOM      9  H   UNL     1      33.689  -4.620  22.558  1.00  0.00     0.210 HD
ENDBRANCH   7   8
ENDBRANCH   6   7
ENDBRANCH   1   6
TORSDOF 6
ENDMDL
MODEL 2
REMARK VINA RESULT:    -3.034     13.920     14.971
REMARK INTER + INTRA:          -4.129
REMARK INTER:                  -3.917
REMARK INTRA:                  -0.212
REMARK UNBOUND:                -0.120
REMARK SMILES CCCCCCCO
REMARK SMILES IDX 5 1 4 2 3 3 2 4 1 5 6 6 7 7 8 8
REMARK H PARENT 8 9
REMARK Flexibility Score: inf
ROOT
ATOM      1  C   UNL     1      35.845 -12.676  37.263  1.00  0.00     0.002 C 
ENDROOT
BRANCH   1   2
ATOM      2  C   UNL     1      34.751 -12.051  36.380  1.00  0.00     0.000 C 
BRANCH   2   3
ATOM      3  C   UNL     1      33.559 -11.528  37.198  1.00  0.00    -0.000 C 
BRANCH   3   4
ATOM      4  C   UNL     1      32.213 -11.754  36.494  1.00  0.00    -0.003 C 
ATOM      5  C   UNL     1      31.891 -13.243  36.391  1.00  0.00     0.004 C 
ENDBRANCH   3   4
ENDBRANCH   2   3
ENDBRANCH   1   2
BRANCH   1   6
ATOM      6  C   UNL     1      35.473 -12.690  38.756  1.00  0.00     0.028 C 
BRANCH   6   7
ATOM      7  C   UNL     1      36.668 -12.935  39.684  1.00  0.00     0.156 C 
BRANCH   7   8
ATOM      8  O   UNL     1      36.678 -14.265  40.125  1.00  0.00    -0.396 OA
ATOM      9  H   UNL     1      35.764 -14.614  39.968  1.00  0.00     0.210 HD
ENDBRANCH   7   8
ENDBRANCH   6   7
ENDBRANCH   1   6
TORSDOF 6
ENDMDL
MODEL 3
REMARK VINA RESULT:    -2.938      8.505      9.127
REMARK INTER + INTRA:          -4.002
REMARK INTER:                  -3.888
REMARK INTRA:                  -0.114
REMARK UNBOUND:                -0.120
REMARK SMILES CCCCCCCO
REMARK SMILES IDX 5 1 4 2 3 3 2 4 1 5 6 6 7 7 8 8
REMARK H PARENT 8 9
REMARK Flexibility Score: inf
ROOT
ATOM      1  C   UNL     1      34.526  -5.471  33.519  1.00  0.00     0.002 C 
ENDROOT
BRANCH   1   2
ATOM      2  C   UNL     1      33.713  -6.632  32.919  1.00  0.00     0.000 C 
BRANCH   2   3
ATOM      3  C   UNL     1      33.026  -6.249  31.598  1.00  0.00    -0.000 C 
BRANCH   3   4
ATOM      4  C   UNL     1      31.770  -7.088  31.320  1.00  0.00    -0.003 C 
ATOM      5  C   UNL     1      30.763  -6.960  32.460  1.00  0.00     0.004 C 
ENDBRANCH   3   4
ENDBRANCH   2   3
ENDBRANCH   1   2
BRANCH   1   6
ATOM      6  C   UNL     1      36.000  -5.481  33.077  1.00  0.00     0.028 C 
BRANCH   6   7
ATOM      7  C   UNL     1      36.881  -4.497  33.854  1.00  0.00     0.156 C 
BRANCH   7   8
ATOM      8  O   UNL     1      36.143  -3.881  34.874  1.00  0.00    -0.396 OA
ATOM      9  H   UNL     1      35.192  -3.946  34.603  1.00  0.00     0.210 HD
ENDBRANCH   7   8
ENDBRANCH   6   7
ENDBRANCH   1   6
TORSDOF 6
ENDMDL
MODEL 4
REMARK VINA RESULT:    -2.802     12.303     13.722
REMARK INTER + INTRA:          -3.822
REMARK INTER:                  -3.549
REMARK INTRA:                  -0.274
REMARK UNBOUND:                -0.120
REMARK SMILES CCCCCCCO
REMARK SMILES IDX 5 1 4 2 3 3 2 4 1 5 6 6 7 7 8 8
REMARK H PARENT 8 9
REMARK Flexibility Score: inf
ROOT
ATOM      1  C   UNL     1      34.959 -12.459  38.158  1.00  0.00     0.002 C 
ENDROOT
BRANCH   1   2
ATOM      2  C   UNL     1      33.905 -11.535  37.524  1.00  0.00     0.000 C 
BRANCH   2   3
ATOM      3  C   UNL     1      32.630 -12.289  37.113  1.00  0.00    -0.000 C 
BRANCH   3   4
ATOM      4  C   UNL     1      32.266 -12.075  35.636  1.00  0.00    -0.003 C 
ATOM      5  C   UNL     1      33.400 -12.531  34.721  1.00  0.00     0.004 C 
ENDBRANCH   3   4
ENDBRANCH   2   3
ENDBRANCH   1   2
BRANCH   1   6
ATOM      6  C   UNL     1      36.401 -12.012  37.865  1.00  0.00     0.028 C 
BRANCH   6   7
ATOM      7  C   UNL     1      36.856 -12.301  36.430  1.00  0.00     0.156 C 
BRANCH   7   8
ATOM      8  O   UNL     1      36.521 -13.613  36.068  1.00  0.00    -0.396 OA
ATOM      9  H   UNL     1      36.705 -13.685  35.097  1.00  0.00     0.210 HD
ENDBRANCH   7   8
ENDBRANCH   6   7
ENDBRANCH   1   6
TORSDOF 6
ENDMDL
MODEL 5
REMARK VINA RESULT:    -2.777     13.374     14.654
REMARK INTER + INTRA:          -3.789
REMARK INTER:                  -3.667
REMARK INTRA:                  -0.122
REMARK UNBOUND:                -0.120
REMARK SMILES CCCCCCCO
REMARK SMILES IDX 5 1 4 2 3 3 2 4 1 5 6 6 7 7 8 8
REMARK H PARENT 8 9
REMARK Flexibility Score: inf
ROOT
ATOM      1  C   UNL     1      33.740 -11.884  36.563  1.00  0.00     0.002 C 
ENDROOT
BRANCH   1   2
ATOM      2  C   UNL     1      34.439 -12.213  37.894  1.00  0.00     0.000 C 
BRANCH   2   3
ATOM      3  C   UNL     1      35.939 -12.496  37.718  1.00  0.00    -0.000 C 
BRANCH   3   4
ATOM      4  C   UNL     1      36.686 -12.585  39.057  1.00  0.00    -0.003 C 
ATOM      5  C   UNL     1      35.829 -13.270  40.118  1.00  0.00     0.004 C 
ENDBRANCH   3   4
ENDBRANCH   2   3
ENDBRANCH   1   2
BRANCH   1   6
ATOM      6  C   UNL     1      32.209 -12.007  36.645  1.00  0.00     0.028 C 
BRANCH   6   7
ATOM      7  C   UNL     1      31.681 -13.389  36.247  1.00  0.00     0.156 C 
BRANCH   7   8
ATOM      8  O   UNL     1      32.554 -14.001  35.337  1.00  0.00    -0.396 OA
ATOM      9  H   UNL     1      32.994 -14.739  35.831  1.00  0.00     0.210 HD
ENDBRANCH   7   8
ENDBRANCH   6   7
ENDBRANCH   1   6
TORSDOF 6
ENDMDL
MODEL 6
REMARK VINA RESULT:    -2.771      8.466      9.175
REMARK INTER + INTRA:          -3.781
REMARK INTER:                  -3.667
REMARK INTRA:                  -0.114
REMARK UNBOUND:                -0.120
REMARK SMILES CCCCCCCO
REMARK SMILES IDX 5 1 4 2 3 3 2 4 1 5 6 6 7 7 8 8
REMARK H PARENT 8 9
REMARK Flexibility Score: inf
ROOT
ATOM      1  C   UNL     1      33.307  -6.093  31.978  1.00  0.00     0.002 C 
ENDROOT
BRANCH   1   2
ATOM      2  C   UNL     1      31.892  -6.467  32.454  1.00  0.00     0.000 C 
BRANCH   2   3
ATOM      3  C   UNL     1      31.076  -7.188  31.369  1.00  0.00    -0.000 C 
BRANCH   3   4
ATOM      4  C   UNL     1      29.803  -7.844  31.924  1.00  0.00    -0.003 C 
ATOM      5  C   UNL     1      29.162  -6.971  33.001  1.00  0.00     0.004 C 
ENDBRANCH   3   4
ENDBRANCH   2   3
ENDBRANCH   1   2
BRANCH   1   6
ATOM      6  C   UNL     1      34.400  -6.477  32.990  1.00  0.00     0.028 C 
BRANCH   6   7
ATOM      7  C   UNL     1      35.251  -5.290  33.455  1.00  0.00     0.156 C 
BRANCH   7   8
ATOM      8  O   UNL     1      34.679  -4.694  34.587  1.00  0.00    -0.396 OA
ATOM      9  H   UNL     1      33.862  -4.232  34.271  1.00  0.00     0.210 HD
ENDBRANCH   7   8
ENDBRANCH   6   7
ENDBRANCH   1   6
TORSDOF 6
ENDMDL
MODEL 7
REMARK VINA RESULT:    -2.770      1.504      2.160
REMARK INTER + INTRA:          -3.780
REMARK INTER:                  -3.701
REMARK INTRA:                  -0.079
REMARK UNBOUND:                -0.120
REMARK SMILES CCCCCCCO
REMARK SMILES IDX 5 1 4 2 3 3 2 4 1 5 6 6 7 7 8 8
REMARK H PARENT 8 9
REMARK Flexibility Score: inf
ROOT
ATOM      1  C   UNL     1      35.267  -7.266  24.697  1.00  0.00     0.002 C 
ENDROOT
BRANCH   1   2
ATOM      2  C   UNL     1      35.890  -8.037  25.875  1.00  0.00     0.000 C 
BRANCH   2   3
ATOM      3  C   UNL     1      34.916  -9.052  26.496  1.00  0.00    -0.000 C 
BRANCH   3   4
ATOM      4  C   UNL     1      35.629 -10.299  27.040  1.00  0.00    -0.003 C 
ATOM      5  C   UNL     1      36.802  -9.912  27.937  1.00  0.00     0.004 C 
ENDBRANCH   3   4
ENDBRANCH   2   3
ENDBRANCH   1   2
BRANCH   1   6
ATOM      6  C   UNL     1      36.133  -6.083  24.232  1.00  0.00     0.028 C 
BRANCH   6   7
ATOM      7  C   UNL     1      35.403  -5.122  23.287  1.00  0.00     0.156 C 
BRANCH   7   8
ATOM      8  O   UNL     1      36.041  -3.875  23.271  1.00  0.00    -0.396 OA
ATOM      9  H   UNL     1      36.124  -3.596  24.218  1.00  0.00     0.210 HD
ENDBRANCH   7   8
ENDBRANCH   6   7
ENDBRANCH   1   6
TORSDOF 6
ENDMDL
MODEL 8
REMARK VINA RESULT:    -2.672     15.172     16.591
REMARK INTER + INTRA:          -3.650
REMARK INTER:                  -3.407
REMARK INTRA:                  -0.243
REMARK UNBOUND:                -0.120
REMARK SMILES CCCCCCCO
REMARK SMILES IDX 5 1 4 2 3 3 2 4 1 5 6 6 7 7 8 8
REMARK H PARENT 8 9
REMARK Flexibility Score: inf
ROOT
ATOM      1  C   UNL     1      28.489 -22.296  24.764  1.00  0.00     0.002 C 
ENDROOT
BRANCH   1   2
ATOM      2  C   UNL     1      28.885 -23.479  23.864  1.00  0.00     0.000 C 
BRANCH   2   3
ATOM      3  C   UNL     1      29.057 -23.068  22.393  1.00  0.00    -0.000 C 
BRANCH   3   4
ATOM      4  C   UNL     1      30.325 -23.658  21.758  1.00  0.00    -0.003 C 
ATOM      5  C   UNL     1      31.461 -22.638  21.754  1.00  0.00     0.004 C 
ENDBRANCH   3   4
ENDBRANCH   2   3
ENDBRANCH   1   2
BRANCH   1   6
ATOM      6  C   UNL     1      29.572 -21.206  24.833  1.00  0.00     0.028 C 
BRANCH   6   7
ATOM      7  C   UNL     1      30.071 -20.924  26.254  1.00  0.00     0.156 C 
BRANCH   7   8
ATOM      8  O   UNL     1      30.574 -22.095  26.836  1.00  0.00    -0.396 OA
ATOM      9  H   UNL     1      31.310 -22.401  26.247  1.00  0.00     0.210 HD
ENDBRANCH   7   8
ENDBRANCH   6   7
ENDBRANCH   1   6
TORSDOF 6
ENDMDL
MODEL 9
REMARK VINA RESULT:    -2.651     18.166     19.919
REMARK INTER + INTRA:          -3.623
REMARK INTER:                  -3.446
REMARK INTRA:                  -0.177
REMARK UNBOUND:                -0.120
REMARK SMILES CCCCCCCO
REMARK SMILES IDX 5 1 4 2 3 3 2 4 1 5 6 6 7 7 8 8
REMARK H PARENT 8 9
REMARK Flexibility Score: inf
ROOT
ATOM      1  C   UNL     1      27.334 -20.577  36.715  1.00  0.00     0.002 C 
ENDROOT
BRANCH   1   2
ATOM      2  C   UNL     1      28.360 -20.428  35.577  1.00  0.00     0.000 C 
BRANCH   2   3
ATOM      3  C   UNL     1      28.933 -19.005  35.483  1.00  0.00    -0.000 C 
BRANCH   3   4
ATOM      4  C   UNL     1      29.273 -18.411  36.859  1.00  0.00    -0.003 C 
ATOM      5  C   UNL     1      28.728 -16.991  36.992  1.00  0.00     0.004 C 
ENDBRANCH   3   4
ENDBRANCH   2   3
ENDBRANCH   1   2
BRANCH   1   6
ATOM      6  C   UNL     1      26.771 -22.004  36.830  1.00  0.00     0.028 C 
BRANCH   6   7
ATOM      7  C   UNL     1      27.815 -23.098  36.581  1.00  0.00     0.156 C 
BRANCH   7   8
ATOM      8  O   UNL     1      28.400 -23.498  37.790  1.00  0.00    -0.396 OA
ATOM      9  H   UNL     1      29.148 -24.101  37.547  1.00  0.00     0.210 HD
ENDBRANCH   7   8
ENDBRANCH   6   7
ENDBRANCH   1   6
TORSDOF 6
ENDMDL
