MODEL 1
REMARK VINA RESULT:    -7.306      0.000      0.000
REMARK INTER + INTRA:          -9.493
REMARK INTER:                 -10.723
REMARK INTRA:                   1.231
REMARK UNBOUND:                 1.231
REMARK SMILES Cc1cc2c(C(C)C)c(O)c(O)c(C=O)c2c(O)c1-c1c(C)cc2c(C(C)C)c(O)c(O)c(C=O)c2c1O
REMARK SMILES IDX 1 1 2 2 3 3 4 4 16 5 13 6 11 7 9 8 5 9 17 10 19 11 20 12
REMARK SMILES IDX 37 13 21 14 36 15 23 16 22 17 24 18 33 19 25 20 31 21 29 22
REMARK SMILES IDX 38 23 34 25 35 26 26 27 27 28 28 29 32 30 30 32 18 34 6 36
REMARK SMILES IDX 7 37 8 38 14 39 15 40 10 41 12 43
REMARK H PARENT 38 24 32 31 30 33 18 35 10 42 12 44
REMARK Flexibility Score: inf
ROOT
ATOM      1  C   UNL     1      19.281 -14.383  17.641  1.00  0.00     0.045 C 
ATOM      2  C   UNL     1      20.690 -14.921  17.716  1.00  0.00    -0.039 A 
ATOM      3  C   UNL     1      21.480 -14.933  16.566  1.00  0.00     0.013 A 
ATOM      4  C   UNL     1      22.809 -15.411  16.576  1.00  0.00    -0.006 A 
ATOM      5  C   UNL     1      23.324 -15.987  17.778  1.00  0.00     0.039 A 
ATOM      6  C   UNL     1      24.615 -16.595  17.752  1.00  0.00     0.072 A 
ATOM      7  C   UNL     1      25.331 -16.675  16.540  1.00  0.00     0.169 A 
ATOM      8  C   UNL     1      24.819 -16.099  15.373  1.00  0.00     0.162 A 
ATOM      9  C   UNL     1      23.617 -15.361  15.399  1.00  0.00     0.008 A 
ATOM     10  C   UNL     1      22.510 -15.972  18.954  1.00  0.00     0.132 A 
ATOM     11  C   UNL     1      21.206 -15.431  18.917  1.00  0.00     0.031 A 
ENDROOT
BRANCH  11  12
ATOM     12  C   UNL     1      20.358 -15.435  20.138  1.00  0.00     0.031 A 
ATOM     13  C   UNL     1      19.925 -14.220  20.706  1.00  0.00     0.132 A 
ATOM     14  C   UNL     1      19.977 -16.655  20.717  1.00  0.00    -0.039 A 
ATOM     15  C   UNL     1      19.064 -14.220  21.847  1.00  0.00     0.039 A 
ATOM     16  C   UNL     1      19.221 -16.653  21.890  1.00  0.00     0.013 A 
ATOM     17  C   UNL     1      20.411 -17.972  20.118  1.00  0.00     0.045 C 
ATOM     18  C   UNL     1      18.789 -15.460  22.504  1.00  0.00    -0.006 A 
ATOM     19  C   UNL     1      18.487 -13.021  22.362  1.00  0.00     0.072 A 
ATOM     20  C   UNL     1      18.084 -15.474  23.749  1.00  0.00     0.008 A 
ATOM     21  C   UNL     1      17.686 -13.070  23.522  1.00  0.00     0.169 A 
ATOM     22  C   UNL     1      17.508 -14.271  24.213  1.00  0.00     0.162 A 
BRANCH  13  23
ATOM     23  O   UNL     1      20.372 -13.012  20.157  1.00  0.00    -0.507 OA
ATOM     24  H   UNL     1      20.026 -12.623  19.289  1.00  0.00     0.293 HD
ENDBRANCH  13  23
BRANCH  19  25
ATOM     25  C   UNL     1      18.629 -11.726  21.664  1.00  0.00     0.264 C 
ATOM     26  O   UNL     1      17.626 -10.989  21.469  1.00  0.00    -0.298 OA
ENDBRANCH  19  25
BRANCH  20  27
ATOM     27  C   UNL     1      17.909 -16.730  24.627  1.00  0.00     0.017 C 
ATOM     28  C   UNL     1      18.054 -18.027  23.821  1.00  0.00     0.012 C 
ATOM     29  C   UNL     1      18.747 -16.723  25.923  1.00  0.00     0.012 C 
ENDBRANCH  20  27
BRANCH  21  30
ATOM     30  O   UNL     1      17.026 -11.933  24.005  1.00  0.00    -0.504 OA
ATOM     31  H   UNL     1      17.448 -11.017  24.079  1.00  0.00     0.293 HD
ENDBRANCH  21  30
BRANCH  22  32
ATOM     32  O   UNL     1      16.726 -14.277  25.374  1.00  0.00    -0.504 OA
ATOM     33  H   UNL     1      17.070 -13.972  26.276  1.00  0.00     0.293 HD
ENDBRANCH  22  32
ENDBRANCH  11  12
BRANCH  10  34
ATOM     34  O   UNL     1      22.990 -16.501  20.157  1.00  0.00    -0.507 OA
ATOM     35  H   UNL     1      23.955 -16.445  20.458  1.00  0.00     0.293 HD
ENDBRANCH  10  34
BRANCH   9  36
ATOM     36  C   UNL     1      23.196 -14.549  14.159  1.00  0.00     0.017 C 
ATOM     37  C   UNL     1      23.496 -13.059  14.353  1.00  0.00     0.012 C 
ATOM     38  C   UNL     1      21.732 -14.774  13.733  1.00  0.00     0.012 C 
ENDBRANCH   9  36
BRANCH   6  39
ATOM     39  C   UNL     1      25.234 -17.176  18.960  1.00  0.00     0.264 C 
ATOM     40  O   UNL     1      26.212 -16.608  19.514  1.00  0.00    -0.298 OA
ENDBRANCH   6  39
BRANCH   8  41
ATOM     41  O   UNL     1      25.513 -16.259  14.172  1.00  0.00    -0.504 OA
ATOM     42  H   UNL     1      26.524 -16.293  14.117  1.00  0.00     0.293 HD
ENDBRANCH   8  41
BRANCH   7  43
ATOM     43  O   UNL     1      26.582 -17.299  16.465  1.00  0.00    -0.504 OA
ATOM     44  H   UNL     1      27.463 -16.802  16.424  1.00  0.00     0.293 HD
ENDBRANCH   7  43
TORSDOF 11
ENDMDL
MODEL 2
REMARK VINA RESULT:    -7.144      1.004      1.196
REMARK INTER + INTRA:          -9.255
REMARK INTER:                 -10.475
REMARK INTRA:                   1.220
REMARK UNBOUND:                 1.231
REMARK SMILES Cc1cc2c(C(C)C)c(O)c(O)c(C=O)c2c(O)c1-c1c(C)cc2c(C(C)C)c(O)c(O)c(C=O)c2c1O
REMARK SMILES IDX 1 1 2 2 3 3 4 4 16 5 13 6 11 7 9 8 5 9 17 10 19 11 20 12
REMARK SMILES IDX 37 13 21 14 36 15 23 16 22 17 24 18 33 19 25 20 31 21 29 22
REMARK SMILES IDX 38 23 34 25 35 26 26 27 27 28 28 29 32 30 30 32 18 34 6 36
REMARK SMILES IDX 7 37 8 38 14 39 15 40 10 41 12 43
REMARK H PARENT 38 24 32 31 30 33 18 35 10 42 12 44
REMARK Flexibility Score: inf
ROOT
ATOM      1  C   UNL     1      18.548 -14.374  18.394  1.00  0.00     0.045 C 
ATOM      2  C   UNL     1      19.995 -14.785  18.262  1.00  0.00    -0.039 A 
ATOM      3  C   UNL     1      20.639 -14.639  17.033  1.00  0.00     0.013 A 
ATOM      4  C   UNL     1      21.995 -14.992  16.851  1.00  0.00    -0.006 A 
ATOM      5  C   UNL     1      22.696 -15.607  17.933  1.00  0.00     0.039 A 
ATOM      6  C   UNL     1      24.020 -16.091  17.708  1.00  0.00     0.072 A 
ATOM      7  C   UNL     1      24.589 -16.013  16.420  1.00  0.00     0.169 A 
ATOM      8  C   UNL     1      23.895 -15.400  15.373  1.00  0.00     0.162 A 
ATOM      9  C   UNL     1      22.648 -14.779  15.598  1.00  0.00     0.008 A 
ATOM     10  C   UNL     1      22.032 -15.755  19.191  1.00  0.00     0.132 A 
ATOM     11  C   UNL     1      20.693 -15.335  19.348  1.00  0.00     0.031 A 
ENDROOT
BRANCH  11  12
ATOM     12  C   UNL     1      20.001 -15.509  20.654  1.00  0.00     0.031 A 
ATOM     13  C   UNL     1      19.574 -14.383  21.387  1.00  0.00     0.132 A 
ATOM     14  C   UNL     1      19.762 -16.800  21.148  1.00  0.00    -0.039 A 
ATOM     15  C   UNL     1      18.861 -14.546  22.613  1.00  0.00     0.039 A 
ATOM     16  C   UNL     1      19.156 -16.957  22.395  1.00  0.00     0.013 A 
ATOM     17  C   UNL     1      20.192 -18.024  20.374  1.00  0.00     0.045 C 
ATOM     18  C   UNL     1      18.737 -15.857  23.171  1.00  0.00    -0.006 A 
ATOM     19  C   UNL     1      18.285 -13.441  23.310  1.00  0.00     0.072 A 
ATOM     20  C   UNL     1      18.191 -16.034  24.482  1.00  0.00     0.008 A 
ATOM     21  C   UNL     1      17.636 -13.651  24.544  1.00  0.00     0.169 A 
ATOM     22  C   UNL     1      17.610 -14.920  25.128  1.00  0.00     0.162 A 
BRANCH  13  23
ATOM     23  O   UNL     1      19.884 -13.103  20.912  1.00  0.00    -0.507 OA
ATOM     24  H   UNL     1      20.218 -12.912  19.976  1.00  0.00     0.293 HD
ENDBRANCH  13  23
BRANCH  19  25
ATOM     25  C   UNL     1      18.269 -12.081  22.733  1.00  0.00     0.264 C 
ATOM     26  O   UNL     1      17.266 -11.667  22.092  1.00  0.00    -0.298 OA
ENDBRANCH  19  25
BRANCH  20  27
ATOM     27  C   UNL     1      18.194 -17.374  25.245  1.00  0.00     0.017 C 
ATOM     28  C   UNL     1      18.823 -17.247  26.639  1.00  0.00     0.012 C 
ATOM     29  C   UNL     1      16.835 -18.104  25.257  1.00  0.00     0.012 C 
ENDBRANCH  20  27
BRANCH  21  30
ATOM     30  O   UNL     1      16.977 -12.610  25.211  1.00  0.00    -0.504 OA
ATOM     31  H   UNL     1      17.254 -12.247  26.113  1.00  0.00     0.293 HD
ENDBRANCH  21  30
BRANCH  22  32
ATOM     32  O   UNL     1      16.977 -15.086  26.365  1.00  0.00    -0.504 OA
ATOM     33  H   UNL     1      16.023 -15.410  26.461  1.00  0.00     0.293 HD
ENDBRANCH  22  32
ENDBRANCH  11  12
BRANCH  10  34
ATOM     34  O   UNL     1      22.696 -16.327  20.282  1.00  0.00    -0.507 OA
ATOM     35  H   UNL     1      23.349 -15.830  20.874  1.00  0.00     0.293 HD
ENDBRANCH  10  34
BRANCH   9  36
ATOM     36  C   UNL     1      22.014 -13.918  14.488  1.00  0.00     0.017 C 
ATOM     37  C   UNL     1      22.985 -12.828  14.022  1.00  0.00     0.012 C 
ATOM     38  C   UNL     1      20.644 -13.324  14.864  1.00  0.00     0.012 C 
ENDBRANCH   9  36
BRANCH   6  39
ATOM     39  C   UNL     1      24.826 -16.701  18.784  1.00  0.00     0.264 C 
ATOM     40  O   UNL     1      24.971 -17.950  18.845  1.00  0.00    -0.298 OA
ENDBRANCH   6  39
BRANCH   8  41
ATOM     41  O   UNL     1      24.449 -15.405  14.092  1.00  0.00    -0.504 OA
ATOM     42  H   UNL     1      24.142 -16.033  13.359  1.00  0.00     0.293 HD
ENDBRANCH   8  41
BRANCH   7  43
ATOM     43  O   UNL     1      25.869 -16.512  16.150  1.00  0.00    -0.504 OA
ATOM     44  H   UNL     1      26.664 -16.400  16.766  1.00  0.00     0.293 HD
ENDBRANCH   7  43
TORSDOF 11
ENDMDL
MODEL 3
REMARK VINA RESULT:    -6.970      3.287      5.405
REMARK INTER + INTRA:          -8.998
REMARK INTER:                  -8.329
REMARK INTRA:                  -0.670
REMARK UNBOUND:                 1.231
REMARK SMILES Cc1cc2c(C(C)C)c(O)c(O)c(C=O)c2c(O)c1-c1c(C)cc2c(C(C)C)c(O)c(O)c(C=O)c2c1O
REMARK SMILES IDX 1 1 2 2 3 3 4 4 16 5 13 6 11 7 9 8 5 9 17 10 19 11 20 12
REMARK SMILES IDX 37 13 21 14 36 15 23 16 22 17 24 18 33 19 25 20 31 21 29 22
REMARK SMILES IDX 38 23 34 25 35 26 26 27 27 28 28 29 32 30 30 32 18 34 6 36
REMARK SMILES IDX 7 37 8 38 14 39 15 40 10 41 12 43
REMARK H PARENT 38 24 32 31 30 33 18 35 10 42 12 44
REMARK Flexibility Score: inf
ROOT
ATOM      1  C   UNL     1      24.733 -18.125  16.049  1.00  0.00     0.045 C 
ATOM      2  C   UNL     1      25.576 -16.894  16.280  1.00  0.00    -0.039 A 
ATOM      3  C   UNL     1      26.817 -16.787  15.653  1.00  0.00     0.013 A 
ATOM      4  C   UNL     1      27.645 -15.654  15.819  1.00  0.00    -0.006 A 
ATOM      5  C   UNL     1      27.239 -14.634  16.733  1.00  0.00     0.039 A 
ATOM      6  C   UNL     1      28.138 -13.559  17.007  1.00  0.00     0.072 A 
ATOM      7  C   UNL     1      29.423 -13.550  16.427  1.00  0.00     0.169 A 
ATOM      8  C   UNL     1      29.803 -14.550  15.527  1.00  0.00     0.162 A 
ATOM      9  C   UNL     1      28.886 -15.543  15.120  1.00  0.00     0.008 A 
ATOM     10  C   UNL     1      25.966 -14.749  17.374  1.00  0.00     0.132 A 
ATOM     11  C   UNL     1      25.142 -15.870  17.136  1.00  0.00     0.031 A 
ENDROOT
BRANCH  11  12
ATOM     12  C   UNL     1      23.827 -15.993  17.820  1.00  0.00     0.031 A 
ATOM     13  C   UNL     1      22.684 -15.369  17.280  1.00  0.00     0.132 A 
ATOM     14  C   UNL     1      23.724 -16.745  19.001  1.00  0.00    -0.039 A 
ATOM     15  C   UNL     1      21.409 -15.530  17.904  1.00  0.00     0.039 A 
ATOM     16  C   UNL     1      22.498 -16.817  19.664  1.00  0.00     0.013 A 
ATOM     17  C   UNL     1      24.928 -17.440  19.591  1.00  0.00     0.045 C 
ATOM     18  C   UNL     1      21.339 -16.187  19.172  1.00  0.00    -0.006 A 
ATOM     19  C   UNL     1      20.207 -15.038  17.311  1.00  0.00     0.072 A 
ATOM     20  C   UNL     1      20.110 -16.204  19.906  1.00  0.00     0.008 A 
ATOM     21  C   UNL     1      18.981 -15.177  17.993  1.00  0.00     0.169 A 
ATOM     22  C   UNL     1      18.939 -15.729  19.276  1.00  0.00     0.162 A 
BRANCH  13  23
ATOM     23  O   UNL     1      22.820 -14.565  16.142  1.00  0.00    -0.507 OA
ATOM     24  H   UNL     1      23.660 -14.520  15.578  1.00  0.00     0.293 HD
ENDBRANCH  13  23
BRANCH  19  25
ATOM     25  C   UNL     1      20.190 -14.459  15.952  1.00  0.00     0.264 C 
ATOM     26  O   UNL     1      20.485 -13.248  15.766  1.00  0.00    -0.298 OA
ENDBRANCH  19  25
BRANCH  20  27
ATOM     27  C   UNL     1      19.980 -16.712  21.357  1.00  0.00     0.017 C 
ATOM     28  C   UNL     1      19.507 -15.612  22.317  1.00  0.00     0.012 C 
ATOM     29  C   UNL     1      19.185 -18.027  21.503  1.00  0.00     0.012 C 
ENDBRANCH  20  27
BRANCH  21  30
ATOM     30  O   UNL     1      17.768 -14.793  17.406  1.00  0.00    -0.504 OA
ATOM     31  H   UNL     1      17.031 -15.436  17.149  1.00  0.00     0.293 HD
ENDBRANCH  21  30
BRANCH  22  32
ATOM     32  O   UNL     1      17.707 -15.830  19.933  1.00  0.00    -0.504 OA
ATOM     33  H   UNL     1      16.862 -16.158  19.481  1.00  0.00     0.293 HD
ENDBRANCH  22  32
ENDBRANCH  11  12
BRANCH  10  34
ATOM     34  O   UNL     1      25.523 -13.756  18.255  1.00  0.00    -0.507 OA
ATOM     35  H   UNL     1      24.645 -13.794  18.758  1.00  0.00     0.293 HD
ENDBRANCH  10  34
BRANCH   9  36
ATOM     36  C   UNL     1      29.255 -16.490  13.962  1.00  0.00     0.017 C 
ATOM     37  C   UNL     1      29.963 -17.743  14.486  1.00  0.00     0.012 C 
ATOM     38  C   UNL     1      30.067 -15.817  12.839  1.00  0.00     0.012 C 
ENDBRANCH   9  36
BRANCH   6  39
ATOM     39  C   UNL     1      27.778 -12.446  17.908  1.00  0.00     0.264 C 
ATOM     40  O   UNL     1      27.005 -11.532  17.518  1.00  0.00    -0.298 OA
ENDBRANCH   6  39
BRANCH   8  41
ATOM     41  O   UNL     1      31.106 -14.558  15.027  1.00  0.00    -0.504 OA
ATOM     42  H   UNL     1      31.432 -13.912  14.319  1.00  0.00     0.293 HD
ENDBRANCH   8  41
BRANCH   7  43
ATOM     43  O   UNL     1      30.346 -12.534  16.702  1.00  0.00    -0.504 OA
ATOM     44  H   UNL     1      30.625 -11.824  16.037  1.00  0.00     0.293 HD
ENDBRANCH   7  43
TORSDOF 11
ENDMDL
MODEL 4
REMARK VINA RESULT:    -6.857      0.260      9.262
REMARK INTER + INTRA:          -8.834
REMARK INTER:                  -9.808
REMARK INTRA:                   0.974
REMARK UNBOUND:                 1.231
REMARK SMILES Cc1cc2c(C(C)C)c(O)c(O)c(C=O)c2c(O)c1-c1c(C)cc2c(C(C)C)c(O)c(O)c(C=O)c2c1O
REMARK SMILES IDX 1 1 2 2 3 3 4 4 16 5 13 6 11 7 9 8 5 9 17 10 19 11 20 12
REMARK SMILES IDX 37 13 21 14 36 15 23 16 22 17 24 18 33 19 25 20 31 21 29 22
REMARK SMILES IDX 38 23 34 25 35 26 26 27 27 28 28 29 32 30 30 32 18 34 6 36
REMARK SMILES IDX 7 37 8 38 14 39 15 40 10 41 12 43
REMARK H PARENT 38 24 32 31 30 33 18 35 10 42 12 44
REMARK Flexibility Score: inf
ROOT
ATOM      1  C   UNL     1      20.339 -17.904  20.330  1.00  0.00     0.045 C 
ATOM      2  C   UNL     1      19.900 -16.583  20.916  1.00  0.00    -0.039 A 
ATOM      3  C   UNL     1      19.123 -16.573  22.075  1.00  0.00     0.013 A 
ATOM      4  C   UNL     1      18.694 -15.369  22.678  1.00  0.00    -0.006 A 
ATOM      5  C   UNL     1      18.984 -14.132  22.025  1.00  0.00     0.039 A 
ATOM      6  C   UNL     1      18.433 -12.927  22.558  1.00  0.00     0.072 A 
ATOM      7  C   UNL     1      17.569 -12.981  23.671  1.00  0.00     0.169 A 
ATOM      8  C   UNL     1      17.301 -14.198  24.305  1.00  0.00     0.162 A 
ATOM      9  C   UNL     1      17.948 -15.383  23.896  1.00  0.00     0.008 A 
ATOM     10  C   UNL     1      19.780 -14.148  20.837  1.00  0.00     0.132 A 
ATOM     11  C   UNL     1      20.240 -15.370  20.298  1.00  0.00     0.031 A 
ENDROOT
BRANCH  11  12
ATOM     12  C   UNL     1      21.051 -15.381  19.052  1.00  0.00     0.031 A 
ATOM     13  C   UNL     1      22.359 -15.909  19.061  1.00  0.00     0.132 A 
ATOM     14  C   UNL     1      20.506 -14.877  17.861  1.00  0.00    -0.039 A 
ATOM     15  C   UNL     1      23.121 -15.973  17.855  1.00  0.00     0.039 A 
ATOM     16  C   UNL     1      21.289 -14.847  16.707  1.00  0.00     0.013 A 
ATOM     17  C   UNL     1      19.102 -14.324  17.820  1.00  0.00     0.045 C 
ATOM     18  C   UNL     1      22.609 -15.340  16.680  1.00  0.00    -0.006 A 
ATOM     19  C   UNL     1      24.387 -16.630  17.791  1.00  0.00     0.072 A 
ATOM     20  C   UNL     1      23.424 -15.228  15.508  1.00  0.00     0.008 A 
ATOM     21  C   UNL     1      25.123 -16.619  16.589  1.00  0.00     0.169 A 
ATOM     22  C   UNL     1      24.659 -15.912  15.476  1.00  0.00     0.162 A 
BRANCH  13  23
ATOM     23  O   UNL     1      22.911 -16.342  20.273  1.00  0.00    -0.507 OA
ATOM     24  H   UNL     1      23.159 -17.303  20.470  1.00  0.00     0.293 HD
ENDBRANCH  13  23
BRANCH  19  25
ATOM     25  C   UNL     1      24.919 -17.405  18.930  1.00  0.00     0.264 C 
ATOM     26  O   UNL     1      25.936 -17.007  19.559  1.00  0.00    -0.298 OA
ENDBRANCH  19  25
BRANCH  20  27
ATOM     27  C   UNL     1      23.039 -14.400  14.266  1.00  0.00     0.017 C 
ATOM     28  C   UNL     1      21.686 -14.826  13.680  1.00  0.00     0.012 C 
ATOM     29  C   UNL     1      23.165 -12.873  14.452  1.00  0.00     0.012 C 
ENDBRANCH  20  27
BRANCH  21  30
ATOM     30  O   UNL     1      26.323 -17.331  16.458  1.00  0.00    -0.504 OA
ATOM     31  H   UNL     1      26.416 -18.202  15.953  1.00  0.00     0.293 HD
ENDBRANCH  21  30
BRANCH  22  32
ATOM     32  O   UNL     1      25.428 -15.903  14.307  1.00  0.00    -0.504 OA
ATOM     33  H   UNL     1      25.969 -16.700  13.993  1.00  0.00     0.293 HD
ENDBRANCH  22  32
ENDBRANCH  11  12
BRANCH  10  34
ATOM     34  O   UNL     1      20.108 -12.954  20.185  1.00  0.00    -0.507 OA
ATOM     35  H   UNL     1      20.589 -12.906  19.296  1.00  0.00     0.293 HD
ENDBRANCH  10  34
BRANCH   9  36
ATOM     36  C   UNL     1      17.812 -16.658  24.751  1.00  0.00     0.017 C 
ATOM     37  C   UNL     1      18.723 -16.591  25.981  1.00  0.00     0.012 C 
ATOM     38  C   UNL     1      18.031 -17.964  23.963  1.00  0.00     0.012 C 
ENDBRANCH   9  36
BRANCH   6  39
ATOM     39  C   UNL     1      18.718 -11.605  21.966  1.00  0.00     0.264 C 
ATOM     40  O   UNL     1      17.859 -11.027  21.249  1.00  0.00    -0.298 OA
ENDBRANCH   6  39
BRANCH   8  41
ATOM     41  O   UNL     1      16.383 -14.232  25.356  1.00  0.00    -0.504 OA
ATOM     42  H   UNL     1      16.400 -14.937  26.083  1.00  0.00     0.293 HD
ENDBRANCH   8  41
BRANCH   7  43
ATOM     43  O   UNL     1      16.977 -11.826  24.198  1.00  0.00    -0.504 OA
ATOM     44  H   UNL     1      16.163 -11.373  23.801  1.00  0.00     0.293 HD
ENDBRANCH   7  43
TORSDOF 11
ENDMDL
MODEL 5
REMARK VINA RESULT:    -5.834      1.617      3.088
REMARK INTER + INTRA:          -7.332
REMARK INTER:                  -9.634
REMARK INTRA:                   2.302
REMARK UNBOUND:                 1.231
REMARK SMILES Cc1cc2c(C(C)C)c(O)c(O)c(C=O)c2c(O)c1-c1c(C)cc2c(C(C)C)c(O)c(O)c(C=O)c2c1O
REMARK SMILES IDX 1 1 2 2 3 3 4 4 16 5 13 6 11 7 9 8 5 9 17 10 19 11 20 12
REMARK SMILES IDX 37 13 21 14 36 15 23 16 22 17 24 18 33 19 25 20 31 21 29 22
REMARK SMILES IDX 38 23 34 25 35 26 26 27 27 28 28 29 32 30 30 32 18 34 6 36
REMARK SMILES IDX 7 37 8 38 14 39 15 40 10 41 12 43
REMARK H PARENT 38 24 32 31 30 33 18 35 10 42 12 44
REMARK Flexibility Score: inf
ROOT
ATOM      1  C   UNL     1      22.894 -16.968  20.377  1.00  0.00     0.045 C 
ATOM      2  C   UNL     1      22.479 -16.281  19.098  1.00  0.00    -0.039 A 
ATOM      3  C   UNL     1      23.328 -16.325  17.991  1.00  0.00     0.013 A 
ATOM      4  C   UNL     1      22.989 -15.714  16.763  1.00  0.00    -0.006 A 
ATOM      5  C   UNL     1      21.786 -14.947  16.686  1.00  0.00     0.039 A 
ATOM      6  C   UNL     1      21.512 -14.215  15.491  1.00  0.00     0.072 A 
ATOM      7  C   UNL     1      22.451 -14.208  14.439  1.00  0.00     0.169 A 
ATOM      8  C   UNL     1      23.620 -14.971  14.525  1.00  0.00     0.162 A 
ATOM      9  C   UNL     1      23.848 -15.821  15.627  1.00  0.00     0.008 A 
ATOM     10  C   UNL     1      20.920 -14.904  17.823  1.00  0.00     0.132 A 
ATOM     11  C   UNL     1      21.268 -15.579  19.015  1.00  0.00     0.031 A 
ENDROOT
BRANCH  11  12
ATOM     12  C   UNL     1      20.372 -15.515  20.200  1.00  0.00     0.031 A 
ATOM     13  C   UNL     1      19.954 -14.268  20.708  1.00  0.00     0.132 A 
ATOM     14  C   UNL     1      19.932 -16.703  20.805  1.00  0.00    -0.039 A 
ATOM     15  C   UNL     1      19.050 -14.203  21.812  1.00  0.00     0.039 A 
ATOM     16  C   UNL     1      19.130 -16.636  21.945  1.00  0.00     0.013 A 
ATOM     17  C   UNL     1      20.349 -18.052  20.269  1.00  0.00     0.045 C 
ATOM     18  C   UNL     1      18.712 -15.411  22.500  1.00  0.00    -0.006 A 
ATOM     19  C   UNL     1      18.489 -12.970  22.263  1.00  0.00     0.072 A 
ATOM     20  C   UNL     1      17.957 -15.360  23.715  1.00  0.00     0.008 A 
ATOM     21  C   UNL     1      17.642 -12.955  23.389  1.00  0.00     0.169 A 
ATOM     22  C   UNL     1      17.400 -14.125  24.114  1.00  0.00     0.162 A 
BRANCH  13  23
ATOM     23  O   UNL     1      20.459 -13.095  20.136  1.00  0.00    -0.507 OA
ATOM     24  H   UNL     1      21.433 -12.956  19.898  1.00  0.00     0.293 HD
ENDBRANCH  13  23
BRANCH  19  25
ATOM     25  C   UNL     1      18.698 -11.706  21.527  1.00  0.00     0.264 C 
ATOM     26  O   UNL     1      17.721 -10.967  21.229  1.00  0.00    -0.298 OA
ENDBRANCH  19  25
BRANCH  20  27
ATOM     27  C   UNL     1      17.710 -16.578  24.628  1.00  0.00     0.017 C 
ATOM     28  C   UNL     1      17.996 -17.906  23.915  1.00  0.00     0.012 C 
ATOM     29  C   UNL     1      18.375 -16.479  26.017  1.00  0.00     0.012 C 
ENDBRANCH  20  27
BRANCH  21  30
ATOM     30  O   UNL     1      16.998 -11.783  23.806  1.00  0.00    -0.504 OA
ATOM     31  H   UNL     1      16.321 -11.740  24.556  1.00  0.00     0.293 HD
ENDBRANCH  21  30
BRANCH  22  32
ATOM     32  O   UNL     1      16.573 -14.067  25.242  1.00  0.00    -0.504 OA
ATOM     33  H   UNL     1      16.925 -14.112  26.190  1.00  0.00     0.293 HD
ENDBRANCH  22  32
ENDBRANCH  11  12
BRANCH  10  34
ATOM     34  O   UNL     1      19.720 -14.186  17.776  1.00  0.00    -0.507 OA
ATOM     35  H   UNL     1      19.660 -13.190  17.607  1.00  0.00     0.293 HD
ENDBRANCH  10  34
BRANCH   9  36
ATOM     36  C   UNL     1      25.024 -16.817  15.589  1.00  0.00     0.017 C 
ATOM     37  C   UNL     1      24.655 -18.125  16.296  1.00  0.00     0.012 C 
ATOM     38  C   UNL     1      26.347 -16.241  16.132  1.00  0.00     0.012 C 
ENDBRANCH   9  36
BRANCH   6  39
ATOM     39  C   UNL     1      20.273 -13.431  15.317  1.00  0.00     0.264 C 
ATOM     40  O   UNL     1      20.300 -12.311  14.744  1.00  0.00    -0.298 OA
ENDBRANCH   6  39
BRANCH   8  41
ATOM     41  O   UNL     1      24.567 -14.885  13.503  1.00  0.00    -0.504 OA
ATOM     42  H   UNL     1      24.321 -14.733  12.532  1.00  0.00     0.293 HD
ENDBRANCH   8  41
BRANCH   7  43
ATOM     43  O   UNL     1      22.238 -13.471  13.268  1.00  0.00    -0.504 OA
ATOM     44  H   UNL     1      22.865 -13.472  12.474  1.00  0.00     0.293 HD
ENDBRANCH   7  43
TORSDOF 11
ENDMDL
MODEL 6
REMARK VINA RESULT:    -5.599      2.144      2.352
REMARK INTER + INTRA:          -6.987
REMARK INTER:                  -5.999
REMARK INTRA:                  -0.988
REMARK UNBOUND:                 1.231
REMARK SMILES Cc1cc2c(C(C)C)c(O)c(O)c(C=O)c2c(O)c1-c1c(C)cc2c(C(C)C)c(O)c(O)c(C=O)c2c1O
REMARK SMILES IDX 1 1 2 2 3 3 4 4 16 5 13 6 11 7 9 8 5 9 17 10 19 11 20 12
REMARK SMILES IDX 37 13 21 14 36 15 23 16 22 17 24 18 33 19 25 20 31 21 29 22
REMARK SMILES IDX 38 23 34 25 35 26 26 27 27 28 28 29 32 30 30 32 18 34 6 36
REMARK SMILES IDX 7 37 8 38 14 39 15 40 10 41 12 43
REMARK H PARENT 38 24 32 31 30 33 18 35 10 42 12 44
REMARK Flexibility Score: inf
ROOT
ATOM      1  C   UNL     1      18.276 -15.217  18.017  1.00  0.00     0.045 C 
ATOM      2  C   UNL     1      19.646 -14.591  17.917  1.00  0.00    -0.039 A 
ATOM      3  C   UNL     1      20.228 -14.414  16.661  1.00  0.00     0.013 A 
ATOM      4  C   UNL     1      21.500 -13.822  16.502  1.00  0.00    -0.006 A 
ATOM      5  C   UNL     1      22.251 -13.483  17.670  1.00  0.00     0.039 A 
ATOM      6  C   UNL     1      23.591 -13.014  17.513  1.00  0.00     0.072 A 
ATOM      7  C   UNL     1      24.170 -12.952  16.229  1.00  0.00     0.169 A 
ATOM      8  C   UNL     1      23.420 -13.278  15.095  1.00  0.00     0.162 A 
ATOM      9  C   UNL     1      22.051 -13.600  15.202  1.00  0.00     0.008 A 
ATOM     10  C   UNL     1      21.651 -13.665  18.954  1.00  0.00     0.132 A 
ATOM     11  C   UNL     1      20.351 -14.207  19.067  1.00  0.00     0.031 A 
ENDROOT
BRANCH  11  12
ATOM     12  C   UNL     1      19.739 -14.413  20.407  1.00  0.00     0.031 A 
ATOM     13  C   UNL     1      19.021 -13.370  21.027  1.00  0.00     0.132 A 
ATOM     14  C   UNL     1      19.867 -15.655  21.048  1.00  0.00    -0.039 A 
ATOM     15  C   UNL     1      18.385 -13.580  22.289  1.00  0.00     0.039 A 
ATOM     16  C   UNL     1      19.331 -15.826  22.325  1.00  0.00     0.013 A 
ATOM     17  C   UNL     1      20.614 -16.795  20.398  1.00  0.00     0.045 C 
ATOM     18  C   UNL     1      18.629 -14.802  22.990  1.00  0.00    -0.006 A 
ATOM     19  C   UNL     1      17.530 -12.602  22.880  1.00  0.00     0.072 A 
ATOM     20  C   UNL     1      18.157 -14.969  24.331  1.00  0.00     0.008 A 
ATOM     21  C   UNL     1      16.968 -12.838  24.151  1.00  0.00     0.169 A 
ATOM     22  C   UNL     1      17.294 -13.990  24.871  1.00  0.00     0.162 A 
BRANCH  13  23
ATOM     23  O   UNL     1      18.965 -12.117  20.405  1.00  0.00    -0.507 OA
ATOM     24  H   UNL     1      18.233 -11.836  19.764  1.00  0.00     0.293 HD
ENDBRANCH  13  23
BRANCH  19  25
ATOM     25  C   UNL     1      17.138 -11.373  22.159  1.00  0.00     0.264 C 
ATOM     26  O   UNL     1      17.631 -10.258  22.476  1.00  0.00    -0.298 OA
ENDBRANCH  19  25
BRANCH  20  27
ATOM     27  C   UNL     1      18.532 -16.161  25.235  1.00  0.00     0.017 C 
ATOM     28  C   UNL     1      19.044 -15.708  26.609  1.00  0.00     0.012 C 
ATOM     29  C   UNL     1      17.452 -17.260  25.322  1.00  0.00     0.012 C 
ENDBRANCH  20  27
BRANCH  21  30
ATOM     30  O   UNL     1      16.051 -11.947  24.724  1.00  0.00    -0.504 OA
ATOM     31  H   UNL     1      15.804 -11.050  24.327  1.00  0.00     0.293 HD
ENDBRANCH  21  30
BRANCH  22  32
ATOM     32  O   UNL     1      16.736 -14.179  26.141  1.00  0.00    -0.504 OA
ATOM     33  H   UNL     1      15.881 -14.698  26.299  1.00  0.00     0.293 HD
ENDBRANCH  22  32
ENDBRANCH  11  12
BRANCH  10  34
ATOM     34  O   UNL     1      22.345 -13.319  20.119  1.00  0.00    -0.507 OA
ATOM     35  H   UNL     1      23.219 -13.741  20.406  1.00  0.00     0.293 HD
ENDBRANCH  10  34
BRANCH   9  36
ATOM     36  C   UNL     1      21.197 -13.730  13.926  1.00  0.00     0.017 C 
ATOM     37  C   UNL     1      21.692 -14.889  13.054  1.00  0.00     0.012 C 
ATOM     38  C   UNL     1      21.087 -12.426  13.113  1.00  0.00     0.012 C 
ENDBRANCH   9  36
BRANCH   6  39
ATOM     39  C   UNL     1      24.419 -12.605  18.666  1.00  0.00     0.264 C 
ATOM     40  O   UNL     1      25.658 -12.827  18.674  1.00  0.00    -0.298 OA
ENDBRANCH   6  39
BRANCH   8  41
ATOM     41  O   UNL     1      24.041 -13.281  13.845  1.00  0.00    -0.504 OA
ATOM     42  H   UNL     1      24.796 -13.911  13.603  1.00  0.00     0.293 HD
ENDBRANCH   8  41
BRANCH   7  43
ATOM     43  O   UNL     1      25.493 -12.536  16.039  1.00  0.00    -0.504 OA
ATOM     44  H   UNL     1      25.982 -11.896  16.653  1.00  0.00     0.293 HD
ENDBRANCH   7  43
TORSDOF 11
ENDMDL
MODEL 7
REMARK VINA RESULT:    -5.425      2.083      9.273
REMARK INTER + INTRA:          -6.731
REMARK INTER:                  -5.470
REMARK INTRA:                  -1.261
REMARK UNBOUND:                 1.231
REMARK SMILES Cc1cc2c(C(C)C)c(O)c(O)c(C=O)c2c(O)c1-c1c(C)cc2c(C(C)C)c(O)c(O)c(C=O)c2c1O
REMARK SMILES IDX 1 1 2 2 3 3 4 4 16 5 13 6 11 7 9 8 5 9 17 10 19 11 20 12
REMARK SMILES IDX 37 13 21 14 36 15 23 16 22 17 24 18 33 19 25 20 31 21 29 22
REMARK SMILES IDX 38 23 34 25 35 26 26 27 27 28 28 29 32 30 30 32 18 34 6 36
REMARK SMILES IDX 7 37 8 38 14 39 15 40 10 41 12 43
REMARK H PARENT 38 24 32 31 30 33 18 35 10 42 12 44
REMARK Flexibility Score: inf
ROOT
ATOM      1  C   UNL     1      21.050 -16.654  20.372  1.00  0.00     0.045 C 
ATOM      2  C   UNL     1      20.233 -15.517  20.937  1.00  0.00    -0.039 A 
ATOM      3  C   UNL     1      19.615 -15.669  22.179  1.00  0.00     0.013 A 
ATOM      4  C   UNL     1      18.850 -14.636  22.765  1.00  0.00    -0.006 A 
ATOM      5  C   UNL     1      18.623 -13.439  22.018  1.00  0.00     0.039 A 
ATOM      6  C   UNL     1      17.737 -12.454  22.549  1.00  0.00     0.072 A 
ATOM      7  C   UNL     1      17.056 -12.699  23.760  1.00  0.00     0.169 A 
ATOM      8  C   UNL     1      17.294 -13.871  24.484  1.00  0.00     0.162 A 
ATOM      9  C   UNL     1      18.274 -14.794  24.063  1.00  0.00     0.008 A 
ATOM     10  C   UNL     1      19.258 -13.289  20.746  1.00  0.00     0.132 A 
ATOM     11  C   UNL     1      20.065 -14.323  20.220  1.00  0.00     0.031 A 
ENDROOT
BRANCH  11  12
ATOM     12  C   UNL     1      20.707 -14.168  18.888  1.00  0.00     0.031 A 
ATOM     13  C   UNL     1      21.983 -13.579  18.779  1.00  0.00     0.132 A 
ATOM     14  C   UNL     1      20.044 -14.624  17.738  1.00  0.00    -0.039 A 
ATOM     15  C   UNL     1      22.627 -13.479  17.508  1.00  0.00     0.039 A 
ATOM     16  C   UNL     1      20.630 -14.433  16.486  1.00  0.00     0.013 A 
ATOM     17  C   UNL     1      18.684 -15.276  17.829  1.00  0.00     0.045 C 
ATOM     18  C   UNL     1      21.892 -13.826  16.332  1.00  0.00    -0.006 A 
ATOM     19  C   UNL     1      23.974 -13.025  17.373  1.00  0.00     0.072 A 
ATOM     20  C   UNL     1      22.442 -13.567  15.036  1.00  0.00     0.008 A 
ATOM     21  C   UNL     1      24.546 -12.896  16.091  1.00  0.00     0.169 A 
ATOM     22  C   UNL     1      23.785 -13.140  14.944  1.00  0.00     0.162 A 
BRANCH  13  23
ATOM     23  O   UNL     1      22.598 -13.067  19.928  1.00  0.00    -0.507 OA
ATOM     24  H   UNL     1      22.103 -12.842  20.781  1.00  0.00     0.293 HD
ENDBRANCH  13  23
BRANCH  19  25
ATOM     25  C   UNL     1      24.829 -12.767  18.550  1.00  0.00     0.264 C 
ATOM     26  O   UNL     1      26.039 -13.119  18.554  1.00  0.00    -0.298 OA
ENDBRANCH  19  25
BRANCH  20  27
ATOM     27  C   UNL     1      21.656 -13.722  13.718  1.00  0.00     0.017 C 
ATOM     28  C   UNL     1      21.125 -15.149  13.523  1.00  0.00     0.012 C 
ATOM     29  C   UNL     1      20.582 -12.639  13.485  1.00  0.00     0.012 C 
ENDBRANCH  20  27
BRANCH  21  30
ATOM     30  O   UNL     1      25.891 -12.545  15.921  1.00  0.00    -0.504 OA
ATOM     31  H   UNL     1      26.670 -13.086  16.271  1.00  0.00     0.293 HD
ENDBRANCH  21  30
BRANCH  22  32
ATOM     32  O   UNL     1      24.379 -12.978  13.688  1.00  0.00    -0.504 OA
ATOM     33  H   UNL     1      24.972 -13.678  13.260  1.00  0.00     0.293 HD
ENDBRANCH  22  32
ENDBRANCH  11  12
BRANCH  10  34
ATOM     34  O   UNL     1      19.082 -12.119  19.997  1.00  0.00    -0.507 OA
ATOM     35  H   UNL     1      18.457 -12.041  19.205  1.00  0.00     0.293 HD
ENDBRANCH  10  34
BRANCH   9  36
ATOM     36  C   UNL     1      18.676 -15.955  24.994  1.00  0.00     0.017 C 
ATOM     37  C   UNL     1      17.580 -17.024  25.039  1.00  0.00     0.012 C 
ATOM     38  C   UNL     1      19.079 -15.506  26.412  1.00  0.00     0.012 C 
ENDBRANCH   9  36
BRANCH   6  39
ATOM     39  C   UNL     1      17.482 -11.174  21.859  1.00  0.00     0.264 C 
ATOM     40  O   UNL     1      18.023 -10.111  22.262  1.00  0.00    -0.298 OA
ENDBRANCH   6  39
BRANCH   8  41
ATOM     41  O   UNL     1      16.550 -14.122  25.639  1.00  0.00    -0.504 OA
ATOM     42  H   UNL     1      16.205 -13.388  26.245  1.00  0.00     0.293 HD
ENDBRANCH   8  41
BRANCH   7  43
ATOM     43  O   UNL     1      16.149 -11.775  24.293  1.00  0.00    -0.504 OA
ATOM     44  H   UNL     1      15.936 -10.880  23.872  1.00  0.00     0.293 HD
ENDBRANCH   7  43
TORSDOF 11
ENDMDL
MODEL 8
REMARK VINA RESULT:    -5.347      1.656      8.937
REMARK INTER + INTRA:          -6.617
REMARK INTER:                  -8.525
REMARK INTRA:                   1.908
REMARK UNBOUND:                 1.231
REMARK SMILES Cc1cc2c(C(C)C)c(O)c(O)c(C=O)c2c(O)c1-c1c(C)cc2c(C(C)C)c(O)c(O)c(C=O)c2c1O
REMARK SMILES IDX 1 1 2 2 3 3 4 4 16 5 13 6 11 7 9 8 5 9 17 10 19 11 20 12
REMARK SMILES IDX 37 13 21 14 36 15 23 16 22 17 24 18 33 19 25 20 31 21 29 22
REMARK SMILES IDX 38 23 34 25 35 26 26 27 27 28 28 29 32 30 30 32 18 34 6 36
REMARK SMILES IDX 7 37 8 38 14 39 15 40 10 41 12 43
REMARK H PARENT 38 24 32 31 30 33 18 35 10 42 12 44
REMARK Flexibility Score: inf
ROOT
ATOM      1  C   UNL     1      20.445 -18.006  20.218  1.00  0.00     0.045 C 
ATOM      2  C   UNL     1      19.986 -16.668  20.744  1.00  0.00    -0.039 A 
ATOM      3  C   UNL     1      19.114 -16.623  21.833  1.00  0.00     0.013 A 
ATOM      4  C   UNL     1      18.661 -15.401  22.380  1.00  0.00    -0.006 A 
ATOM      5  C   UNL     1      19.031 -14.181  21.736  1.00  0.00     0.039 A 
ATOM      6  C   UNL     1      18.462 -12.957  22.202  1.00  0.00     0.072 A 
ATOM      7  C   UNL     1      17.506 -12.975  23.238  1.00  0.00     0.169 A 
ATOM      8  C   UNL     1      17.161 -14.176  23.866  1.00  0.00     0.162 A 
ATOM      9  C   UNL     1      17.815 -15.381  23.531  1.00  0.00     0.008 A 
ATOM     10  C   UNL     1      19.924 -14.232  20.620  1.00  0.00     0.132 A 
ATOM     11  C   UNL     1      20.402 -15.472  20.140  1.00  0.00     0.031 A 
ENDROOT
BRANCH  11  12
ATOM     12  C   UNL     1      21.315 -15.520  18.967  1.00  0.00     0.031 A 
ATOM     13  C   UNL     1      20.939 -14.917  17.750  1.00  0.00     0.132 A 
ATOM     14  C   UNL     1      22.561 -16.156  19.080  1.00  0.00    -0.039 A 
ATOM     15  C   UNL     1      21.836 -14.912  16.638  1.00  0.00     0.039 A 
ATOM     16  C   UNL     1      23.393 -16.239  17.963  1.00  0.00     0.013 A 
ATOM     17  C   UNL     1      22.996 -16.793  20.378  1.00  0.00     0.045 C 
ATOM     18  C   UNL     1      23.044 -15.672  16.722  1.00  0.00    -0.006 A 
ATOM     19  C   UNL     1      21.555 -14.189  15.439  1.00  0.00     0.072 A 
ATOM     20  C   UNL     1      23.873 -15.837  15.567  1.00  0.00     0.008 A 
ATOM     21  C   UNL     1      22.449 -14.259  14.352  1.00  0.00     0.169 A 
ATOM     22  C   UNL     1      23.574 -15.086  14.408  1.00  0.00     0.162 A 
BRANCH  13  23
ATOM     23  O   UNL     1      19.664 -14.349  17.635  1.00  0.00    -0.507 OA
ATOM     24  H   UNL     1      19.453 -13.383  17.855  1.00  0.00     0.293 HD
ENDBRANCH  13  23
BRANCH  19  25
ATOM     25  C   UNL     1      20.389 -13.288  15.329  1.00  0.00     0.264 C 
ATOM     26  O   UNL     1      20.470 -12.210  14.681  1.00  0.00    -0.298 OA
ENDBRANCH  19  25
BRANCH  20  27
ATOM     27  C   UNL     1      25.083 -16.790  15.502  1.00  0.00     0.017 C 
ATOM     28  C   UNL     1      26.398 -16.085  15.863  1.00  0.00     0.012 C 
ATOM     29  C   UNL     1      24.885 -18.124  16.251  1.00  0.00     0.012 C 
ENDBRANCH  20  27
BRANCH  21  30
ATOM     30  O   UNL     1      22.258 -13.492  13.195  1.00  0.00    -0.504 OA
ATOM     31  H   UNL     1      22.069 -13.879  12.280  1.00  0.00     0.293 HD
ENDBRANCH  21  30
BRANCH  22  32
ATOM     32  O   UNL     1      24.427 -15.150  13.300  1.00  0.00    -0.504 OA
ATOM     33  H   UNL     1      25.412 -15.375  13.370  1.00  0.00     0.293 HD
ENDBRANCH  22  32
ENDBRANCH  11  12
BRANCH  10  34
ATOM     34  O   UNL     1      20.330 -13.055  19.980  1.00  0.00    -0.507 OA
ATOM     35  H   UNL     1      20.416 -12.159  20.442  1.00  0.00     0.293 HD
ENDBRANCH  10  34
BRANCH   9  36
ATOM     36  C   UNL     1      17.581 -16.638  24.390  1.00  0.00     0.017 C 
ATOM     37  C   UNL     1      18.219 -16.481  25.774  1.00  0.00     0.012 C 
ATOM     38  C   UNL     1      18.028 -17.948  23.713  1.00  0.00     0.012 C 
ENDBRANCH   9  36
BRANCH   6  39
ATOM     39  C   UNL     1      18.823 -11.651  21.617  1.00  0.00     0.264 C 
ATOM     40  O   UNL     1      17.929 -10.824  21.296  1.00  0.00    -0.298 OA
ENDBRANCH   6  39
BRANCH   8  41
ATOM     41  O   UNL     1      16.157 -14.175  24.836  1.00  0.00    -0.504 OA
ATOM     42  H   UNL     1      15.835 -15.016  25.300  1.00  0.00     0.293 HD
ENDBRANCH   8  41
BRANCH   7  43
ATOM     43  O   UNL     1      16.896 -11.801  23.696  1.00  0.00    -0.504 OA
ATOM     44  H   UNL     1      16.745 -10.979  23.125  1.00  0.00     0.293 HD
ENDBRANCH   7  43
TORSDOF 11
ENDMDL
MODEL 9
REMARK VINA RESULT:    -4.807      2.802      9.656
REMARK INTER + INTRA:          -5.825
REMARK INTER:                  -6.940
REMARK INTRA:                   1.115
REMARK UNBOUND:                 1.231
REMARK SMILES Cc1cc2c(C(C)C)c(O)c(O)c(C=O)c2c(O)c1-c1c(C)cc2c(C(C)C)c(O)c(O)c(C=O)c2c1O
REMARK SMILES IDX 1 1 2 2 3 3 4 4 16 5 13 6 11 7 9 8 5 9 17 10 19 11 20 12
REMARK SMILES IDX 37 13 21 14 36 15 23 16 22 17 24 18 33 19 25 20 31 21 29 22
REMARK SMILES IDX 38 23 34 25 35 26 26 27 27 28 28 29 32 30 30 32 18 34 6 36
REMARK SMILES IDX 7 37 8 38 14 39 15 40 10 41 12 43
REMARK H PARENT 38 24 32 31 30 33 18 35 10 42 12 44
REMARK Flexibility Score: inf
ROOT
ATOM      1  C   UNL     1      23.183 -18.125  17.049  1.00  0.00     0.045 C 
ATOM      2  C   UNL     1      22.654 -16.883  17.724  1.00  0.00    -0.039 A 
ATOM      3  C   UNL     1      21.356 -16.882  18.235  1.00  0.00     0.013 A 
ATOM      4  C   UNL     1      20.810 -15.755  18.889  1.00  0.00    -0.006 A 
ATOM      5  C   UNL     1      21.578 -14.551  18.941  1.00  0.00     0.039 A 
ATOM      6  C   UNL     1      20.974 -13.373  19.477  1.00  0.00     0.072 A 
ATOM      7  C   UNL     1      19.625 -13.396  19.885  1.00  0.00     0.169 A 
ATOM      8  C   UNL     1      18.889 -14.584  19.838  1.00  0.00     0.162 A 
ATOM      9  C   UNL     1      19.499 -15.797  19.455  1.00  0.00     0.008 A 
ATOM     10  C   UNL     1      22.907 -14.556  18.415  1.00  0.00     0.132 A 
ATOM     11  C   UNL     1      23.438 -15.723  17.821  1.00  0.00     0.031 A 
ENDROOT
BRANCH  11  12
ATOM     12  C   UNL     1      24.815 -15.717  17.259  1.00  0.00     0.031 A 
ATOM     13  C   UNL     1      25.896 -16.200  18.024  1.00  0.00     0.132 A 
ATOM     14  C   UNL     1      25.033 -15.242  15.956  1.00  0.00    -0.039 A 
ATOM     15  C   UNL     1      27.211 -16.248  17.467  1.00  0.00     0.039 A 
ATOM     16  C   UNL     1      26.333 -15.195  15.452  1.00  0.00     0.013 A 
ATOM     17  C   UNL     1      23.890 -14.738  15.108  1.00  0.00     0.045 C 
ATOM     18  C   UNL     1      27.444 -15.643  16.193  1.00  0.00    -0.006 A 
ATOM     19  C   UNL     1      28.303 -16.862  18.152  1.00  0.00     0.072 A 
ATOM     20  C   UNL     1      28.778 -15.513  15.691  1.00  0.00     0.008 A 
ATOM     21  C   UNL     1      29.592 -16.837  17.582  1.00  0.00     0.169 A 
ATOM     22  C   UNL     1      29.828 -16.155  16.386  1.00  0.00     0.162 A 
BRANCH  13  23
ATOM     23  O   UNL     1      25.670 -16.604  19.345  1.00  0.00    -0.507 OA
ATOM     24  H   UNL     1      24.928 -17.233  19.625  1.00  0.00     0.293 HD
ENDBRANCH  13  23
BRANCH  19  25
ATOM     25  C   UNL     1      28.109 -17.609  19.412  1.00  0.00     0.264 C 
ATOM     26  O   UNL     1      28.626 -17.201  20.486  1.00  0.00    -0.298 OA
ENDBRANCH  19  25
BRANCH  20  27
ATOM     27  C   UNL     1      29.151 -14.710  14.428  1.00  0.00     0.017 C 
ATOM     28  C   UNL     1      29.461 -13.241  14.746  1.00  0.00     0.012 C 
ATOM     29  C   UNL     1      30.221 -15.378  13.540  1.00  0.00     0.012 C 
ENDBRANCH  20  27
BRANCH  21  30
ATOM     30  O   UNL     1      30.669 -17.508  18.176  1.00  0.00    -0.504 OA
ATOM     31  H   UNL     1      31.637 -17.366  17.922  1.00  0.00     0.293 HD
ENDBRANCH  21  30
BRANCH  22  32
ATOM     32  O   UNL     1      31.125 -16.130  15.862  1.00  0.00    -0.504 OA
ATOM     33  H   UNL     1      31.907 -15.695  16.336  1.00  0.00     0.293 HD
ENDBRANCH  22  32
ENDBRANCH  11  12
BRANCH  10  34
ATOM     34  O   UNL     1      23.699 -13.404  18.472  1.00  0.00    -0.507 OA
ATOM     35  H   UNL     1      23.986 -12.954  19.332  1.00  0.00     0.293 HD
ENDBRANCH  10  34
BRANCH   9  36
ATOM     36  C   UNL     1      18.732 -17.123  19.630  1.00  0.00     0.017 C 
ATOM     37  C   UNL     1      19.045 -17.760  20.988  1.00  0.00     0.012 C 
ATOM     38  C   UNL     1      18.947 -18.124  18.479  1.00  0.00     0.012 C 
ENDBRANCH   9  36
BRANCH   6  39
ATOM     39  C   UNL     1      21.713 -12.100  19.602  1.00  0.00     0.264 C 
ATOM     40  O   UNL     1      22.530 -11.745  18.713  1.00  0.00    -0.298 OA
ENDBRANCH   6  39
BRANCH   8  41
ATOM     41  O   UNL     1      17.535 -14.561  20.176  1.00  0.00    -0.504 OA
ATOM     42  H   UNL     1      16.887 -15.294  19.916  1.00  0.00     0.293 HD
ENDBRANCH   8  41
BRANCH   7  43
ATOM     43  O   UNL     1      18.986 -12.252  20.379  1.00  0.00    -0.504 OA
ATOM     44  H   UNL     1      19.383 -11.637  21.077  1.00  0.00     0.293 HD
ENDBRANCH   7  43
TORSDOF 11
ENDMDL
