MODEL 1
REMARK VINA RESULT:    -3.030      0.000      0.000
REMARK INTER + INTRA:          -6.477
REMARK INTER:                  -5.333
REMARK INTRA:                  -1.144
REMARK UNBOUND:                -1.144
REMARK SMILES CCCCCCC=CCCCCCCCC(=O)[O-]
REMARK SMILES IDX 10 1 11 2 12 3 13 4 14 5 15 6 16 7 17 8 18 9 9 10 8 11 7 12
REMARK SMILES IDX 6 13 5 14 4 15 3 16 2 17 1 18
REMARK H PARENT
REMARK Flexibility Score: inf
ROOT
ATOM      1  C   UNL     1     148.669 145.196 143.773  1.00  0.00     0.004 C 
ENDROOT
BRANCH   1   2
ATOM      2  C   UNL     1     147.374 144.489 143.322  1.00  0.00     0.000 C 
BRANCH   2   3
ATOM      3  C   UNL     1     146.212 145.432 142.959  1.00  0.00     0.000 C 
BRANCH   3   4
ATOM      4  C   UNL     1     146.587 146.924 142.876  1.00  0.00     0.000 C 
BRANCH   4   5
ATOM      5  C   UNL     1     145.865 147.805 143.918  1.00  0.00     0.006 C 
BRANCH   5   6
ATOM      6  C   UNL     1     145.132 146.977 144.982  1.00  0.00     0.053 C 
BRANCH   6   7
ATOM      7  C   UNL     1     144.114 147.816 145.687  1.00  0.00     0.041 C 
ATOM      8  O   UNL     1     143.518 147.369 146.703  1.00  0.00    -0.550 OA
ATOM      9  O   UNL     1     143.788 149.073 145.195  1.00  0.00    -0.550 OA
ENDBRANCH   6   7
ENDBRANCH   5   6
ENDBRANCH   4   5
ENDBRANCH   3   4
ENDBRANCH   2   3
ENDBRANCH   1   2
BRANCH   1  10
ATOM     10  C   UNL     1     148.909 145.179 145.293  1.00  0.00     0.027 C 
BRANCH  10  11
ATOM     11  C   UNL     1     148.348 146.393 145.983  1.00  0.00    -0.031 C 
ATOM     12  C   UNL     1     148.920 146.901 147.085  1.00  0.00    -0.031 C 
BRANCH  12  13
ATOM     13  C   UNL     1     148.363 148.117 147.774  1.00  0.00     0.027 C 
BRANCH  13  14
ATOM     14  C   UNL     1     149.440 148.943 148.501  1.00  0.00     0.004 C 
BRANCH  14  15
ATOM     15  C   UNL     1     148.886 149.867 149.602  1.00  0.00     0.000 C 
BRANCH  15  16
ATOM     16  C   UNL     1     147.513 150.466 149.252  1.00  0.00    -0.000 C 
BRANCH  16  17
ATOM     17  C   UNL     1     146.385 149.905 150.130  1.00  0.00    -0.003 C 
ATOM     18  C   UNL     1     145.029 149.901 149.424  1.00  0.00     0.004 C 
ENDBRANCH  16  17
ENDBRANCH  15  16
ENDBRANCH  14  15
ENDBRANCH  13  14
ENDBRANCH  12  13
ENDBRANCH  10  11
ENDBRANCH   1  10
TORSDOF 13
ENDMDL
MODEL 2
REMARK VINA RESULT:    -2.861      8.743     10.977
REMARK INTER + INTRA:          -6.179
REMARK INTER:                  -5.113
REMARK INTRA:                  -1.066
REMARK UNBOUND:                -1.144
REMARK SMILES CCCCCCC=CCCCCCCCC(=O)[O-]
REMARK SMILES IDX 10 1 11 2 12 3 13 4 14 5 15 6 16 7 17 8 18 9 9 10 8 11 7 12
REMARK SMILES IDX 6 13 5 14 4 15 3 16 2 17 1 18
REMARK H PARENT
REMARK Flexibility Score: inf
ROOT
ATOM      1  C   UNL     1     155.894 141.636 148.341  1.00  0.00     0.004 C 
ENDROOT
BRANCH   1   2
ATOM      2  C   UNL     1     157.371 141.213 148.194  1.00  0.00     0.000 C 
BRANCH   2   3
ATOM      3  C   UNL     1     158.096 141.801 146.969  1.00  0.00     0.000 C 
BRANCH   3   4
ATOM      4  C   UNL     1     158.125 140.886 145.730  1.00  0.00     0.000 C 
BRANCH   4   5
ATOM      5  C   UNL     1     158.125 141.654 144.391  1.00  0.00     0.006 C 
BRANCH   5   6
ATOM      6  C   UNL     1     156.747 141.662 143.717  1.00  0.00     0.053 C 
BRANCH   6   7
ATOM      7  C   UNL     1     155.948 142.842 144.172  1.00  0.00     0.041 C 
ATOM      8  O   UNL     1     154.700 142.865 144.007  1.00  0.00    -0.550 OA
ATOM      9  O   UNL     1     156.588 143.938 144.735  1.00  0.00    -0.550 OA
ENDBRANCH   6   7
ENDBRANCH   5   6
ENDBRANCH   4   5
ENDBRANCH   3   4
ENDBRANCH   2   3
ENDBRANCH   1   2
BRANCH   1  10
ATOM     10  C   UNL     1     155.649 142.750 149.373  1.00  0.00     0.027 C 
BRANCH  10  11
ATOM     11  C   UNL     1     154.205 142.854 149.783  1.00  0.00    -0.031 C 
ATOM     12  C   UNL     1     153.820 142.661 151.054  1.00  0.00    -0.031 C 
BRANCH  12  13
ATOM     13  C   UNL     1     152.377 142.767 151.467  1.00  0.00     0.027 C 
BRANCH  13  14
ATOM     14  C   UNL     1     151.721 141.397 151.719  1.00  0.00     0.004 C 
BRANCH  14  15
ATOM     15  C   UNL     1     151.486 140.569 150.442  1.00  0.00     0.000 C 
BRANCH  15  16
ATOM     16  C   UNL     1     150.315 141.089 149.592  1.00  0.00    -0.000 C 
BRANCH  16  17
ATOM     17  C   UNL     1     150.707 141.315 148.125  1.00  0.00    -0.003 C 
ATOM     18  C   UNL     1     152.172 140.982 147.844  1.00  0.00     0.004 C 
ENDBRANCH  16  17
ENDBRANCH  15  16
ENDBRANCH  14  15
ENDBRANCH  13  14
ENDBRANCH  12  13
ENDBRANCH  10  11
ENDBRANCH   1  10
TORSDOF 13
ENDMDL
MODEL 3
REMARK VINA RESULT:    -2.432      5.216      7.644
REMARK INTER + INTRA:          -5.424
REMARK INTER:                  -4.836
REMARK INTRA:                  -0.588
REMARK UNBOUND:                -1.144
REMARK SMILES CCCCCCC=CCCCCCCCC(=O)[O-]
REMARK SMILES IDX 10 1 11 2 12 3 13 4 14 5 15 6 16 7 17 8 18 9 9 10 8 11 7 12
REMARK SMILES IDX 6 13 5 14 4 15 3 16 2 17 1 18
REMARK H PARENT
REMARK Flexibility Score: inf
ROOT
ATOM      1  C   UNL     1     149.113 143.500 146.467  1.00  0.00     0.004 C 
ENDROOT
BRANCH   1   2
ATOM      2  C   UNL     1     149.131 142.771 147.826  1.00  0.00     0.000 C 
BRANCH   2   3
ATOM      3  C   UNL     1     150.193 141.663 147.955  1.00  0.00     0.000 C 
BRANCH   3   4
ATOM      4  C   UNL     1     150.191 140.914 149.301  1.00  0.00     0.000 C 
BRANCH   4   5
ATOM      5  C   UNL     1     151.601 140.530 149.800  1.00  0.00     0.006 C 
BRANCH   5   6
ATOM      6  C   UNL     1     152.551 141.733 149.864  1.00  0.00     0.053 C 
BRANCH   6   7
ATOM      7  C   UNL     1     152.521 142.351 151.226  1.00  0.00     0.041 C 
ATOM      8  O   UNL     1     153.189 143.392 151.464  1.00  0.00    -0.550 OA
ATOM      9  O   UNL     1     151.796 141.751 152.246  1.00  0.00    -0.550 OA
ENDBRANCH   6   7
ENDBRANCH   5   6
ENDBRANCH   4   5
ENDBRANCH   3   4
ENDBRANCH   2   3
ENDBRANCH   1   2
BRANCH   1  10
ATOM     10  C   UNL     1     149.110 145.036 146.567  1.00  0.00     0.027 C 
BRANCH  10  11
ATOM     11  C   UNL     1     148.655 145.699 145.295  1.00  0.00    -0.031 C 
ATOM     12  C   UNL     1     148.282 144.983 144.224  1.00  0.00    -0.031 C 
BRANCH  12  13
ATOM     13  C   UNL     1     147.824 145.644 142.952  1.00  0.00     0.027 C 
BRANCH  13  14
ATOM     14  C   UNL     1     147.563 147.152 143.118  1.00  0.00     0.004 C 
BRANCH  14  15
ATOM     15  C   UNL     1     146.115 147.500 143.511  1.00  0.00     0.000 C 
BRANCH  15  16
ATOM     16  C   UNL     1     145.883 147.486 145.031  1.00  0.00    -0.000 C 
BRANCH  16  17
ATOM     17  C   UNL     1     144.563 146.804 145.419  1.00  0.00    -0.003 C 
ATOM     18  C   UNL     1     143.641 147.713 146.231  1.00  0.00     0.004 C 
ENDBRANCH  16  17
ENDBRANCH  15  16
ENDBRANCH  14  15
ENDBRANCH  13  14
ENDBRANCH  12  13
ENDBRANCH  10  11
ENDBRANCH   1  10
TORSDOF 13
ENDMDL
MODEL 4
REMARK VINA RESULT:    -2.401      8.894     10.882
REMARK INTER + INTRA:          -5.369
REMARK INTER:                  -4.338
REMARK INTRA:                  -1.030
REMARK UNBOUND:                -1.144
REMARK SMILES CCCCCCC=CCCCCCCCC(=O)[O-]
REMARK SMILES IDX 10 1 11 2 12 3 13 4 14 5 15 6 16 7 17 8 18 9 9 10 8 11 7 12
REMARK SMILES IDX 6 13 5 14 4 15 3 16 2 17 1 18
REMARK H PARENT
REMARK Flexibility Score: inf
ROOT
ATOM      1  C   UNL     1     155.220 142.343 147.761  1.00  0.00     0.004 C 
ENDROOT
BRANCH   1   2
ATOM      2  C   UNL     1     155.994 141.293 148.585  1.00  0.00     0.000 C 
BRANCH   2   3
ATOM      3  C   UNL     1     157.528 141.390 148.485  1.00  0.00     0.000 C 
BRANCH   3   4
ATOM      4  C   UNL     1     158.098 141.239 147.063  1.00  0.00     0.000 C 
BRANCH   4   5
ATOM      5  C   UNL     1     157.815 142.450 146.148  1.00  0.00     0.006 C 
BRANCH   5   6
ATOM      6  C   UNL     1     157.712 142.058 144.668  1.00  0.00     0.053 C 
BRANCH   6   7
ATOM      7  C   UNL     1     156.574 142.777 144.015  1.00  0.00     0.041 C 
ATOM      8  O   UNL     1     156.600 144.031 143.899  1.00  0.00    -0.550 OA
ATOM      9  O   UNL     1     155.463 142.068 143.578  1.00  0.00    -0.550 OA
ENDBRANCH   6   7
ENDBRANCH   5   6
ENDBRANCH   4   5
ENDBRANCH   3   4
ENDBRANCH   2   3
ENDBRANCH   1   2
BRANCH   1  10
ATOM     10  C   UNL     1     154.020 141.781 146.978  1.00  0.00     0.027 C 
BRANCH  10  11
ATOM     11  C   UNL     1     152.940 141.244 147.878  1.00  0.00    -0.031 C 
ATOM     12  C   UNL     1     151.642 141.473 147.630  1.00  0.00    -0.031 C 
BRANCH  12  13
ATOM     13  C   UNL     1     150.560 140.934 148.526  1.00  0.00     0.027 C 
BRANCH  13  14
ATOM     14  C   UNL     1     151.073 140.550 149.926  1.00  0.00     0.004 C 
BRANCH  14  15
ATOM     15  C   UNL     1     150.909 141.660 150.981  1.00  0.00     0.000 C 
BRANCH  15  16
ATOM     16  C   UNL     1     151.835 141.479 152.196  1.00  0.00    -0.000 C 
BRANCH  16  17
ATOM     17  C   UNL     1     153.275 141.931 151.911  1.00  0.00    -0.003 C 
ATOM     18  C   UNL     1     153.347 143.104 150.933  1.00  0.00     0.004 C 
ENDBRANCH  16  17
ENDBRANCH  15  16
ENDBRANCH  14  15
ENDBRANCH  13  14
ENDBRANCH  12  13
ENDBRANCH  10  11
ENDBRANCH   1  10
TORSDOF 13
ENDMDL
MODEL 5
REMARK VINA RESULT:    -2.274      8.728     11.046
REMARK INTER + INTRA:          -5.147
REMARK INTER:                  -4.224
REMARK INTRA:                  -0.923
REMARK UNBOUND:                -1.144
REMARK SMILES CCCCCCC=CCCCCCCCC(=O)[O-]
REMARK SMILES IDX 10 1 11 2 12 3 13 4 14 5 15 6 16 7 17 8 18 9 9 10 8 11 7 12
REMARK SMILES IDX 6 13 5 14 4 15 3 16 2 17 1 18
REMARK H PARENT
REMARK Flexibility Score: inf
ROOT
ATOM      1  C   UNL     1     153.713 142.009 147.675  1.00  0.00     0.004 C 
ENDROOT
BRANCH   1   2
ATOM      2  C   UNL     1     152.770 140.867 148.108  1.00  0.00     0.000 C 
BRANCH   2   3
ATOM      3  C   UNL     1     151.268 141.179 147.976  1.00  0.00     0.000 C 
BRANCH   3   4
ATOM      4  C   UNL     1     150.492 141.217 149.306  1.00  0.00     0.000 C 
BRANCH   4   5
ATOM      5  C   UNL     1     151.322 140.750 150.522  1.00  0.00     0.006 C 
BRANCH   5   6
ATOM      6  C   UNL     1     151.466 141.842 151.590  1.00  0.00     0.053 C 
BRANCH   6   7
ATOM      7  C   UNL     1     152.821 142.471 151.515  1.00  0.00     0.041 C 
ATOM      8  O   UNL     1     153.853 141.749 151.473  1.00  0.00    -0.550 OA
ATOM      9  O   UNL     1     152.949 143.853 151.542  1.00  0.00    -0.550 OA
ENDBRANCH   6   7
ENDBRANCH   5   6
ENDBRANCH   4   5
ENDBRANCH   3   4
ENDBRANCH   2   3
ENDBRANCH   1   2
BRANCH   1  10
ATOM     10  C   UNL     1     154.779 142.386 148.719  1.00  0.00     0.027 C 
BRANCH  10  11
ATOM     11  C   UNL     1     156.167 141.976 148.305  1.00  0.00    -0.031 C 
ATOM     12  C   UNL     1     156.572 142.058 147.028  1.00  0.00    -0.031 C 
BRANCH  12  13
ATOM     13  C   UNL     1     157.959 141.652 146.612  1.00  0.00     0.027 C 
BRANCH  13  14
ATOM     14  C   UNL     1     158.124 141.550 145.085  1.00  0.00     0.004 C 
BRANCH  14  15
ATOM     15  C   UNL     1     157.639 142.795 144.317  1.00  0.00     0.000 C 
BRANCH  15  16
ATOM     16  C   UNL     1     157.128 142.469 142.903  1.00  0.00    -0.000 C 
BRANCH  16  17
ATOM     17  C   UNL     1     155.756 141.778 142.919  1.00  0.00    -0.003 C 
ATOM     18  C   UNL     1     154.791 142.398 143.929  1.00  0.00     0.004 C 
ENDBRANCH  16  17
ENDBRANCH  15  16
ENDBRANCH  14  15
ENDBRANCH  13  14
ENDBRANCH  12  13
ENDBRANCH  10  11
ENDBRANCH   1  10
TORSDOF 13
ENDMDL
MODEL 6
REMARK VINA RESULT:    -2.241      8.744     10.954
REMARK INTER + INTRA:          -5.087
REMARK INTER:                  -3.932
REMARK INTRA:                  -1.155
REMARK UNBOUND:                -1.144
REMARK SMILES CCCCCCC=CCCCCCCCC(=O)[O-]
REMARK SMILES IDX 10 1 11 2 12 3 13 4 14 5 15 6 16 7 17 8 18 9 9 10 8 11 7 12
REMARK SMILES IDX 6 13 5 14 4 15 3 16 2 17 1 18
REMARK H PARENT
REMARK Flexibility Score: inf
ROOT
ATOM      1  C   UNL     1     153.767 141.991 147.535  1.00  0.00     0.004 C 
ENDROOT
BRANCH   1   2
ATOM      2  C   UNL     1     152.794 140.873 147.961  1.00  0.00     0.000 C 
BRANCH   2   3
ATOM      3  C   UNL     1     151.311 141.287 148.015  1.00  0.00     0.000 C 
BRANCH   3   4
ATOM      4  C   UNL     1     150.626 141.073 149.378  1.00  0.00     0.000 C 
BRANCH   4   5
ATOM      5  C   UNL     1     151.604 140.697 150.512  1.00  0.00     0.006 C 
BRANCH   5   6
ATOM      6  C   UNL     1     151.717 141.794 151.579  1.00  0.00     0.053 C 
BRANCH   6   7
ATOM      7  C   UNL     1     152.961 142.598 151.372  1.00  0.00     0.041 C 
ATOM      8  O   UNL     1     152.942 143.847 151.529  1.00  0.00    -0.550 OA
ATOM      9  O   UNL     1     154.131 141.974 150.958  1.00  0.00    -0.550 OA
ENDBRANCH   6   7
ENDBRANCH   5   6
ENDBRANCH   4   5
ENDBRANCH   3   4
ENDBRANCH   2   3
ENDBRANCH   1   2
BRANCH   1  10
ATOM     10  C   UNL     1     153.741 142.323 146.033  1.00  0.00     0.027 C 
BRANCH  10  11
ATOM     11  C   UNL     1     154.965 143.072 145.582  1.00  0.00    -0.031 C 
ATOM     12  C   UNL     1     155.618 142.739 144.458  1.00  0.00    -0.031 C 
BRANCH  12  13
ATOM     13  C   UNL     1     156.841 143.488 144.004  1.00  0.00     0.027 C 
BRANCH  13  14
ATOM     14  C   UNL     1     158.124 142.640 144.063  1.00  0.00     0.004 C 
BRANCH  14  15
ATOM     15  C   UNL     1     158.093 141.528 145.128  1.00  0.00     0.000 C 
BRANCH  15  16
ATOM     16  C   UNL     1     158.124 142.070 146.567  1.00  0.00    -0.000 C 
BRANCH  16  17
ATOM     17  C   UNL     1     157.615 141.047 147.593  1.00  0.00    -0.003 C 
ATOM     18  C   UNL     1     157.213 141.687 148.921  1.00  0.00     0.004 C 
ENDBRANCH  16  17
ENDBRANCH  15  16
ENDBRANCH  14  15
ENDBRANCH  13  14
ENDBRANCH  12  13
ENDBRANCH  10  11
ENDBRANCH   1  10
TORSDOF 13
ENDMDL
MODEL 7
REMARK VINA RESULT:    -2.031      3.793      5.490
REMARK INTER + INTRA:          -4.719
REMARK INTER:                  -3.745
REMARK INTRA:                  -0.973
REMARK UNBOUND:                -1.144
REMARK SMILES CCCCCCC=CCCCCCCCC(=O)[O-]
REMARK SMILES IDX 10 1 11 2 12 3 13 4 14 5 15 6 16 7 17 8 18 9 9 10 8 11 7 12
REMARK SMILES IDX 6 13 5 14 4 15 3 16 2 17 1 18
REMARK H PARENT
REMARK Flexibility Score: inf
ROOT
ATOM      1  C   UNL     1     148.763 145.664 145.015  1.00  0.00     0.004 C 
ENDROOT
BRANCH   1   2
ATOM      2  C   UNL     1     148.018 144.740 144.030  1.00  0.00     0.000 C 
BRANCH   2   3
ATOM      3  C   UNL     1     146.731 145.335 143.427  1.00  0.00     0.000 C 
BRANCH   3   4
ATOM      4  C   UNL     1     146.807 146.836 143.087  1.00  0.00     0.000 C 
BRANCH   4   5
ATOM      5  C   UNL     1     145.754 147.693 143.823  1.00  0.00     0.006 C 
BRANCH   5   6
ATOM      6  C   UNL     1     145.239 147.022 145.103  1.00  0.00     0.053 C 
BRANCH   6   7
ATOM      7  C   UNL     1     144.132 147.827 145.706  1.00  0.00     0.041 C 
ATOM      8  O   UNL     1     143.466 147.366 146.671  1.00  0.00    -0.550 OA
ATOM      9  O   UNL     1     143.801 149.064 145.170  1.00  0.00    -0.550 OA
ENDBRANCH   6   7
ENDBRANCH   5   6
ENDBRANCH   4   5
ENDBRANCH   3   4
ENDBRANCH   2   3
ENDBRANCH   1   2
BRANCH   1  10
ATOM     10  C   UNL     1     148.773 145.168 146.471  1.00  0.00     0.027 C 
BRANCH  10  11
ATOM     11  C   UNL     1     149.259 143.750 146.599  1.00  0.00    -0.031 C 
ATOM     12  C   UNL     1     149.147 143.070 147.749  1.00  0.00    -0.031 C 
BRANCH  12  13
ATOM     13  C   UNL     1     149.629 141.650 147.879  1.00  0.00     0.027 C 
BRANCH  13  14
ATOM     14  C   UNL     1     151.164 141.532 147.856  1.00  0.00     0.004 C 
BRANCH  14  15
ATOM     15  C   UNL     1     151.759 140.848 149.102  1.00  0.00     0.000 C 
BRANCH  15  16
ATOM     16  C   UNL     1     150.888 141.021 150.358  1.00  0.00    -0.000 C 
BRANCH  16  17
ATOM     17  C   UNL     1     151.683 141.564 151.555  1.00  0.00    -0.003 C 
ATOM     18  C   UNL     1     152.896 142.395 151.135  1.00  0.00     0.004 C 
ENDBRANCH  16  17
ENDBRANCH  15  16
ENDBRANCH  14  15
ENDBRANCH  13  14
ENDBRANCH  12  13
ENDBRANCH  10  11
ENDBRANCH   1  10
TORSDOF 13
ENDMDL
MODEL 8
REMARK VINA RESULT:    -1.985      1.403      5.518
REMARK INTER + INTRA:          -4.637
REMARK INTER:                  -3.535
REMARK INTRA:                  -1.102
REMARK UNBOUND:                -1.144
REMARK SMILES CCCCCCC=CCCCCCCCC(=O)[O-]
REMARK SMILES IDX 10 1 11 2 12 3 13 4 14 5 15 6 16 7 17 8 18 9 9 10 8 11 7 12
REMARK SMILES IDX 6 13 5 14 4 15 3 16 2 17 1 18
REMARK H PARENT
REMARK Flexibility Score: inf
ROOT
ATOM      1  C   UNL     1     148.273 147.304 147.372  1.00  0.00     0.004 C 
ENDROOT
BRANCH   1   2
ATOM      2  C   UNL     1     149.060 148.590 147.699  1.00  0.00     0.000 C 
BRANCH   2   3
ATOM      3  C   UNL     1     149.156 148.930 149.198  1.00  0.00     0.000 C 
BRANCH   3   4
ATOM      4  C   UNL     1     148.508 150.268 149.603  1.00  0.00     0.000 C 
BRANCH   4   5
ATOM      5  C   UNL     1     147.060 150.437 149.094  1.00  0.00     0.006 C 
BRANCH   5   6
ATOM      6  C   UNL     1     146.032 149.751 150.004  1.00  0.00     0.053 C 
BRANCH   6   7
ATOM      7  C   UNL     1     144.653 149.910 149.447  1.00  0.00     0.041 C 
ATOM      8  O   UNL     1     144.273 149.198 148.481  1.00  0.00    -0.550 OA
ATOM      9  O   UNL     1     143.803 150.880 149.963  1.00  0.00    -0.550 OA
ENDBRANCH   6   7
ENDBRANCH   5   6
ENDBRANCH   4   5
ENDBRANCH   3   4
ENDBRANCH   2   3
ENDBRANCH   1   2
BRANCH   1  10
ATOM     10  C   UNL     1     149.116 146.184 146.737  1.00  0.00     0.027 C 
BRANCH  10  11
ATOM     11  C   UNL     1     148.359 145.409 145.692  1.00  0.00    -0.031 C 
ATOM     12  C   UNL     1     148.585 145.593 144.382  1.00  0.00    -0.031 C 
BRANCH  12  13
ATOM     13  C   UNL     1     147.832 144.817 143.335  1.00  0.00     0.027 C 
BRANCH  13  14
ATOM     14  C   UNL     1     146.478 145.454 142.971  1.00  0.00     0.004 C 
BRANCH  14  15
ATOM     15  C   UNL     1     146.514 146.991 142.875  1.00  0.00     0.000 C 
BRANCH  15  16
ATOM     16  C   UNL     1     145.786 147.685 144.039  1.00  0.00    -0.000 C 
BRANCH  16  17
ATOM     17  C   UNL     1     145.146 146.685 145.013  1.00  0.00    -0.003 C 
ATOM     18  C   UNL     1     144.065 147.318 145.889  1.00  0.00     0.004 C 
ENDBRANCH  16  17
ENDBRANCH  15  16
ENDBRANCH  14  15
ENDBRANCH  13  14
ENDBRANCH  12  13
ENDBRANCH  10  11
ENDBRANCH   1  10
TORSDOF 13
ENDMDL
MODEL 9
REMARK VINA RESULT:    -1.799      9.145     11.479
REMARK INTER + INTRA:          -4.310
REMARK INTER:                  -3.190
REMARK INTRA:                  -1.120
REMARK UNBOUND:                -1.144
REMARK SMILES CCCCCCC=CCCCCCCCC(=O)[O-]
REMARK SMILES IDX 10 1 11 2 12 3 13 4 14 5 15 6 16 7 17 8 18 9 9 10 8 11 7 12
REMARK SMILES IDX 6 13 5 14 4 15 3 16 2 17 1 18
REMARK H PARENT
REMARK Flexibility Score: inf
ROOT
ATOM      1  C   UNL     1     150.403 141.010 149.471  1.00  0.00     0.004 C 
ENDROOT
BRANCH   1   2
ATOM      2  C   UNL     1     151.550 140.642 150.434  1.00  0.00     0.000 C 
BRANCH   2   3
ATOM      3  C   UNL     1     151.828 141.677 151.540  1.00  0.00     0.000 C 
BRANCH   3   4
ATOM      4  C   UNL     1     152.783 142.817 151.139  1.00  0.00     0.000 C 
BRANCH   4   5
ATOM      5  C   UNL     1     154.273 142.413 151.153  1.00  0.00     0.006 C 
BRANCH   5   6
ATOM      6  C   UNL     1     154.995 142.783 149.850  1.00  0.00     0.053 C 
BRANCH   6   7
ATOM      7  C   UNL     1     156.437 142.394 149.924  1.00  0.00     0.041 C 
ATOM      8  O   UNL     1     157.062 142.478 151.014  1.00  0.00    -0.550 OA
ATOM      9  O   UNL     1     157.106 141.985 148.777  1.00  0.00    -0.550 OA
ENDBRANCH   6   7
ENDBRANCH   5   6
ENDBRANCH   4   5
ENDBRANCH   3   4
ENDBRANCH   2   3
ENDBRANCH   1   2
BRANCH   1  10
ATOM     10  C   UNL     1     150.837 141.207 148.007  1.00  0.00     0.027 C 
BRANCH  10  11
ATOM     11  C   UNL     1     152.333 141.217 147.842  1.00  0.00    -0.031 C 
ATOM     12  C   UNL     1     152.928 141.944 146.884  1.00  0.00    -0.031 C 
BRANCH  12  13
ATOM     13  C   UNL     1     154.424 141.958 146.719  1.00  0.00     0.027 C 
BRANCH  13  14
ATOM     14  C   UNL     1     154.880 142.671 145.433  1.00  0.00     0.004 C 
BRANCH  14  15
ATOM     15  C   UNL     1     156.410 142.770 145.279  1.00  0.00     0.000 C 
BRANCH  15  16
ATOM     16  C   UNL     1     156.845 143.835 144.258  1.00  0.00    -0.000 C 
BRANCH  16  17
ATOM     17  C   UNL     1     157.796 143.272 143.190  1.00  0.00    -0.003 C 
ATOM     18  C   UNL     1     157.538 141.797 142.885  1.00  0.00     0.004 C 
ENDBRANCH  16  17
ENDBRANCH  15  16
ENDBRANCH  14  15
ENDBRANCH  13  14
ENDBRANCH  12  13
ENDBRANCH  10  11
ENDBRANCH   1  10
TORSDOF 13
ENDMDL
