MODEL 1
REMARK VINA RESULT:    -7.251      0.000      0.000
REMARK INTER + INTRA:          -9.136
REMARK INTER:                  -8.946
REMARK INTRA:                  -0.190
REMARK UNBOUND:                -0.190
REMARK SMILES O=c1c(O)c(-c2cc(O)c(O)c(O)c2)oc2cc(O)cc(O)c12
REMARK SMILES IDX 5 1 3 2 2 3 1 4 23 5 21 6 20 7 18 8 17 9 16 10 15 11 6 12
REMARK SMILES IDX 7 13 8 14 14 15 10 16 12 17 9 18 11 20 13 22 4 24 22 26
REMARK SMILES IDX 19 28
REMARK H PARENT 9 19 11 21 13 23 4 25 22 27 19 29
REMARK Flexibility Score: inf
ROOT
ATOM      1  C   UNL     1     -19.146  12.365 -34.591  1.00  0.00     0.180 A 
ATOM      2  C   UNL     1     -20.478  12.180 -34.182  1.00  0.00     0.208 A 
ATOM      3  C   UNL     1     -21.456  11.904 -35.150  1.00  0.00     0.238 A 
ATOM      4  O   UNL     1     -22.637  11.686 -34.772  1.00  0.00    -0.285 OA
ATOM      5  C   UNL     1     -21.094  11.831 -36.517  1.00  0.00     0.111 A 
ATOM      6  C   UNL     1     -22.009  11.596 -37.587  1.00  0.00     0.134 A 
ATOM      7  C   UNL     1     -21.521  11.414 -38.886  1.00  0.00     0.093 A 
ATOM      8  C   UNL     1     -20.159  11.523 -39.166  1.00  0.00     0.123 A 
ATOM      9  C   UNL     1     -19.261  11.811 -38.137  1.00  0.00     0.094 A 
ATOM     10  C   UNL     1     -19.715  11.963 -36.824  1.00  0.00     0.146 A 
ATOM     11  O   UNL     1     -18.826  12.225 -35.873  1.00  0.00    -0.452 OA
ENDROOT
BRANCH   1  12
ATOM     12  C   UNL     1     -18.064  12.684 -33.631  1.00  0.00     0.029 A 
ATOM     13  C   UNL     1     -18.110  13.888 -32.916  1.00  0.00     0.062 A 
ATOM     14  C   UNL     1     -17.110  14.204 -31.988  1.00  0.00     0.162 A 
ATOM     15  C   UNL     1     -17.021  11.778 -33.378  1.00  0.00     0.062 A 
ATOM     16  C   UNL     1     -16.056  13.309 -31.752  1.00  0.00     0.200 A 
ATOM     17  C   UNL     1     -16.017  12.080 -32.450  1.00  0.00     0.162 A 
BRANCH  14  18
ATOM     18  O   UNL     1     -17.156  15.412 -31.293  1.00  0.00    -0.504 OA
ATOM     19  H   UNL     1     -17.572  16.241 -31.697  1.00  0.00     0.293 HD
ENDBRANCH  14  18
BRANCH  16  20
ATOM     20  O   UNL     1     -15.080  13.676 -30.822  1.00  0.00    -0.502 OA
ATOM     21  H   UNL     1     -14.242  13.142 -30.640  1.00  0.00     0.293 HD
ENDBRANCH  16  20
BRANCH  17  22
ATOM     22  O   UNL     1     -15.010  11.131 -32.252  1.00  0.00    -0.504 OA
ATOM     23  H   UNL     1     -15.166  10.134 -32.245  1.00  0.00     0.293 HD
ENDBRANCH  17  22
ENDBRANCH   1  12
BRANCH   2  24
ATOM     24  O   UNL     1     -20.811  12.235 -32.825  1.00  0.00    -0.502 OA
ATOM     25  H   UNL     1     -20.598  11.482 -32.183  1.00  0.00     0.293 HD
ENDBRANCH   2  24
BRANCH   6  26
ATOM     26  O   UNL     1     -23.399  11.561 -37.432  1.00  0.00    -0.507 OA
ATOM     27  H   UNL     1     -23.879  11.590 -36.545  1.00  0.00     0.293 HD
ENDBRANCH   6  26
BRANCH   8  28
ATOM     28  O   UNL     1     -19.710  11.352 -40.473  1.00  0.00    -0.508 OA
ATOM     29  H   UNL     1     -19.378  12.134 -41.026  1.00  0.00     0.293 HD
ENDBRANCH   8  28
TORSDOF 7
ENDMDL
MODEL 2
REMARK VINA RESULT:    -7.193      1.558      6.873
REMARK INTER + INTRA:          -9.065
REMARK INTER:                  -8.700
REMARK INTRA:                  -0.364
REMARK UNBOUND:                -0.190
REMARK SMILES O=c1c(O)c(-c2cc(O)c(O)c(O)c2)oc2cc(O)cc(O)c12
REMARK SMILES IDX 5 1 3 2 2 3 1 4 23 5 21 6 20 7 18 8 17 9 16 10 15 11 6 12
REMARK SMILES IDX 7 13 8 14 14 15 10 16 12 17 9 18 11 20 13 22 4 24 22 26
REMARK SMILES IDX 19 28
REMARK H PARENT 9 19 11 21 13 23 4 25 22 27 19 29
REMARK Flexibility Score: inf
ROOT
ATOM      1  C   UNL     1     -19.293  12.111 -35.231  1.00  0.00     0.180 A 
ATOM      2  C   UNL     1     -19.840  13.042 -34.329  1.00  0.00     0.208 A 
ATOM      3  C   UNL     1     -19.026  13.561 -33.309  1.00  0.00     0.238 A 
ATOM      4  O   UNL     1     -19.506  14.434 -32.539  1.00  0.00    -0.285 OA
ATOM      5  C   UNL     1     -17.682  13.132 -33.193  1.00  0.00     0.111 A 
ATOM      6  C   UNL     1     -16.779  13.561 -32.174  1.00  0.00     0.134 A 
ATOM      7  C   UNL     1     -15.436  13.173 -32.233  1.00  0.00     0.093 A 
ATOM      8  C   UNL     1     -14.976  12.319 -33.235  1.00  0.00     0.123 A 
ATOM      9  C   UNL     1     -15.864  11.845 -34.202  1.00  0.00     0.094 A 
ATOM     10  C   UNL     1     -17.202  12.244 -34.190  1.00  0.00     0.146 A 
ATOM     11  O   UNL     1     -18.011  11.779 -35.135  1.00  0.00    -0.452 OA
ENDROOT
BRANCH   1  12
ATOM     12  C   UNL     1     -20.095  11.502 -36.316  1.00  0.00     0.029 A 
ATOM     13  C   UNL     1     -20.027  12.039 -37.608  1.00  0.00     0.062 A 
ATOM     14  C   UNL     1     -20.760  11.468 -38.657  1.00  0.00     0.162 A 
ATOM     15  C   UNL     1     -20.879  10.358 -36.091  1.00  0.00     0.062 A 
ATOM     16  C   UNL     1     -21.561  10.340 -38.427  1.00  0.00     0.200 A 
ATOM     17  C   UNL     1     -21.614   9.775 -37.131  1.00  0.00     0.162 A 
BRANCH  14  18
ATOM     18  O   UNL     1     -20.698  12.019 -39.936  1.00  0.00    -0.504 OA
ATOM     19  H   UNL     1     -21.531  12.320 -40.425  1.00  0.00     0.293 HD
ENDBRANCH  14  18
BRANCH  16  20
ATOM     20  O   UNL     1     -22.278   9.813 -39.505  1.00  0.00    -0.502 OA
ATOM     21  H   UNL     1     -22.186  10.135 -40.457  1.00  0.00     0.293 HD
ENDBRANCH  16  20
BRANCH  17  22
ATOM     22  O   UNL     1     -22.373   8.641 -36.832  1.00  0.00    -0.504 OA
ATOM     23  H   UNL     1     -23.030   8.216 -37.470  1.00  0.00     0.293 HD
ENDBRANCH  17  22
ENDBRANCH   1  12
BRANCH   2  24
ATOM     24  O   UNL     1     -21.163  13.468 -34.475  1.00  0.00    -0.502 OA
ATOM     25  H   UNL     1     -21.790  13.573 -33.687  1.00  0.00     0.293 HD
ENDBRANCH   2  24
BRANCH   6  26
ATOM     26  O   UNL     1     -17.156  14.342 -31.076  1.00  0.00    -0.507 OA
ATOM     27  H   UNL     1     -17.819  14.059 -30.370  1.00  0.00     0.293 HD
ENDBRANCH   6  26
BRANCH   8  28
ATOM     28  O   UNL     1     -13.636  11.940 -33.254  1.00  0.00    -0.508 OA
ATOM     29  H   UNL     1     -13.142  11.785 -34.125  1.00  0.00     0.293 HD
ENDBRANCH   8  28
TORSDOF 7
ENDMDL
MODEL 3
REMARK VINA RESULT:    -7.168      1.690      2.561
REMARK INTER + INTRA:          -9.034
REMARK INTER:                  -8.696
REMARK INTRA:                  -0.338
REMARK UNBOUND:                -0.190
REMARK SMILES O=c1c(O)c(-c2cc(O)c(O)c(O)c2)oc2cc(O)cc(O)c12
REMARK SMILES IDX 5 1 3 2 2 3 1 4 23 5 21 6 20 7 18 8 17 9 16 10 15 11 6 12
REMARK SMILES IDX 7 13 8 14 14 15 10 16 12 17 9 18 11 20 13 22 4 24 22 26
REMARK SMILES IDX 19 28
REMARK H PARENT 9 19 11 21 13 23 4 25 22 27 19 29
REMARK Flexibility Score: inf
ROOT
ATOM      1  C   UNL     1     -18.313  12.734 -35.387  1.00  0.00     0.180 A 
ATOM      2  C   UNL     1     -18.485  13.673 -36.421  1.00  0.00     0.208 A 
ATOM      3  C   UNL     1     -19.375  13.378 -37.466  1.00  0.00     0.238 A 
ATOM      4  O   UNL     1     -19.566  14.245 -38.359  1.00  0.00    -0.285 OA
ATOM      5  C   UNL     1     -20.069  12.144 -37.474  1.00  0.00     0.111 A 
ATOM      6  C   UNL     1     -20.965  11.725 -38.504  1.00  0.00     0.134 A 
ATOM      7  C   UNL     1     -21.696  10.542 -38.344  1.00  0.00     0.093 A 
ATOM      8  C   UNL     1     -21.516   9.730 -37.224  1.00  0.00     0.123 A 
ATOM      9  C   UNL     1     -20.599  10.101 -36.240  1.00  0.00     0.094 A 
ATOM     10  C   UNL     1     -19.881  11.294 -36.354  1.00  0.00     0.146 A 
ATOM     11  O   UNL     1     -19.027  11.615 -35.390  1.00  0.00    -0.452 OA
ENDROOT
BRANCH   1  12
ATOM     12  C   UNL     1     -17.374  12.963 -34.265  1.00  0.00     0.029 A 
ATOM     13  C   UNL     1     -17.790  13.718 -33.161  1.00  0.00     0.062 A 
ATOM     14  C   UNL     1     -16.928  13.931 -32.078  1.00  0.00     0.162 A 
ATOM     15  C   UNL     1     -16.092  12.388 -34.256  1.00  0.00     0.062 A 
ATOM     16  C   UNL     1     -15.640  13.377 -32.080  1.00  0.00     0.200 A 
ATOM     17  C   UNL     1     -15.221  12.590 -33.179  1.00  0.00     0.162 A 
BRANCH  14  18
ATOM     18  O   UNL     1     -17.345  14.698 -30.991  1.00  0.00    -0.504 OA
ATOM     19  H   UNL     1     -17.626  15.664 -31.099  1.00  0.00     0.293 HD
ENDBRANCH  14  18
BRANCH  16  20
ATOM     20  O   UNL     1     -14.816  13.626 -30.979  1.00  0.00    -0.502 OA
ATOM     21  H   UNL     1     -14.060  14.295 -30.977  1.00  0.00     0.293 HD
ENDBRANCH  16  20
BRANCH  17  22
ATOM     22  O   UNL     1     -13.962  11.990 -33.241  1.00  0.00    -0.504 OA
ATOM     23  H   UNL     1     -13.453  11.657 -32.435  1.00  0.00     0.293 HD
ENDBRANCH  17  22
ENDBRANCH   1  12
BRANCH   2  24
ATOM     24  O   UNL     1     -17.807  14.894 -36.381  1.00  0.00    -0.502 OA
ATOM     25  H   UNL     1     -17.611  15.379 -35.515  1.00  0.00     0.293 HD
ENDBRANCH   2  24
BRANCH   6  26
ATOM     26  O   UNL     1     -21.150  12.415 -39.706  1.00  0.00    -0.507 OA
ATOM     27  H   UNL     1     -21.516  12.007 -40.553  1.00  0.00     0.293 HD
ENDBRANCH   6  26
BRANCH   8  28
ATOM     28  O   UNL     1     -22.249   8.552 -37.105  1.00  0.00    -0.508 OA
ATOM     29  H   UNL     1     -22.519   8.011 -37.919  1.00  0.00     0.293 HD
ENDBRANCH   8  28
TORSDOF 7
ENDMDL
MODEL 4
REMARK VINA RESULT:    -7.157      1.563      6.952
REMARK INTER + INTRA:          -9.020
REMARK INTER:                  -8.681
REMARK INTRA:                  -0.339
REMARK UNBOUND:                -0.190
REMARK SMILES O=c1c(O)c(-c2cc(O)c(O)c(O)c2)oc2cc(O)cc(O)c12
REMARK SMILES IDX 5 1 3 2 2 3 1 4 23 5 21 6 20 7 18 8 17 9 16 10 15 11 6 12
REMARK SMILES IDX 7 13 8 14 14 15 10 16 12 17 9 18 11 20 13 22 4 24 22 26
REMARK SMILES IDX 19 28
REMARK H PARENT 9 19 11 21 13 23 4 25 22 27 19 29
REMARK Flexibility Score: inf
ROOT
ATOM      1  C   UNL     1     -19.244  12.056 -35.288  1.00  0.00     0.180 A 
ATOM      2  C   UNL     1     -19.817  12.971 -34.388  1.00  0.00     0.208 A 
ATOM      3  C   UNL     1     -19.025  13.500 -33.357  1.00  0.00     0.238 A 
ATOM      4  O   UNL     1     -19.529  14.360 -32.588  1.00  0.00    -0.285 OA
ATOM      5  C   UNL     1     -17.674  13.096 -33.228  1.00  0.00     0.111 A 
ATOM      6  C   UNL     1     -16.790  13.538 -32.198  1.00  0.00     0.134 A 
ATOM      7  C   UNL     1     -15.439  13.176 -32.244  1.00  0.00     0.093 A 
ATOM      8  C   UNL     1     -14.953  12.335 -33.245  1.00  0.00     0.123 A 
ATOM      9  C   UNL     1     -15.821  11.850 -34.224  1.00  0.00     0.094 A 
ATOM     10  C   UNL     1     -17.167  12.223 -34.225  1.00  0.00     0.146 A 
ATOM     11  O   UNL     1     -17.956  11.747 -35.180  1.00  0.00    -0.452 OA
ENDROOT
BRANCH   1  12
ATOM     12  C   UNL     1     -20.022  11.436 -36.384  1.00  0.00     0.029 A 
ATOM     13  C   UNL     1     -20.845  10.336 -36.109  1.00  0.00     0.062 A 
ATOM     14  C   UNL     1     -21.608   9.745 -37.125  1.00  0.00     0.162 A 
ATOM     15  C   UNL     1     -20.000  11.964 -37.686  1.00  0.00     0.062 A 
ATOM     16  C   UNL     1     -21.567  10.258 -38.429  1.00  0.00     0.200 A 
ATOM     17  C   UNL     1     -20.759  11.385 -38.710  1.00  0.00     0.162 A 
BRANCH  14  18
ATOM     18  O   UNL     1     -22.411   8.640 -36.844  1.00  0.00    -0.504 OA
ATOM     19  H   UNL     1     -23.274   8.730 -36.323  1.00  0.00     0.293 HD
ENDBRANCH  14  18
BRANCH  16  20
ATOM     20  O   UNL     1     -22.340   9.627 -39.407  1.00  0.00    -0.502 OA
ATOM     21  H   UNL     1     -22.002   8.887 -40.006  1.00  0.00     0.293 HD
ENDBRANCH  16  20
BRANCH  17  22
ATOM     22  O   UNL     1     -20.685  11.963 -39.979  1.00  0.00    -0.504 OA
ATOM     23  H   UNL     1     -21.458  12.422 -40.438  1.00  0.00     0.293 HD
ENDBRANCH  17  22
ENDBRANCH   1  12
BRANCH   2  24
ATOM     24  O   UNL     1     -21.147  13.373 -34.546  1.00  0.00    -0.502 OA
ATOM     25  H   UNL     1     -21.477  13.844 -35.379  1.00  0.00     0.293 HD
ENDBRANCH   2  24
BRANCH   6  26
ATOM     26  O   UNL     1     -17.193  14.306 -31.100  1.00  0.00    -0.507 OA
ATOM     27  H   UNL     1     -16.580  14.887 -30.549  1.00  0.00     0.293 HD
ENDBRANCH   6  26
BRANCH   8  28
ATOM     28  O   UNL     1     -13.606  11.982 -33.252  1.00  0.00    -0.508 OA
ATOM     29  H   UNL     1     -13.268  11.191 -33.788  1.00  0.00     0.293 HD
ENDBRANCH   8  28
TORSDOF 7
ENDMDL
MODEL 5
REMARK VINA RESULT:    -7.005      8.103      9.492
REMARK INTER + INTRA:          -8.833
REMARK INTER:                  -8.719
REMARK INTRA:                  -0.115
REMARK UNBOUND:                -0.190
REMARK SMILES O=c1c(O)c(-c2cc(O)c(O)c(O)c2)oc2cc(O)cc(O)c12
REMARK SMILES IDX 5 1 3 2 2 3 1 4 23 5 21 6 20 7 18 8 17 9 16 10 15 11 6 12
REMARK SMILES IDX 7 13 8 14 14 15 10 16 12 17 9 18 11 20 13 22 4 24 22 26
REMARK SMILES IDX 19 28
REMARK H PARENT 9 19 11 21 13 23 4 25 22 27 19 29
REMARK Flexibility Score: inf
ROOT
ATOM      1  C   UNL     1     -24.892  17.066 -39.166  1.00  0.00     0.180 A 
ATOM      2  C   UNL     1     -25.998  17.024 -38.298  1.00  0.00     0.208 A 
ATOM      3  C   UNL     1     -26.589  15.785 -38.007  1.00  0.00     0.238 A 
ATOM      4  O   UNL     1     -27.544  15.749 -37.188  1.00  0.00    -0.285 OA
ATOM      5  C   UNL     1     -26.079  14.604 -38.599  1.00  0.00     0.111 A 
ATOM      6  C   UNL     1     -26.625  13.300 -38.406  1.00  0.00     0.134 A 
ATOM      7  C   UNL     1     -25.960  12.187 -38.936  1.00  0.00     0.093 A 
ATOM      8  C   UNL     1     -24.807  12.337 -39.706  1.00  0.00     0.123 A 
ATOM      9  C   UNL     1     -24.298  13.613 -39.950  1.00  0.00     0.094 A 
ATOM     10  C   UNL     1     -24.919  14.739 -39.405  1.00  0.00     0.146 A 
ATOM     11  O   UNL     1     -24.396  15.934 -39.653  1.00  0.00    -0.452 OA
ENDROOT
BRANCH   1  12
ATOM     12  C   UNL     1     -24.231  18.337 -39.539  1.00  0.00     0.029 A 
ATOM     13  C   UNL     1     -24.197  18.727 -40.885  1.00  0.00     0.062 A 
ATOM     14  C   UNL     1     -23.596  19.935 -41.262  1.00  0.00     0.162 A 
ATOM     15  C   UNL     1     -23.687  19.192 -38.566  1.00  0.00     0.062 A 
ATOM     16  C   UNL     1     -23.033  20.777 -40.292  1.00  0.00     0.200 A 
ATOM     17  C   UNL     1     -23.086  20.403 -38.928  1.00  0.00     0.162 A 
BRANCH  14  18
ATOM     18  O   UNL     1     -23.554  20.306 -42.604  1.00  0.00    -0.504 OA
ATOM     19  H   UNL     1     -24.030  21.134 -42.942  1.00  0.00     0.293 HD
ENDBRANCH  14  18
BRANCH  16  20
ATOM     20  O   UNL     1     -22.438  21.967 -40.721  1.00  0.00    -0.502 OA
ATOM     21  H   UNL     1     -21.700  22.015 -41.408  1.00  0.00     0.293 HD
ENDBRANCH  16  20
BRANCH  17  22
ATOM     22  O   UNL     1     -22.565  21.200 -37.907  1.00  0.00    -0.504 OA
ATOM     23  H   UNL     1     -22.472  22.204 -37.964  1.00  0.00     0.293 HD
ENDBRANCH  17  22
ENDBRANCH   1  12
BRANCH   2  24
ATOM     24  O   UNL     1     -26.472  18.199 -37.708  1.00  0.00    -0.502 OA
ATOM     25  H   UNL     1     -26.312  18.421 -36.733  1.00  0.00     0.293 HD
ENDBRANCH   2  24
BRANCH   6  26
ATOM     26  O   UNL     1     -27.823  13.047 -37.731  1.00  0.00    -0.507 OA
ATOM     27  H   UNL     1     -28.033  13.360 -36.795  1.00  0.00     0.293 HD
ENDBRANCH   6  26
BRANCH   8  28
ATOM     28  O   UNL     1     -24.180  11.209 -40.231  1.00  0.00    -0.508 OA
ATOM     29  H   UNL     1     -24.713  10.442 -40.624  1.00  0.00     0.293 HD
ENDBRANCH   8  28
TORSDOF 7
ENDMDL
MODEL 6
REMARK VINA RESULT:    -6.943      5.813      8.614
REMARK INTER + INTRA:          -8.757
REMARK INTER:                  -8.396
REMARK INTRA:                  -0.361
REMARK UNBOUND:                -0.190
REMARK SMILES O=c1c(O)c(-c2cc(O)c(O)c(O)c2)oc2cc(O)cc(O)c12
REMARK SMILES IDX 5 1 3 2 2 3 1 4 23 5 21 6 20 7 18 8 17 9 16 10 15 11 6 12
REMARK SMILES IDX 7 13 8 14 14 15 10 16 12 17 9 18 11 20 13 22 4 24 22 26
REMARK SMILES IDX 19 28
REMARK H PARENT 9 19 11 21 13 23 4 25 22 27 19 29
REMARK Flexibility Score: inf
ROOT
ATOM      1  C   UNL     1     -23.722  15.196 -38.693  1.00  0.00     0.180 A 
ATOM      2  C   UNL     1     -24.128  15.531 -37.389  1.00  0.00     0.208 A 
ATOM      3  C   UNL     1     -24.568  16.838 -37.127  1.00  0.00     0.238 A 
ATOM      4  O   UNL     1     -24.981  17.116 -35.971  1.00  0.00    -0.285 OA
ATOM      5  C   UNL     1     -24.583  17.798 -38.167  1.00  0.00     0.111 A 
ATOM      6  C   UNL     1     -24.972  19.162 -38.006  1.00  0.00     0.134 A 
ATOM      7  C   UNL     1     -25.073  19.990 -39.130  1.00  0.00     0.093 A 
ATOM      8  C   UNL     1     -24.737  19.522 -40.400  1.00  0.00     0.123 A 
ATOM      9  C   UNL     1     -24.299  18.207 -40.561  1.00  0.00     0.094 A 
ATOM     10  C   UNL     1     -24.222  17.348 -39.463  1.00  0.00     0.146 A 
ATOM     11  O   UNL     1     -23.810  16.101 -39.661  1.00  0.00    -0.452 OA
ENDROOT
BRANCH   1  12
ATOM     12  C   UNL     1     -23.222  13.846 -39.040  1.00  0.00     0.029 A 
ATOM     13  C   UNL     1     -24.091  12.922 -39.636  1.00  0.00     0.062 A 
ATOM     14  C   UNL     1     -23.637  11.646 -39.993  1.00  0.00     0.162 A 
ATOM     15  C   UNL     1     -21.879  13.490 -38.838  1.00  0.00     0.062 A 
ATOM     16  C   UNL     1     -22.301  11.282 -39.770  1.00  0.00     0.200 A 
ATOM     17  C   UNL     1     -21.411  12.219 -39.193  1.00  0.00     0.162 A 
BRANCH  14  18
ATOM     18  O   UNL     1     -24.512  10.727 -40.571  1.00  0.00    -0.504 OA
ATOM     19  H   UNL     1     -24.780   9.876 -40.093  1.00  0.00     0.293 HD
ENDBRANCH  14  18
BRANCH  16  20
ATOM     20  O   UNL     1     -21.901   9.995 -40.137  1.00  0.00    -0.502 OA
ATOM     21  H   UNL     1     -22.061   9.590 -41.047  1.00  0.00     0.293 HD
ENDBRANCH  16  20
BRANCH  17  22
ATOM     22  O   UNL     1     -20.063  11.936 -38.961  1.00  0.00    -0.504 OA
ATOM     23  H   UNL     1     -19.732  11.313 -38.238  1.00  0.00     0.293 HD
ENDBRANCH  17  22
ENDBRANCH   1  12
BRANCH   2  24
ATOM     24  O   UNL     1     -24.126  14.562 -36.382  1.00  0.00    -0.502 OA
ATOM     25  H   UNL     1     -24.978  14.148 -36.023  1.00  0.00     0.293 HD
ENDBRANCH   2  24
BRANCH   6  26
ATOM     26  O   UNL     1     -25.241  19.756 -36.768  1.00  0.00    -0.507 OA
ATOM     27  H   UNL     1     -25.678  19.288 -35.989  1.00  0.00     0.293 HD
ENDBRANCH   6  26
BRANCH   8  28
ATOM     28  O   UNL     1     -24.834  20.378 -41.495  1.00  0.00    -0.508 OA
ATOM     29  H   UNL     1     -25.733  20.693 -41.843  1.00  0.00     0.293 HD
ENDBRANCH   8  28
TORSDOF 7
ENDMDL
MODEL 7
REMARK VINA RESULT:    -6.899      5.874      8.699
REMARK INTER + INTRA:          -8.703
REMARK INTER:                  -8.363
REMARK INTRA:                  -0.339
REMARK UNBOUND:                -0.190
REMARK SMILES O=c1c(O)c(-c2cc(O)c(O)c(O)c2)oc2cc(O)cc(O)c12
REMARK SMILES IDX 5 1 3 2 2 3 1 4 23 5 21 6 20 7 18 8 17 9 16 10 15 11 6 12
REMARK SMILES IDX 7 13 8 14 14 15 10 16 12 17 9 18 11 20 13 22 4 24 22 26
REMARK SMILES IDX 19 28
REMARK H PARENT 9 19 11 21 13 23 4 25 22 27 19 29
REMARK Flexibility Score: inf
ROOT
ATOM      1  C   UNL     1     -23.809  15.209 -38.766  1.00  0.00     0.180 A 
ATOM      2  C   UNL     1     -24.207  15.523 -37.455  1.00  0.00     0.208 A 
ATOM      3  C   UNL     1     -24.631  16.830 -37.167  1.00  0.00     0.238 A 
ATOM      4  O   UNL     1     -25.038  17.091 -36.004  1.00  0.00    -0.285 OA
ATOM      5  C   UNL     1     -24.635  17.811 -38.188  1.00  0.00     0.111 A 
ATOM      6  C   UNL     1     -25.007  19.176 -37.999  1.00  0.00     0.134 A 
ATOM      7  C   UNL     1     -25.100  20.027 -39.107  1.00  0.00     0.093 A 
ATOM      8  C   UNL     1     -24.772  19.580 -40.387  1.00  0.00     0.123 A 
ATOM      9  C   UNL     1     -24.350  18.263 -40.574  1.00  0.00     0.094 A 
ATOM     10  C   UNL     1     -24.282  17.381 -39.493  1.00  0.00     0.146 A 
ATOM     11  O   UNL     1     -23.887  16.134 -39.717  1.00  0.00    -0.452 OA
ENDROOT
BRANCH   1  12
ATOM     12  C   UNL     1     -23.326  13.860 -39.141  1.00  0.00     0.029 A 
ATOM     13  C   UNL     1     -21.998  13.503 -38.870  1.00  0.00     0.062 A 
ATOM     14  C   UNL     1     -21.523  12.226 -39.196  1.00  0.00     0.162 A 
ATOM     15  C   UNL     1     -24.188  12.907 -39.709  1.00  0.00     0.062 A 
ATOM     16  C   UNL     1     -22.378  11.283 -39.785  1.00  0.00     0.200 A 
ATOM     17  C   UNL     1     -23.727  11.626 -40.036  1.00  0.00     0.162 A 
BRANCH  14  18
ATOM     18  O   UNL     1     -20.196  11.886 -38.938  1.00  0.00    -0.504 OA
ATOM     19  H   UNL     1     -19.778  12.032 -38.028  1.00  0.00     0.293 HD
ENDBRANCH  14  18
BRANCH  16  20
ATOM     20  O   UNL     1     -21.852  10.026 -40.098  1.00  0.00    -0.502 OA
ATOM     21  H   UNL     1     -21.156   9.866 -40.811  1.00  0.00     0.293 HD
ENDBRANCH  16  20
BRANCH  17  22
ATOM     22  O   UNL     1     -24.641  10.733 -40.600  1.00  0.00    -0.504 OA
ATOM     23  H   UNL     1     -24.381   9.865 -41.047  1.00  0.00     0.293 HD
ENDBRANCH  17  22
ENDBRANCH   1  12
BRANCH   2  24
ATOM     24  O   UNL     1     -24.216  14.535 -36.467  1.00  0.00    -0.502 OA
ATOM     25  H   UNL     1     -25.073  14.137 -36.103  1.00  0.00     0.293 HD
ENDBRANCH   2  24
BRANCH   6  26
ATOM     26  O   UNL     1     -25.266  19.749 -36.750  1.00  0.00    -0.507 OA
ATOM     27  H   UNL     1     -25.177  20.731 -36.538  1.00  0.00     0.293 HD
ENDBRANCH   6  26
BRANCH   8  28
ATOM     28  O   UNL     1     -24.861  20.458 -41.465  1.00  0.00    -0.508 OA
ATOM     29  H   UNL     1     -24.180  21.195 -41.605  1.00  0.00     0.293 HD
ENDBRANCH   8  28
TORSDOF 7
ENDMDL
MODEL 8
REMARK VINA RESULT:    -6.872      8.056      9.441
REMARK INTER + INTRA:          -8.669
REMARK INTER:                  -8.316
REMARK INTRA:                  -0.353
REMARK UNBOUND:                -0.190
REMARK SMILES O=c1c(O)c(-c2cc(O)c(O)c(O)c2)oc2cc(O)cc(O)c12
REMARK SMILES IDX 5 1 3 2 2 3 1 4 23 5 21 6 20 7 18 8 17 9 16 10 15 11 6 12
REMARK SMILES IDX 7 13 8 14 14 15 10 16 12 17 9 18 11 20 13 22 4 24 22 26
REMARK SMILES IDX 19 28
REMARK H PARENT 9 19 11 21 13 23 4 25 22 27 19 29
REMARK Flexibility Score: inf
ROOT
ATOM      1  C   UNL     1     -24.449  17.085 -39.496  1.00  0.00     0.180 A 
ATOM      2  C   UNL     1     -25.459  17.292 -38.539  1.00  0.00     0.208 A 
ATOM      3  C   UNL     1     -26.196  16.190 -38.078  1.00  0.00     0.238 A 
ATOM      4  O   UNL     1     -27.061  16.374 -37.182  1.00  0.00    -0.285 OA
ATOM      5  C   UNL     1     -25.926  14.897 -38.589  1.00  0.00     0.111 A 
ATOM      6  C   UNL     1     -26.637  13.715 -38.222  1.00  0.00     0.134 A 
ATOM      7  C   UNL     1     -26.200  12.471 -38.691  1.00  0.00     0.093 A 
ATOM      8  C   UNL     1     -25.118  12.372 -39.566  1.00  0.00     0.123 A 
ATOM      9  C   UNL     1     -24.452  13.527 -39.978  1.00  0.00     0.094 A 
ATOM     10  C   UNL     1     -24.843  14.779 -39.498  1.00  0.00     0.146 A 
ATOM     11  O   UNL     1     -24.176  15.851 -39.907  1.00  0.00    -0.452 OA
ENDROOT
BRANCH   1  12
ATOM     12  C   UNL     1     -23.647  18.200 -40.048  1.00  0.00     0.029 A 
ATOM     13  C   UNL     1     -22.351  18.423 -39.563  1.00  0.00     0.062 A 
ATOM     14  C   UNL     1     -21.565  19.459 -40.084  1.00  0.00     0.162 A 
ATOM     15  C   UNL     1     -24.134  19.005 -41.091  1.00  0.00     0.062 A 
ATOM     16  C   UNL     1     -22.061  20.277 -41.110  1.00  0.00     0.200 A 
ATOM     17  C   UNL     1     -23.358  20.041 -41.623  1.00  0.00     0.162 A 
BRANCH  14  18
ATOM     18  O   UNL     1     -20.283  19.684 -39.584  1.00  0.00    -0.504 OA
ATOM     19  H   UNL     1     -19.971  20.610 -39.320  1.00  0.00     0.293 HD
ENDBRANCH  14  18
BRANCH  16  20
ATOM     20  O   UNL     1     -21.239  21.301 -41.588  1.00  0.00    -0.502 OA
ATOM     21  H   UNL     1     -21.497  22.277 -41.596  1.00  0.00     0.293 HD
ENDBRANCH  16  20
BRANCH  17  22
ATOM     22  O   UNL     1     -23.910  20.801 -42.657  1.00  0.00    -0.504 OA
ATOM     23  H   UNL     1     -24.244  21.747 -42.548  1.00  0.00     0.293 HD
ENDBRANCH  17  22
ENDBRANCH   1  12
BRANCH   2  24
ATOM     24  O   UNL     1     -25.694  18.573 -38.032  1.00  0.00    -0.502 OA
ATOM     25  H   UNL     1     -26.443  19.162 -38.372  1.00  0.00     0.293 HD
ENDBRANCH   2  24
BRANCH   6  26
ATOM     26  O   UNL     1     -27.789  13.713 -37.427  1.00  0.00    -0.507 OA
ATOM     27  H   UNL     1     -27.803  13.897 -36.436  1.00  0.00     0.293 HD
ENDBRANCH   6  26
BRANCH   8  28
ATOM     28  O   UNL     1     -24.719  11.119 -40.026  1.00  0.00    -0.508 OA
ATOM     29  H   UNL     1     -24.422  10.390 -39.387  1.00  0.00     0.293 HD
ENDBRANCH   8  28
TORSDOF 7
ENDMDL
MODEL 9
REMARK VINA RESULT:    -6.770      2.236      7.185
REMARK INTER + INTRA:          -8.544
REMARK INTER:                  -8.261
REMARK INTRA:                  -0.283
REMARK UNBOUND:                -0.190
REMARK SMILES O=c1c(O)c(-c2cc(O)c(O)c(O)c2)oc2cc(O)cc(O)c12
REMARK SMILES IDX 5 1 3 2 2 3 1 4 23 5 21 6 20 7 18 8 17 9 16 10 15 11 6 12
REMARK SMILES IDX 7 13 8 14 14 15 10 16 12 17 9 18 11 20 13 22 4 24 22 26
REMARK SMILES IDX 19 28
REMARK H PARENT 9 19 11 21 13 23 4 25 22 27 19 29
REMARK Flexibility Score: inf
ROOT
ATOM      1  C   UNL     1     -18.649  12.882 -35.329  1.00  0.00     0.180 A 
ATOM      2  C   UNL     1     -18.323  14.014 -36.097  1.00  0.00     0.208 A 
ATOM      3  C   UNL     1     -17.409  14.946 -35.582  1.00  0.00     0.238 A 
ATOM      4  O   UNL     1     -17.080  15.928 -36.298  1.00  0.00    -0.285 OA
ATOM      5  C   UNL     1     -16.843  14.744 -34.301  1.00  0.00     0.111 A 
ATOM      6  C   UNL     1     -15.935  15.644 -33.664  1.00  0.00     0.134 A 
ATOM      7  C   UNL     1     -15.337  15.279 -32.452  1.00  0.00     0.093 A 
ATOM      8  C   UNL     1     -15.662  14.079 -31.821  1.00  0.00     0.123 A 
ATOM      9  C   UNL     1     -16.592  13.219 -32.405  1.00  0.00     0.094 A 
ATOM     10  C   UNL     1     -17.179  13.538 -33.632  1.00  0.00     0.146 A 
ATOM     11  O   UNL     1     -18.051  12.687 -34.159  1.00  0.00    -0.452 OA
ENDROOT
BRANCH   1  12
ATOM     12  C   UNL     1     -19.624  11.868 -35.794  1.00  0.00     0.029 A 
ATOM     13  C   UNL     1     -19.176  10.581 -36.121  1.00  0.00     0.062 A 
ATOM     14  C   UNL     1     -20.081   9.599 -36.544  1.00  0.00     0.162 A 
ATOM     15  C   UNL     1     -20.998  12.151 -35.858  1.00  0.00     0.062 A 
ATOM     16  C   UNL     1     -21.451   9.889 -36.630  1.00  0.00     0.200 A 
ATOM     17  C   UNL     1     -21.914  11.178 -36.275  1.00  0.00     0.162 A 
BRANCH  14  18
ATOM     18  O   UNL     1     -19.625   8.326 -36.883  1.00  0.00    -0.504 OA
ATOM     19  H   UNL     1     -19.284   7.680 -36.183  1.00  0.00     0.293 HD
ENDBRANCH  14  18
BRANCH  16  20
ATOM     20  O   UNL     1     -22.310   8.876 -37.064  1.00  0.00    -0.502 OA
ATOM     21  H   UNL     1     -23.309   8.985 -37.163  1.00  0.00     0.293 HD
ENDBRANCH  16  20
BRANCH  17  22
ATOM     22  O   UNL     1     -23.264  11.533 -36.316  1.00  0.00    -0.504 OA
ATOM     23  H   UNL     1     -23.867  11.555 -35.506  1.00  0.00     0.293 HD
ENDBRANCH  17  22
ENDBRANCH   1  12
BRANCH   2  24
ATOM     24  O   UNL     1     -18.877  14.183 -37.369  1.00  0.00    -0.502 OA
ATOM     25  H   UNL     1     -19.858  14.388 -37.512  1.00  0.00     0.293 HD
ENDBRANCH   2  24
BRANCH   6  26
ATOM     26  O   UNL     1     -15.612  16.910 -34.163  1.00  0.00    -0.507 OA
ATOM     27  H   UNL     1     -14.763  17.411 -33.953  1.00  0.00     0.293 HD
ENDBRANCH   6  26
BRANCH   8  28
ATOM     28  O   UNL     1     -15.060  13.755 -30.608  1.00  0.00    -0.508 OA
ATOM     29  H   UNL     1     -14.264  14.276 -30.255  1.00  0.00     0.293 HD
ENDBRANCH   8  28
TORSDOF 7
ENDMDL
