MODEL 1
REMARK VINA RESULT:    -5.119      0.000      0.000
REMARK INTER + INTRA:          -5.119
REMARK INTER:                  -5.119
REMARK INTRA:                   0.000
REMARK UNBOUND:                 0.000
REMARK SMILES c1ccc2ccccc2c1
REMARK SMILES IDX 2 1 1 2 10 3 9 4 8 5 7 6 6 7 5 8 4 9 3 10
REMARK H PARENT
REMARK Flexibility Score: inf
ROOT
ATOM      1  C   UNL     1       3.562  -7.172  25.279  1.00  0.00     0.001 A 
ATOM      2  C   UNL     1       2.428  -7.125  26.094  1.00  0.00     0.001 A 
ATOM      3  C   UNL     1       1.352  -6.298  25.758  1.00  0.00     0.009 A 
ATOM      4  C   UNL     1       1.408  -5.509  24.598  1.00  0.00    -0.018 A 
ATOM      5  C   UNL     1       0.335  -4.674  24.246  1.00  0.00     0.009 A 
ATOM      6  C   UNL     1       0.403  -3.894  23.089  1.00  0.00     0.001 A 
ATOM      7  C   UNL     1       1.538  -3.941  22.275  1.00  0.00     0.001 A 
ATOM      8  C   UNL     1       2.613  -4.768  22.611  1.00  0.00     0.009 A 
ATOM      9  C   UNL     1       2.558  -5.557  23.771  1.00  0.00    -0.018 A 
ATOM     10  C   UNL     1       3.631  -6.392  24.122  1.00  0.00     0.009 A 
ENDROOT
TORSDOF 0
ENDMDL
MODEL 2
REMARK VINA RESULT:    -5.114      0.052      2.082
REMARK INTER + INTRA:          -5.114
REMARK INTER:                  -5.114
REMARK INTRA:                   0.000
REMARK UNBOUND:                 0.000
REMARK SMILES c1ccc2ccccc2c1
REMARK SMILES IDX 2 1 1 2 10 3 9 4 8 5 7 6 6 7 5 8 4 9 3 10
REMARK H PARENT
REMARK Flexibility Score: inf
ROOT
ATOM      1  C   UNL     1       2.479  -7.133  26.086  1.00  0.00     0.001 A 
ATOM      2  C   UNL     1       3.606  -7.155  25.260  1.00  0.00     0.001 A 
ATOM      3  C   UNL     1       3.656  -6.356  24.114  1.00  0.00     0.009 A 
ATOM      4  C   UNL     1       2.571  -5.527  23.787  1.00  0.00    -0.018 A 
ATOM      5  C   UNL     1       2.607  -4.719  22.640  1.00  0.00     0.009 A 
ATOM      6  C   UNL     1       1.520  -3.898  22.326  1.00  0.00     0.001 A 
ATOM      7  C   UNL     1       0.393  -3.876  23.151  1.00  0.00     0.001 A 
ATOM      8  C   UNL     1       0.343  -4.675  24.297  1.00  0.00     0.009 A 
ATOM      9  C   UNL     1       1.428  -5.504  24.624  1.00  0.00    -0.018 A 
ATOM     10  C   UNL     1       1.392  -6.312  25.772  1.00  0.00     0.009 A 
ENDROOT
TORSDOF 0
ENDMDL
MODEL 3
REMARK VINA RESULT:    -5.108      0.057      3.436
REMARK INTER + INTRA:          -5.108
REMARK INTER:                  -5.108
REMARK INTRA:                   0.000
REMARK UNBOUND:                 0.000
REMARK SMILES c1ccc2ccccc2c1
REMARK SMILES IDX 2 1 1 2 10 3 9 4 8 5 7 6 6 7 5 8 4 9 3 10
REMARK H PARENT
REMARK Flexibility Score: inf
ROOT
ATOM      1  C   UNL     1       1.456  -3.951  22.289  1.00  0.00     0.001 A 
ATOM      2  C   UNL     1       0.326  -3.927  23.111  1.00  0.00     0.001 A 
ATOM      3  C   UNL     1       0.282  -4.704  24.272  1.00  0.00     0.009 A 
ATOM      4  C   UNL     1       1.375  -5.514  24.618  1.00  0.00    -0.018 A 
ATOM      5  C   UNL     1       1.346  -6.300  25.781  1.00  0.00     0.009 A 
ATOM      6  C   UNL     1       2.441  -7.102  26.113  1.00  0.00     0.001 A 
ATOM      7  C   UNL     1       3.571  -7.126  25.292  1.00  0.00     0.001 A 
ATOM      8  C   UNL     1       3.615  -6.348  24.131  1.00  0.00     0.009 A 
ATOM      9  C   UNL     1       2.522  -5.538  23.785  1.00  0.00    -0.018 A 
ATOM     10  C   UNL     1       2.551  -4.753  22.622  1.00  0.00     0.009 A 
ENDROOT
TORSDOF 0
ENDMDL
MODEL 4
REMARK VINA RESULT:    -5.064      0.118      4.017
REMARK INTER + INTRA:          -5.064
REMARK INTER:                  -5.064
REMARK INTRA:                   0.000
REMARK UNBOUND:                 0.000
REMARK SMILES c1ccc2ccccc2c1
REMARK SMILES IDX 2 1 1 2 10 3 9 4 8 5 7 6 6 7 5 8 4 9 3 10
REMARK H PARENT
REMARK Flexibility Score: inf
ROOT
ATOM      1  C   UNL     1       0.273  -4.015  23.161  1.00  0.00     0.001 A 
ATOM      2  C   UNL     1       1.398  -3.990  22.333  1.00  0.00     0.001 A 
ATOM      3  C   UNL     1       2.522  -4.760  22.646  1.00  0.00     0.009 A 
ATOM      4  C   UNL     1       2.525  -5.564  23.797  1.00  0.00    -0.018 A 
ATOM      5  C   UNL     1       3.645  -6.344  24.125  1.00  0.00     0.009 A 
ATOM      6  C   UNL     1       3.635  -7.139  25.274  1.00  0.00     0.001 A 
ATOM      7  C   UNL     1       2.510  -7.164  26.102  1.00  0.00     0.001 A 
ATOM      8  C   UNL     1       1.386  -6.394  25.789  1.00  0.00     0.009 A 
ATOM      9  C   UNL     1       1.383  -5.590  24.638  1.00  0.00    -0.018 A 
ATOM     10  C   UNL     1       0.263  -4.811  24.310  1.00  0.00     0.009 A 
ENDROOT
TORSDOF 0
ENDMDL
MODEL 5
REMARK VINA RESULT:    -4.814      1.063      1.907
REMARK INTER + INTRA:          -4.814
REMARK INTER:                  -4.814
REMARK INTRA:                   0.000
REMARK UNBOUND:                 0.000
REMARK SMILES c1ccc2ccccc2c1
REMARK SMILES IDX 2 1 1 2 10 3 9 4 8 5 7 6 6 7 5 8 4 9 3 10
REMARK H PARENT
REMARK Flexibility Score: inf
ROOT
ATOM      1  C   UNL     1       2.405  -5.877  24.911  1.00  0.00     0.001 A 
ATOM      2  C   UNL     1       1.062  -5.582  25.160  1.00  0.00     0.001 A 
ATOM      3  C   UNL     1       0.306  -4.883  24.215  1.00  0.00     0.009 A 
ATOM      4  C   UNL     1       0.895  -4.471  23.010  1.00  0.00    -0.018 A 
ATOM      5  C   UNL     1       0.149  -3.768  22.050  1.00  0.00     0.009 A 
ATOM      6  C   UNL     1       0.747  -3.363  20.854  1.00  0.00     0.001 A 
ATOM      7  C   UNL     1       2.090  -3.658  20.605  1.00  0.00     0.001 A 
ATOM      8  C   UNL     1       2.846  -4.357  21.550  1.00  0.00     0.009 A 
ATOM      9  C   UNL     1       2.257  -4.769  22.755  1.00  0.00    -0.018 A 
ATOM     10  C   UNL     1       3.003  -5.472  23.714  1.00  0.00     0.009 A 
ENDROOT
TORSDOF 0
ENDMDL
MODEL 6
REMARK VINA RESULT:    -4.811      1.413      4.449
REMARK INTER + INTRA:          -4.811
REMARK INTER:                  -4.811
REMARK INTRA:                   0.000
REMARK UNBOUND:                 0.000
REMARK SMILES c1ccc2ccccc2c1
REMARK SMILES IDX 2 1 1 2 10 3 9 4 8 5 7 6 6 7 5 8 4 9 3 10
REMARK H PARENT
REMARK Flexibility Score: inf
ROOT
ATOM      1  C   UNL     1       0.987  -3.151  20.151  1.00  0.00     0.001 A 
ATOM      2  C   UNL     1       2.344  -3.478  20.087  1.00  0.00     0.001 A 
ATOM      3  C   UNL     1       2.966  -4.116  21.163  1.00  0.00     0.009 A 
ATOM      4  C   UNL     1       2.229  -4.432  22.315  1.00  0.00    -0.018 A 
ATOM      5  C   UNL     1       2.840  -5.074  23.404  1.00  0.00     0.009 A 
ATOM      6  C   UNL     1       2.095  -5.382  24.545  1.00  0.00     0.001 A 
ATOM      7  C   UNL     1       0.738  -5.055  24.609  1.00  0.00     0.001 A 
ATOM      8  C   UNL     1       0.115  -4.417  23.533  1.00  0.00     0.009 A 
ATOM      9  C   UNL     1       0.852  -4.101  22.381  1.00  0.00    -0.018 A 
ATOM     10  C   UNL     1       0.241  -3.459  21.292  1.00  0.00     0.009 A 
ENDROOT
TORSDOF 0
ENDMDL
MODEL 7
REMARK VINA RESULT:    -4.798      1.071      3.706
REMARK INTER + INTRA:          -4.798
REMARK INTER:                  -4.798
REMARK INTRA:                   0.000
REMARK UNBOUND:                 0.000
REMARK SMILES c1ccc2ccccc2c1
REMARK SMILES IDX 2 1 1 2 10 3 9 4 8 5 7 6 6 7 5 8 4 9 3 10
REMARK H PARENT
REMARK Flexibility Score: inf
ROOT
ATOM      1  C   UNL     1       2.225  -3.711  20.686  1.00  0.00     0.001 A 
ATOM      2  C   UNL     1       0.873  -3.405  20.863  1.00  0.00     0.001 A 
ATOM      3  C   UNL     1       0.215  -3.774  22.040  1.00  0.00     0.009 A 
ATOM      4  C   UNL     1       0.912  -4.456  23.051  1.00  0.00    -0.018 A 
ATOM      5  C   UNL     1       0.265  -4.832  24.239  1.00  0.00     0.009 A 
ATOM      6  C   UNL     1       0.970  -5.510  25.237  1.00  0.00     0.001 A 
ATOM      7  C   UNL     1       2.322  -5.816  25.059  1.00  0.00     0.001 A 
ATOM      8  C   UNL     1       2.979  -5.447  23.883  1.00  0.00     0.009 A 
ATOM      9  C   UNL     1       2.283  -4.765  22.872  1.00  0.00    -0.018 A 
ATOM     10  C   UNL     1       2.930  -4.389  21.684  1.00  0.00     0.009 A 
ENDROOT
TORSDOF 0
ENDMDL
MODEL 8
REMARK VINA RESULT:    -4.785      3.155      5.273
REMARK INTER + INTRA:          -4.785
REMARK INTER:                  -4.785
REMARK INTRA:                   0.000
REMARK UNBOUND:                 0.000
REMARK SMILES c1ccc2ccccc2c1
REMARK SMILES IDX 2 1 1 2 10 3 9 4 8 5 7 6 6 7 5 8 4 9 3 10
REMARK H PARENT
REMARK Flexibility Score: inf
ROOT
ATOM      1  C   UNL     1       2.193  -0.009  22.287  1.00  0.00     0.001 A 
ATOM      2  C   UNL     1       2.033  -0.324  20.935  1.00  0.00     0.001 A 
ATOM      3  C   UNL     1       1.417  -1.520  20.558  1.00  0.00     0.009 A 
ATOM      4  C   UNL     1       0.957  -2.413  21.538  1.00  0.00    -0.018 A 
ATOM      5  C   UNL     1       0.336  -3.619  21.176  1.00  0.00     0.009 A 
ATOM      6  C   UNL     1      -0.118  -4.499  22.162  1.00  0.00     0.001 A 
ATOM      7  C   UNL     1       0.043  -4.184  23.514  1.00  0.00     0.001 A 
ATOM      8  C   UNL     1       0.659  -2.987  23.890  1.00  0.00     0.009 A 
ATOM      9  C   UNL     1       1.119  -2.094  22.910  1.00  0.00    -0.018 A 
ATOM     10  C   UNL     1       1.740  -0.889  23.273  1.00  0.00     0.009 A 
ENDROOT
TORSDOF 0
ENDMDL
MODEL 9
REMARK VINA RESULT:    -4.769      3.137      4.398
REMARK INTER + INTRA:          -4.769
REMARK INTER:                  -4.769
REMARK INTRA:                   0.000
REMARK UNBOUND:                 0.000
REMARK SMILES c1ccc2ccccc2c1
REMARK SMILES IDX 2 1 1 2 10 3 9 4 8 5 7 6 6 7 5 8 4 9 3 10
REMARK H PARENT
REMARK Flexibility Score: inf
ROOT
ATOM      1  C   UNL     1      -0.084  -4.514  22.354  1.00  0.00     0.001 A 
ATOM      2  C   UNL     1       0.110  -4.046  23.657  1.00  0.00     0.001 A 
ATOM      3  C   UNL     1       0.722  -2.809  23.877  1.00  0.00     0.009 A 
ATOM      4  C   UNL     1       1.146  -2.031  22.789  1.00  0.00    -0.018 A 
ATOM      5  C   UNL     1       1.762  -0.786  22.995  1.00  0.00     0.009 A 
ATOM      6  C   UNL     1       2.180  -0.021  21.903  1.00  0.00     0.001 A 
ATOM      7  C   UNL     1       1.986  -0.489  20.601  1.00  0.00     0.001 A 
ATOM      8  C   UNL     1       1.374  -1.726  20.380  1.00  0.00     0.009 A 
ATOM      9  C   UNL     1       0.950  -2.504  21.468  1.00  0.00    -0.018 A 
ATOM     10  C   UNL     1       0.334  -3.749  21.262  1.00  0.00     0.009 A 
ENDROOT
TORSDOF 0
ENDMDL
