MODEL 1
REMARK VINA RESULT:    -6.821      0.000      0.000
REMARK INTER + INTRA:         -11.786
REMARK INTER:                 -10.410
REMARK INTRA:                  -1.376
REMARK UNBOUND:                -1.376
REMARK SMILES CC(=O)CCC=C(C)CCC=C(C)CCC=C(C)C
REMARK SMILES IDX 10 1 11 2 12 3 13 4 14 5 15 6 16 7 18 8 17 9 19 10 9 11 7 12
REMARK SMILES IDX 6 13 8 14 5 15 4 16 2 17 3 18 1 19
REMARK H PARENT
REMARK Flexibility Score: inf
ROOT
ATOM      1  C   UNL     1     120.717 180.013 125.582  1.00  0.00     0.032 C 
ENDROOT
BRANCH   1   2
ATOM      2  C   UNL     1     120.830 179.429 126.968  1.00  0.00    -0.028 C 
ATOM      3  C   UNL     1     121.999 179.104 127.565  1.00  0.00    -0.077 C 
ATOM      4  C   UNL     1     123.322 179.222 126.846  1.00  0.00     0.039 C 
BRANCH   3   5
ATOM      5  C   UNL     1     121.984 178.554 128.975  1.00  0.00     0.034 C 
BRANCH   5   6
ATOM      6  C   UNL     1     121.675 177.050 128.995  1.00  0.00     0.032 C 
BRANCH   6   7
ATOM      7  C   UNL     1     120.420 176.740 129.775  1.00  0.00    -0.028 C 
ATOM      8  C   UNL     1     118.067 176.139 130.133  1.00  0.00     0.039 C 
ATOM      9  C   UNL     1     119.221 176.463 129.221  1.00  0.00    -0.080 C 
ATOM     10  C   UNL     1     119.005 176.482 127.724  1.00  0.00     0.039 C 
ENDBRANCH   6   7
ENDBRANCH   5   6
ENDBRANCH   3   5
ENDBRANCH   1   2
BRANCH   1  11
ATOM     11  C   UNL     1     120.159 178.975 124.603  1.00  0.00     0.034 C 
BRANCH  11  12
ATOM     12  C   UNL     1     121.135 178.732 123.475  1.00  0.00    -0.077 C 
ATOM     13  C   UNL     1     122.159 177.867 123.668  1.00  0.00    -0.028 C 
ATOM     14  C   UNL     1     120.940 179.456 122.164  1.00  0.00     0.039 C 
BRANCH  13  15
ATOM     15  C   UNL     1     123.166 177.489 122.611  1.00  0.00     0.035 C 
BRANCH  15  16
ATOM     16  C   UNL     1     124.476 177.026 123.257  1.00  0.00     0.079 C 
BRANCH  16  17
ATOM     17  C   UNL     1     125.576 176.947 122.231  1.00  0.00     0.130 C 
ATOM     18  O   UNL     1     125.819 177.919 121.533  1.00  0.00    -0.300 OA
ATOM     19  C   UNL     1     126.391 175.700 122.054  1.00  0.00     0.087 C 
ENDBRANCH  16  17
ENDBRANCH  15  16
ENDBRANCH  13  15
ENDBRANCH  11  12
ENDBRANCH   1  11
TORSDOF 9
ENDMDL
MODEL 2
REMARK VINA RESULT:    -6.504      3.710      7.504
REMARK INTER + INTRA:         -11.302
REMARK INTER:                  -9.824
REMARK INTRA:                  -1.478
REMARK UNBOUND:                -1.376
REMARK SMILES CC(=O)CCC=C(C)CCC=C(C)CCC=C(C)C
REMARK SMILES IDX 10 1 11 2 12 3 13 4 14 5 15 6 16 7 18 8 17 9 19 10 9 11 7 12
REMARK SMILES IDX 6 13 8 14 5 15 4 16 2 17 3 18 1 19
REMARK H PARENT
REMARK Flexibility Score: inf
ROOT
ATOM      1  C   UNL     1     121.729 176.904 129.439  1.00  0.00     0.032 C 
ENDROOT
BRANCH   1   2
ATOM      2  C   UNL     1     121.079 178.032 128.677  1.00  0.00    -0.028 C 
ATOM      3  C   UNL     1     120.308 177.864 127.579  1.00  0.00    -0.077 C 
ATOM      4  C   UNL     1     120.095 176.506 126.953  1.00  0.00     0.039 C 
BRANCH   3   5
ATOM      5  C   UNL     1     119.683 179.075 126.920  1.00  0.00     0.034 C 
BRANCH   5   6
ATOM      6  C   UNL     1     120.717 179.886 126.125  1.00  0.00     0.032 C 
BRANCH   6   7
ATOM      7  C   UNL     1     120.390 179.931 124.651  1.00  0.00    -0.028 C 
ATOM      8  C   UNL     1     120.475 179.256 122.292  1.00  0.00     0.039 C 
ATOM      9  C   UNL     1     120.926 179.111 123.722  1.00  0.00    -0.080 C 
ATOM     10  C   UNL     1     121.966 178.072 124.073  1.00  0.00     0.039 C 
ENDBRANCH   6   7
ENDBRANCH   5   6
ENDBRANCH   3   5
ENDBRANCH   1   2
BRANCH   1  11
ATOM     11  C   UNL     1     120.930 176.577 130.705  1.00  0.00     0.034 C 
BRANCH  11  12
ATOM     12  C   UNL     1     119.841 175.573 130.400  1.00  0.00    -0.077 C 
ATOM     13  C   UNL     1     120.176 174.274 130.227  1.00  0.00    -0.028 C 
ATOM     14  C   UNL     1     118.411 176.049 130.302  1.00  0.00     0.039 C 
BRANCH  13  15
ATOM     15  C   UNL     1     119.185 173.164 129.978  1.00  0.00     0.035 C 
BRANCH  15  16
ATOM     16  C   UNL     1     119.707 171.839 130.543  1.00  0.00     0.079 C 
BRANCH  16  17
ATOM     17  C   UNL     1     120.067 170.891 129.429  1.00  0.00     0.130 C 
ATOM     18  O   UNL     1     119.685 171.126 128.293  1.00  0.00    -0.300 OA
ATOM     19  C   UNL     1     120.897 169.668 129.682  1.00  0.00     0.087 C 
ENDBRANCH  16  17
ENDBRANCH  15  16
ENDBRANCH  13  15
ENDBRANCH  11  12
ENDBRANCH   1  11
TORSDOF 9
ENDMDL
MODEL 3
REMARK VINA RESULT:    -6.489      3.129      5.444
REMARK INTER + INTRA:         -11.280
REMARK INTER:                  -9.107
REMARK INTRA:                  -2.172
REMARK UNBOUND:                -1.376
REMARK SMILES CC(=O)CCC=C(C)CCC=C(C)CCC=C(C)C
REMARK SMILES IDX 10 1 11 2 12 3 13 4 14 5 15 6 16 7 18 8 17 9 19 10 9 11 7 12
REMARK SMILES IDX 6 13 8 14 5 15 4 16 2 17 3 18 1 19
REMARK H PARENT
REMARK Flexibility Score: inf
ROOT
ATOM      1  C   UNL     1     121.121 177.173 130.079  1.00  0.00     0.032 C 
ENDROOT
BRANCH   1   2
ATOM      2  C   UNL     1     120.793 175.746 130.439  1.00  0.00    -0.028 C 
ATOM      3  C   UNL     1     119.569 175.186 130.297  1.00  0.00    -0.077 C 
ATOM      4  C   UNL     1     118.374 175.987 129.835  1.00  0.00     0.039 C 
BRANCH   3   5
ATOM      5  C   UNL     1     119.372 173.731 130.664  1.00  0.00     0.034 C 
BRANCH   5   6
ATOM      6  C   UNL     1     120.267 172.808 129.824  1.00  0.00     0.032 C 
BRANCH   6   7
ATOM      7  C   UNL     1     119.983 172.936 128.346  1.00  0.00    -0.028 C 
ATOM      8  C   UNL     1     120.469 173.352 125.975  1.00  0.00     0.039 C 
ATOM      9  C   UNL     1     120.895 173.302 127.420  1.00  0.00    -0.080 C 
ATOM     10  C   UNL     1     122.313 173.670 127.791  1.00  0.00     0.039 C 
ENDBRANCH   6   7
ENDBRANCH   5   6
ENDBRANCH   3   5
ENDBRANCH   1   2
BRANCH   1  11
ATOM     11  C   UNL     1     121.803 177.242 128.709  1.00  0.00     0.034 C 
BRANCH  11  12
ATOM     12  C   UNL     1     120.837 177.747 127.661  1.00  0.00    -0.077 C 
ATOM     13  C   UNL     1     120.508 179.060 127.650  1.00  0.00    -0.028 C 
ATOM     14  C   UNL     1     120.271 176.774 126.653  1.00  0.00     0.039 C 
BRANCH  13  15
ATOM     15  C   UNL     1     119.606 179.704 126.627  1.00  0.00     0.035 C 
BRANCH  15  16
ATOM     16  C   UNL     1     120.408 180.124 125.392  1.00  0.00     0.079 C 
BRANCH  16  17
ATOM     17  C   UNL     1     119.855 179.472 124.151  1.00  0.00     0.130 C 
ATOM     18  O   UNL     1     118.669 179.184 124.101  1.00  0.00    -0.300 OA
ATOM     19  C   UNL     1     120.727 179.177 122.968  1.00  0.00     0.087 C 
ENDBRANCH  16  17
ENDBRANCH  15  16
ENDBRANCH  13  15
ENDBRANCH  11  12
ENDBRANCH   1  11
TORSDOF 9
ENDMDL
MODEL 4
REMARK VINA RESULT:    -6.469      3.346      6.776
REMARK INTER + INTRA:         -11.249
REMARK INTER:                  -9.684
REMARK INTRA:                  -1.564
REMARK UNBOUND:                -1.376
REMARK SMILES CC(=O)CCC=C(C)CCC=C(C)CCC=C(C)C
REMARK SMILES IDX 10 1 11 2 12 3 13 4 14 5 15 6 16 7 18 8 17 9 19 10 9 11 7 12
REMARK SMILES IDX 6 13 8 14 5 15 4 16 2 17 3 18 1 19
REMARK H PARENT
REMARK Flexibility Score: inf
ROOT
ATOM      1  C   UNL     1     123.678 179.441 128.043  1.00  0.00     0.032 C 
ENDROOT
BRANCH   1   2
ATOM      2  C   UNL     1     123.122 179.000 126.712  1.00  0.00    -0.028 C 
ATOM      3  C   UNL     1     121.806 178.994 126.400  1.00  0.00    -0.077 C 
ATOM      4  C   UNL     1     120.744 179.356 127.413  1.00  0.00     0.039 C 
BRANCH   3   5
ATOM      5  C   UNL     1     121.373 178.560 125.016  1.00  0.00     0.034 C 
BRANCH   5   6
ATOM      6  C   UNL     1     120.544 179.644 124.314  1.00  0.00     0.032 C 
BRANCH   6   7
ATOM      7  C   UNL     1     119.374 179.061 123.557  1.00  0.00    -0.028 C 
ATOM      8  C   UNL     1     117.026 178.522 123.083  1.00  0.00     0.039 C 
ATOM      9  C   UNL     1     118.089 179.122 123.966  1.00  0.00    -0.080 C 
ATOM     10  C   UNL     1     117.694 179.759 125.279  1.00  0.00     0.039 C 
ENDBRANCH   6   7
ENDBRANCH   5   6
ENDBRANCH   3   5
ENDBRANCH   1   2
BRANCH   1  11
ATOM     11  C   UNL     1     123.978 178.229 128.930  1.00  0.00     0.034 C 
BRANCH  11  12
ATOM     12  C   UNL     1     122.889 178.045 129.963  1.00  0.00    -0.077 C 
ATOM     13  C   UNL     1     122.131 176.925 129.926  1.00  0.00    -0.028 C 
ATOM     14  C   UNL     1     122.681 179.115 131.009  1.00  0.00     0.039 C 
BRANCH  13  15
ATOM     15  C   UNL     1     121.055 176.590 130.928  1.00  0.00     0.035 C 
BRANCH  15  16
ATOM     16  C   UNL     1     120.352 175.283 130.547  1.00  0.00     0.079 C 
BRANCH  16  17
ATOM     17  C   UNL     1     119.578 175.449 129.265  1.00  0.00     0.130 C 
ATOM     18  O   UNL     1     119.712 174.629 128.371  1.00  0.00    -0.300 OA
ATOM     19  C   UNL     1     118.635 176.599 129.066  1.00  0.00     0.087 C 
ENDBRANCH  16  17
ENDBRANCH  15  16
ENDBRANCH  13  15
ENDBRANCH  11  12
ENDBRANCH   1  11
TORSDOF 9
ENDMDL
MODEL 5
REMARK VINA RESULT:    -6.442      1.910      2.268
REMARK INTER + INTRA:         -11.208
REMARK INTER:                  -9.314
REMARK INTRA:                  -1.894
REMARK UNBOUND:                -1.376
REMARK SMILES CC(=O)CCC=C(C)CCC=C(C)CCC=C(C)C
REMARK SMILES IDX 10 1 11 2 12 3 13 4 14 5 15 6 16 7 18 8 17 9 19 10 9 11 7 12
REMARK SMILES IDX 6 13 8 14 5 15 4 16 2 17 3 18 1 19
REMARK H PARENT
REMARK Flexibility Score: inf
ROOT
ATOM      1  C   UNL     1     121.621 179.062 126.701  1.00  0.00     0.032 C 
ENDROOT
BRANCH   1   2
ATOM      2  C   UNL     1     121.517 178.994 128.204  1.00  0.00    -0.028 C 
ATOM      3  C   UNL     1     122.579 178.958 129.040  1.00  0.00    -0.077 C 
ATOM      4  C   UNL     1     123.998 178.895 128.526  1.00  0.00     0.039 C 
BRANCH   3   5
ATOM      5  C   UNL     1     122.345 178.923 130.535  1.00  0.00     0.034 C 
BRANCH   5   6
ATOM      6  C   UNL     1     122.492 177.503 131.100  1.00  0.00     0.032 C 
BRANCH   6   7
ATOM      7  C   UNL     1     121.174 176.765 131.125  1.00  0.00    -0.028 C 
ATOM      8  C   UNL     1     119.481 175.131 130.424  1.00  0.00     0.039 C 
ATOM      9  C   UNL     1     120.819 175.801 130.249  1.00  0.00    -0.080 C 
ATOM     10  C   UNL     1     121.714 175.389 129.102  1.00  0.00     0.039 C 
ENDBRANCH   6   7
ENDBRANCH   5   6
ENDBRANCH   3   5
ENDBRANCH   1   2
BRANCH   1  11
ATOM     11  C   UNL     1     121.288 177.704 126.075  1.00  0.00     0.034 C 
BRANCH  11  12
ATOM     12  C   UNL     1     122.536 177.056 125.519  1.00  0.00    -0.077 C 
ATOM     13  C   UNL     1     123.542 177.844 125.074  1.00  0.00    -0.028 C 
ATOM     14  C   UNL     1     122.627 175.549 125.481  1.00  0.00     0.039 C 
BRANCH  13  15
ATOM     15  C   UNL     1     124.861 177.330 124.552  1.00  0.00     0.035 C 
BRANCH  15  16
ATOM     16  C   UNL     1     124.846 177.266 123.021  1.00  0.00     0.079 C 
BRANCH  16  17
ATOM     17  C   UNL     1     125.955 176.381 122.515  1.00  0.00     0.130 C 
ATOM     18  O   UNL     1     126.358 176.517 121.370  1.00  0.00    -0.300 OA
ATOM     19  C   UNL     1     126.585 175.340 123.392  1.00  0.00     0.087 C 
ENDBRANCH  16  17
ENDBRANCH  15  16
ENDBRANCH  13  15
ENDBRANCH  11  12
ENDBRANCH   1  11
TORSDOF 9
ENDMDL
MODEL 6
REMARK VINA RESULT:    -6.432      2.158      3.848
REMARK INTER + INTRA:         -11.193
REMARK INTER:                  -8.889
REMARK INTRA:                  -2.305
REMARK UNBOUND:                -1.376
REMARK SMILES CC(=O)CCC=C(C)CCC=C(C)CCC=C(C)C
REMARK SMILES IDX 10 1 11 2 12 3 13 4 14 5 15 6 16 7 18 8 17 9 19 10 9 11 7 12
REMARK SMILES IDX 6 13 8 14 5 15 4 16 2 17 3 18 1 19
REMARK H PARENT
REMARK Flexibility Score: inf
ROOT
ATOM      1  C   UNL     1     118.908 177.289 126.873  1.00  0.00     0.032 C 
ENDROOT
BRANCH   1   2
ATOM      2  C   UNL     1     118.818 176.782 128.291  1.00  0.00    -0.028 C 
ATOM      3  C   UNL     1     119.680 175.898 128.841  1.00  0.00    -0.077 C 
ATOM      4  C   UNL     1     120.788 175.258 128.037  1.00  0.00     0.039 C 
BRANCH   3   5
ATOM      5  C   UNL     1     119.503 175.490 130.287  1.00  0.00     0.034 C 
BRANCH   5   6
ATOM      6  C   UNL     1     120.757 175.792 131.121  1.00  0.00     0.032 C 
BRANCH   6   7
ATOM      7  C   UNL     1     121.144 177.251 131.051  1.00  0.00    -0.028 C 
ATOM      8  C   UNL     1     122.585 179.192 130.625  1.00  0.00     0.039 C 
ATOM      9  C   UNL     1     122.360 177.704 130.678  1.00  0.00    -0.080 C 
ATOM     10  C   UNL     1     123.493 176.766 130.328  1.00  0.00     0.039 C 
ENDBRANCH   6   7
ENDBRANCH   5   6
ENDBRANCH   3   5
ENDBRANCH   1   2
BRANCH   1  11
ATOM     11  C   UNL     1     118.941 178.820 126.848  1.00  0.00     0.034 C 
BRANCH  11  12
ATOM     12  C   UNL     1     120.288 179.314 126.371  1.00  0.00    -0.077 C 
ATOM     13  C   UNL     1     121.392 179.014 127.095  1.00  0.00    -0.028 C 
ATOM     14  C   UNL     1     120.365 180.125 125.099  1.00  0.00     0.039 C 
BRANCH  13  15
ATOM     15  C   UNL     1     122.798 179.392 126.702  1.00  0.00     0.035 C 
BRANCH  15  16
ATOM     16  C   UNL     1     123.722 178.172 126.770  1.00  0.00     0.079 C 
BRANCH  16  17
ATOM     17  C   UNL     1     123.954 177.603 125.395  1.00  0.00     0.130 C 
ATOM     18  O   UNL     1     124.984 177.875 124.797  1.00  0.00    -0.300 OA
ATOM     19  C   UNL     1     122.950 176.697 124.745  1.00  0.00     0.087 C 
ENDBRANCH  16  17
ENDBRANCH  15  16
ENDBRANCH  13  15
ENDBRANCH  11  12
ENDBRANCH   1  11
TORSDOF 9
ENDMDL
MODEL 7
REMARK VINA RESULT:    -6.429      2.500      6.757
REMARK INTER + INTRA:         -11.187
REMARK INTER:                  -9.459
REMARK INTRA:                  -1.729
REMARK UNBOUND:                -1.376
REMARK SMILES CC(=O)CCC=C(C)CCC=C(C)CCC=C(C)C
REMARK SMILES IDX 10 1 11 2 12 3 13 4 14 5 15 6 16 7 18 8 17 9 19 10 9 11 7 12
REMARK SMILES IDX 6 13 8 14 5 15 4 16 2 17 3 18 1 19
REMARK H PARENT
REMARK Flexibility Score: inf
ROOT
ATOM      1  C   UNL     1     123.945 178.043 126.602  1.00  0.00     0.032 C 
ENDROOT
BRANCH   1   2
ATOM      2  C   UNL     1     124.172 177.970 125.112  1.00  0.00    -0.028 C 
ATOM      3  C   UNL     1     123.533 177.110 124.286  1.00  0.00    -0.077 C 
ATOM      4  C   UNL     1     122.575 176.065 124.807  1.00  0.00     0.039 C 
BRANCH   3   5
ATOM      5  C   UNL     1     123.824 177.155 122.801  1.00  0.00     0.034 C 
BRANCH   5   6
ATOM      6  C   UNL     1     125.295 177.491 122.520  1.00  0.00     0.032 C 
BRANCH   6   7
ATOM      7  C   UNL     1     125.990 176.393 121.750  1.00  0.00    -0.028 C 
ATOM      8  C   UNL     1     127.214 174.292 121.410  1.00  0.00     0.039 C 
ATOM      9  C   UNL     1     126.591 175.324 122.314  1.00  0.00    -0.080 C 
ATOM     10  C   UNL     1     126.666 175.142 123.813  1.00  0.00     0.039 C 
ENDBRANCH   6   7
ENDBRANCH   5   6
ENDBRANCH   3   5
ENDBRANCH   1   2
BRANCH   1  11
ATOM     11  C   UNL     1     123.344 179.398 126.990  1.00  0.00     0.034 C 
BRANCH  11  12
ATOM     12  C   UNL     1     121.843 179.384 126.810  1.00  0.00    -0.077 C 
ATOM     13  C   UNL     1     121.308 179.973 125.715  1.00  0.00    -0.028 C 
ATOM     14  C   UNL     1     120.984 178.710 127.854  1.00  0.00     0.039 C 
BRANCH  13  15
ATOM     15  C   UNL     1     119.836 179.979 125.384  1.00  0.00     0.035 C 
BRANCH  15  16
ATOM     16  C   UNL     1     119.458 178.725 124.589  1.00  0.00     0.079 C 
BRANCH  16  17
ATOM     17  C   UNL     1     119.516 178.997 123.109  1.00  0.00     0.130 C 
ATOM     18  O   UNL     1     118.490 178.947 122.447  1.00  0.00    -0.300 OA
ATOM     19  C   UNL     1     120.807 179.339 122.427  1.00  0.00     0.087 C 
ENDBRANCH  16  17
ENDBRANCH  15  16
ENDBRANCH  13  15
ENDBRANCH  11  12
ENDBRANCH   1  11
TORSDOF 9
ENDMDL
MODEL 8
REMARK VINA RESULT:    -6.403      3.002      7.410
REMARK INTER + INTRA:         -11.149
REMARK INTER:                  -9.559
REMARK INTRA:                  -1.590
REMARK UNBOUND:                -1.376
REMARK SMILES CC(=O)CCC=C(C)CCC=C(C)CCC=C(C)C
REMARK SMILES IDX 10 1 11 2 12 3 13 4 14 5 15 6 16 7 18 8 17 9 19 10 9 11 7 12
REMARK SMILES IDX 6 13 8 14 5 15 4 16 2 17 3 18 1 19
REMARK H PARENT
REMARK Flexibility Score: inf
ROOT
ATOM      1  C   UNL     1     123.688 179.447 127.847  1.00  0.00     0.032 C 
ENDROOT
BRANCH   1   2
ATOM      2  C   UNL     1     123.282 178.819 126.537  1.00  0.00    -0.028 C 
ATOM      3  C   UNL     1     122.018 178.809 126.056  1.00  0.00    -0.077 C 
ATOM      4  C   UNL     1     120.858 179.366 126.848  1.00  0.00     0.039 C 
BRANCH   3   5
ATOM      5  C   UNL     1     121.742 178.174 124.710  1.00  0.00     0.034 C 
BRANCH   5   6
ATOM      6  C   UNL     1     122.698 177.006 124.427  1.00  0.00     0.032 C 
BRANCH   6   7
ATOM      7  C   UNL     1     123.551 177.257 123.205  1.00  0.00    -0.028 C 
ATOM      8  C   UNL     1     125.612 177.464 121.887  1.00  0.00     0.039 C 
ATOM      9  C   UNL     1     124.900 177.226 123.193  1.00  0.00    -0.080 C 
ATOM     10  C   UNL     1     125.709 176.974 124.446  1.00  0.00     0.039 C 
ENDBRANCH   6   7
ENDBRANCH   5   6
ENDBRANCH   3   5
ENDBRANCH   1   2
BRANCH   1  11
ATOM     11  C   UNL     1     124.051 178.369 128.873  1.00  0.00     0.034 C 
BRANCH  11  12
ATOM     12  C   UNL     1     122.923 178.175 129.861  1.00  0.00    -0.077 C 
ATOM     13  C   UNL     1     122.227 177.015 129.842  1.00  0.00    -0.028 C 
ATOM     14  C   UNL     1     122.607 179.279 130.843  1.00  0.00     0.039 C 
BRANCH  13  15
ATOM     15  C   UNL     1     121.120 176.669 130.807  1.00  0.00     0.035 C 
BRANCH  15  16
ATOM     16  C   UNL     1     120.235 175.558 130.235  1.00  0.00     0.079 C 
BRANCH  16  17
ATOM     17  C   UNL     1     118.988 176.136 129.617  1.00  0.00     0.130 C 
ATOM     18  O   UNL     1     118.012 176.350 130.320  1.00  0.00    -0.300 OA
ATOM     19  C   UNL     1     118.921 176.467 128.156  1.00  0.00     0.087 C 
ENDBRANCH  16  17
ENDBRANCH  15  16
ENDBRANCH  13  15
ENDBRANCH  11  12
ENDBRANCH   1  11
TORSDOF 9
ENDMDL
MODEL 9
REMARK VINA RESULT:    -6.392      2.413      5.781
REMARK INTER + INTRA:         -11.131
REMARK INTER:                  -8.997
REMARK INTRA:                  -2.135
REMARK UNBOUND:                -1.376
REMARK SMILES CC(=O)CCC=C(C)CCC=C(C)CCC=C(C)C
REMARK SMILES IDX 10 1 11 2 12 3 13 4 14 5 15 6 16 7 18 8 17 9 19 10 9 11 7 12
REMARK SMILES IDX 6 13 8 14 5 15 4 16 2 17 3 18 1 19
REMARK H PARENT
REMARK Flexibility Score: inf
ROOT
ATOM      1  C   UNL     1     121.680 176.299 130.307  1.00  0.00     0.032 C 
ENDROOT
BRANCH   1   2
ATOM      2  C   UNL     1     122.416 177.113 129.272  1.00  0.00    -0.028 C 
ATOM      3  C   UNL     1     122.865 178.373 129.472  1.00  0.00    -0.077 C 
ATOM      4  C   UNL     1     122.586 179.126 130.752  1.00  0.00     0.039 C 
BRANCH   3   5
ATOM      5  C   UNL     1     123.620 179.076 128.365  1.00  0.00     0.034 C 
BRANCH   5   6
ATOM      6  C   UNL     1     122.826 179.083 127.051  1.00  0.00     0.032 C 
BRANCH   6   7
ATOM      7  C   UNL     1     123.661 178.617 125.882  1.00  0.00    -0.028 C 
ATOM      8  C   UNL     1     124.377 177.138 124.057  1.00  0.00     0.039 C 
ATOM      9  C   UNL     1     123.482 177.449 125.229  1.00  0.00    -0.080 C 
ATOM     10  C   UNL     1     122.427 176.449 125.646  1.00  0.00     0.039 C 
ENDBRANCH   6   7
ENDBRANCH   5   6
ENDBRANCH   3   5
ENDBRANCH   1   2
BRANCH   1  11
ATOM     11  C   UNL     1     120.165 176.439 130.125  1.00  0.00     0.034 C 
BRANCH  11  12
ATOM     12  C   UNL     1     119.799 176.378 128.659  1.00  0.00    -0.077 C 
ATOM     13  C   UNL     1     119.395 177.510 128.036  1.00  0.00    -0.028 C 
ATOM     14  C   UNL     1     119.897 175.058 127.931  1.00  0.00     0.039 C 
BRANCH  13  15
ATOM     15  C   UNL     1     119.058 177.601 126.569  1.00  0.00     0.035 C 
BRANCH  15  16
ATOM     16  C   UNL     1     119.062 179.062 126.106  1.00  0.00     0.079 C 
BRANCH  16  17
ATOM     17  C   UNL     1     119.191 179.144 124.608  1.00  0.00     0.130 C 
ATOM     18  O   UNL     1     118.192 179.044 123.911  1.00  0.00    -0.300 OA
ATOM     19  C   UNL     1     120.521 179.357 123.948  1.00  0.00     0.087 C 
ENDBRANCH  16  17
ENDBRANCH  15  16
ENDBRANCH  13  15
ENDBRANCH  11  12
ENDBRANCH   1  11
TORSDOF 9
ENDMDL
