MODEL 1
REMARK VINA RESULT:    -6.266      0.000      0.000
REMARK INTER + INTRA:         -12.774
REMARK INTER:                 -11.394
REMARK INTRA:                  -1.381
REMARK UNBOUND:                -1.381
REMARK SMILES CCCCCCCCCCCCCCCC(=O)[O-]
REMARK SMILES IDX 9 1 10 2 11 3 12 4 13 5 14 6 15 7 16 8 17 9 18 10 8 11 7 12
REMARK SMILES IDX 6 13 5 14 4 15 3 16 2 17 1 18
REMARK H PARENT
REMARK Flexibility Score: inf
ROOT
ATOM      1  C   UNL     1       2.855  10.735  18.427  1.00  0.00     0.000 C 
ENDROOT
BRANCH   1   2
ATOM      2  C   UNL     1       3.904  10.734  19.550  1.00  0.00     0.000 C 
BRANCH   2   3
ATOM      3  C   UNL     1       4.909  11.893  19.420  1.00  0.00     0.000 C 
BRANCH   3   4
ATOM      4  C   UNL     1       6.121  11.527  18.548  1.00  0.00     0.000 C 
BRANCH   4   5
ATOM      5  C   UNL     1       6.295  12.479  17.351  1.00  0.00     0.000 C 
BRANCH   5   6
ATOM      6  C   UNL     1       5.284  12.205  16.227  1.00  0.00     0.006 C 
BRANCH   6   7
ATOM      7  C   UNL     1       4.308  13.370  16.017  1.00  0.00     0.053 C 
BRANCH   7   8
ATOM      8  C   UNL     1       3.187  12.956  15.117  1.00  0.00     0.041 C 
ATOM      9  O   UNL     1       3.274  11.893  14.446  1.00  0.00    -0.550 OA
ATOM     10  O   UNL     1       2.068  13.767  14.980  1.00  0.00    -0.550 OA
ENDBRANCH   7   8
ENDBRANCH   6   7
ENDBRANCH   5   6
ENDBRANCH   4   5
ENDBRANCH   3   4
ENDBRANCH   2   3
ENDBRANCH   1   2
BRANCH   1  11
ATOM     11  C   UNL     1       2.968   9.500  17.516  1.00  0.00     0.000 C 
BRANCH  11  12
ATOM     12  C   UNL     1       2.326   8.247  18.132  1.00  0.00    -0.000 C 
BRANCH  12  13
ATOM     13  C   UNL     1       0.803   8.389  18.304  1.00  0.00    -0.000 C 
BRANCH  13  14
ATOM     14  C   UNL     1       0.126   7.062  18.684  1.00  0.00    -0.000 C 
BRANCH  14  15
ATOM     15  C   UNL     1       0.240   5.999  17.581  1.00  0.00    -0.000 C 
BRANCH  15  16
ATOM     16  C   UNL     1       0.983   4.759  18.089  1.00  0.00    -0.000 C 
BRANCH  16  17
ATOM     17  C   UNL     1       1.246   4.853  19.596  1.00  0.00    -0.003 C 
ATOM     18  C   UNL     1       2.648   4.360  19.944  1.00  0.00     0.004 C 
ENDBRANCH  16  17
ENDBRANCH  15  16
ENDBRANCH  14  15
ENDBRANCH  13  14
ENDBRANCH  12  13
ENDBRANCH  11  12
ENDBRANCH   1  11
TORSDOF 14
ENDMDL
MODEL 2
REMARK VINA RESULT:    -6.227      3.324      6.544
REMARK INTER + INTRA:         -12.704
REMARK INTER:                 -10.791
REMARK INTRA:                  -1.913
REMARK UNBOUND:                -1.381
REMARK SMILES CCCCCCCCCCCCCCCC(=O)[O-]
REMARK SMILES IDX 9 1 10 2 11 3 12 4 13 5 14 6 15 7 16 8 17 9 18 10 8 11 7 12
REMARK SMILES IDX 6 13 5 14 4 15 3 16 2 17 1 18
REMARK H PARENT
REMARK Flexibility Score: inf
ROOT
ATOM      1  C   UNL     1       5.361  11.400  19.013  1.00  0.00     0.000 C 
ENDROOT
BRANCH   1   2
ATOM      2  C   UNL     1       4.019  12.137  19.148  1.00  0.00     0.000 C 
BRANCH   2   3
ATOM      3  C   UNL     1       2.822  11.263  18.733  1.00  0.00     0.000 C 
BRANCH   3   4
ATOM      4  C   UNL     1       3.215   9.794  18.505  1.00  0.00     0.000 C 
BRANCH   4   5
ATOM      5  C   UNL     1       2.027   8.931  18.045  1.00  0.00     0.000 C 
BRANCH   5   6
ATOM      6  C   UNL     1       2.241   7.435  18.323  1.00  0.00     0.006 C 
BRANCH   6   7
ATOM      7  C   UNL     1       1.054   6.796  19.055  1.00  0.00     0.053 C 
BRANCH   7   8
ATOM      8  C   UNL     1       1.089   5.308  18.905  1.00  0.00     0.041 C 
ATOM      9  O   UNL     1       0.538   4.758  17.914  1.00  0.00    -0.550 OA
ATOM     10  O   UNL     1       1.686   4.524  19.884  1.00  0.00    -0.550 OA
ENDBRANCH   7   8
ENDBRANCH   6   7
ENDBRANCH   5   6
ENDBRANCH   4   5
ENDBRANCH   3   4
ENDBRANCH   2   3
ENDBRANCH   1   2
BRANCH   1  11
ATOM     11  C   UNL     1       6.027  11.635  17.645  1.00  0.00     0.000 C 
BRANCH  11  12
ATOM     12  C   UNL     1       5.669  13.001  17.039  1.00  0.00    -0.000 C 
BRANCH  12  13
ATOM     13  C   UNL     1       5.297  12.905  15.548  1.00  0.00    -0.000 C 
BRANCH  13  14
ATOM     14  C   UNL     1       3.778  12.837  15.323  1.00  0.00    -0.000 C 
BRANCH  14  15
ATOM     15  C   UNL     1       3.272  11.402  15.109  1.00  0.00    -0.000 C 
BRANCH  15  16
ATOM     16  C   UNL     1       4.346  10.534  14.445  1.00  0.00    -0.000 C 
BRANCH  16  17
ATOM     17  C   UNL     1       4.517   9.204  15.188  1.00  0.00    -0.003 C 
ATOM     18  C   UNL     1       4.667   8.041  14.211  1.00  0.00     0.004 C 
ENDBRANCH  16  17
ENDBRANCH  15  16
ENDBRANCH  14  15
ENDBRANCH  13  14
ENDBRANCH  12  13
ENDBRANCH  11  12
ENDBRANCH   1  11
TORSDOF 14
ENDMDL
MODEL 3
REMARK VINA RESULT:    -6.156      1.696      2.219
REMARK INTER + INTRA:         -12.575
REMARK INTER:                 -11.036
REMARK INTRA:                  -1.539
REMARK UNBOUND:                -1.381
REMARK SMILES CCCCCCCCCCCCCCCC(=O)[O-]
REMARK SMILES IDX 9 1 10 2 11 3 12 4 13 5 14 6 15 7 16 8 17 9 18 10 8 11 7 12
REMARK SMILES IDX 6 13 5 14 4 15 3 16 2 17 1 18
REMARK H PARENT
REMARK Flexibility Score: inf
ROOT
ATOM      1  C   UNL     1       2.877  11.304  18.768  1.00  0.00     0.000 C 
ENDROOT
BRANCH   1   2
ATOM      2  C   UNL     1       4.245  10.923  19.356  1.00  0.00     0.000 C 
BRANCH   2   3
ATOM      3  C   UNL     1       5.357  11.903  18.943  1.00  0.00     0.000 C 
BRANCH   3   4
ATOM      4  C   UNL     1       6.004  11.531  17.599  1.00  0.00     0.000 C 
BRANCH   4   5
ATOM      5  C   UNL     1       5.367  12.274  16.413  1.00  0.00     0.000 C 
BRANCH   5   6
ATOM      6  C   UNL     1       4.625  11.331  15.454  1.00  0.00     0.006 C 
BRANCH   6   7
ATOM      7  C   UNL     1       5.015   9.861  15.655  1.00  0.00     0.053 C 
BRANCH   7   8
ATOM      8  C   UNL     1       4.630   9.051  14.457  1.00  0.00     0.041 C 
ATOM      9  O   UNL     1       4.393   7.819  14.576  1.00  0.00    -0.550 OA
ATOM     10  O   UNL     1       4.580   9.644  13.202  1.00  0.00    -0.550 OA
ENDBRANCH   7   8
ENDBRANCH   6   7
ENDBRANCH   5   6
ENDBRANCH   4   5
ENDBRANCH   3   4
ENDBRANCH   2   3
ENDBRANCH   1   2
BRANCH   1  11
ATOM     11  C   UNL     1       2.211  10.134  18.021  1.00  0.00     0.000 C 
BRANCH  11  12
ATOM     12  C   UNL     1       3.035   8.839  18.095  1.00  0.00    -0.000 C 
BRANCH  12  13
ATOM     13  C   UNL     1       2.160   7.577  17.975  1.00  0.00    -0.000 C 
BRANCH  13  14
ATOM     14  C   UNL     1       0.695   7.837  18.360  1.00  0.00    -0.000 C 
BRANCH  14  15
ATOM     15  C   UNL     1      -0.077   6.546  18.672  1.00  0.00    -0.000 C 
BRANCH  15  16
ATOM     16  C   UNL     1       0.735   5.310  18.268  1.00  0.00    -0.000 C 
BRANCH  16  17
ATOM     17  C   UNL     1       1.009   4.412  19.479  1.00  0.00    -0.003 C 
ATOM     18  C   UNL     1       2.497   4.381  19.819  1.00  0.00     0.004 C 
ENDBRANCH  16  17
ENDBRANCH  15  16
ENDBRANCH  14  15
ENDBRANCH  13  14
ENDBRANCH  12  13
ENDBRANCH  11  12
ENDBRANCH   1  11
TORSDOF 14
ENDMDL
MODEL 4
REMARK VINA RESULT:    -6.121      2.030      3.062
REMARK INTER + INTRA:         -12.512
REMARK INTER:                 -11.069
REMARK INTRA:                  -1.442
REMARK UNBOUND:                -1.381
REMARK SMILES CCCCCCCCCCCCCCCC(=O)[O-]
REMARK SMILES IDX 9 1 10 2 11 3 12 4 13 5 14 6 15 7 16 8 17 9 18 10 8 11 7 12
REMARK SMILES IDX 6 13 5 14 4 15 3 16 2 17 1 18
REMARK H PARENT
REMARK Flexibility Score: inf
ROOT
ATOM      1  C   UNL     1       3.920   8.849  16.231  1.00  0.00     0.000 C 
ENDROOT
BRANCH   1   2
ATOM      2  C   UNL     1       4.933   9.583  15.337  1.00  0.00     0.000 C 
BRANCH   2   3
ATOM      3  C   UNL     1       4.271  10.247  14.117  1.00  0.00     0.000 C 
BRANCH   3   4
ATOM      4  C   UNL     1       4.335  11.782  14.174  1.00  0.00     0.000 C 
BRANCH   4   5
ATOM      5  C   UNL     1       3.229  12.385  15.057  1.00  0.00     0.000 C 
BRANCH   5   6
ATOM      6  C   UNL     1       3.787  13.085  16.306  1.00  0.00     0.006 C 
BRANCH   6   7
ATOM      7  C   UNL     1       5.319  13.151  16.310  1.00  0.00     0.053 C 
BRANCH   7   8
ATOM      8  C   UNL     1       5.867  12.493  17.537  1.00  0.00     0.041 C 
ATOM      9  O   UNL     1       7.006  11.956  17.513  1.00  0.00    -0.550 OA
ATOM     10  O   UNL     1       5.099  12.429  18.693  1.00  0.00    -0.550 OA
ENDBRANCH   7   8
ENDBRANCH   6   7
ENDBRANCH   5   6
ENDBRANCH   4   5
ENDBRANCH   3   4
ENDBRANCH   2   3
ENDBRANCH   1   2
BRANCH   1  11
ATOM     11  C   UNL     1       3.713   9.552  17.584  1.00  0.00     0.000 C 
BRANCH  11  12
ATOM     12  C   UNL     1       2.261   9.461  18.083  1.00  0.00    -0.000 C 
BRANCH  12  13
ATOM     13  C   UNL     1       1.820   8.011  18.352  1.00  0.00    -0.000 C 
BRANCH  13  14
ATOM     14  C   UNL     1       0.291   7.852  18.362  1.00  0.00    -0.000 C 
BRANCH  14  15
ATOM     15  C   UNL     1      -0.156   6.389  18.228  1.00  0.00    -0.000 C 
BRANCH  15  16
ATOM     16  C   UNL     1       1.051   5.445  18.212  1.00  0.00    -0.000 C 
BRANCH  16  17
ATOM     17  C   UNL     1       1.132   4.632  19.509  1.00  0.00    -0.003 C 
ATOM     18  C   UNL     1       2.581   4.344  19.891  1.00  0.00     0.004 C 
ENDBRANCH  16  17
ENDBRANCH  15  16
ENDBRANCH  14  15
ENDBRANCH  13  14
ENDBRANCH  12  13
ENDBRANCH  11  12
ENDBRANCH   1  11
TORSDOF 14
ENDMDL
MODEL 5
REMARK VINA RESULT:    -6.119      3.098      6.745
REMARK INTER + INTRA:         -12.508
REMARK INTER:                 -10.601
REMARK INTRA:                  -1.907
REMARK UNBOUND:                -1.381
REMARK SMILES CCCCCCCCCCCCCCCC(=O)[O-]
REMARK SMILES IDX 9 1 10 2 11 3 12 4 13 5 14 6 15 7 16 8 17 9 18 10 8 11 7 12
REMARK SMILES IDX 6 13 5 14 4 15 3 16 2 17 1 18
REMARK H PARENT
REMARK Flexibility Score: inf
ROOT
ATOM      1  C   UNL     1       4.430  10.077  14.706  1.00  0.00     0.000 C 
ENDROOT
BRANCH   1   2
ATOM      2  C   UNL     1       4.631   9.592  16.151  1.00  0.00     0.000 C 
BRANCH   2   3
ATOM      3  C   UNL     1       3.535   8.610  16.602  1.00  0.00     0.000 C 
BRANCH   3   4
ATOM      4  C   UNL     1       3.026   8.907  18.022  1.00  0.00     0.000 C 
BRANCH   4   5
ATOM      5  C   UNL     1       1.529   9.258  18.050  1.00  0.00     0.000 C 
BRANCH   5   6
ATOM      6  C   UNL     1       0.636   8.024  18.248  1.00  0.00     0.006 C 
BRANCH   6   7
ATOM      7  C   UNL     1       1.191   7.058  19.302  1.00  0.00     0.053 C 
BRANCH   7   8
ATOM      8  C   UNL     1       1.281   5.672  18.744  1.00  0.00     0.041 C 
ATOM      9  O   UNL     1       1.216   5.485  17.500  1.00  0.00    -0.550 OA
ATOM     10  O   UNL     1       1.386   4.583  19.600  1.00  0.00    -0.550 OA
ENDBRANCH   7   8
ENDBRANCH   6   7
ENDBRANCH   5   6
ENDBRANCH   4   5
ENDBRANCH   3   4
ENDBRANCH   2   3
ENDBRANCH   1   2
BRANCH   1  11
ATOM     11  C   UNL     1       3.687  11.423  14.636  1.00  0.00     0.000 C 
BRANCH  11  12
ATOM     12  C   UNL     1       4.635  12.628  14.744  1.00  0.00    -0.000 C 
BRANCH  12  13
ATOM     13  C   UNL     1       4.631  13.256  16.150  1.00  0.00    -0.000 C 
BRANCH  13  14
ATOM     14  C   UNL     1       3.267  13.133  16.847  1.00  0.00    -0.000 C 
BRANCH  14  15
ATOM     15  C   UNL     1       3.378  12.590  18.280  1.00  0.00    -0.000 C 
BRANCH  15  16
ATOM     16  C   UNL     1       4.821  12.189  18.604  1.00  0.00    -0.000 C 
BRANCH  16  17
ATOM     17  C   UNL     1       4.890  11.388  19.909  1.00  0.00    -0.003 C 
ATOM     18  C   UNL     1       6.320  11.316  20.438  1.00  0.00     0.004 C 
ENDBRANCH  16  17
ENDBRANCH  15  16
ENDBRANCH  14  15
ENDBRANCH  13  14
ENDBRANCH  12  13
ENDBRANCH  11  12
ENDBRANCH   1  11
TORSDOF 14
ENDMDL
MODEL 6
REMARK VINA RESULT:    -6.072      1.900      2.740
REMARK INTER + INTRA:         -12.422
REMARK INTER:                 -10.942
REMARK INTRA:                  -1.480
REMARK UNBOUND:                -1.381
REMARK SMILES CCCCCCCCCCCCCCCC(=O)[O-]
REMARK SMILES IDX 9 1 10 2 11 3 12 4 13 5 14 6 15 7 16 8 17 9 18 10 8 11 7 12
REMARK SMILES IDX 6 13 5 14 4 15 3 16 2 17 1 18
REMARK H PARENT
REMARK Flexibility Score: inf
ROOT
ATOM      1  C   UNL     1       4.233  11.887  18.876  1.00  0.00     0.000 C 
ENDROOT
BRANCH   1   2
ATOM      2  C   UNL     1       3.021  12.723  18.437  1.00  0.00     0.000 C 
BRANCH   2   3
ATOM      3  C   UNL     1       3.207  13.342  17.040  1.00  0.00     0.000 C 
BRANCH   3   4
ATOM      4  C   UNL     1       4.629  13.145  16.492  1.00  0.00     0.000 C 
BRANCH   4   5
ATOM      5  C   UNL     1       4.636  12.574  15.063  1.00  0.00     0.000 C 
BRANCH   5   6
ATOM      6  C   UNL     1       3.793  11.296  14.933  1.00  0.00     0.006 C 
BRANCH   6   7
ATOM      7  C   UNL     1       4.596  10.027  15.245  1.00  0.00     0.053 C 
BRANCH   7   8
ATOM      8  C   UNL     1       4.445   9.029  14.139  1.00  0.00     0.041 C 
ATOM      9  O   UNL     1       4.917   7.868  14.266  1.00  0.00    -0.550 OA
ATOM     10  O   UNL     1       3.828   9.396  12.950  1.00  0.00    -0.550 OA
ENDBRANCH   7   8
ENDBRANCH   6   7
ENDBRANCH   5   6
ENDBRANCH   4   5
ENDBRANCH   3   4
ENDBRANCH   2   3
ENDBRANCH   1   2
BRANCH   1  11
ATOM     11  C   UNL     1       3.898  10.390  19.007  1.00  0.00     0.000 C 
BRANCH  11  12
ATOM     12  C   UNL     1       2.634   9.995  18.227  1.00  0.00    -0.000 C 
BRANCH  12  13
ATOM     13  C   UNL     1       2.530   8.474  18.006  1.00  0.00    -0.000 C 
BRANCH  13  14
ATOM     14  C   UNL     1       1.142   7.920  18.362  1.00  0.00    -0.000 C 
BRANCH  14  15
ATOM     15  C   UNL     1       1.209   6.687  19.275  1.00  0.00    -0.000 C 
BRANCH  15  16
ATOM     16  C   UNL     1       0.664   5.445  18.561  1.00  0.00    -0.000 C 
BRANCH  16  17
ATOM     17  C   UNL     1       1.576   4.234  18.789  1.00  0.00    -0.003 C 
ATOM     18  C   UNL     1       2.499   4.456  19.984  1.00  0.00     0.004 C 
ENDBRANCH  16  17
ENDBRANCH  15  16
ENDBRANCH  14  15
ENDBRANCH  13  14
ENDBRANCH  12  13
ENDBRANCH  11  12
ENDBRANCH   1  11
TORSDOF 14
ENDMDL
MODEL 7
REMARK VINA RESULT:    -6.044      3.166      7.006
REMARK INTER + INTRA:         -12.371
REMARK INTER:                 -10.650
REMARK INTRA:                  -1.721
REMARK UNBOUND:                -1.381
REMARK SMILES CCCCCCCCCCCCCCCC(=O)[O-]
REMARK SMILES IDX 9 1 10 2 11 3 12 4 13 5 14 6 15 7 16 8 17 9 18 10 8 11 7 12
REMARK SMILES IDX 6 13 5 14 4 15 3 16 2 17 1 18
REMARK H PARENT
REMARK Flexibility Score: inf
ROOT
ATOM      1  C   UNL     1       4.253  11.212  19.692  1.00  0.00     0.000 C 
ENDROOT
BRANCH   1   2
ATOM      2  C   UNL     1       3.911  10.189  18.598  1.00  0.00     0.000 C 
BRANCH   2   3
ATOM      3  C   UNL     1       2.400  10.108  18.317  1.00  0.00     0.000 C 
BRANCH   3   4
ATOM      4  C   UNL     1       1.937   8.681  17.983  1.00  0.00     0.000 C 
BRANCH   4   5
ATOM      5  C   UNL     1       0.409   8.520  18.073  1.00  0.00     0.000 C 
BRANCH   5   6
ATOM      6  C   UNL     1      -0.008   7.257  18.840  1.00  0.00     0.006 C 
BRANCH   6   7
ATOM      7  C   UNL     1       1.186   6.533  19.475  1.00  0.00     0.053 C 
BRANCH   7   8
ATOM      8  C   UNL     1       1.300   5.142  18.935  1.00  0.00     0.041 C 
ATOM      9  O   UNL     1       2.126   4.333  19.438  1.00  0.00    -0.550 OA
ATOM     10  O   UNL     1       0.531   4.753  17.846  1.00  0.00    -0.550 OA
ENDBRANCH   7   8
ENDBRANCH   6   7
ENDBRANCH   5   6
ENDBRANCH   4   5
ENDBRANCH   3   4
ENDBRANCH   2   3
ENDBRANCH   1   2
BRANCH   1  11
ATOM     11  C   UNL     1       5.314  12.229  19.236  1.00  0.00     0.000 C 
BRANCH  11  12
ATOM     12  C   UNL     1       6.344  11.619  18.272  1.00  0.00    -0.000 C 
BRANCH  12  13
ATOM     13  C   UNL     1       6.376  12.339  16.911  1.00  0.00    -0.000 C 
BRANCH  13  14
ATOM     14  C   UNL     1       5.043  13.028  16.577  1.00  0.00    -0.000 C 
BRANCH  14  15
ATOM     15  C   UNL     1       4.582  12.763  15.136  1.00  0.00    -0.000 C 
BRANCH  15  16
ATOM     16  C   UNL     1       3.642  11.554  15.074  1.00  0.00    -0.000 C 
BRANCH  16  17
ATOM     17  C   UNL     1       4.284  10.396  14.302  1.00  0.00    -0.003 C 
ATOM     18  C   UNL     1       4.853   9.346  15.252  1.00  0.00     0.004 C 
ENDBRANCH  16  17
ENDBRANCH  15  16
ENDBRANCH  14  15
ENDBRANCH  13  14
ENDBRANCH  12  13
ENDBRANCH  11  12
ENDBRANCH   1  11
TORSDOF 14
ENDMDL
MODEL 8
REMARK VINA RESULT:    -5.996      3.119      7.260
REMARK INTER + INTRA:         -12.283
REMARK INTER:                 -10.519
REMARK INTRA:                  -1.764
REMARK UNBOUND:                -1.381
REMARK SMILES CCCCCCCCCCCCCCCC(=O)[O-]
REMARK SMILES IDX 9 1 10 2 11 3 12 4 13 5 14 6 15 7 16 8 17 9 18 10 8 11 7 12
REMARK SMILES IDX 6 13 5 14 4 15 3 16 2 17 1 18
REMARK H PARENT
REMARK Flexibility Score: inf
ROOT
ATOM      1  C   UNL     1       3.477  11.689  19.242  1.00  0.00     0.000 C 
ENDROOT
BRANCH   1   2
ATOM      2  C   UNL     1       2.618  10.717  18.419  1.00  0.00     0.000 C 
BRANCH   2   3
ATOM      3  C   UNL     1       3.389   9.449  18.012  1.00  0.00     0.000 C 
BRANCH   3   4
ATOM      4  C   UNL     1       2.461   8.248  17.767  1.00  0.00     0.000 C 
BRANCH   4   5
ATOM      5  C   UNL     1       0.989   8.566  18.083  1.00  0.00     0.000 C 
BRANCH   5   6
ATOM      6  C   UNL     1       0.244   7.369  18.694  1.00  0.00     0.006 C 
BRANCH   6   7
ATOM      7  C   UNL     1       1.156   6.484  19.553  1.00  0.00     0.053 C 
BRANCH   7   8
ATOM      8  C   UNL     1       1.211   5.096  18.997  1.00  0.00     0.041 C 
ATOM      9  O   UNL     1       1.934   4.222  19.545  1.00  0.00    -0.550 OA
ATOM     10  O   UNL     1       0.504   4.780  17.844  1.00  0.00    -0.550 OA
ENDBRANCH   7   8
ENDBRANCH   6   7
ENDBRANCH   5   6
ENDBRANCH   4   5
ENDBRANCH   3   4
ENDBRANCH   2   3
ENDBRANCH   1   2
BRANCH   1  11
ATOM     11  C   UNL     1       4.512  10.963  20.119  1.00  0.00     0.000 C 
BRANCH  11  12
ATOM     12  C   UNL     1       5.946  11.463  19.882  1.00  0.00    -0.000 C 
BRANCH  12  13
ATOM     13  C   UNL     1       6.062  12.345  18.626  1.00  0.00    -0.000 C 
BRANCH  13  14
ATOM     14  C   UNL     1       6.441  11.539  17.373  1.00  0.00    -0.000 C 
BRANCH  14  15
ATOM     15  C   UNL     1       5.458  11.748  16.211  1.00  0.00    -0.000 C 
BRANCH  15  16
ATOM     16  C   UNL     1       5.026  13.215  16.115  1.00  0.00    -0.000 C 
BRANCH  16  17
ATOM     17  C   UNL     1       3.517  13.330  15.871  1.00  0.00    -0.003 C 
ATOM     18  C   UNL     1       3.083  12.476  14.682  1.00  0.00     0.004 C 
ENDBRANCH  16  17
ENDBRANCH  15  16
ENDBRANCH  14  15
ENDBRANCH  13  14
ENDBRANCH  12  13
ENDBRANCH  11  12
ENDBRANCH   1  11
TORSDOF 14
ENDMDL
MODEL 9
REMARK VINA RESULT:    -5.811      2.471      3.967
REMARK INTER + INTRA:         -11.947
REMARK INTER:                 -10.550
REMARK INTRA:                  -1.397
REMARK UNBOUND:                -1.381
REMARK SMILES CCCCCCCCCCCCCCCC(=O)[O-]
REMARK SMILES IDX 9 1 10 2 11 3 12 4 13 5 14 6 15 7 16 8 17 9 18 10 8 11 7 12
REMARK SMILES IDX 6 13 5 14 4 15 3 16 2 17 1 18
REMARK H PARENT
REMARK Flexibility Score: inf
ROOT
ATOM      1  C   UNL     1       3.718  11.229  14.678  1.00  0.00     0.000 C 
ENDROOT
BRANCH   1   2
ATOM      2  C   UNL     1       4.539  12.528  14.646  1.00  0.00     0.000 C 
BRANCH   2   3
ATOM      3  C   UNL     1       4.689  13.166  16.038  1.00  0.00     0.000 C 
BRANCH   3   4
ATOM      4  C   UNL     1       3.337  13.377  16.738  1.00  0.00     0.000 C 
BRANCH   4   5
ATOM      5  C   UNL     1       3.112  12.389  17.896  1.00  0.00     0.000 C 
BRANCH   5   6
ATOM      6  C   UNL     1       3.975  12.713  19.125  1.00  0.00     0.006 C 
BRANCH   6   7
ATOM      7  C   UNL     1       4.571  11.457  19.773  1.00  0.00     0.053 C 
BRANCH   7   8
ATOM      8  C   UNL     1       6.057  11.431  19.591  1.00  0.00     0.041 C 
ATOM      9  O   UNL     1       6.559  11.652  18.457  1.00  0.00    -0.550 OA
ATOM     10  O   UNL     1       6.884  11.114  20.661  1.00  0.00    -0.550 OA
ENDBRANCH   7   8
ENDBRANCH   6   7
ENDBRANCH   5   6
ENDBRANCH   4   5
ENDBRANCH   3   4
ENDBRANCH   2   3
ENDBRANCH   1   2
BRANCH   1  11
ATOM     11  C   UNL     1       4.587   9.990  14.956  1.00  0.00     0.000 C 
BRANCH  11  12
ATOM     12  C   UNL     1       4.574   9.576  16.436  1.00  0.00    -0.000 C 
BRANCH  12  13
ATOM     13  C   UNL     1       3.513   8.501  16.737  1.00  0.00    -0.000 C 
BRANCH  13  14
ATOM     14  C   UNL     1       2.780   8.752  18.065  1.00  0.00    -0.000 C 
BRANCH  14  15
ATOM     15  C   UNL     1       1.406   8.068  18.125  1.00  0.00    -0.000 C 
BRANCH  15  16
ATOM     16  C   UNL     1       1.356   7.035  19.256  1.00  0.00    -0.000 C 
BRANCH  16  17
ATOM     17  C   UNL     1       1.003   5.645  18.718  1.00  0.00    -0.003 C 
ATOM     18  C   UNL     1       1.859   4.565  19.374  1.00  0.00     0.004 C 
ENDBRANCH  16  17
ENDBRANCH  15  16
ENDBRANCH  14  15
ENDBRANCH  13  14
ENDBRANCH  12  13
ENDBRANCH  11  12
ENDBRANCH   1  11
TORSDOF 14
ENDMDL
