MODEL 1
REMARK VINA RESULT:    -4.644      0.000      0.000
REMARK INTER + INTRA:          -5.113
REMARK INTER:                  -4.916
REMARK INTRA:                  -0.197
REMARK UNBOUND:                -0.197
REMARK SMILES CC1=CC[C@H](C(C)C)C=C1
REMARK SMILES IDX 1 1 2 2 3 3 4 4 5 5 9 6 10 7 6 8 7 9 8 10
REMARK H PARENT
REMARK Flexibility Score: inf
ROOT
ATOM      1  C   UNL     1      33.123  11.647  31.354  1.00  0.00     0.044 C 
ATOM      2  C   UNL     1      32.674  10.862  32.551  1.00  0.00    -0.055 C 
ATOM      3  C   UNL     1      32.453  11.480  33.721  1.00  0.00    -0.023 C 
ATOM      4  C   UNL     1      32.062  10.691  34.943  1.00  0.00     0.035 C 
ATOM      5  C   UNL     1      31.143   9.499  34.570  1.00  0.00     0.018 C 
ATOM      6  C   UNL     1      31.749   8.755  33.391  1.00  0.00    -0.023 C 
ATOM      7  C   UNL     1      32.406   9.413  32.429  1.00  0.00    -0.001 C 
ENDROOT
BRANCH   5   8
ATOM      8  C   UNL     1      30.872   8.538  35.771  1.00  0.00    -0.010 C 
ATOM      9  C   UNL     1      31.307   9.175  37.104  1.00  0.00     0.008 C 
ATOM     10  C   UNL     1      31.589   7.185  35.618  1.00  0.00     0.008 C 
ENDBRANCH   5   8
TORSDOF 1
ENDMDL
MODEL 2
REMARK VINA RESULT:    -4.399      1.145      4.196
REMARK INTER + INTRA:          -4.854
REMARK INTER:                  -4.659
REMARK INTRA:                  -0.195
REMARK UNBOUND:                -0.197
REMARK SMILES CC1=CC[C@H](C(C)C)C=C1
REMARK SMILES IDX 1 1 2 2 3 3 4 4 5 5 9 6 10 7 6 8 7 9 8 10
REMARK H PARENT
REMARK Flexibility Score: inf
ROOT
ATOM      1  C   UNL     1      31.078   6.821  36.016  1.00  0.00     0.044 C 
ATOM      2  C   UNL     1      31.314   7.842  34.943  1.00  0.00    -0.055 C 
ATOM      3  C   UNL     1      31.268   9.151  35.232  1.00  0.00    -0.023 C 
ATOM      4  C   UNL     1      31.442  10.183  34.149  1.00  0.00     0.035 C 
ATOM      5  C   UNL     1      32.470   9.713  33.088  1.00  0.00     0.018 C 
ATOM      6  C   UNL     1      32.147   8.284  32.682  1.00  0.00    -0.023 C 
ATOM      7  C   UNL     1      31.667   7.410  33.573  1.00  0.00    -0.001 C 
ENDROOT
BRANCH   5   8
ATOM      8  C   UNL     1      32.539  10.657  31.845  1.00  0.00    -0.010 C 
ATOM      9  C   UNL     1      32.049  12.075  32.194  1.00  0.00     0.008 C 
ATOM     10  C   UNL     1      31.713  10.131  30.658  1.00  0.00     0.008 C 
ENDBRANCH   5   8
TORSDOF 1
ENDMDL
MODEL 3
REMARK VINA RESULT:    -4.372      1.372      2.733
REMARK INTER + INTRA:          -4.825
REMARK INTER:                  -4.625
REMARK INTRA:                  -0.200
REMARK UNBOUND:                -0.197
REMARK SMILES CC1=CC[C@H](C(C)C)C=C1
REMARK SMILES IDX 1 1 2 2 3 3 4 4 5 5 9 6 10 7 6 8 7 9 8 10
REMARK H PARENT
REMARK Flexibility Score: inf
ROOT
ATOM      1  C   UNL     1      33.080  12.607  30.778  1.00  0.00     0.044 C 
ATOM      2  C   UNL     1      32.539  11.354  31.402  1.00  0.00    -0.055 C 
ATOM      3  C   UNL     1      31.969  10.410  30.638  1.00  0.00    -0.023 C 
ATOM      4  C   UNL     1      31.368   9.178  31.263  1.00  0.00     0.035 C 
ATOM      5  C   UNL     1      32.193   8.714  32.491  1.00  0.00     0.018 C 
ATOM      6  C   UNL     1      32.476   9.913  33.382  1.00  0.00    -0.023 C 
ATOM      7  C   UNL     1      32.695  11.123  32.854  1.00  0.00    -0.001 C 
ENDROOT
BRANCH   5   8
ATOM      8  C   UNL     1      31.504   7.561  33.289  1.00  0.00    -0.010 C 
ATOM      9  C   UNL     1      30.128   7.214  32.689  1.00  0.00     0.008 C 
ATOM     10  C   UNL     1      31.316   7.904  34.778  1.00  0.00     0.008 C 
ENDBRANCH   5   8
TORSDOF 1
ENDMDL
MODEL 4
REMARK VINA RESULT:    -4.356      2.584      5.707
REMARK INTER + INTRA:          -4.808
REMARK INTER:                  -4.608
REMARK INTRA:                  -0.200
REMARK UNBOUND:                -0.197
REMARK SMILES CC1=CC[C@H](C(C)C)C=C1
REMARK SMILES IDX 1 1 2 2 3 3 4 4 5 5 9 6 10 7 6 8 7 9 8 10
REMARK H PARENT
REMARK Flexibility Score: inf
ROOT
ATOM      1  C   UNL     1      32.940  11.125  33.740  1.00  0.00     0.044 C 
ATOM      2  C   UNL     1      32.631  10.862  32.295  1.00  0.00    -0.055 C 
ATOM      3  C   UNL     1      31.860   9.822  31.946  1.00  0.00    -0.023 C 
ATOM      4  C   UNL     1      31.596   9.515  30.495  1.00  0.00     0.035 C 
ATOM      5  C   UNL     1      31.477  10.815  29.660  1.00  0.00     0.018 C 
ATOM      6  C   UNL     1      32.637  11.736  30.007  1.00  0.00    -0.023 C 
ATOM      7  C   UNL     1      33.121  11.790  31.253  1.00  0.00    -0.001 C 
ENDROOT
BRANCH   5   8
ATOM      8  C   UNL     1      31.402  10.549  28.123  1.00  0.00    -0.010 C 
ATOM      9  C   UNL     1      31.726   9.079  27.795  1.00  0.00     0.008 C 
ATOM     10  C   UNL     1      32.356  11.451  27.320  1.00  0.00     0.008 C 
ENDBRANCH   5   8
TORSDOF 1
ENDMDL
MODEL 5
REMARK VINA RESULT:    -4.272      2.791      6.132
REMARK INTER + INTRA:          -4.719
REMARK INTER:                  -4.550
REMARK INTRA:                  -0.168
REMARK UNBOUND:                -0.197
REMARK SMILES CC1=CC[C@H](C(C)C)C=C1
REMARK SMILES IDX 1 1 2 2 3 3 4 4 5 5 9 6 10 7 6 8 7 9 8 10
REMARK H PARENT
REMARK Flexibility Score: inf
ROOT
ATOM      1  C   UNL     1      32.613   9.246  32.809  1.00  0.00     0.044 C 
ATOM      2  C   UNL     1      32.385  10.152  31.635  1.00  0.00    -0.055 C 
ATOM      3  C   UNL     1      33.035  11.323  31.547  1.00  0.00    -0.023 C 
ATOM      4  C   UNL     1      32.766  12.265  30.403  1.00  0.00     0.035 C 
ATOM      5  C   UNL     1      32.494  11.489  29.089  1.00  0.00     0.018 C 
ATOM      6  C   UNL     1      31.491  10.380  29.366  1.00  0.00    -0.023 C 
ATOM      7  C   UNL     1      31.494   9.727  30.533  1.00  0.00    -0.001 C 
ENDROOT
BRANCH   5   8
ATOM      8  C   UNL     1      32.017  12.411  27.923  1.00  0.00    -0.010 C 
ATOM      9  C   UNL     1      30.496  12.648  27.987  1.00  0.00     0.008 C 
ATOM     10  C   UNL     1      32.365  11.838  26.537  1.00  0.00     0.008 C 
ENDBRANCH   5   8
TORSDOF 1
ENDMDL
MODEL 6
REMARK VINA RESULT:    -4.264      1.115      4.506
REMARK INTER + INTRA:          -4.710
REMARK INTER:                  -4.511
REMARK INTRA:                  -0.199
REMARK UNBOUND:                -0.197
REMARK SMILES CC1=CC[C@H](C(C)C)C=C1
REMARK SMILES IDX 1 1 2 2 3 3 4 4 5 5 9 6 10 7 6 8 7 9 8 10
REMARK H PARENT
REMARK Flexibility Score: inf
ROOT
ATOM      1  C   UNL     1      30.508   9.441  38.878  1.00  0.00     0.044 C 
ATOM      2  C   UNL     1      30.922   9.226  37.452  1.00  0.00    -0.055 C 
ATOM      3  C   UNL     1      30.736   8.035  36.865  1.00  0.00    -0.023 C 
ATOM      4  C   UNL     1      31.206   7.792  35.455  1.00  0.00     0.035 C 
ATOM      5  C   UNL     1      31.034   9.062  34.582  1.00  0.00     0.018 C 
ATOM      6  C   UNL     1      31.590  10.261  35.335  1.00  0.00    -0.023 C 
ATOM      7  C   UNL     1      31.474  10.350  36.665  1.00  0.00    -0.001 C 
ENDROOT
BRANCH   5   8
ATOM      8  C   UNL     1      31.687   8.925  33.170  1.00  0.00    -0.010 C 
ATOM      9  C   UNL     1      32.299   7.525  32.972  1.00  0.00     0.008 C 
ATOM     10  C   UNL     1      32.782   9.977  32.920  1.00  0.00     0.008 C 
ENDBRANCH   5   8
TORSDOF 1
ENDMDL
MODEL 7
REMARK VINA RESULT:    -4.245      2.209      4.475
REMARK INTER + INTRA:          -4.691
REMARK INTER:                  -4.572
REMARK INTRA:                  -0.119
REMARK UNBOUND:                -0.197
REMARK SMILES CC1=CC[C@H](C(C)C)C=C1
REMARK SMILES IDX 1 1 2 2 3 3 4 4 5 5 9 6 10 7 6 8 7 9 8 10
REMARK H PARENT
REMARK Flexibility Score: inf
ROOT
ATOM      1  C   UNL     1      29.473   6.456  30.533  1.00  0.00     0.044 C 
ATOM      2  C   UNL     1      30.461   7.525  30.898  1.00  0.00    -0.055 C 
ATOM      3  C   UNL     1      30.592   8.617  30.130  1.00  0.00    -0.023 C 
ATOM      4  C   UNL     1      31.624   9.665  30.455  1.00  0.00     0.035 C 
ATOM      5  C   UNL     1      31.785   9.835  31.988  1.00  0.00     0.018 C 
ATOM      6  C   UNL     1      31.918   8.463  32.629  1.00  0.00    -0.023 C 
ATOM      7  C   UNL     1      31.247   7.411  32.146  1.00  0.00    -0.001 C 
ENDROOT
BRANCH   5   8
ATOM      8  C   UNL     1      32.979  10.763  32.377  1.00  0.00    -0.010 C 
ATOM      9  C   UNL     1      32.830  11.290  33.817  1.00  0.00     0.008 C 
ATOM     10  C   UNL     1      33.124  11.967  31.429  1.00  0.00     0.008 C 
ENDBRANCH   5   8
TORSDOF 1
ENDMDL
MODEL 8
REMARK VINA RESULT:    -4.239      1.897      3.685
REMARK INTER + INTRA:          -4.684
REMARK INTER:                  -4.484
REMARK INTRA:                  -0.200
REMARK UNBOUND:                -0.197
REMARK SMILES CC1=CC[C@H](C(C)C)C=C1
REMARK SMILES IDX 1 1 2 2 3 3 4 4 5 5 9 6 10 7 6 8 7 9 8 10
REMARK H PARENT
REMARK Flexibility Score: inf
ROOT
ATOM      1  C   UNL     1      32.367  11.462  27.763  1.00  0.00     0.044 C 
ATOM      2  C   UNL     1      32.189  11.091  29.206  1.00  0.00    -0.055 C 
ATOM      3  C   UNL     1      31.505   9.987  29.542  1.00  0.00    -0.023 C 
ATOM      4  C   UNL     1      31.269   9.641  30.989  1.00  0.00     0.035 C 
ATOM      5  C   UNL     1      32.489  10.029  31.863  1.00  0.00     0.018 C 
ATOM      6  C   UNL     1      32.917  11.447  31.518  1.00  0.00    -0.023 C 
ATOM      7  C   UNL     1      32.828  11.904  30.264  1.00  0.00    -0.001 C 
ENDROOT
BRANCH   5   8
ATOM      8  C   UNL     1      32.217   9.873  33.393  1.00  0.00    -0.010 C 
ATOM      9  C   UNL     1      30.768   9.423  33.659  1.00  0.00     0.008 C 
ATOM     10  C   UNL     1      32.477  11.174  34.175  1.00  0.00     0.008 C 
ENDBRANCH   5   8
TORSDOF 1
ENDMDL
MODEL 9
REMARK VINA RESULT:    -4.182      1.729      3.145
REMARK INTER + INTRA:          -4.623
REMARK INTER:                  -4.477
REMARK INTRA:                  -0.146
REMARK UNBOUND:                -0.197
REMARK SMILES CC1=CC[C@H](C(C)C)C=C1
REMARK SMILES IDX 1 1 2 2 3 3 4 4 5 5 9 6 10 7 6 8 7 9 8 10
REMARK H PARENT
REMARK Flexibility Score: inf
ROOT
ATOM      1  C   UNL     1      32.010  12.220  28.290  1.00  0.00     0.044 C 
ATOM      2  C   UNL     1      32.187  11.436  29.557  1.00  0.00    -0.055 C 
ATOM      3  C   UNL     1      32.809  11.985  30.611  1.00  0.00    -0.023 C 
ATOM      4  C   UNL     1      33.046  11.184  31.865  1.00  0.00     0.035 C 
ATOM      5  C   UNL     1      31.866  10.218  32.144  1.00  0.00     0.018 C 
ATOM      6  C   UNL     1      31.519   9.475  30.863  1.00  0.00    -0.023 C 
ATOM      7  C   UNL     1      31.616  10.077  29.673  1.00  0.00    -0.001 C 
ENDROOT
BRANCH   5   8
ATOM      8  C   UNL     1      32.151   9.228  33.317  1.00  0.00    -0.010 C 
ATOM      9  C   UNL     1      31.998   7.765  32.861  1.00  0.00     0.008 C 
ATOM     10  C   UNL     1      31.228   9.463  34.526  1.00  0.00     0.008 C 
ENDBRANCH   5   8
TORSDOF 1
ENDMDL
