MODEL 1
REMARK VINA RESULT:    -7.531      0.000      0.000
REMARK INTER + INTRA:         -15.412
REMARK INTER:                 -12.374
REMARK INTRA:                  -3.038
REMARK UNBOUND:                -3.038
REMARK SMILES C[C@@H]1O[C@@H](OC[C@H]2O[C@H](Oc3c(-c4ccc(O)c(O)c4)oc4cc(O)cc(O)c4c3=O)[C@@H](O)[C@H](O)[C@H]2O)[C@@H](O)[C@@H](O)[C@H]1O
REMARK SMILES IDX 7 1 36 2 34 3 32 4 9 5 8 6 6 7 5 8 4 9 1 10 2 11 42 12 3 13
REMARK SMILES IDX 40 14 38 15 43 16 41 18 39 20 37 22 35 24 10 26 11 27 12 28
REMARK SMILES IDX 30 29 21 30 29 31 31 32 22 33 27 34 23 35 26 36 24 37 13 38
REMARK SMILES IDX 20 39 14 40 18 41 15 42 16 43 19 44 17 46 28 48 25 50 33 52
REMARK H PARENT 43 17 41 19 39 21 37 23 35 25 19 45 17 47 28 49 25 51 33 53
REMARK Flexibility Score: inf
ROOT
ATOM      1  C   UNL     1      29.125   9.007  27.892  1.00  0.00     0.180 C 
ATOM      2  C   UNL     1      28.990   7.618  27.166  1.00  0.00     0.177 C 
ATOM      3  C   UNL     1      29.770   6.543  27.942  1.00  0.00     0.180 C 
ATOM      4  C   UNL     1      29.371   6.557  29.428  1.00  0.00     0.214 C 
ATOM      5  C   UNL     1      29.399   8.008  29.995  1.00  0.00     0.339 C 
ATOM      6  O   UNL     1      28.648   8.914  29.212  1.00  0.00    -0.332 OA
ENDROOT
BRANCH   1   7
ATOM      7  C   UNL     1      28.309  10.135  27.234  1.00  0.00     0.198 C 
BRANCH   7   8
ATOM      8  O   UNL     1      29.138  11.040  26.582  1.00  0.00    -0.347 OA
BRANCH   8   9
ATOM      9  C   UNL     1      29.313  10.806  25.201  1.00  0.00     0.281 C 
ATOM     10  C   UNL     1      30.720   9.736  22.660  1.00  0.00     0.041 C 
ATOM     11  C   UNL     1      31.034  11.007  23.517  1.00  0.00     0.150 C 
ATOM     12  C   UNL     1      30.410  12.300  22.913  1.00  0.00     0.174 C 
ATOM     13  O   UNL     1      30.727  10.842  24.916  1.00  0.00    -0.344 OA
ATOM     14  C   UNL     1      28.870  12.144  23.139  1.00  0.00     0.179 C 
ATOM     15  C   UNL     1      28.556  12.002  24.636  1.00  0.00     0.202 C 
BRANCH  12  16
ATOM     16  O   UNL     1      30.854  13.428  23.608  1.00  0.00    -0.388 OA
ATOM     17  H   UNL     1      31.848  13.282  23.706  1.00  0.00     0.211 HD
ENDBRANCH  12  16
BRANCH  14  18
ATOM     18  O   UNL     1      28.162  13.241  22.579  1.00  0.00    -0.387 OA
ATOM     19  H   UNL     1      28.557  14.073  22.959  1.00  0.00     0.211 HD
ENDBRANCH  14  18
BRANCH  15  20
ATOM     20  O   UNL     1      29.062  13.168  25.329  1.00  0.00    -0.385 OA
ATOM     21  H   UNL     1      29.208  14.003  24.759  1.00  0.00     0.211 HD
ENDBRANCH  15  20
ENDBRANCH   8   9
ENDBRANCH   7   8
ENDBRANCH   1   7
BRANCH   2  22
ATOM     22  O   UNL     1      27.646   7.281  27.037  1.00  0.00    -0.387 OA
ATOM     23  H   UNL     1      27.586   6.287  27.236  1.00  0.00     0.211 HD
ENDBRANCH   2  22
BRANCH   3  24
ATOM     24  O   UNL     1      31.163   6.621  27.782  1.00  0.00    -0.387 OA
ATOM     25  H   UNL     1      31.358   7.312  27.116  1.00  0.00     0.211 HD
ENDBRANCH   3  24
BRANCH   5  26
ATOM     26  O   UNL     1      30.746   8.493  30.175  1.00  0.00    -0.454 OA
BRANCH  26  27
ATOM     27  C   UNL     1      31.101   9.017  31.412  1.00  0.00     0.214 A 
ATOM     28  C   UNL     1      31.365  10.393  31.549  1.00  0.00     0.180 A 
ATOM     29  C   UNL     1      31.096   8.210  32.544  1.00  0.00     0.239 A 
ATOM     30  O   UNL     1      31.509  10.923  32.768  1.00  0.00    -0.452 OA
ATOM     31  C   UNL     1      31.290   8.783  33.817  1.00  0.00     0.111 A 
ATOM     32  O   UNL     1      30.837   6.973  32.412  1.00  0.00    -0.285 OA
ATOM     33  C   UNL     1      31.444  10.185  33.863  1.00  0.00     0.146 A 
ATOM     34  C   UNL     1      31.311   8.023  35.013  1.00  0.00     0.134 A 
ATOM     35  C   UNL     1      31.560  10.824  35.111  1.00  0.00     0.094 A 
ATOM     36  C   UNL     1      31.428   8.688  36.246  1.00  0.00     0.093 A 
ATOM     37  C   UNL     1      31.530  10.068  36.298  1.00  0.00     0.123 A 
BRANCH  28  38
ATOM     38  C   UNL     1      31.576  11.256  30.372  1.00  0.00     0.025 A 
ATOM     39  C   UNL     1      30.596  12.166  30.019  1.00  0.00     0.062 A 
ATOM     40  C   UNL     1      32.643  11.012  29.488  1.00  0.00     0.016 A 
ATOM     41  C   UNL     1      30.580  12.766  28.739  1.00  0.00     0.158 A 
ATOM     42  C   UNL     1      32.711  11.710  28.278  1.00  0.00     0.051 A 
ATOM     43  C   UNL     1      31.632  12.479  27.853  1.00  0.00     0.157 A 
BRANCH  41  44
ATOM     44  O   UNL     1      29.404  13.385  28.309  1.00  0.00    -0.504 OA
ATOM     45  H   UNL     1      29.031  14.202  28.753  1.00  0.00     0.293 HD
ENDBRANCH  41  44
BRANCH  43  46
ATOM     46  O   UNL     1      31.618  13.033  26.561  1.00  0.00    -0.504 OA
ATOM     47  H   UNL     1      32.471  13.312  26.089  1.00  0.00     0.293 HD
ENDBRANCH  43  46
ENDBRANCH  28  38
BRANCH  34  48
ATOM     48  O   UNL     1      31.225   6.637  34.987  1.00  0.00    -0.507 OA
ATOM     49  H   UNL     1      30.337   6.149  34.918  1.00  0.00     0.293 HD
ENDBRANCH  34  48
BRANCH  37  50
ATOM     50  O   UNL     1      31.664  10.704  37.521  1.00  0.00    -0.508 OA
ATOM     51  H   UNL     1      30.952  10.619  38.233  1.00  0.00     0.293 HD
ENDBRANCH  37  50
ENDBRANCH  26  27
ENDBRANCH   5  26
BRANCH   4  52
ATOM     52  O   UNL     1      28.094   5.978  29.565  1.00  0.00    -0.384 OA
ATOM     53  H   UNL     1      27.484   6.392  28.877  1.00  0.00     0.211 HD
ENDBRANCH   4  52
TORSDOF 16
ENDMDL
MODEL 2
REMARK VINA RESULT:    -7.495      2.058      9.213
REMARK INTER + INTRA:         -15.353
REMARK INTER:                 -12.389
REMARK INTRA:                  -2.964
REMARK UNBOUND:                -3.038
REMARK SMILES C[C@@H]1O[C@@H](OC[C@H]2O[C@H](Oc3c(-c4ccc(O)c(O)c4)oc4cc(O)cc(O)c4c3=O)[C@@H](O)[C@H](O)[C@H]2O)[C@@H](O)[C@@H](O)[C@H]1O
REMARK SMILES IDX 7 1 36 2 34 3 32 4 9 5 8 6 6 7 5 8 4 9 1 10 2 11 42 12 3 13
REMARK SMILES IDX 40 14 38 15 43 16 41 18 39 20 37 22 35 24 10 26 11 27 12 28
REMARK SMILES IDX 30 29 21 30 29 31 31 32 22 33 27 34 23 35 26 36 24 37 13 38
REMARK SMILES IDX 20 39 14 40 18 41 15 42 16 43 19 44 17 46 28 48 25 50 33 52
REMARK H PARENT 43 17 41 19 39 21 37 23 35 25 19 45 17 47 28 49 25 51 33 53
REMARK Flexibility Score: inf
ROOT
ATOM      1  C   UNL     1      32.083  11.033  29.796  1.00  0.00     0.180 C 
ATOM      2  C   UNL     1      31.947  12.600  29.802  1.00  0.00     0.177 C 
ATOM      3  C   UNL     1      31.582  13.100  28.393  1.00  0.00     0.180 C 
ATOM      4  C   UNL     1      30.367  12.329  27.848  1.00  0.00     0.214 C 
ATOM      5  C   UNL     1      30.556  10.794  28.034  1.00  0.00     0.339 C 
ATOM      6  O   UNL     1      30.883  10.442  29.363  1.00  0.00    -0.332 OA
ENDROOT
BRANCH   1   7
ATOM      7  C   UNL     1      32.369  10.428  31.182  1.00  0.00     0.198 C 
BRANCH   7   8
ATOM      8  O   UNL     1      31.701   9.221  31.351  1.00  0.00    -0.347 OA
BRANCH   8   9
ATOM      9  C   UNL     1      31.379   8.896  32.687  1.00  0.00     0.281 C 
ATOM     10  C   UNL     1      31.535   7.302  35.336  1.00  0.00     0.041 C 
ATOM     11  C   UNL     1      30.789   6.958  34.004  1.00  0.00     0.150 C 
ATOM     12  C   UNL     1      29.281   7.345  34.051  1.00  0.00     0.174 C 
ATOM     13  O   UNL     1      31.456   7.462  32.830  1.00  0.00    -0.344 OA
ATOM     14  C   UNL     1      29.268   8.909  34.022  1.00  0.00     0.179 C 
ATOM     15  C   UNL     1      29.953   9.429  32.749  1.00  0.00     0.202 C 
BRANCH  12  16
ATOM     16  O   UNL     1      28.618   6.868  32.918  1.00  0.00    -0.388 OA
ATOM     17  H   UNL     1      29.264   6.206  32.513  1.00  0.00     0.211 HD
ENDBRANCH  12  16
BRANCH  14  18
ATOM     18  O   UNL     1      27.940   9.406  34.117  1.00  0.00    -0.387 OA
ATOM     19  H   UNL     1      27.384   8.689  34.528  1.00  0.00     0.211 HD
ENDBRANCH  14  18
BRANCH  15  20
ATOM     20  O   UNL     1      29.265   8.887  31.596  1.00  0.00    -0.385 OA
ATOM     21  H   UNL     1      29.836   8.348  30.943  1.00  0.00     0.211 HD
ENDBRANCH  15  20
ENDBRANCH   8   9
ENDBRANCH   7   8
ENDBRANCH   1   7
BRANCH   2  22
ATOM     22  O   UNL     1      30.999  12.988  30.744  1.00  0.00    -0.387 OA
ATOM     23  H   UNL     1      30.634  12.128  31.143  1.00  0.00     0.211 HD
ENDBRANCH   2  22
BRANCH   3  24
ATOM     24  O   UNL     1      32.653  13.081  27.486  1.00  0.00    -0.387 OA
ATOM     25  H   UNL     1      33.358  13.667  27.829  1.00  0.00     0.211 HD
ENDBRANCH   3  24
BRANCH   5  26
ATOM     26  O   UNL     1      31.528  10.253  27.115  1.00  0.00    -0.454 OA
BRANCH  26  27
ATOM     27  C   UNL     1      31.086   9.783  25.885  1.00  0.00     0.214 A 
ATOM     28  C   UNL     1      30.321   8.604  25.809  1.00  0.00     0.180 A 
ATOM     29  C   UNL     1      31.304  10.526  24.729  1.00  0.00     0.239 A 
ATOM     30  O   UNL     1      29.733   8.266  24.658  1.00  0.00    -0.452 OA
ATOM     31  C   UNL     1      30.707  10.131  23.516  1.00  0.00     0.111 A 
ATOM     32  O   UNL     1      31.979  11.600  24.811  1.00  0.00    -0.285 OA
ATOM     33  C   UNL     1      29.874   8.993  23.562  1.00  0.00     0.146 A 
ATOM     34  C   UNL     1      30.893  10.830  22.297  1.00  0.00     0.134 A 
ATOM     35  C   UNL     1      29.185   8.596  22.401  1.00  0.00     0.094 A 
ATOM     36  C   UNL     1      30.194  10.412  21.153  1.00  0.00     0.093 A 
ATOM     37  C   UNL     1      29.336   9.325  21.206  1.00  0.00     0.123 A 
BRANCH  28  38
ATOM     38  C   UNL     1      30.223   7.678  26.954  1.00  0.00     0.025 A 
ATOM     39  C   UNL     1      28.973   7.279  27.392  1.00  0.00     0.062 A 
ATOM     40  C   UNL     1      31.356   7.379  27.731  1.00  0.00     0.016 A 
ATOM     41  C   UNL     1      28.798   6.684  28.662  1.00  0.00     0.158 A 
ATOM     42  C   UNL     1      31.207   6.663  28.923  1.00  0.00     0.051 A 
ATOM     43  C   UNL     1      29.938   6.430  29.445  1.00  0.00     0.157 A 
BRANCH  41  44
ATOM     44  O   UNL     1      27.510   6.628  29.199  1.00  0.00    -0.504 OA
ATOM     45  H   UNL     1      26.813   7.321  29.005  1.00  0.00     0.293 HD
ENDBRANCH  41  44
BRANCH  43  46
ATOM     46  O   UNL     1      29.786   5.875  30.726  1.00  0.00    -0.504 OA
ATOM     47  H   UNL     1      29.962   6.414  31.567  1.00  0.00     0.293 HD
ENDBRANCH  43  46
ENDBRANCH  28  38
BRANCH  34  48
ATOM     48  O   UNL     1      31.758  11.913  22.214  1.00  0.00    -0.507 OA
ATOM     49  H   UNL     1      31.987  12.489  23.020  1.00  0.00     0.293 HD
ENDBRANCH  34  48
BRANCH  37  50
ATOM     50  O   UNL     1      28.670   8.916  20.062  1.00  0.00    -0.508 OA
ATOM     51  H   UNL     1      27.785   8.431  20.121  1.00  0.00     0.293 HD
ENDBRANCH  37  50
ENDBRANCH  26  27
ENDBRANCH   5  26
BRANCH   4  52
ATOM     52  O   UNL     1      29.205  12.785  28.501  1.00  0.00    -0.384 OA
ATOM     53  H   UNL     1      28.445  12.775  27.839  1.00  0.00     0.211 HD
ENDBRANCH   4  52
TORSDOF 16
ENDMDL
MODEL 3
REMARK VINA RESULT:    -7.313      1.698      4.525
REMARK INTER + INTRA:         -15.054
REMARK INTER:                 -12.233
REMARK INTRA:                  -2.821
REMARK UNBOUND:                -3.038
REMARK SMILES C[C@@H]1O[C@@H](OC[C@H]2O[C@H](Oc3c(-c4ccc(O)c(O)c4)oc4cc(O)cc(O)c4c3=O)[C@@H](O)[C@H](O)[C@H]2O)[C@@H](O)[C@@H](O)[C@H]1O
REMARK SMILES IDX 7 1 36 2 34 3 32 4 9 5 8 6 6 7 5 8 4 9 1 10 2 11 42 12 3 13
REMARK SMILES IDX 40 14 38 15 43 16 41 18 39 20 37 22 35 24 10 26 11 27 12 28
REMARK SMILES IDX 30 29 21 30 29 31 31 32 22 33 27 34 23 35 26 36 24 37 13 38
REMARK SMILES IDX 20 39 14 40 18 41 15 42 16 43 19 44 17 46 28 48 25 50 33 52
REMARK H PARENT 43 17 41 19 39 21 37 23 35 25 19 45 17 47 28 49 25 51 33 53
REMARK Flexibility Score: inf
ROOT
ATOM      1  C   UNL     1      29.690  11.670  27.667  1.00  0.00     0.180 C 
ATOM      2  C   UNL     1      30.646  12.858  28.054  1.00  0.00     0.177 C 
ATOM      3  C   UNL     1      31.199  12.644  29.474  1.00  0.00     0.180 C 
ATOM      4  C   UNL     1      31.802  11.235  29.609  1.00  0.00     0.214 C 
ATOM      5  C   UNL     1      30.822  10.158  29.055  1.00  0.00     0.339 C 
ATOM      6  O   UNL     1      30.379  10.446  27.745  1.00  0.00    -0.332 OA
ENDROOT
BRANCH   1   7
ATOM      7  C   UNL     1      29.147  11.751  26.228  1.00  0.00     0.198 C 
BRANCH   7   8
ATOM      8  O   UNL     1      30.175  11.665  25.297  1.00  0.00    -0.347 OA
BRANCH   8   9
ATOM      9  C   UNL     1      29.798  11.159  24.034  1.00  0.00     0.281 C 
ATOM     10  C   UNL     1      27.860  10.111  21.860  1.00  0.00     0.041 C 
ATOM     11  C   UNL     1      28.457   9.377  23.107  1.00  0.00     0.150 C 
ATOM     12  C   UNL     1      29.702   8.513  22.747  1.00  0.00     0.174 C 
ATOM     13  O   UNL     1      28.692  10.253  24.227  1.00  0.00    -0.344 OA
ATOM     14  C   UNL     1      30.829   9.549  22.426  1.00  0.00     0.179 C 
ATOM     15  C   UNL     1      31.090  10.454  23.640  1.00  0.00     0.202 C 
BRANCH  12  16
ATOM     16  O   UNL     1      30.097   7.744  23.845  1.00  0.00    -0.388 OA
ATOM     17  H   UNL     1      29.624   8.169  24.628  1.00  0.00     0.211 HD
ENDBRANCH  12  16
BRANCH  14  18
ATOM     18  O   UNL     1      32.022   8.891  22.023  1.00  0.00    -0.387 OA
ATOM     19  H   UNL     1      32.786   9.456  22.320  1.00  0.00     0.211 HD
ENDBRANCH  14  18
BRANCH  15  20
ATOM     20  O   UNL     1      31.461   9.623  24.766  1.00  0.00    -0.385 OA
ATOM     21  H   UNL     1      30.691   9.236  25.313  1.00  0.00     0.211 HD
ENDBRANCH  15  20
ENDBRANCH   8   9
ENDBRANCH   7   8
ENDBRANCH   1   7
BRANCH   2  22
ATOM     22  O   UNL     1      31.669  12.965  27.117  1.00  0.00    -0.387 OA
ATOM     23  H   UNL     1      31.365  12.431  26.308  1.00  0.00     0.211 HD
ENDBRANCH   2  22
BRANCH   3  24
ATOM     24  O   UNL     1      30.270  12.907  30.494  1.00  0.00    -0.387 OA
ATOM     25  H   UNL     1      29.934  12.051  30.831  1.00  0.00     0.211 HD
ENDBRANCH   3  24
BRANCH   5  26
ATOM     26  O   UNL     1      29.697   9.947  29.933  1.00  0.00    -0.454 OA
BRANCH  26  27
ATOM     27  C   UNL     1      29.884   9.184  31.079  1.00  0.00     0.214 A 
ATOM     28  C   UNL     1      30.067   7.791  30.981  1.00  0.00     0.180 A 
ATOM     29  C   UNL     1      29.999   9.798  32.321  1.00  0.00     0.239 A 
ATOM     30  O   UNL     1      30.445   7.094  32.056  1.00  0.00    -0.452 OA
ATOM     31  C   UNL     1      30.358   9.037  33.451  1.00  0.00     0.111 A 
ATOM     32  O   UNL     1      29.851  11.058  32.396  1.00  0.00    -0.285 OA
ATOM     33  C   UNL     1      30.622   7.668  33.234  1.00  0.00     0.146 A 
ATOM     34  C   UNL     1      30.482   9.591  34.750  1.00  0.00     0.134 A 
ATOM     35  C   UNL     1      31.064   6.873  34.308  1.00  0.00     0.094 A 
ATOM     36  C   UNL     1      30.924   8.774  35.804  1.00  0.00     0.093 A 
ATOM     37  C   UNL     1      31.232   7.441  35.585  1.00  0.00     0.123 A 
BRANCH  28  38
ATOM     38  C   UNL     1      29.767   7.063  29.733  1.00  0.00     0.025 A 
ATOM     39  C   UNL     1      30.687   7.089  28.701  1.00  0.00     0.062 A 
ATOM     40  C   UNL     1      28.483   6.540  29.503  1.00  0.00     0.016 A 
ATOM     41  C   UNL     1      30.324   6.710  27.388  1.00  0.00     0.158 A 
ATOM     42  C   UNL     1      28.160   6.031  28.240  1.00  0.00     0.051 A 
ATOM     43  C   UNL     1      29.022   6.229  27.166  1.00  0.00     0.157 A 
BRANCH  41  44
ATOM     44  O   UNL     1      31.160   7.084  26.333  1.00  0.00    -0.504 OA
ATOM     45  H   UNL     1      30.810   7.328  25.427  1.00  0.00     0.293 HD
ENDBRANCH  41  44
BRANCH  43  46
ATOM     46  O   UNL     1      28.626   5.884  25.863  1.00  0.00    -0.504 OA
ATOM     47  H   UNL     1      28.023   5.090  25.679  1.00  0.00     0.293 HD
ENDBRANCH  43  46
ENDBRANCH  28  38
BRANCH  34  48
ATOM     48  O   UNL     1      30.165  10.920  34.999  1.00  0.00    -0.507 OA
ATOM     49  H   UNL     1      29.405  11.396  34.521  1.00  0.00     0.293 HD
ENDBRANCH  34  48
BRANCH  37  50
ATOM     50  O   UNL     1      31.649   6.647  36.641  1.00  0.00    -0.508 OA
ATOM     51  H   UNL     1      32.411   6.935  37.239  1.00  0.00     0.293 HD
ENDBRANCH  37  50
ENDBRANCH  26  27
ENDBRANCH   5  26
BRANCH   4  52
ATOM     52  O   UNL     1      33.038  11.199  28.933  1.00  0.00    -0.384 OA
ATOM     53  H   UNL     1      33.615  11.945  29.290  1.00  0.00     0.211 HD
ENDBRANCH   4  52
TORSDOF 16
ENDMDL
MODEL 4
REMARK VINA RESULT:    -7.159      2.178      4.357
REMARK INTER + INTRA:         -14.801
REMARK INTER:                 -11.869
REMARK INTRA:                  -2.932
REMARK UNBOUND:                -3.038
REMARK SMILES C[C@@H]1O[C@@H](OC[C@H]2O[C@H](Oc3c(-c4ccc(O)c(O)c4)oc4cc(O)cc(O)c4c3=O)[C@@H](O)[C@H](O)[C@H]2O)[C@@H](O)[C@@H](O)[C@H]1O
REMARK SMILES IDX 7 1 36 2 34 3 32 4 9 5 8 6 6 7 5 8 4 9 1 10 2 11 42 12 3 13
REMARK SMILES IDX 40 14 38 15 43 16 41 18 39 20 37 22 35 24 10 26 11 27 12 28
REMARK SMILES IDX 30 29 21 30 29 31 31 32 22 33 27 34 23 35 26 36 24 37 13 38
REMARK SMILES IDX 20 39 14 40 18 41 15 42 16 43 19 44 17 46 28 48 25 50 33 52
REMARK H PARENT 43 17 41 19 39 21 37 23 35 25 19 45 17 47 28 49 25 51 33 53
REMARK Flexibility Score: inf
ROOT
ATOM      1  C   UNL     1      28.059  10.989  27.203  1.00  0.00     0.180 C 
ATOM      2  C   UNL     1      27.350  12.360  26.900  1.00  0.00     0.177 C 
ATOM      3  C   UNL     1      27.114  13.128  28.212  1.00  0.00     0.180 C 
ATOM      4  C   UNL     1      28.418  13.220  29.023  1.00  0.00     0.214 C 
ATOM      5  C   UNL     1      29.104  11.825  29.128  1.00  0.00     0.339 C 
ATOM      6  O   UNL     1      29.279  11.208  27.869  1.00  0.00    -0.332 OA
ENDROOT
BRANCH   1   7
ATOM      7  C   UNL     1      28.413  10.178  25.943  1.00  0.00     0.198 C 
BRANCH   7   8
ATOM      8  O   UNL     1      29.460  10.767  25.244  1.00  0.00    -0.347 OA
BRANCH   8   9
ATOM      9  C   UNL     1      29.411  10.604  23.842  1.00  0.00     0.281 C 
ATOM     10  C   UNL     1      28.130   9.924  21.108  1.00  0.00     0.041 C 
ATOM     11  C   UNL     1      28.682   8.970  22.218  1.00  0.00     0.150 C 
ATOM     12  C   UNL     1      30.135   8.493  21.922  1.00  0.00     0.174 C 
ATOM     13  O   UNL     1      28.531   9.498  23.551  1.00  0.00    -0.344 OA
ATOM     14  C   UNL     1      31.024   9.762  22.131  1.00  0.00     0.179 C 
ATOM     15  C   UNL     1      30.877  10.294  23.564  1.00  0.00     0.202 C 
BRANCH  12  16
ATOM     16  O   UNL     1      30.525   7.514  22.841  1.00  0.00    -0.388 OA
ATOM     17  H   UNL     1      31.440   7.230  22.526  1.00  0.00     0.211 HD
ENDBRANCH  12  16
BRANCH  14  18
ATOM     18  O   UNL     1      32.385   9.481  21.836  1.00  0.00    -0.387 OA
ATOM     19  H   UNL     1      32.507   8.496  21.910  1.00  0.00     0.211 HD
ENDBRANCH  14  18
BRANCH  15  20
ATOM     20  O   UNL     1      31.253   9.244  24.489  1.00  0.00    -0.385 OA
ATOM     21  H   UNL     1      32.172   9.336  24.925  1.00  0.00     0.211 HD
ENDBRANCH  15  20
ENDBRANCH   8   9
ENDBRANCH   7   8
ENDBRANCH   1   7
BRANCH   2  22
ATOM     22  O   UNL     1      28.117  13.099  26.005  1.00  0.00    -0.387 OA
ATOM     23  H   UNL     1      29.070  12.763  26.108  1.00  0.00     0.211 HD
ENDBRANCH   2  22
BRANCH   3  24
ATOM     24  O   UNL     1      26.059  12.623  28.987  1.00  0.00    -0.387 OA
ATOM     25  H   UNL     1      25.442  12.147  28.395  1.00  0.00     0.211 HD
ENDBRANCH   3  24
BRANCH   5  26
ATOM     26  O   UNL     1      28.403  10.943  30.029  1.00  0.00    -0.454 OA
BRANCH  26  27
ATOM     27  C   UNL     1      29.038  10.553  31.202  1.00  0.00     0.214 A 
ATOM     28  C   UNL     1      30.053   9.578  31.168  1.00  0.00     0.180 A 
ATOM     29  C   UNL     1      28.754  11.196  32.402  1.00  0.00     0.239 A 
ATOM     30  O   UNL     1      30.794   9.353  32.257  1.00  0.00    -0.452 OA
ATOM     31  C   UNL     1      29.521  10.915  33.549  1.00  0.00     0.111 A 
ATOM     32  O   UNL     1      27.850  12.089  32.417  1.00  0.00    -0.285 OA
ATOM     33  C   UNL     1      30.583   9.999  33.391  1.00  0.00     0.146 A 
ATOM     34  C   UNL     1      29.282  11.520  34.808  1.00  0.00     0.134 A 
ATOM     35  C   UNL     1      31.435   9.738  34.480  1.00  0.00     0.094 A 
ATOM     36  C   UNL     1      30.149  11.241  35.878  1.00  0.00     0.093 A 
ATOM     37  C   UNL     1      31.222  10.381  35.714  1.00  0.00     0.123 A 
BRANCH  28  38
ATOM     38  C   UNL     1      30.264   8.731  29.979  1.00  0.00     0.025 A 
ATOM     39  C   UNL     1      31.389   8.931  29.200  1.00  0.00     0.062 A 
ATOM     40  C   UNL     1      29.240   7.887  29.512  1.00  0.00     0.016 A 
ATOM     41  C   UNL     1      31.477   8.402  27.892  1.00  0.00     0.158 A 
ATOM     42  C   UNL     1      29.384   7.245  28.277  1.00  0.00     0.051 A 
ATOM     43  C   UNL     1      30.426   7.595  27.424  1.00  0.00     0.157 A 
BRANCH  41  44
ATOM     44  O   UNL     1      32.449   8.917  27.030  1.00  0.00    -0.504 OA
ATOM     45  H   UNL     1      32.949   8.345  26.378  1.00  0.00     0.293 HD
ENDBRANCH  41  44
BRANCH  43  46
ATOM     46  O   UNL     1      30.473   7.090  26.114  1.00  0.00    -0.504 OA
ATOM     47  H   UNL     1      29.895   7.471  25.372  1.00  0.00     0.293 HD
ENDBRANCH  43  46
ENDBRANCH  28  38
BRANCH  34  48
ATOM     48  O   UNL     1      28.205  12.374  35.003  1.00  0.00    -0.507 OA
ATOM     49  H   UNL     1      27.822  12.564  35.925  1.00  0.00     0.293 HD
ENDBRANCH  34  48
BRANCH  37  50
ATOM     50  O   UNL     1      32.054  10.104  36.786  1.00  0.00    -0.508 OA
ATOM     51  H   UNL     1      32.666  10.812  37.167  1.00  0.00     0.293 HD
ENDBRANCH  37  50
ENDBRANCH  26  27
ENDBRANCH   5  26
BRANCH   4  52
ATOM     52  O   UNL     1      29.269  14.166  28.418  1.00  0.00    -0.384 OA
ATOM     53  H   UNL     1      28.948  15.088  28.671  1.00  0.00     0.211 HD
ENDBRANCH   4  52
TORSDOF 16
ENDMDL
MODEL 5
REMARK VINA RESULT:    -7.143      2.284      4.061
REMARK INTER + INTRA:         -14.774
REMARK INTER:                 -11.734
REMARK INTRA:                  -3.040
REMARK UNBOUND:                -3.038
REMARK SMILES C[C@@H]1O[C@@H](OC[C@H]2O[C@H](Oc3c(-c4ccc(O)c(O)c4)oc4cc(O)cc(O)c4c3=O)[C@@H](O)[C@H](O)[C@H]2O)[C@@H](O)[C@@H](O)[C@H]1O
REMARK SMILES IDX 7 1 36 2 34 3 32 4 9 5 8 6 6 7 5 8 4 9 1 10 2 11 42 12 3 13
REMARK SMILES IDX 40 14 38 15 43 16 41 18 39 20 37 22 35 24 10 26 11 27 12 28
REMARK SMILES IDX 30 29 21 30 29 31 31 32 22 33 27 34 23 35 26 36 24 37 13 38
REMARK SMILES IDX 20 39 14 40 18 41 15 42 16 43 19 44 17 46 28 48 25 50 33 52
REMARK H PARENT 43 17 41 19 39 21 37 23 35 25 19 45 17 47 28 49 25 51 33 53
REMARK Flexibility Score: inf
ROOT
ATOM      1  C   UNL     1      28.796  12.807  27.663  1.00  0.00     0.180 C 
ATOM      2  C   UNL     1      27.357  13.412  27.468  1.00  0.00     0.177 C 
ATOM      3  C   UNL     1      26.494  13.121  28.709  1.00  0.00     0.180 C 
ATOM      4  C   UNL     1      27.230  13.557  29.989  1.00  0.00     0.214 C 
ATOM      5  C   UNL     1      28.693  13.020  29.995  1.00  0.00     0.339 C 
ATOM      6  O   UNL     1      29.398  13.345  28.815  1.00  0.00    -0.332 OA
ENDROOT
BRANCH   1   7
ATOM      7  C   UNL     1      29.763  13.115  26.505  1.00  0.00     0.198 C 
BRANCH   7   8
ATOM      8  O   UNL     1      30.254  11.946  25.935  1.00  0.00    -0.347 OA
BRANCH   8   9
ATOM      9  C   UNL     1      29.809  11.689  24.620  1.00  0.00     0.281 C 
ATOM     10  C   UNL     1      28.188  10.264  22.401  1.00  0.00     0.041 C 
ATOM     11  C   UNL     1      29.494   9.810  23.134  1.00  0.00     0.150 C 
ATOM     12  C   UNL     1      30.778  10.135  22.315  1.00  0.00     0.174 C 
ATOM     13  O   UNL     1      29.572  10.270  24.498  1.00  0.00    -0.344 OA
ATOM     14  C   UNL     1      30.910  11.692  22.378  1.00  0.00     0.179 C 
ATOM     15  C   UNL     1      31.026  12.164  23.836  1.00  0.00     0.202 C 
BRANCH  12  16
ATOM     16  O   UNL     1      31.901   9.563  22.920  1.00  0.00    -0.388 OA
ATOM     17  H   UNL     1      32.303   8.984  22.197  1.00  0.00     0.211 HD
ENDBRANCH  12  16
BRANCH  14  18
ATOM     18  O   UNL     1      32.024  12.137  21.616  1.00  0.00    -0.387 OA
ATOM     19  H   UNL     1      31.757  12.109  20.657  1.00  0.00     0.211 HD
ENDBRANCH  14  18
BRANCH  15  20
ATOM     20  O   UNL     1      32.175  11.525  24.441  1.00  0.00    -0.385 OA
ATOM     21  H   UNL     1      33.041  12.066  24.447  1.00  0.00     0.211 HD
ENDBRANCH  15  20
ENDBRANCH   8   9
ENDBRANCH   7   8
ENDBRANCH   1   7
BRANCH   2  22
ATOM     22  O   UNL     1      27.449  14.777  27.217  1.00  0.00    -0.387 OA
ATOM     23  H   UNL     1      27.937  14.867  26.331  1.00  0.00     0.211 HD
ENDBRANCH   2  22
BRANCH   3  24
ATOM     24  O   UNL     1      26.049  11.793  28.797  1.00  0.00    -0.387 OA
ATOM     25  H   UNL     1      25.257  11.771  29.371  1.00  0.00     0.211 HD
ENDBRANCH   3  24
BRANCH   5  26
ATOM     26  O   UNL     1      28.748  11.599  30.241  1.00  0.00    -0.454 OA
BRANCH  26  27
ATOM     27  C   UNL     1      29.384  11.150  31.391  1.00  0.00     0.214 A 
ATOM     28  C   UNL     1      30.645  10.530  31.306  1.00  0.00     0.180 A 
ATOM     29  C   UNL     1      28.834  11.403  32.643  1.00  0.00     0.239 A 
ATOM     30  O   UNL     1      31.340  10.282  32.421  1.00  0.00    -0.452 OA
ATOM     31  C   UNL     1      29.566  11.097  33.807  1.00  0.00     0.111 A 
ATOM     32  O   UNL     1      27.705  11.981  32.709  1.00  0.00    -0.285 OA
ATOM     33  C   UNL     1      30.863  10.573  33.619  1.00  0.00     0.146 A 
ATOM     34  C   UNL     1      29.067  11.314  35.115  1.00  0.00     0.134 A 
ATOM     35  C   UNL     1      31.674  10.323  34.742  1.00  0.00     0.094 A 
ATOM     36  C   UNL     1      29.898  11.056  36.218  1.00  0.00     0.093 A 
ATOM     37  C   UNL     1      31.189  10.588  36.037  1.00  0.00     0.123 A 
BRANCH  28  38
ATOM     38  C   UNL     1      31.186  10.063  30.016  1.00  0.00     0.025 A 
ATOM     39  C   UNL     1      32.066  10.873  29.321  1.00  0.00     0.062 A 
ATOM     40  C   UNL     1      30.654   8.923  29.388  1.00  0.00     0.016 A 
ATOM     41  C   UNL     1      32.347  10.646  27.954  1.00  0.00     0.158 A 
ATOM     42  C   UNL     1      31.039   8.610  28.080  1.00  0.00     0.051 A 
ATOM     43  C   UNL     1      31.773   9.525  27.331  1.00  0.00     0.157 A 
BRANCH  41  44
ATOM     44  O   UNL     1      32.943  11.672  27.218  1.00  0.00    -0.504 OA
ATOM     45  H   UNL     1      32.584  12.607  27.207  1.00  0.00     0.293 HD
ENDBRANCH  41  44
BRANCH  43  46
ATOM     46  O   UNL     1      32.007   9.300  25.963  1.00  0.00    -0.504 OA
ATOM     47  H   UNL     1      31.247   9.167  25.305  1.00  0.00     0.293 HD
ENDBRANCH  43  46
ENDBRANCH  28  38
BRANCH  34  48
ATOM     48  O   UNL     1      27.771  11.768  35.325  1.00  0.00    -0.507 OA
ATOM     49  H   UNL     1      27.545  12.757  35.380  1.00  0.00     0.293 HD
ENDBRANCH  34  48
BRANCH  37  50
ATOM     50  O   UNL     1      31.987  10.322  37.138  1.00  0.00    -0.508 OA
ATOM     51  H   UNL     1      31.581  10.164  38.049  1.00  0.00     0.293 HD
ENDBRANCH  37  50
ENDBRANCH  26  27
ENDBRANCH   5  26
BRANCH   4  52
ATOM     52  O   UNL     1      27.199  14.962  30.079  1.00  0.00    -0.384 OA
ATOM     53  H   UNL     1      26.645  15.215  30.883  1.00  0.00     0.211 HD
ENDBRANCH   4  52
TORSDOF 16
ENDMDL
MODEL 6
REMARK VINA RESULT:    -7.110      2.677      4.091
REMARK INTER + INTRA:         -14.720
REMARK INTER:                 -11.858
REMARK INTRA:                  -2.862
REMARK UNBOUND:                -3.038
REMARK SMILES C[C@@H]1O[C@@H](OC[C@H]2O[C@H](Oc3c(-c4ccc(O)c(O)c4)oc4cc(O)cc(O)c4c3=O)[C@@H](O)[C@H](O)[C@H]2O)[C@@H](O)[C@@H](O)[C@H]1O
REMARK SMILES IDX 7 1 36 2 34 3 32 4 9 5 8 6 6 7 5 8 4 9 1 10 2 11 42 12 3 13
REMARK SMILES IDX 40 14 38 15 43 16 41 18 39 20 37 22 35 24 10 26 11 27 12 28
REMARK SMILES IDX 30 29 21 30 29 31 31 32 22 33 27 34 23 35 26 36 24 37 13 38
REMARK SMILES IDX 20 39 14 40 18 41 15 42 16 43 19 44 17 46 28 48 25 50 33 52
REMARK H PARENT 43 17 41 19 39 21 37 23 35 25 19 45 17 47 28 49 25 51 33 53
REMARK Flexibility Score: inf
ROOT
ATOM      1  C   UNL     1      27.448  12.407  29.405  1.00  0.00     0.180 C 
ATOM      2  C   UNL     1      26.265  13.355  29.827  1.00  0.00     0.177 C 
ATOM      3  C   UNL     1      26.068  13.300  31.351  1.00  0.00     0.180 C 
ATOM      4  C   UNL     1      27.404  13.543  32.075  1.00  0.00     0.214 C 
ATOM      5  C   UNL     1      28.531  12.655  31.470  1.00  0.00     0.339 C 
ATOM      6  O   UNL     1      28.632  12.784  30.066  1.00  0.00    -0.332 OA
ENDROOT
BRANCH   1   7
ATOM      7  C   UNL     1      27.778  12.454  27.902  1.00  0.00     0.198 C 
BRANCH   7   8
ATOM      8  O   UNL     1      29.050  11.953  27.650  1.00  0.00    -0.347 OA
BRANCH   8   9
ATOM      9  C   UNL     1      29.272  11.521  26.325  1.00  0.00     0.281 C 
ATOM     10  C   UNL     1      30.010   9.525  24.076  1.00  0.00     0.041 C 
ATOM     11  C   UNL     1      30.939  10.326  25.048  1.00  0.00     0.150 C 
ATOM     12  C   UNL     1      31.496  11.628  24.399  1.00  0.00     0.174 C 
ATOM     13  O   UNL     1      30.347  10.559  26.342  1.00  0.00    -0.344 OA
ATOM     14  C   UNL     1      30.262  12.582  24.291  1.00  0.00     0.179 C 
ATOM     15  C   UNL     1      29.662  12.846  25.681  1.00  0.00     0.202 C 
BRANCH  12  16
ATOM     16  O   UNL     1      32.451  12.219  25.231  1.00  0.00    -0.388 OA
ATOM     17  H   UNL     1      32.109  12.043  26.164  1.00  0.00     0.211 HD
ENDBRANCH  12  16
BRANCH  14  18
ATOM     18  O   UNL     1      30.618  13.802  23.658  1.00  0.00    -0.387 OA
ATOM     19  H   UNL     1      31.582  13.739  23.414  1.00  0.00     0.211 HD
ENDBRANCH  14  18
BRANCH  15  20
ATOM     20  O   UNL     1      30.686  13.423  26.526  1.00  0.00    -0.385 OA
ATOM     21  H   UNL     1      31.032  12.832  27.283  1.00  0.00     0.211 HD
ENDBRANCH  15  20
ENDBRANCH   8   9
ENDBRANCH   7   8
ENDBRANCH   1   7
BRANCH   2  22
ATOM     22  O   UNL     1      26.520  14.651  29.390  1.00  0.00    -0.387 OA
ATOM     23  H   UNL     1      25.672  14.963  28.928  1.00  0.00     0.211 HD
ENDBRANCH   2  22
BRANCH   3  24
ATOM     24  O   UNL     1      25.443  12.127  31.804  1.00  0.00    -0.387 OA
ATOM     25  H   UNL     1      24.860  12.360  32.556  1.00  0.00     0.211 HD
ENDBRANCH   3  24
BRANCH   5  26
ATOM     26  O   UNL     1      28.386  11.268  31.840  1.00  0.00    -0.454 OA
BRANCH  26  27
ATOM     27  C   UNL     1      29.014  10.822  32.996  1.00  0.00     0.214 A 
ATOM     28  C   UNL     1      30.417  10.713  33.044  1.00  0.00     0.180 A 
ATOM     29  C   UNL     1      28.274  10.581  34.149  1.00  0.00     0.239 A 
ATOM     30  O   UNL     1      31.025  10.479  34.210  1.00  0.00    -0.452 OA
ATOM     31  C   UNL     1      28.934  10.295  35.361  1.00  0.00     0.111 A 
ATOM     32  O   UNL     1      27.010  10.701  34.100  1.00  0.00    -0.285 OA
ATOM     33  C   UNL     1      30.344  10.309  35.331  1.00  0.00     0.146 A 
ATOM     34  C   UNL     1      28.248  10.027  36.571  1.00  0.00     0.134 A 
ATOM     35  C   UNL     1      31.060  10.111  36.527  1.00  0.00     0.094 A 
ATOM     36  C   UNL     1      28.987   9.832  37.750  1.00  0.00     0.093 A 
ATOM     37  C   UNL     1      30.371   9.894  37.735  1.00  0.00     0.123 A 
BRANCH  28  38
ATOM     38  C   UNL     1      31.233  10.764  31.816  1.00  0.00     0.025 A 
ATOM     39  C   UNL     1      32.046  11.860  31.594  1.00  0.00     0.062 A 
ATOM     40  C   UNL     1      31.027   9.834  30.782  1.00  0.00     0.016 A 
ATOM     41  C   UNL     1      32.579  12.128  30.312  1.00  0.00     0.158 A 
ATOM     42  C   UNL     1      31.667  10.017  29.551  1.00  0.00     0.051 A 
ATOM     43  C   UNL     1      32.329  11.210  29.278  1.00  0.00     0.157 A 
BRANCH  41  44
ATOM     44  O   UNL     1      33.084  13.405  30.055  1.00  0.00    -0.504 OA
ATOM     45  H   UNL     1      34.041  13.568  29.811  1.00  0.00     0.293 HD
ENDBRANCH  41  44
BRANCH  43  46
ATOM     46  O   UNL     1      32.815  11.475  27.986  1.00  0.00    -0.504 OA
ATOM     47  H   UNL     1      32.985  10.733  27.316  1.00  0.00     0.293 HD
ENDBRANCH  43  46
ENDBRANCH  28  38
BRANCH  34  48
ATOM     48  O   UNL     1      26.862   9.944  36.610  1.00  0.00    -0.507 OA
ATOM     49  H   UNL     1      26.322   9.521  35.860  1.00  0.00     0.293 HD
ENDBRANCH  34  48
BRANCH  37  50
ATOM     50  O   UNL     1      31.083   9.682  38.904  1.00  0.00    -0.508 OA
ATOM     51  H   UNL     1      30.634   9.748  39.807  1.00  0.00     0.293 HD
ENDBRANCH  37  50
ENDBRANCH  26  27
ENDBRANCH   5  26
BRANCH   4  52
ATOM     52  O   UNL     1      27.728  14.912  31.991  1.00  0.00    -0.384 OA
ATOM     53  H   UNL     1      27.345  15.378  32.799  1.00  0.00     0.211 HD
ENDBRANCH   4  52
TORSDOF 16
ENDMDL
MODEL 7
REMARK VINA RESULT:    -6.942      1.563      2.115
REMARK INTER + INTRA:         -14.444
REMARK INTER:                 -11.571
REMARK INTRA:                  -2.873
REMARK UNBOUND:                -3.038
REMARK SMILES C[C@@H]1O[C@@H](OC[C@H]2O[C@H](Oc3c(-c4ccc(O)c(O)c4)oc4cc(O)cc(O)c4c3=O)[C@@H](O)[C@H](O)[C@H]2O)[C@@H](O)[C@@H](O)[C@H]1O
REMARK SMILES IDX 7 1 36 2 34 3 32 4 9 5 8 6 6 7 5 8 4 9 1 10 2 11 42 12 3 13
REMARK SMILES IDX 40 14 38 15 43 16 41 18 39 20 37 22 35 24 10 26 11 27 12 28
REMARK SMILES IDX 30 29 21 30 29 31 31 32 22 33 27 34 23 35 26 36 24 37 13 38
REMARK SMILES IDX 20 39 14 40 18 41 15 42 16 43 19 44 17 46 28 48 25 50 33 52
REMARK H PARENT 43 17 41 19 39 21 37 23 35 25 19 45 17 47 28 49 25 51 33 53
REMARK Flexibility Score: inf
ROOT
ATOM      1  C   UNL     1      29.829   7.785  26.675  1.00  0.00     0.180 C 
ATOM      2  C   UNL     1      29.504   6.264  26.908  1.00  0.00     0.177 C 
ATOM      3  C   UNL     1      29.527   5.949  28.414  1.00  0.00     0.180 C 
ATOM      4  C   UNL     1      28.640   6.943  29.185  1.00  0.00     0.214 C 
ATOM      5  C   UNL     1      28.953   8.409  28.758  1.00  0.00     0.339 C 
ATOM      6  O   UNL     1      28.900   8.592  27.358  1.00  0.00    -0.332 OA
ENDROOT
BRANCH   1   7
ATOM      7  C   UNL     1      29.751   8.219  25.199  1.00  0.00     0.198 C 
BRANCH   7   8
ATOM      8  O   UNL     1      30.565   9.318  24.955  1.00  0.00    -0.347 OA
BRANCH   8   9
ATOM      9  C   UNL     1      30.082  10.216  23.978  1.00  0.00     0.281 C 
ATOM     10  C   UNL     1      29.487  11.254  21.123  1.00  0.00     0.041 C 
ATOM     11  C   UNL     1      30.826  11.265  21.933  1.00  0.00     0.150 C 
ATOM     12  C   UNL     1      31.087  12.633  22.630  1.00  0.00     0.174 C 
ATOM     13  O   UNL     1      30.958  10.147  22.834  1.00  0.00    -0.344 OA
ATOM     14  C   UNL     1      30.027  12.705  23.778  1.00  0.00     0.179 C 
ATOM     15  C   UNL     1      30.201  11.526  24.747  1.00  0.00     0.202 C 
BRANCH  12  16
ATOM     16  O   UNL     1      32.364  12.658  23.195  1.00  0.00    -0.388 OA
ATOM     17  H   UNL     1      32.633  11.687  23.242  1.00  0.00     0.211 HD
ENDBRANCH  12  16
BRANCH  14  18
ATOM     18  O   UNL     1      30.115  13.943  24.471  1.00  0.00    -0.387 OA
ATOM     19  H   UNL     1      30.985  13.949  24.956  1.00  0.00     0.211 HD
ENDBRANCH  14  18
BRANCH  15  20
ATOM     20  O   UNL     1      31.545  11.562  25.285  1.00  0.00    -0.385 OA
ATOM     21  H   UNL     1      31.641  11.921  26.235  1.00  0.00     0.211 HD
ENDBRANCH  15  20
ENDBRANCH   8   9
ENDBRANCH   7   8
ENDBRANCH   1   7
BRANCH   2  22
ATOM     22  O   UNL     1      28.273   5.951  26.339  1.00  0.00    -0.387 OA
ATOM     23  H   UNL     1      27.907   6.823  25.967  1.00  0.00     0.211 HD
ENDBRANCH   2  22
BRANCH   3  24
ATOM     24  O   UNL     1      30.817   5.876  28.963  1.00  0.00    -0.387 OA
ATOM     25  H   UNL     1      30.781   5.308  29.759  1.00  0.00     0.211 HD
ENDBRANCH   3  24
BRANCH   5  26
ATOM     26  O   UNL     1      30.218   8.867  29.279  1.00  0.00    -0.454 OA
BRANCH  26  27
ATOM     27  C   UNL     1      30.244   9.440  30.544  1.00  0.00     0.214 A 
ATOM     28  C   UNL     1      29.698  10.721  30.754  1.00  0.00     0.180 A 
ATOM     29  C   UNL     1      30.712   8.714  31.635  1.00  0.00     0.239 A 
ATOM     30  O   UNL     1      29.545  11.182  31.999  1.00  0.00    -0.452 OA
ATOM     31  C   UNL     1      30.577   9.236  32.937  1.00  0.00     0.111 A 
ATOM     32  O   UNL     1      31.184   7.551  31.438  1.00  0.00    -0.285 OA
ATOM     33  C   UNL     1      29.924  10.481  33.054  1.00  0.00     0.146 A 
ATOM     34  C   UNL     1      31.041   8.561  34.093  1.00  0.00     0.134 A 
ATOM     35  C   UNL     1      29.687  11.016  34.334  1.00  0.00     0.094 A 
ATOM     36  C   UNL     1      30.791   9.118  35.359  1.00  0.00     0.093 A 
ATOM     37  C   UNL     1      30.107  10.316  35.481  1.00  0.00     0.123 A 
BRANCH  28  38
ATOM     38  C   UNL     1      29.369  11.610  29.623  1.00  0.00     0.025 A 
ATOM     39  C   UNL     1      30.384  12.045  28.791  1.00  0.00     0.062 A 
ATOM     40  C   UNL     1      28.092  12.189  29.518  1.00  0.00     0.016 A 
ATOM     41  C   UNL     1      30.196  13.142  27.920  1.00  0.00     0.158 A 
ATOM     42  C   UNL     1      27.859  13.179  28.557  1.00  0.00     0.051 A 
ATOM     43  C   UNL     1      28.924  13.737  27.857  1.00  0.00     0.157 A 
BRANCH  41  44
ATOM     44  O   UNL     1      31.325  13.760  27.375  1.00  0.00    -0.504 OA
ATOM     45  H   UNL     1      31.595  13.643  26.418  1.00  0.00     0.293 HD
ENDBRANCH  41  44
BRANCH  43  46
ATOM     46  O   UNL     1      28.724  14.853  27.027  1.00  0.00    -0.504 OA
ATOM     47  H   UNL     1      28.502  14.755  26.043  1.00  0.00     0.293 HD
ENDBRANCH  43  46
ENDBRANCH  28  38
BRANCH  34  48
ATOM     48  O   UNL     1      31.742   7.367  33.996  1.00  0.00    -0.507 OA
ATOM     49  H   UNL     1      31.428   6.598  33.410  1.00  0.00     0.293 HD
ENDBRANCH  34  48
BRANCH  37  50
ATOM     50  O   UNL     1      29.886  10.859  36.737  1.00  0.00    -0.508 OA
ATOM     51  H   UNL     1      28.995  11.270  36.977  1.00  0.00     0.293 HD
ENDBRANCH  37  50
ENDBRANCH  26  27
ENDBRANCH   5  26
BRANCH   4  52
ATOM     52  O   UNL     1      27.287   6.621  28.959  1.00  0.00    -0.384 OA
ATOM     53  H   UNL     1      26.766   6.846  29.792  1.00  0.00     0.211 HD
ENDBRANCH   4  52
TORSDOF 16
ENDMDL
MODEL 8
REMARK VINA RESULT:    -6.907      2.617      9.432
REMARK INTER + INTRA:         -14.386
REMARK INTER:                 -11.760
REMARK INTRA:                  -2.626
REMARK UNBOUND:                -3.038
REMARK SMILES C[C@@H]1O[C@@H](OC[C@H]2O[C@H](Oc3c(-c4ccc(O)c(O)c4)oc4cc(O)cc(O)c4c3=O)[C@@H](O)[C@H](O)[C@H]2O)[C@@H](O)[C@@H](O)[C@H]1O
REMARK SMILES IDX 7 1 36 2 34 3 32 4 9 5 8 6 6 7 5 8 4 9 1 10 2 11 42 12 3 13
REMARK SMILES IDX 40 14 38 15 43 16 41 18 39 20 37 22 35 24 10 26 11 27 12 28
REMARK SMILES IDX 30 29 21 30 29 31 31 32 22 33 27 34 23 35 26 36 24 37 13 38
REMARK SMILES IDX 20 39 14 40 18 41 15 42 16 43 19 44 17 46 28 48 25 50 33 52
REMARK H PARENT 43 17 41 19 39 21 37 23 35 25 19 45 17 47 28 49 25 51 33 53
REMARK Flexibility Score: inf
ROOT
ATOM      1  C   UNL     1      28.476  11.643  32.104  1.00  0.00     0.180 C 
ATOM      2  C   UNL     1      27.286  12.503  32.667  1.00  0.00     0.177 C 
ATOM      3  C   UNL     1      27.025  13.705  31.742  1.00  0.00     0.180 C 
ATOM      4  C   UNL     1      26.875  13.238  30.283  1.00  0.00     0.214 C 
ATOM      5  C   UNL     1      28.033  12.273  29.889  1.00  0.00     0.339 C 
ATOM      6  O   UNL     1      28.184  11.203  30.800  1.00  0.00    -0.332 OA
ENDROOT
BRANCH   1   7
ATOM      7  C   UNL     1      28.763  10.368  32.918  1.00  0.00     0.198 C 
BRANCH   7   8
ATOM      8  O   UNL     1      29.800  10.571  33.821  1.00  0.00    -0.347 OA
BRANCH   8   9
ATOM      9  C   UNL     1      29.423  10.549  35.181  1.00  0.00     0.281 C 
ATOM     10  C   UNL     1      28.765  11.738  37.962  1.00  0.00     0.041 C 
ATOM     11  C   UNL     1      30.154  11.468  37.293  1.00  0.00     0.150 C 
ATOM     12  C   UNL     1      30.784  10.121  37.757  1.00  0.00     0.174 C 
ATOM     13  O   UNL     1      30.133  11.608  35.858  1.00  0.00    -0.344 OA
ATOM     14  C   UNL     1      29.899   9.015  37.094  1.00  0.00     0.179 C 
ATOM     15  C   UNL     1      29.912   9.158  35.565  1.00  0.00     0.202 C 
BRANCH  12  16
ATOM     16  O   UNL     1      32.090  10.001  37.273  1.00  0.00    -0.388 OA
ATOM     17  H   UNL     1      32.547  10.845  37.584  1.00  0.00     0.211 HD
ENDBRANCH  12  16
BRANCH  14  18
ATOM     18  O   UNL     1      30.333   7.719  37.482  1.00  0.00    -0.387 OA
ATOM     19  H   UNL     1      30.524   7.751  38.459  1.00  0.00     0.211 HD
ENDBRANCH  14  18
BRANCH  15  20
ATOM     20  O   UNL     1      31.282   9.066  35.103  1.00  0.00    -0.385 OA
ATOM     21  H   UNL     1      31.831   8.289  35.473  1.00  0.00     0.211 HD
ENDBRANCH  15  20
ENDBRANCH   8   9
ENDBRANCH   7   8
ENDBRANCH   1   7
BRANCH   2  22
ATOM     22  O   UNL     1      26.152  11.708  32.804  1.00  0.00    -0.387 OA
ATOM     23  H   UNL     1      25.786  11.900  33.732  1.00  0.00     0.211 HD
ENDBRANCH   2  22
BRANCH   3  24
ATOM     24  O   UNL     1      27.974  14.732  31.859  1.00  0.00    -0.387 OA
ATOM     25  H   UNL     1      28.216  15.031  30.959  1.00  0.00     0.211 HD
ENDBRANCH   3  24
BRANCH   5  26
ATOM     26  O   UNL     1      29.285  12.970  29.718  1.00  0.00    -0.454 OA
BRANCH  26  27
ATOM     27  C   UNL     1      29.957  12.838  28.510  1.00  0.00     0.214 A 
ATOM     28  C   UNL     1      31.115  12.042  28.426  1.00  0.00     0.180 A 
ATOM     29  C   UNL     1      29.434  13.401  27.350  1.00  0.00     0.239 A 
ATOM     30  O   UNL     1      31.640  11.756  27.231  1.00  0.00    -0.452 OA
ATOM     31  C   UNL     1      30.027  13.120  26.103  1.00  0.00     0.111 A 
ATOM     32  O   UNL     1      28.377  14.101  27.433  1.00  0.00    -0.285 OA
ATOM     33  C   UNL     1      31.122  12.229  26.110  1.00  0.00     0.146 A 
ATOM     34  C   UNL     1      29.559  13.666  24.883  1.00  0.00     0.134 A 
ATOM     35  C   UNL     1      31.705  11.846  24.888  1.00  0.00     0.094 A 
ATOM     36  C   UNL     1      30.161  13.266  23.677  1.00  0.00     0.093 A 
ATOM     37  C   UNL     1      31.203  12.355  23.675  1.00  0.00     0.123 A 
BRANCH  28  38
ATOM     38  C   UNL     1      31.821  11.584  29.638  1.00  0.00     0.025 A 
ATOM     39  C   UNL     1      31.612  10.294  30.092  1.00  0.00     0.062 A 
ATOM     40  C   UNL     1      32.516  12.498  30.449  1.00  0.00     0.016 A 
ATOM     41  C   UNL     1      31.978   9.911  31.403  1.00  0.00     0.158 A 
ATOM     42  C   UNL     1      33.009  12.085  31.691  1.00  0.00     0.051 A 
ATOM     43  C   UNL     1      32.636  10.851  32.215  1.00  0.00     0.157 A 
BRANCH  41  44
ATOM     44  O   UNL     1      31.437   8.736  31.928  1.00  0.00    -0.504 OA
ATOM     45  H   UNL     1      30.562   8.359  31.619  1.00  0.00     0.293 HD
ENDBRANCH  41  44
BRANCH  43  46
ATOM     46  O   UNL     1      32.974  10.506  33.535  1.00  0.00    -0.504 OA
ATOM     47  H   UNL     1      32.358  10.705  34.315  1.00  0.00     0.293 HD
ENDBRANCH  43  46
ENDBRANCH  28  38
BRANCH  34  48
ATOM     48  O   UNL     1      28.526  14.593  24.859  1.00  0.00    -0.507 OA
ATOM     49  H   UNL     1      27.561  14.336  25.049  1.00  0.00     0.293 HD
ENDBRANCH  34  48
BRANCH  37  50
ATOM     50  O   UNL     1      31.796  11.987  22.478  1.00  0.00    -0.508 OA
ATOM     51  H   UNL     1      32.630  11.417  22.463  1.00  0.00     0.293 HD
ENDBRANCH  37  50
ENDBRANCH  26  27
ENDBRANCH   5  26
BRANCH   4  52
ATOM     52  O   UNL     1      25.618  12.621  30.127  1.00  0.00    -0.384 OA
ATOM     53  H   UNL     1      25.002  13.272  29.665  1.00  0.00     0.211 HD
ENDBRANCH   4  52
TORSDOF 16
ENDMDL
MODEL 9
REMARK VINA RESULT:    -6.829      2.336      9.075
REMARK INTER + INTRA:         -14.259
REMARK INTER:                 -12.753
REMARK INTRA:                  -1.506
REMARK UNBOUND:                -3.038
REMARK SMILES C[C@@H]1O[C@@H](OC[C@H]2O[C@H](Oc3c(-c4ccc(O)c(O)c4)oc4cc(O)cc(O)c4c3=O)[C@@H](O)[C@H](O)[C@H]2O)[C@@H](O)[C@@H](O)[C@H]1O
REMARK SMILES IDX 7 1 36 2 34 3 32 4 9 5 8 6 6 7 5 8 4 9 1 10 2 11 42 12 3 13
REMARK SMILES IDX 40 14 38 15 43 16 41 18 39 20 37 22 35 24 10 26 11 27 12 28
REMARK SMILES IDX 30 29 21 30 29 31 31 32 22 33 27 34 23 35 26 36 24 37 13 38
REMARK SMILES IDX 20 39 14 40 18 41 15 42 16 43 19 44 17 46 28 48 25 50 33 52
REMARK H PARENT 43 17 41 19 39 21 37 23 35 25 19 45 17 47 28 49 25 51 33 53
REMARK Flexibility Score: inf
ROOT
ATOM      1  C   UNL     1      30.794  11.709  29.785  1.00  0.00     0.180 C 
ATOM      2  C   UNL     1      32.295  11.316  29.525  1.00  0.00     0.177 C 
ATOM      3  C   UNL     1      32.470  10.854  28.068  1.00  0.00     0.180 C 
ATOM      4  C   UNL     1      31.878  11.894  27.100  1.00  0.00     0.214 C 
ATOM      5  C   UNL     1      30.446  12.314  27.548  1.00  0.00     0.339 C 
ATOM      6  O   UNL     1      30.396  12.726  28.898  1.00  0.00    -0.332 OA
ENDROOT
BRANCH   1   7
ATOM      7  C   UNL     1      30.532  12.263  31.198  1.00  0.00     0.198 C 
BRANCH   7   8
ATOM      8  O   UNL     1      29.895  11.321  31.997  1.00  0.00    -0.347 OA
BRANCH   8   9
ATOM      9  C   UNL     1      30.751  10.386  32.619  1.00  0.00     0.281 C 
ATOM     10  C   UNL     1      31.976   7.600  33.188  1.00  0.00     0.041 C 
ATOM     11  C   UNL     1      30.626   8.220  33.682  1.00  0.00     0.150 C 
ATOM     12  C   UNL     1      30.738   8.822  35.114  1.00  0.00     0.174 C 
ATOM     13  O   UNL     1      30.039   9.136  32.737  1.00  0.00    -0.344 OA
ATOM     14  C   UNL     1      31.623  10.100  34.942  1.00  0.00     0.179 C 
ATOM     15  C   UNL     1      30.969  11.081  33.957  1.00  0.00     0.202 C 
BRANCH  12  16
ATOM     16  O   UNL     1      29.479   9.207  35.582  1.00  0.00    -0.388 OA
ATOM     17  H   UNL     1      29.668   9.650  36.468  1.00  0.00     0.211 HD
ENDBRANCH  12  16
BRANCH  14  18
ATOM     18  O   UNL     1      31.855  10.727  36.196  1.00  0.00    -0.387 OA
ATOM     19  H   UNL     1      32.724  10.385  36.542  1.00  0.00     0.211 HD
ENDBRANCH  14  18
BRANCH  15  20
ATOM     20  O   UNL     1      29.653  11.429  34.453  1.00  0.00    -0.385 OA
ATOM     21  H   UNL     1      29.554  12.365  34.849  1.00  0.00     0.211 HD
ENDBRANCH  15  20
ENDBRANCH   8   9
ENDBRANCH   7   8
ENDBRANCH   1   7
BRANCH   2  22
ATOM     22  O   UNL     1      33.123  12.394  29.823  1.00  0.00    -0.387 OA
ATOM     23  H   UNL     1      33.992  12.226  29.324  1.00  0.00     0.211 HD
ENDBRANCH   2  22
BRANCH   3  24
ATOM     24  O   UNL     1      31.969   9.568  27.812  1.00  0.00    -0.387 OA
ATOM     25  H   UNL     1      30.991   9.609  27.836  1.00  0.00     0.211 HD
ENDBRANCH   3  24
BRANCH   5  26
ATOM     26  O   UNL     1      29.474  11.277  27.300  1.00  0.00    -0.454 OA
BRANCH  26  27
ATOM     27  C   UNL     1      29.102  11.017  25.987  1.00  0.00     0.214 A 
ATOM     28  C   UNL     1      28.542  12.037  25.195  1.00  0.00     0.180 A 
ATOM     29  C   UNL     1      29.375   9.782  25.411  1.00  0.00     0.239 A 
ATOM     30  O   UNL     1      28.373  11.842  23.883  1.00  0.00    -0.452 OA
ATOM     31  C   UNL     1      29.151   9.583  24.034  1.00  0.00     0.111 A 
ATOM     32  O   UNL     1      29.899   8.874  26.129  1.00  0.00    -0.285 OA
ATOM     33  C   UNL     1      28.686  10.696  23.302  1.00  0.00     0.146 A 
ATOM     34  C   UNL     1      29.394   8.350  23.380  1.00  0.00     0.134 A 
ATOM     35  C   UNL     1      28.520  10.584  21.909  1.00  0.00     0.094 A 
ATOM     36  C   UNL     1      29.220   8.266  21.988  1.00  0.00     0.093 A 
ATOM     37  C   UNL     1      28.810   9.370  21.259  1.00  0.00     0.123 A 
BRANCH  28  38
ATOM     38  C   UNL     1      28.054  13.294  25.793  1.00  0.00     0.025 A 
ATOM     39  C   UNL     1      28.832  14.433  25.696  1.00  0.00     0.062 A 
ATOM     40  C   UNL     1      26.931  13.293  26.639  1.00  0.00     0.016 A 
ATOM     41  C   UNL     1      28.591  15.556  26.521  1.00  0.00     0.158 A 
ATOM     42  C   UNL     1      26.602  14.451  27.352  1.00  0.00     0.051 A 
ATOM     43  C   UNL     1      27.489  15.523  27.392  1.00  0.00     0.157 A 
BRANCH  41  44
ATOM     44  O   UNL     1      29.595  16.520  26.641  1.00  0.00    -0.504 OA
ATOM     45  H   UNL     1      29.400  17.478  26.860  1.00  0.00     0.293 HD
ENDBRANCH  41  44
BRANCH  43  46
ATOM     46  O   UNL     1      27.252  16.611  28.249  1.00  0.00    -0.504 OA
ATOM     47  H   UNL     1      26.720  16.511  29.106  1.00  0.00     0.293 HD
ENDBRANCH  43  46
ENDBRANCH  28  38
BRANCH  34  48
ATOM     48  O   UNL     1      29.790   7.224  24.090  1.00  0.00    -0.507 OA
ATOM     49  H   UNL     1      30.601   6.672  23.825  1.00  0.00     0.293 HD
ENDBRANCH  34  48
BRANCH  37  50
ATOM     50  O   UNL     1      28.627   9.263  19.889  1.00  0.00    -0.508 OA
ATOM     51  H   UNL     1      29.232   9.749  19.243  1.00  0.00     0.293 HD
ENDBRANCH  37  50
ENDBRANCH  26  27
ENDBRANCH   5  26
BRANCH   4  52
ATOM     52  O   UNL     1      32.742  13.005  27.036  1.00  0.00    -0.384 OA
ATOM     53  H   UNL     1      33.146  13.038  26.113  1.00  0.00     0.211 HD
ENDBRANCH   4  52
TORSDOF 16
ENDMDL
