MODEL 1
REMARK VINA RESULT:    -4.284      0.000      0.000
REMARK INTER + INTRA:          -5.880
REMARK INTER:                  -5.536
REMARK INTRA:                  -0.344
REMARK UNBOUND:                -0.344
REMARK SMILES CCCCCCC(=O)[O-]
REMARK SMILES IDX 5 1 6 2 7 3 8 4 9 5 4 6 3 7 2 8 1 9
REMARK H PARENT
REMARK Flexibility Score: inf
ROOT
ATOM      1  C   UNL     1     -28.858   3.711  33.872  1.00  0.00     0.006 C 
ENDROOT
BRANCH   1   2
ATOM      2  C   UNL     1     -28.220   2.335  34.125  1.00  0.00     0.053 C 
BRANCH   2   3
ATOM      3  C   UNL     1     -27.600   1.768  32.884  1.00  0.00     0.041 C 
ATOM      4  O   UNL     1     -28.162   0.823  32.272  1.00  0.00    -0.550 OA
ATOM      5  O   UNL     1     -26.420   2.306  32.388  1.00  0.00    -0.550 OA
ENDBRANCH   2   3
ENDBRANCH   1   2
BRANCH   1   6
ATOM      6  C   UNL     1     -30.398   3.722  33.943  1.00  0.00     0.000 C 
BRANCH   6   7
ATOM      7  C   UNL     1     -31.116   3.368  32.625  1.00  0.00    -0.000 C 
BRANCH   7   8
ATOM      8  C   UNL     1     -32.128   2.213  32.727  1.00  0.00    -0.003 C 
ATOM      9  C   UNL     1     -31.709   1.141  33.730  1.00  0.00     0.004 C 
ENDBRANCH   7   8
ENDBRANCH   6   7
ENDBRANCH   1   6
TORSDOF 5
ENDMDL
MODEL 2
REMARK VINA RESULT:    -4.274      9.635     10.162
REMARK INTER + INTRA:          -5.868
REMARK INTER:                  -5.471
REMARK INTRA:                  -0.397
REMARK UNBOUND:                -0.344
REMARK SMILES CCCCCCC(=O)[O-]
REMARK SMILES IDX 5 1 6 2 7 3 8 4 9 5 4 6 3 7 2 8 1 9
REMARK H PARENT
REMARK Flexibility Score: inf
ROOT
ATOM      1  C   UNL     1     -28.111   0.392  22.500  1.00  0.00     0.006 C 
ENDROOT
BRANCH   1   2
ATOM      2  C   UNL     1     -27.045   0.440  23.608  1.00  0.00     0.053 C 
BRANCH   2   3
ATOM      3  C   UNL     1     -27.073  -0.788  24.466  1.00  0.00     0.041 C 
ATOM      4  O   UNL     1     -26.220  -1.699  24.294  1.00  0.00    -0.550 OA
ATOM      5  O   UNL     1     -28.018  -0.911  25.475  1.00  0.00    -0.550 OA
ENDBRANCH   2   3
ENDBRANCH   1   2
BRANCH   1   6
ATOM      6  C   UNL     1     -29.409   1.156  22.832  1.00  0.00     0.000 C 
BRANCH   6   7
ATOM      7  C   UNL     1     -30.646   0.269  23.076  1.00  0.00    -0.000 C 
BRANCH   7   8
ATOM      8  C   UNL     1     -30.497  -1.193  22.620  1.00  0.00    -0.003 C 
ATOM      9  C   UNL     1     -30.899  -2.197  23.698  1.00  0.00     0.004 C 
ENDBRANCH   7   8
ENDBRANCH   6   7
ENDBRANCH   1   6
TORSDOF 5
ENDMDL
MODEL 3
REMARK VINA RESULT:    -4.263      9.673     10.278
REMARK INTER + INTRA:          -5.853
REMARK INTER:                  -5.386
REMARK INTRA:                  -0.467
REMARK UNBOUND:                -0.344
REMARK SMILES CCCCCCC(=O)[O-]
REMARK SMILES IDX 5 1 6 2 7 3 8 4 9 5 4 6 3 7 2 8 1 9
REMARK H PARENT
REMARK Flexibility Score: inf
ROOT
ATOM      1  C   UNL     1     -26.996   0.285  23.603  1.00  0.00     0.006 C 
ENDROOT
BRANCH   1   2
ATOM      2  C   UNL     1     -26.764  -1.166  24.057  1.00  0.00     0.053 C 
BRANCH   2   3
ATOM      3  C   UNL     1     -28.008  -1.783  24.621  1.00  0.00     0.041 C 
ATOM      4  O   UNL     1     -28.431  -2.879  24.168  1.00  0.00    -0.550 OA
ATOM      5  O   UNL     1     -28.679  -1.164  25.667  1.00  0.00    -0.550 OA
ENDBRANCH   2   3
ENDBRANCH   1   2
BRANCH   1   6
ATOM      6  C   UNL     1     -28.043   0.442  22.482  1.00  0.00     0.000 C 
BRANCH   6   7
ATOM      7  C   UNL     1     -29.283   1.279  22.855  1.00  0.00    -0.000 C 
BRANCH   7   8
ATOM      8  C   UNL     1     -30.595   0.483  22.962  1.00  0.00    -0.003 C 
ATOM      9  C   UNL     1     -30.593  -0.786  22.111  1.00  0.00     0.004 C 
ENDBRANCH   7   8
ENDBRANCH   6   7
ENDBRANCH   1   6
TORSDOF 5
ENDMDL
MODEL 4
REMARK VINA RESULT:    -4.196     10.098     10.844
REMARK INTER + INTRA:          -5.766
REMARK INTER:                  -5.311
REMARK INTRA:                  -0.455
REMARK UNBOUND:                -0.344
REMARK SMILES CCCCCCC(=O)[O-]
REMARK SMILES IDX 5 1 6 2 7 3 8 4 9 5 4 6 3 7 2 8 1 9
REMARK H PARENT
REMARK Flexibility Score: inf
ROOT
ATOM      1  C   UNL     1     -26.858  -1.297  23.870  1.00  0.00     0.006 C 
ENDROOT
BRANCH   1   2
ATOM      2  C   UNL     1     -27.148  -0.046  23.024  1.00  0.00     0.053 C 
BRANCH   2   3
ATOM      3  C   UNL     1     -27.853  -0.384  21.746  1.00  0.00     0.041 C 
ATOM      4  O   UNL     1     -28.991   0.098  21.505  1.00  0.00    -0.550 OA
ATOM      5  O   UNL     1     -27.240  -1.204  20.809  1.00  0.00    -0.550 OA
ENDBRANCH   2   3
ENDBRANCH   1   2
BRANCH   1   6
ATOM      6  C   UNL     1     -28.118  -2.035  24.367  1.00  0.00     0.000 C 
BRANCH   6   7
ATOM      7  C   UNL     1     -29.117  -1.166  25.157  1.00  0.00    -0.000 C 
BRANCH   7   8
ATOM      8  C   UNL     1     -30.528  -1.086  24.549  1.00  0.00    -0.003 C 
ATOM      9  C   UNL     1     -30.816  -2.213  23.559  1.00  0.00     0.004 C 
ENDBRANCH   7   8
ENDBRANCH   6   7
ENDBRANCH   1   6
TORSDOF 5
ENDMDL
MODEL 5
REMARK VINA RESULT:    -4.182      9.938     10.901
REMARK INTER + INTRA:          -5.749
REMARK INTER:                  -5.324
REMARK INTRA:                  -0.425
REMARK UNBOUND:                -0.344
REMARK SMILES CCCCCCC(=O)[O-]
REMARK SMILES IDX 5 1 6 2 7 3 8 4 9 5 4 6 3 7 2 8 1 9
REMARK H PARENT
REMARK Flexibility Score: inf
ROOT
ATOM      1  C   UNL     1     -29.745   1.008  22.869  1.00  0.00     0.006 C 
ENDROOT
BRANCH   1   2
ATOM      2  C   UNL     1     -31.043   0.202  23.046  1.00  0.00     0.053 C 
BRANCH   2   3
ATOM      3  C   UNL     1     -30.791  -1.274  23.046  1.00  0.00     0.041 C 
ATOM      4  O   UNL     1     -31.216  -1.989  23.992  1.00  0.00    -0.550 OA
ATOM      5  O   UNL     1     -30.117  -1.865  21.986  1.00  0.00    -0.550 OA
ENDBRANCH   2   3
ENDBRANCH   1   2
BRANCH   1   6
ATOM      6  C   UNL     1     -28.679   0.744  23.952  1.00  0.00     0.000 C 
BRANCH   6   7
ATOM      7  C   UNL     1     -27.239   0.575  23.426  1.00  0.00    -0.000 C 
BRANCH   7   8
ATOM      8  C   UNL     1     -26.780  -0.882  23.247  1.00  0.00    -0.003 C 
ATOM      9  C   UNL     1     -27.357  -1.823  24.303  1.00  0.00     0.004 C 
ENDBRANCH   7   8
ENDBRANCH   6   7
ENDBRANCH   1   6
TORSDOF 5
ENDMDL
MODEL 6
REMARK VINA RESULT:    -4.178      9.589     10.756
REMARK INTER + INTRA:          -5.743
REMARK INTER:                  -5.307
REMARK INTRA:                  -0.435
REMARK UNBOUND:                -0.344
REMARK SMILES CCCCCCC(=O)[O-]
REMARK SMILES IDX 5 1 6 2 7 3 8 4 9 5 4 6 3 7 2 8 1 9
REMARK H PARENT
REMARK Flexibility Score: inf
ROOT
ATOM      1  C   UNL     1     -29.365  -2.234  23.343  1.00  0.00     0.006 C 
ENDROOT
BRANCH   1   2
ATOM      2  C   UNL     1     -30.696  -1.637  23.829  1.00  0.00     0.053 C 
BRANCH   2   3
ATOM      3  C   UNL     1     -30.619  -0.150  23.989  1.00  0.00     0.041 C 
ATOM      4  O   UNL     1     -30.744   0.602  22.986  1.00  0.00    -0.550 OA
ATOM      5  O   UNL     1     -30.442   0.406  25.249  1.00  0.00    -0.550 OA
ENDBRANCH   2   3
ENDBRANCH   1   2
BRANCH   1   6
ATOM      6  C   UNL     1     -28.248  -2.249  24.406  1.00  0.00     0.000 C 
BRANCH   6   7
ATOM      7  C   UNL     1     -26.955  -1.509  24.009  1.00  0.00    -0.000 C 
BRANCH   7   8
ATOM      8  C   UNL     1     -27.091  -0.571  22.797  1.00  0.00    -0.003 C 
ATOM      9  C   UNL     1     -27.059   0.907  23.182  1.00  0.00     0.004 C 
ENDBRANCH   7   8
ENDBRANCH   6   7
ENDBRANCH   1   6
TORSDOF 5
ENDMDL
MODEL 7
REMARK VINA RESULT:    -4.165      9.694     10.436
REMARK INTER + INTRA:          -5.726
REMARK INTER:                  -5.316
REMARK INTRA:                  -0.410
REMARK UNBOUND:                -0.344
REMARK SMILES CCCCCCC(=O)[O-]
REMARK SMILES IDX 5 1 6 2 7 3 8 4 9 5 4 6 3 7 2 8 1 9
REMARK H PARENT
REMARK Flexibility Score: inf
ROOT
ATOM      1  C   UNL     1     -29.786  -2.111  24.030  1.00  0.00     0.006 C 
ENDROOT
BRANCH   1   2
ATOM      2  C   UNL     1     -28.311  -2.542  24.001  1.00  0.00     0.053 C 
BRANCH   2   3
ATOM      3  C   UNL     1     -27.389  -1.411  24.343  1.00  0.00     0.041 C 
ATOM      4  O   UNL     1     -26.400  -1.157  23.607  1.00  0.00    -0.550 OA
ATOM      5  O   UNL     1     -27.642  -0.620  25.456  1.00  0.00    -0.550 OA
ENDBRANCH   2   3
ENDBRANCH   1   2
BRANCH   1   6
ATOM      6  C   UNL     1     -30.377  -1.768  22.647  1.00  0.00     0.000 C 
BRANCH   6   7
ATOM      7  C   UNL     1     -31.053  -0.386  22.549  1.00  0.00    -0.000 C 
BRANCH   7   8
ATOM      8  C   UNL     1     -30.338   0.742  23.312  1.00  0.00    -0.003 C 
ATOM      9  C   UNL     1     -29.148   1.318  22.547  1.00  0.00     0.004 C 
ENDBRANCH   7   8
ENDBRANCH   6   7
ENDBRANCH   1   6
TORSDOF 5
ENDMDL
MODEL 8
REMARK VINA RESULT:    -4.149      9.762     10.485
REMARK INTER + INTRA:          -5.705
REMARK INTER:                  -5.317
REMARK INTRA:                  -0.388
REMARK UNBOUND:                -0.344
REMARK SMILES CCCCCCC(=O)[O-]
REMARK SMILES IDX 5 1 6 2 7 3 8 4 9 5 4 6 3 7 2 8 1 9
REMARK H PARENT
REMARK Flexibility Score: inf
ROOT
ATOM      1  C   UNL     1     -28.176  -2.276  24.264  1.00  0.00     0.006 C 
ENDROOT
BRANCH   1   2
ATOM      2  C   UNL     1     -26.883  -1.449  24.160  1.00  0.00     0.053 C 
BRANCH   2   3
ATOM      3  C   UNL     1     -27.000  -0.350  23.148  1.00  0.00     0.041 C 
ATOM      4  O   UNL     1     -26.774   0.843  23.482  1.00  0.00    -0.550 OA
ATOM      5  O   UNL     1     -27.326  -0.648  21.832  1.00  0.00    -0.550 OA
ENDBRANCH   2   3
ENDBRANCH   1   2
BRANCH   1   6
ATOM      6  C   UNL     1     -29.445  -1.442  24.533  1.00  0.00     0.000 C 
BRANCH   6   7
ATOM      7  C   UNL     1     -30.668  -1.814  23.672  1.00  0.00    -0.000 C 
BRANCH   7   8
ATOM      8  C   UNL     1     -31.229  -0.668  22.812  1.00  0.00    -0.003 C 
ATOM      9  C   UNL     1     -30.547   0.671  23.086  1.00  0.00     0.004 C 
ENDBRANCH   7   8
ENDBRANCH   6   7
ENDBRANCH   1   6
TORSDOF 5
ENDMDL
MODEL 9
REMARK VINA RESULT:    -4.121      2.622      4.410
REMARK INTER + INTRA:          -5.670
REMARK INTER:                  -5.331
REMARK INTRA:                  -0.339
REMARK UNBOUND:                -0.344
REMARK SMILES CCCCCCC(=O)[O-]
REMARK SMILES IDX 5 1 6 2 7 3 8 4 9 5 4 6 3 7 2 8 1 9
REMARK H PARENT
REMARK Flexibility Score: inf
ROOT
ATOM      1  C   UNL     1     -30.217   2.423  31.221  1.00  0.00     0.006 C 
ENDROOT
BRANCH   1   2
ATOM      2  C   UNL     1     -30.968   2.947  32.456  1.00  0.00     0.053 C 
BRANCH   2   3
ATOM      3  C   UNL     1     -32.054   2.012  32.891  1.00  0.00     0.041 C 
ATOM      4  O   UNL     1     -33.090   1.876  32.187  1.00  0.00    -0.550 OA
ATOM      5  O   UNL     1     -31.908   1.268  34.054  1.00  0.00    -0.550 OA
ENDBRANCH   2   3
ENDBRANCH   1   2
BRANCH   1   6
ATOM      6  C   UNL     1     -29.181   1.323  31.524  1.00  0.00     0.000 C 
BRANCH   6   7
ATOM      7  C   UNL     1     -28.429   1.482  32.861  1.00  0.00    -0.000 C 
BRANCH   7   8
ATOM      8  C   UNL     1     -27.157   2.345  32.791  1.00  0.00    -0.003 C 
ATOM      9  C   UNL     1     -27.384   3.780  33.261  1.00  0.00     0.004 C 
ENDBRANCH   7   8
ENDBRANCH   6   7
ENDBRANCH   1   6
TORSDOF 5
ENDMDL
