MODEL 1
REMARK VINA RESULT:    -5.114      0.000      0.000
REMARK INTER + INTRA:          -6.411
REMARK INTER:                  -6.310
REMARK INTRA:                  -0.101
REMARK UNBOUND:                -0.101
REMARK SMILES C=CC[C@@H](C)C(=O)CC
REMARK SMILES IDX 4 1 5 2 6 3 7 4 8 5 9 6 3 7 2 8 1 9
REMARK H PARENT
REMARK Flexibility Score: inf
ROOT
ATOM      1  C   UNL     1       7.464  32.260  37.026  1.00  0.00     0.057 C 
ATOM      2  C   UNL     1       6.010  31.849  37.281  1.00  0.00     0.016 C 
ENDROOT
BRANCH   1   3
ATOM      3  C   UNL     1       8.288  31.043  36.658  1.00  0.00     0.135 C 
ATOM      4  O   UNL     1       7.780  30.140  36.008  1.00  0.00    -0.299 OA
BRANCH   3   5
ATOM      5  C   UNL     1       9.724  30.913  37.096  1.00  0.00     0.072 C 
ATOM      6  C   UNL     1      10.053  31.919  38.194  1.00  0.00     0.012 C 
ENDBRANCH   3   5
ENDBRANCH   1   3
BRANCH   1   7
ATOM      7  C   UNL     1       7.535  33.337  35.923  1.00  0.00     0.038 C 
BRANCH   7   8
ATOM      8  C   UNL     1       7.509  34.734  36.488  1.00  0.00    -0.034 C 
ATOM      9  C   UNL     1       6.576  35.121  37.364  1.00  0.00     0.004 C 
ENDBRANCH   7   8
ENDBRANCH   1   7
TORSDOF 4
ENDMDL
MODEL 2
REMARK VINA RESULT:    -4.852     16.761     17.486
REMARK INTER + INTRA:          -6.087
REMARK INTER:                  -5.781
REMARK INTRA:                  -0.306
REMARK UNBOUND:                -0.101
REMARK SMILES C=CC[C@@H](C)C(=O)CC
REMARK SMILES IDX 4 1 5 2 6 3 7 4 8 5 9 6 3 7 2 8 1 9
REMARK H PARENT
REMARK Flexibility Score: inf
ROOT
ATOM      1  C   UNL     1      -8.479  32.112  42.241  1.00  0.00     0.057 C 
ATOM      2  C   UNL     1      -7.977  31.086  41.220  1.00  0.00     0.016 C 
ENDROOT
BRANCH   1   3
ATOM      3  C   UNL     1      -8.939  31.406  43.500  1.00  0.00     0.135 C 
ATOM      4  O   UNL     1      -9.794  31.922  44.207  1.00  0.00    -0.299 OA
BRANCH   3   5
ATOM      5  C   UNL     1      -8.348  30.082  43.912  1.00  0.00     0.072 C 
ATOM      6  C   UNL     1      -7.464  30.239  45.145  1.00  0.00     0.012 C 
ENDBRANCH   3   5
ENDBRANCH   1   3
BRANCH   1   7
ATOM      7  C   UNL     1      -7.377  33.148  42.551  1.00  0.00     0.038 C 
BRANCH   7   8
ATOM      8  C   UNL     1      -7.833  34.560  42.289  1.00  0.00    -0.034 C 
ATOM      9  C   UNL     1      -8.815  35.125  42.998  1.00  0.00     0.004 C 
ENDBRANCH   7   8
ENDBRANCH   1   7
TORSDOF 4
ENDMDL
MODEL 3
REMARK VINA RESULT:    -4.650     15.879     17.107
REMARK INTER + INTRA:          -5.838
REMARK INTER:                  -5.414
REMARK INTRA:                  -0.424
REMARK UNBOUND:                -0.101
REMARK SMILES C=CC[C@@H](C)C(=O)CC
REMARK SMILES IDX 4 1 5 2 6 3 7 4 8 5 9 6 3 7 2 8 1 9
REMARK H PARENT
REMARK Flexibility Score: inf
ROOT
ATOM      1  C   UNL     1      -7.951  30.825  41.876  1.00  0.00     0.057 C 
ATOM      2  C   UNL     1      -7.736  29.444  41.250  1.00  0.00     0.016 C 
ENDROOT
BRANCH   1   3
ATOM      3  C   UNL     1      -8.239  31.845  40.792  1.00  0.00     0.135 C 
ATOM      4  O   UNL     1      -8.546  31.467  39.670  1.00  0.00    -0.299 OA
BRANCH   3   5
ATOM      5  C   UNL     1      -8.137  33.323  41.065  1.00  0.00     0.072 C 
ATOM      6  C   UNL     1      -6.905  33.638  41.908  1.00  0.00     0.012 C 
ENDBRANCH   3   5
ENDBRANCH   1   3
BRANCH   1   7
ATOM      7  C   UNL     1      -9.092  30.776  42.914  1.00  0.00     0.038 C 
BRANCH   7   8
ATOM      8  C   UNL     1      -8.641  31.232  44.278  1.00  0.00    -0.034 C 
ATOM      9  C   UNL     1      -7.589  30.680  44.892  1.00  0.00     0.004 C 
ENDBRANCH   7   8
ENDBRANCH   1   7
TORSDOF 4
ENDMDL
MODEL 4
REMARK VINA RESULT:    -4.627     16.041     17.062
REMARK INTER + INTRA:          -5.809
REMARK INTER:                  -5.410
REMARK INTRA:                  -0.400
REMARK UNBOUND:                -0.101
REMARK SMILES C=CC[C@@H](C)C(=O)CC
REMARK SMILES IDX 4 1 5 2 6 3 7 4 8 5 9 6 3 7 2 8 1 9
REMARK H PARENT
REMARK Flexibility Score: inf
ROOT
ATOM      1  C   UNL     1      -8.273  32.449  41.697  1.00  0.00     0.057 C 
ATOM      2  C   UNL     1      -8.467  32.352  40.180  1.00  0.00     0.016 C 
ENDROOT
BRANCH   1   3
ATOM      3  C   UNL     1      -7.987  31.076  42.271  1.00  0.00     0.135 C 
ATOM      4  O   UNL     1      -7.518  30.204  41.553  1.00  0.00    -0.299 OA
BRANCH   3   5
ATOM      5  C   UNL     1      -8.289  30.756  43.712  1.00  0.00     0.072 C 
ATOM      6  C   UNL     1      -9.413  31.639  44.244  1.00  0.00     0.012 C 
ENDBRANCH   3   5
ENDBRANCH   1   3
BRANCH   1   7
ATOM      7  C   UNL     1      -7.141  33.443  42.034  1.00  0.00     0.038 C 
BRANCH   7   8
ATOM      8  C   UNL     1      -7.669  34.812  42.377  1.00  0.00    -0.034 C 
ATOM      9  C   UNL     1      -8.846  34.979  42.990  1.00  0.00     0.004 C 
ENDBRANCH   7   8
ENDBRANCH   1   7
TORSDOF 4
ENDMDL
MODEL 5
REMARK VINA RESULT:    -4.588     16.023     17.376
REMARK INTER + INTRA:          -5.762
REMARK INTER:                  -5.291
REMARK INTRA:                  -0.471
REMARK UNBOUND:                -0.101
REMARK SMILES C=CC[C@@H](C)C(=O)CC
REMARK SMILES IDX 4 1 5 2 6 3 7 4 8 5 9 6 3 7 2 8 1 9
REMARK H PARENT
REMARK Flexibility Score: inf
ROOT
ATOM      1  C   UNL     1      -7.702  32.448  42.095  1.00  0.00     0.057 C 
ATOM      2  C   UNL     1      -6.800  33.662  41.851  1.00  0.00     0.016 C 
ENDROOT
BRANCH   1   3
ATOM      3  C   UNL     1      -8.623  32.717  43.268  1.00  0.00     0.135 C 
ATOM      4  O   UNL     1      -9.036  33.850  43.468  1.00  0.00    -0.299 OA
BRANCH   3   5
ATOM      5  C   UNL     1      -9.029  31.612  44.209  1.00  0.00     0.072 C 
ATOM      6  C   UNL     1      -7.808  30.851  44.716  1.00  0.00     0.012 C 
ENDBRANCH   3   5
ENDBRANCH   1   3
BRANCH   1   7
ATOM      7  C   UNL     1      -8.503  32.106  40.821  1.00  0.00     0.038 C 
BRANCH   7   8
ATOM      8  C   UNL     1      -8.572  30.622  40.573  1.00  0.00    -0.034 C 
ATOM      9  C   UNL     1      -7.745  29.767  41.184  1.00  0.00     0.004 C 
ENDBRANCH   7   8
ENDBRANCH   1   7
TORSDOF 4
ENDMDL
MODEL 6
REMARK VINA RESULT:    -4.583      1.627      3.596
REMARK INTER + INTRA:          -5.755
REMARK INTER:                  -5.538
REMARK INTRA:                  -0.218
REMARK UNBOUND:                -0.101
REMARK SMILES C=CC[C@@H](C)C(=O)CC
REMARK SMILES IDX 4 1 5 2 6 3 7 4 8 5 9 6 3 7 2 8 1 9
REMARK H PARENT
REMARK Flexibility Score: inf
ROOT
ATOM      1  C   UNL     1       7.963  31.450  37.782  1.00  0.00     0.057 C 
ATOM      2  C   UNL     1       7.639  31.021  39.216  1.00  0.00     0.016 C 
ENDROOT
BRANCH   1   3
ATOM      3  C   UNL     1       6.888  32.387  37.267  1.00  0.00     0.135 C 
ATOM      4  O   UNL     1       5.751  32.307  37.710  1.00  0.00    -0.299 OA
BRANCH   3   5
ATOM      5  C   UNL     1       7.190  33.407  36.200  1.00  0.00     0.072 C 
ATOM      6  C   UNL     1       7.124  34.823  36.764  1.00  0.00     0.012 C 
ENDBRANCH   3   5
ENDBRANCH   1   3
BRANCH   1   7
ATOM      7  C   UNL     1       9.357  32.110  37.718  1.00  0.00     0.038 C 
BRANCH   7   8
ATOM      8  C   UNL     1      10.124  31.701  36.487  1.00  0.00    -0.034 C 
ATOM      9  C   UNL     1      10.017  30.475  35.966  1.00  0.00     0.004 C 
ENDBRANCH   7   8
ENDBRANCH   1   7
TORSDOF 4
ENDMDL
MODEL 7
REMARK VINA RESULT:    -4.555     16.340     17.518
REMARK INTER + INTRA:          -5.721
REMARK INTER:                  -5.442
REMARK INTRA:                  -0.279
REMARK UNBOUND:                -0.101
REMARK SMILES C=CC[C@@H](C)C(=O)CC
REMARK SMILES IDX 4 1 5 2 6 3 7 4 8 5 9 6 3 7 2 8 1 9
REMARK H PARENT
REMARK Flexibility Score: inf
ROOT
ATOM      1  C   UNL     1      -8.669  30.427  43.923  1.00  0.00     0.057 C 
ATOM      2  C   UNL     1      -7.514  30.641  44.906  1.00  0.00     0.016 C 
ENDROOT
BRANCH   1   3
ATOM      3  C   UNL     1      -8.834  31.651  43.045  1.00  0.00     0.135 C 
ATOM      4  O   UNL     1      -9.734  31.688  42.218  1.00  0.00    -0.299 OA
BRANCH   3   5
ATOM      5  C   UNL     1      -7.894  32.824  43.159  1.00  0.00     0.072 C 
ATOM      6  C   UNL     1      -7.244  33.134  41.814  1.00  0.00     0.012 C 
ENDBRANCH   3   5
ENDBRANCH   1   3
BRANCH   1   7
ATOM      7  C   UNL     1      -8.429  29.159  43.076  1.00  0.00     0.038 C 
BRANCH   7   8
ATOM      8  C   UNL     1      -7.507  29.417  41.914  1.00  0.00    -0.034 C 
ATOM      9  C   UNL     1      -7.817  29.037  40.671  1.00  0.00     0.004 C 
ENDBRANCH   7   8
ENDBRANCH   1   7
TORSDOF 4
ENDMDL
MODEL 8
REMARK VINA RESULT:    -4.537     16.211     17.325
REMARK INTER + INTRA:          -5.699
REMARK INTER:                  -5.237
REMARK INTRA:                  -0.462
REMARK UNBOUND:                -0.101
REMARK SMILES C=CC[C@@H](C)C(=O)CC
REMARK SMILES IDX 4 1 5 2 6 3 7 4 8 5 9 6 3 7 2 8 1 9
REMARK H PARENT
REMARK Flexibility Score: inf
ROOT
ATOM      1  C   UNL     1      -7.913  31.177  43.472  1.00  0.00     0.057 C 
ATOM      2  C   UNL     1      -7.674  30.716  44.913  1.00  0.00     0.016 C 
ENDROOT
BRANCH   1   3
ATOM      3  C   UNL     1      -8.466  30.031  42.648  1.00  0.00     0.135 C 
ATOM      4  O   UNL     1      -8.266  28.878  43.001  1.00  0.00    -0.299 OA
BRANCH   3   5
ATOM      5  C   UNL     1      -9.247  30.286  41.384  1.00  0.00     0.072 C 
ATOM      6  C   UNL     1      -8.311  30.567  40.212  1.00  0.00     0.012 C 
ENDBRANCH   3   5
ENDBRANCH   1   3
BRANCH   1   7
ATOM      7  C   UNL     1      -8.862  32.394  43.444  1.00  0.00     0.038 C 
BRANCH   7   8
ATOM      8  C   UNL     1      -8.168  33.646  42.974  1.00  0.00    -0.034 C 
ATOM      9  C   UNL     1      -7.119  33.601  42.146  1.00  0.00     0.004 C 
ENDBRANCH   7   8
ENDBRANCH   1   7
TORSDOF 4
ENDMDL
MODEL 9
REMARK VINA RESULT:    -4.464     16.225     17.236
REMARK INTER + INTRA:          -5.608
REMARK INTER:                  -5.305
REMARK INTRA:                  -0.304
REMARK UNBOUND:                -0.101
REMARK SMILES C=CC[C@@H](C)C(=O)CC
REMARK SMILES IDX 4 1 5 2 6 3 7 4 8 5 9 6 3 7 2 8 1 9
REMARK H PARENT
REMARK Flexibility Score: inf
ROOT
ATOM      1  C   UNL     1      -8.634  32.057  42.816  1.00  0.00     0.057 C 
ATOM      2  C   UNL     1      -9.770  31.519  41.941  1.00  0.00     0.016 C 
ENDROOT
BRANCH   1   3
ATOM      3  C   UNL     1      -8.213  31.004  43.822  1.00  0.00     0.135 C 
ATOM      4  O   UNL     1      -7.472  31.310  44.746  1.00  0.00    -0.299 OA
BRANCH   3   5
ATOM      5  C   UNL     1      -8.675  29.576  43.694  1.00  0.00     0.072 C 
ATOM      6  C   UNL     1      -7.597  28.708  43.053  1.00  0.00     0.012 C 
ENDBRANCH   3   5
ENDBRANCH   1   3
BRANCH   1   7
ATOM      7  C   UNL     1      -7.443  32.503  41.942  1.00  0.00     0.038 C 
BRANCH   7   8
ATOM      8  C   UNL     1      -7.099  33.956  42.146  1.00  0.00    -0.034 C 
ATOM      9  C   UNL     1      -8.013  34.846  42.544  1.00  0.00     0.004 C 
ENDBRANCH   7   8
ENDBRANCH   1   7
TORSDOF 4
ENDMDL
