MODEL 1
REMARK VINA RESULT:    54.554      0.000      0.000
REMARK INTER + INTRA:          56.149
REMARK INTER:                  56.149
REMARK INTRA:                   0.000
REMARK UNBOUND:                 0.000
REMARK SMILES C[C@@H]1CC[C@]2(OC1)O[C@H]1C[C@H]3[C@H]4CC=C5C[C@@H](O)CC[C@]5(C)[C@H]4CC[C@@]3(C)[C@@H]1[C@H]2C
REMARK SMILES IDX 1 1 2 2 3 3 4 4 5 5 29 6 28 7 9 8 8 9 10 10 11 11 26 12
REMARK SMILES IDX 25 13 24 14 23 15 12 16 13 17 14 18 15 19 21 20 20 21 19 22
REMARK SMILES IDX 17 23 16 24 22 25 27 26 30 27 6 28 7 29 18 30
REMARK H PARENT 18 31
REMARK Flexibility Score: inf
ROOT
ATOM      1  C   UNL     1     -18.511   0.822  16.638  1.00  0.00     0.010 C 
ATOM      2  C   UNL     1     -17.489   0.766  17.784  1.00  0.00     0.012 C 
ATOM      3  C   UNL     1     -16.102   1.256  17.340  1.00  0.00     0.011 C 
ATOM      4  C   UNL     1     -15.398   0.218  16.462  1.00  0.00     0.066 C 
ATOM      5  C   UNL     1     -15.446  -1.187  17.107  1.00  0.00     0.171 C 
ATOM      6  C   UNL     1     -14.837  -2.246  16.114  1.00  0.00     0.052 C 
ATOM      7  C   UNL     1     -14.044  -3.066  17.093  1.00  0.00     0.033 C 
ATOM      8  C   UNL     1     -13.529  -1.969  17.952  1.00  0.00     0.126 C 
ATOM      9  O   UNL     1     -14.649  -1.208  18.304  1.00  0.00    -0.346 OA
ATOM     10  C   UNL     1     -12.767  -2.719  19.018  1.00  0.00     0.037 C 
ATOM     11  C   UNL     1     -11.978  -3.734  18.143  1.00  0.00     0.002 C 
ATOM     12  C   UNL     1     -12.808  -3.949  16.818  1.00  0.00    -0.024 C 
ATOM     13  C   UNL     1     -13.239  -5.426  16.608  1.00  0.00     0.008 C 
ATOM     14  C   UNL     1     -12.131  -6.471  16.857  1.00  0.00     0.005 C 
ATOM     15  C   UNL     1     -10.978  -6.038  17.819  1.00  0.00     0.003 C 
ATOM     16  C   UNL     1     -11.490  -5.022  18.865  1.00  0.00     0.000 C 
ATOM     17  C   UNL     1     -12.493  -5.697  19.820  1.00  0.00     0.031 C 
ATOM     18  C   UNL     1     -11.969  -7.007  20.350  1.00  0.00    -0.027 C 
ATOM     19  C   UNL     1     -10.992  -7.734  19.758  1.00  0.00    -0.065 C 
ATOM     20  C   UNL     1     -10.241  -7.255  18.510  1.00  0.00    -0.008 C 
ATOM     21  C   UNL     1      -8.810  -6.824  18.976  1.00  0.00     0.014 C 
ATOM     22  C   UNL     1      -8.087  -7.880  19.845  1.00  0.00     0.033 C 
ATOM     23  C   UNL     1      -8.961  -8.370  21.022  1.00  0.00     0.118 C 
ATOM     24  C   UNL     1     -10.346  -8.848  20.550  1.00  0.00     0.063 C 
ATOM     25  C   UNL     1     -10.083  -8.424  17.492  1.00  0.00     0.016 C 
ATOM     26  C   UNL     1     -12.021  -3.469  15.574  1.00  0.00     0.012 C 
ATOM     27  C   UNL     1     -15.865  -3.080  15.338  1.00  0.00     0.014 C 
ATOM     28  O   UNL     1     -16.788  -1.549  17.420  1.00  0.00    -0.349 OA
ATOM     29  C   UNL     1     -17.370  -0.656  18.356  1.00  0.00     0.167 C 
ENDROOT
BRANCH  23  30
ATOM     30  O   UNL     1      -8.303  -9.385  21.738  1.00  0.00    -0.393 OA
ATOM     31  H   UNL     1      -7.373  -9.439  21.397  1.00  0.00     0.210 HD
ENDBRANCH  23  30
TORSDOF 1
ENDMDL
MODEL 2
REMARK VINA RESULT:    54.846      4.191      7.560
REMARK INTER + INTRA:          56.449
REMARK INTER:                  56.449
REMARK INTRA:                   0.000
REMARK UNBOUND:                 0.000
REMARK SMILES C[C@@H]1CC[C@]2(OC1)O[C@H]1C[C@H]3[C@H]4CC=C5C[C@@H](O)CC[C@]5(C)[C@H]4CC[C@@]3(C)[C@@H]1[C@H]2C
REMARK SMILES IDX 1 1 2 2 3 3 4 4 5 5 29 6 28 7 9 8 8 9 10 10 11 11 26 12
REMARK SMILES IDX 25 13 24 14 23 15 12 16 13 17 14 18 15 19 21 20 20 21 19 22
REMARK SMILES IDX 17 23 16 24 22 25 27 26 30 27 6 28 7 29 18 30
REMARK H PARENT 18 31
REMARK Flexibility Score: inf
ROOT
ATOM      1  C   UNL     1     -16.592   7.771  23.009  1.00  0.00     0.010 C 
ATOM      2  C   UNL     1     -15.366   6.858  22.863  1.00  0.00     0.012 C 
ATOM      3  C   UNL     1     -14.574   7.160  21.582  1.00  0.00     0.011 C 
ATOM      4  C   UNL     1     -15.299   6.633  20.341  1.00  0.00     0.066 C 
ATOM      5  C   UNL     1     -15.743   5.164  20.532  1.00  0.00     0.171 C 
ATOM      6  C   UNL     1     -16.603   4.705  19.295  1.00  0.00     0.052 C 
ATOM      7  C   UNL     1     -16.041   3.323  19.111  1.00  0.00     0.033 C 
ATOM      8  C   UNL     1     -14.611   3.615  19.384  1.00  0.00     0.126 C 
ATOM      9  O   UNL     1     -14.592   4.305  20.601  1.00  0.00    -0.346 OA
ATOM     10  C   UNL     1     -13.974   2.250  19.287  1.00  0.00     0.037 C 
ATOM     11  C   UNL     1     -14.636   1.719  17.983  1.00  0.00     0.002 C 
ATOM     12  C   UNL     1     -16.019   2.465  17.828  1.00  0.00    -0.024 C 
ATOM     13  C   UNL     1     -17.230   1.495  17.809  1.00  0.00     0.008 C 
ATOM     14  C   UNL     1     -17.058   0.253  16.909  1.00  0.00     0.005 C 
ATOM     15  C   UNL     1     -15.589  -0.198  16.630  1.00  0.00     0.003 C 
ATOM     16  C   UNL     1     -14.667   0.174  17.815  1.00  0.00     0.000 C 
ATOM     17  C   UNL     1     -15.044  -0.647  19.063  1.00  0.00     0.031 C 
ATOM     18  C   UNL     1     -15.182  -2.115  18.749  1.00  0.00    -0.027 C 
ATOM     19  C   UNL     1     -15.405  -2.613  17.509  1.00  0.00    -0.065 C 
ATOM     20  C   UNL     1     -15.457  -1.729  16.257  1.00  0.00    -0.008 C 
ATOM     21  C   UNL     1     -14.130  -1.980  15.466  1.00  0.00     0.014 C 
ATOM     22  C   UNL     1     -13.809  -3.475  15.234  1.00  0.00     0.033 C 
ATOM     23  C   UNL     1     -13.873  -4.299  16.540  1.00  0.00     0.118 C 
ATOM     24  C   UNL     1     -15.206  -4.094  17.284  1.00  0.00     0.063 C 
ATOM     25  C   UNL     1     -16.647  -2.154  15.346  1.00  0.00     0.016 C 
ATOM     26  C   UNL     1     -16.048   3.339  16.549  1.00  0.00     0.012 C 
ATOM     27  C   UNL     1     -18.121   4.703  19.520  1.00  0.00     0.014 C 
ATOM     28  O   UNL     1     -16.515   5.025  21.722  1.00  0.00    -0.349 OA
ATOM     29  C   UNL     1     -15.770   5.374  22.877  1.00  0.00     0.167 C 
ENDROOT
BRANCH  23  30
ATOM     30  O   UNL     1     -13.656  -5.663  16.278  1.00  0.00    -0.393 OA
ATOM     31  H   UNL     1     -14.451  -6.005  15.790  1.00  0.00     0.210 HD
ENDBRANCH  23  30
TORSDOF 1
ENDMDL
