MODEL 1
REMARK VINA RESULT:     0.000      0.000      0.000
REMARK INTER + INTRA:          -3.092
REMARK INTER:                   0.000
REMARK INTRA:                  -3.092
REMARK UNBOUND:                -3.092
REMARK SMILES CCCCCCCCCCCCCCCCO
REMARK SMILES IDX 9 1 8 2 7 3 6 4 5 5 4 6 3 7 2 8 1 9 10 10 11 11 12 12 13 13
REMARK SMILES IDX 14 14 15 15 16 16 17 17
REMARK H PARENT 17 18
REMARK Flexibility Score: inf
ROOT
ATOM      1  C   UNL     1     180.615 190.909 188.614  1.00  0.00     0.000 C 
ENDROOT
BRANCH   1   2
ATOM      2  C   UNL     1     179.992 191.441 187.314  1.00  0.00    -0.000 C 
BRANCH   2   3
ATOM      3  C   UNL     1     179.355 192.828 187.488  1.00  0.00    -0.000 C 
BRANCH   3   4
ATOM      4  C   UNL     1     179.973 193.842 186.515  1.00  0.00    -0.000 C 
BRANCH   4   5
ATOM      5  C   UNL     1     181.251 193.316 185.843  1.00  0.00    -0.000 C 
BRANCH   5   6
ATOM      6  C   UNL     1     182.511 194.076 186.294  1.00  0.00    -0.000 C 
BRANCH   6   7
ATOM      7  C   UNL     1     183.704 193.141 186.546  1.00  0.00    -0.000 C 
BRANCH   7   8
ATOM      8  C   UNL     1     183.453 191.714 186.039  1.00  0.00    -0.003 C 
ATOM      9  C   UNL     1     183.995 190.678 187.021  1.00  0.00     0.004 C 
ENDBRANCH   7   8
ENDBRANCH   6   7
ENDBRANCH   5   6
ENDBRANCH   4   5
ENDBRANCH   3   4
ENDBRANCH   2   3
ENDBRANCH   1   2
BRANCH   1  10
ATOM     10  C   UNL     1     180.826 192.013 189.665  1.00  0.00     0.000 C 
BRANCH  10  11
ATOM     11  C   UNL     1     182.311 192.318 189.908  1.00  0.00     0.000 C 
BRANCH  11  12
ATOM     12  C   UNL     1     182.592 193.826 190.029  1.00  0.00     0.000 C 
BRANCH  12  13
ATOM     13  C   UNL     1     181.305 194.666 190.067  1.00  0.00     0.000 C 
BRANCH  13  14
ATOM     14  C   UNL     1     181.427 195.972 189.270  1.00  0.00     0.002 C 
BRANCH  14  15
ATOM     15  C   UNL     1     180.047 196.596 189.023  1.00  0.00     0.028 C 
BRANCH  15  16
ATOM     16  C   UNL     1     178.937 195.825 189.744  1.00  0.00     0.156 C 
BRANCH  16  17
ATOM     17  O   UNL     1     177.799 195.706 188.931  1.00  0.00    -0.396 OA
ATOM     18  H   UNL     1     178.056 196.047 188.034  1.00  0.00     0.210 HD
ENDBRANCH  16  17
ENDBRANCH  15  16
ENDBRANCH  14  15
ENDBRANCH  13  14
ENDBRANCH  12  13
ENDBRANCH  11  12
ENDBRANCH  10  11
ENDBRANCH   1  10
TORSDOF 15
ENDMDL
MODEL 2
REMARK VINA RESULT:     0.015     11.263     13.486
REMARK INTER + INTRA:          -3.065
REMARK INTER:                   0.000
REMARK INTRA:                  -3.065
REMARK UNBOUND:                -3.092
REMARK SMILES CCCCCCCCCCCCCCCCO
REMARK SMILES IDX 9 1 8 2 7 3 6 4 5 5 4 6 3 7 2 8 1 9 10 10 11 11 12 12 13 13
REMARK SMILES IDX 14 14 15 15 16 16 17 17
REMARK H PARENT 17 18
REMARK Flexibility Score: inf
ROOT
ATOM      1  C   UNL     1     174.208 187.111 193.888  1.00  0.00     0.000 C 
ENDROOT
BRANCH   1   2
ATOM      2  C   UNL     1     173.697 186.256 192.717  1.00  0.00    -0.000 C 
BRANCH   2   3
ATOM      3  C   UNL     1     172.750 185.135 193.172  1.00  0.00    -0.000 C 
BRANCH   3   4
ATOM      4  C   UNL     1     173.300 183.757 192.776  1.00  0.00    -0.000 C 
BRANCH   4   5
ATOM      5  C   UNL     1     174.736 183.826 192.231  1.00  0.00    -0.000 C 
BRANCH   5   6
ATOM      6  C   UNL     1     175.732 183.028 193.089  1.00  0.00    -0.000 C 
BRANCH   6   7
ATOM      7  C   UNL     1     176.982 183.845 193.454  1.00  0.00    -0.000 C 
BRANCH   7   8
ATOM      8  C   UNL     1     177.191 185.051 192.526  1.00  0.00    -0.003 C 
ATOM      9  C   UNL     1     177.786 186.233 193.286  1.00  0.00     0.004 C 
ENDBRANCH   7   8
ENDBRANCH   6   7
ENDBRANCH   5   6
ENDBRANCH   4   5
ENDBRANCH   3   4
ENDBRANCH   2   3
ENDBRANCH   1   2
BRANCH   1  10
ATOM     10  C   UNL     1     173.910 186.476 195.257  1.00  0.00     0.000 C 
BRANCH  10  11
ATOM     11  C   UNL     1     175.173 185.931 195.940  1.00  0.00     0.000 C 
BRANCH  11  12
ATOM     12  C   UNL     1     174.982 184.502 196.481  1.00  0.00     0.000 C 
BRANCH  12  13
ATOM     13  C   UNL     1     173.501 184.120 196.629  1.00  0.00     0.000 C 
BRANCH  13  14
ATOM     14  C   UNL     1     173.236 182.644 196.299  1.00  0.00     0.002 C 
BRANCH  14  15
ATOM     15  C   UNL     1     174.530 181.824 196.377  1.00  0.00     0.028 C 
BRANCH  15  16
ATOM     16  C   UNL     1     174.437 180.533 195.556  1.00  0.00     0.156 C 
BRANCH  16  17
ATOM     17  O   UNL     1     173.443 180.637 194.570  1.00  0.00    -0.396 OA
ATOM     18  H   UNL     1     173.261 179.714 194.254  1.00  0.00     0.210 HD
ENDBRANCH  16  17
ENDBRANCH  15  16
ENDBRANCH  14  15
ENDBRANCH  13  14
ENDBRANCH  12  13
ENDBRANCH  11  12
ENDBRANCH  10  11
ENDBRANCH   1  10
TORSDOF 15
ENDMDL
MODEL 3
REMARK VINA RESULT:     0.024     14.947     17.193
REMARK INTER + INTRA:          -3.047
REMARK INTER:                   0.000
REMARK INTRA:                  -3.047
REMARK UNBOUND:                -3.092
REMARK SMILES CCCCCCCCCCCCCCCCO
REMARK SMILES IDX 9 1 8 2 7 3 6 4 5 5 4 6 3 7 2 8 1 9 10 10 11 11 12 12 13 13
REMARK SMILES IDX 14 14 15 15 16 16 17 17
REMARK H PARENT 17 18
REMARK Flexibility Score: inf
ROOT
ATOM      1  C   UNL     1     170.000 191.712 203.520  1.00  0.00     0.000 C 
ENDROOT
BRANCH   1   2
ATOM      2  C   UNL     1     171.045 191.048 204.431  1.00  0.00    -0.000 C 
BRANCH   2   3
ATOM      3  C   UNL     1     172.401 191.770 204.400  1.00  0.00    -0.000 C 
BRANCH   3   4
ATOM      4  C   UNL     1     173.517 190.822 203.938  1.00  0.00    -0.000 C 
BRANCH   4   5
ATOM      5  C   UNL     1     172.974 189.515 203.338  1.00  0.00    -0.000 C 
BRANCH   5   6
ATOM      6  C   UNL     1     173.348 189.346 201.856  1.00  0.00    -0.000 C 
BRANCH   6   7
ATOM      7  C   UNL     1     172.140 188.974 200.981  1.00  0.00    -0.000 C 
BRANCH   7   8
ATOM      8  C   UNL     1     170.952 188.457 201.805  1.00  0.00    -0.003 C 
ATOM      9  C   UNL     1     169.625 188.841 201.157  1.00  0.00     0.004 C 
ENDBRANCH   7   8
ENDBRANCH   6   7
ENDBRANCH   5   6
ENDBRANCH   4   5
ENDBRANCH   3   4
ENDBRANCH   2   3
ENDBRANCH   1   2
BRANCH   1  10
ATOM     10  C   UNL     1     170.601 192.827 202.646  1.00  0.00     0.000 C 
BRANCH  10  11
ATOM     11  C   UNL     1     170.754 192.404 201.177  1.00  0.00     0.000 C 
BRANCH  11  12
ATOM     12  C   UNL     1     172.158 192.702 200.620  1.00  0.00     0.000 C 
BRANCH  12  13
ATOM     13  C   UNL     1     172.834 193.888 201.326  1.00  0.00     0.000 C 
BRANCH  13  14
ATOM     14  C   UNL     1     174.314 193.624 201.638  1.00  0.00     0.002 C 
BRANCH  14  15
ATOM     15  C   UNL     1     174.869 192.500 200.752  1.00  0.00     0.028 C 
BRANCH  15  16
ATOM     16  C   UNL     1     176.116 191.856 201.366  1.00  0.00     0.156 C 
BRANCH  16  17
ATOM     17  O   UNL     1     176.426 192.441 202.603  1.00  0.00    -0.396 OA
ATOM     18  H   UNL     1     175.887 191.961 203.286  1.00  0.00     0.210 HD
ENDBRANCH  16  17
ENDBRANCH  15  16
ENDBRANCH  14  15
ENDBRANCH  13  14
ENDBRANCH  12  13
ENDBRANCH  11  12
ENDBRANCH  10  11
ENDBRANCH   1  10
TORSDOF 15
ENDMDL
MODEL 4
REMARK VINA RESULT:     0.025      9.438     11.656
REMARK INTER + INTRA:          -3.046
REMARK INTER:                   0.000
REMARK INTRA:                  -3.046
REMARK UNBOUND:                -3.092
REMARK SMILES CCCCCCCCCCCCCCCCO
REMARK SMILES IDX 9 1 8 2 7 3 6 4 5 5 4 6 3 7 2 8 1 9 10 10 11 11 12 12 13 13
REMARK SMILES IDX 14 14 15 15 16 16 17 17
REMARK H PARENT 17 18
REMARK Flexibility Score: inf
ROOT
ATOM      1  C   UNL     1     182.162 187.270 197.790  1.00  0.00     0.000 C 
ENDROOT
BRANCH   1   2
ATOM      2  C   UNL     1     182.753 188.298 196.811  1.00  0.00    -0.000 C 
BRANCH   2   3
ATOM      3  C   UNL     1     183.590 189.374 197.519  1.00  0.00    -0.000 C 
BRANCH   3   4
ATOM      4  C   UNL     1     183.317 189.378 199.030  1.00  0.00    -0.000 C 
BRANCH   4   5
ATOM      5  C   UNL     1     182.805 190.735 199.537  1.00  0.00    -0.000 C 
BRANCH   5   6
ATOM      6  C   UNL     1     181.588 190.597 200.467  1.00  0.00    -0.000 C 
BRANCH   6   7
ATOM      7  C   UNL     1     181.331 189.142 200.890  1.00  0.00    -0.000 C 
BRANCH   7   8
ATOM      8  C   UNL     1     179.915 188.930 201.445  1.00  0.00    -0.003 C 
ATOM      9  C   UNL     1     179.421 187.513 201.167  1.00  0.00     0.004 C 
ENDBRANCH   7   8
ENDBRANCH   6   7
ENDBRANCH   5   6
ENDBRANCH   4   5
ENDBRANCH   3   4
ENDBRANCH   2   3
ENDBRANCH   1   2
BRANCH   1  10
ATOM     10  C   UNL     1     180.630 187.177 197.696  1.00  0.00     0.000 C 
BRANCH  10  11
ATOM     11  C   UNL     1     180.014 188.354 196.925  1.00  0.00     0.000 C 
BRANCH  11  12
ATOM     12  C   UNL     1     179.153 189.261 197.822  1.00  0.00     0.000 C 
BRANCH  12  13
ATOM     13  C   UNL     1     179.383 190.756 197.546  1.00  0.00     0.000 C 
BRANCH  13  14
ATOM     14  C   UNL     1     180.365 190.999 196.391  1.00  0.00     0.002 C 
BRANCH  14  15
ATOM     15  C   UNL     1     181.203 192.260 196.639  1.00  0.00     0.028 C 
BRANCH  15  16
ATOM     16  C   UNL     1     180.445 193.290 197.482  1.00  0.00     0.156 C 
BRANCH  16  17
ATOM     17  O   UNL     1     181.249 193.775 198.525  1.00  0.00    -0.396 OA
ATOM     18  H   UNL     1     181.262 194.764 198.436  1.00  0.00     0.210 HD
ENDBRANCH  16  17
ENDBRANCH  15  16
ENDBRANCH  14  15
ENDBRANCH  13  14
ENDBRANCH  12  13
ENDBRANCH  11  12
ENDBRANCH  10  11
ENDBRANCH   1  10
TORSDOF 15
ENDMDL
MODEL 5
REMARK VINA RESULT:     0.028      4.737      6.779
REMARK INTER + INTRA:          -3.041
REMARK INTER:                   0.000
REMARK INTRA:                  -3.041
REMARK UNBOUND:                -3.092
REMARK SMILES CCCCCCCCCCCCCCCCO
REMARK SMILES IDX 9 1 8 2 7 3 6 4 5 5 4 6 3 7 2 8 1 9 10 10 11 11 12 12 13 13
REMARK SMILES IDX 14 14 15 15 16 16 17 17
REMARK H PARENT 17 18
REMARK Flexibility Score: inf
ROOT
ATOM      1  C   UNL     1     177.740 189.878 191.236  1.00  0.00     0.000 C 
ENDROOT
BRANCH   1   2
ATOM      2  C   UNL     1     176.918 188.748 190.596  1.00  0.00    -0.000 C 
BRANCH   2   3
ATOM      3  C   UNL     1     175.977 189.254 189.492  1.00  0.00    -0.000 C 
BRANCH   3   4
ATOM      4  C   UNL     1     176.406 190.643 188.999  1.00  0.00    -0.000 C 
BRANCH   4   5
ATOM      5  C   UNL     1     175.279 191.683 189.105  1.00  0.00    -0.000 C 
BRANCH   5   6
ATOM      6  C   UNL     1     174.146 191.233 190.044  1.00  0.00    -0.000 C 
BRANCH   6   7
ATOM      7  C   UNL     1     174.029 192.119 191.294  1.00  0.00    -0.000 C 
BRANCH   7   8
ATOM      8  C   UNL     1     173.665 191.318 192.553  1.00  0.00    -0.003 C 
ATOM      9  C   UNL     1     173.561 189.827 192.245  1.00  0.00     0.004 C 
ENDBRANCH   7   8
ENDBRANCH   6   7
ENDBRANCH   5   6
ENDBRANCH   4   5
ENDBRANCH   3   4
ENDBRANCH   2   3
ENDBRANCH   1   2
BRANCH   1  10
ATOM     10  C   UNL     1     177.266 190.222 192.658  1.00  0.00     0.000 C 
BRANCH  10  11
ATOM     11  C   UNL     1     177.334 191.728 192.953  1.00  0.00     0.000 C 
BRANCH  11  12
ATOM     12  C   UNL     1     178.036 192.517 191.833  1.00  0.00     0.000 C 
BRANCH  12  13
ATOM     13  C   UNL     1     177.294 193.814 191.471  1.00  0.00     0.000 C 
BRANCH  13  14
ATOM     14  C   UNL     1     177.674 194.344 190.081  1.00  0.00     0.002 C 
BRANCH  14  15
ATOM     15  C   UNL     1     178.773 193.480 189.446  1.00  0.00     0.028 C 
BRANCH  15  16
ATOM     16  C   UNL     1     178.677 193.470 187.917  1.00  0.00     0.156 C 
BRANCH  16  17
ATOM     17  O   UNL     1     177.446 193.991 187.489  1.00  0.00    -0.396 OA
ATOM     18  H   UNL     1     177.630 194.906 187.149  1.00  0.00     0.210 HD
ENDBRANCH  16  17
ENDBRANCH  15  16
ENDBRANCH  14  15
ENDBRANCH  13  14
ENDBRANCH  12  13
ENDBRANCH  11  12
ENDBRANCH  10  11
ENDBRANCH   1  10
TORSDOF 15
ENDMDL
MODEL 6
REMARK VINA RESULT:     0.030     15.112     17.239
REMARK INTER + INTRA:          -3.038
REMARK INTER:                   0.000
REMARK INTRA:                  -3.038
REMARK UNBOUND:                -3.092
REMARK SMILES CCCCCCCCCCCCCCCCO
REMARK SMILES IDX 9 1 8 2 7 3 6 4 5 5 4 6 3 7 2 8 1 9 10 10 11 11 12 12 13 13
REMARK SMILES IDX 14 14 15 15 16 16 17 17
REMARK H PARENT 17 18
REMARK Flexibility Score: inf
ROOT
ATOM      1  C   UNL     1     170.773 184.268 199.830  1.00  0.00     0.000 C 
ENDROOT
BRANCH   1   2
ATOM      2  C   UNL     1     170.334 185.338 200.842  1.00  0.00    -0.000 C 
BRANCH   2   3
ATOM      3  C   UNL     1     170.927 186.722 200.535  1.00  0.00    -0.000 C 
BRANCH   3   4
ATOM      4  C   UNL     1     171.746 187.244 201.725  1.00  0.00    -0.000 C 
BRANCH   4   5
ATOM      5  C   UNL     1     172.120 186.134 202.720  1.00  0.00    -0.000 C 
BRANCH   5   6
ATOM      6  C   UNL     1     173.623 185.807 202.702  1.00  0.00    -0.000 C 
BRANCH   6   7
ATOM      7  C   UNL     1     173.899 184.297 202.778  1.00  0.00    -0.000 C 
BRANCH   7   8
ATOM      8  C   UNL     1     172.633 183.480 203.070  1.00  0.00    -0.003 C 
ATOM      9  C   UNL     1     172.643 182.158 202.307  1.00  0.00     0.004 C 
ENDBRANCH   7   8
ENDBRANCH   6   7
ENDBRANCH   5   6
ENDBRANCH   4   5
ENDBRANCH   3   4
ENDBRANCH   2   3
ENDBRANCH   1   2
BRANCH   1  10
ATOM     10  C   UNL     1     171.892 184.761 198.896  1.00  0.00     0.000 C 
BRANCH  10  11
ATOM     11  C   UNL     1     173.222 184.032 199.136  1.00  0.00     0.000 C 
BRANCH  11  12
ATOM     12  C   UNL     1     174.428 184.989 199.135  1.00  0.00     0.000 C 
BRANCH  12  13
ATOM     13  C   UNL     1     174.065 186.398 198.637  1.00  0.00     0.000 C 
BRANCH  13  14
ATOM     14  C   UNL     1     174.703 187.507 199.485  1.00  0.00     0.002 C 
BRANCH  14  15
ATOM     15  C   UNL     1     175.979 187.006 200.174  1.00  0.00     0.028 C 
BRANCH  15  16
ATOM     16  C   UNL     1     177.242 187.552 199.500  1.00  0.00     0.156 C 
BRANCH  16  17
ATOM     17  O   UNL     1     177.618 186.747 198.413  1.00  0.00    -0.396 OA
ATOM     18  H   UNL     1     178.582 186.540 198.535  1.00  0.00     0.210 HD
ENDBRANCH  16  17
ENDBRANCH  15  16
ENDBRANCH  14  15
ENDBRANCH  13  14
ENDBRANCH  12  13
ENDBRANCH  11  12
ENDBRANCH  10  11
ENDBRANCH   1  10
TORSDOF 15
ENDMDL
MODEL 7
REMARK VINA RESULT:     0.030      8.610     10.597
REMARK INTER + INTRA:          -3.037
REMARK INTER:                   0.000
REMARK INTRA:                  -3.037
REMARK UNBOUND:                -3.092
REMARK SMILES CCCCCCCCCCCCCCCCO
REMARK SMILES IDX 9 1 8 2 7 3 6 4 5 5 4 6 3 7 2 8 1 9 10 10 11 11 12 12 13 13
REMARK SMILES IDX 14 14 15 15 16 16 17 17
REMARK H PARENT 17 18
REMARK Flexibility Score: inf
ROOT
ATOM      1  C   UNL     1     174.941 192.290 193.773  1.00  0.00     0.000 C 
ENDROOT
BRANCH   1   2
ATOM      2  C   UNL     1     173.836 192.383 194.837  1.00  0.00    -0.000 C 
BRANCH   2   3
ATOM      3  C   UNL     1     174.290 193.138 196.096  1.00  0.00    -0.000 C 
BRANCH   3   4
ATOM      4  C   UNL     1     175.818 193.292 196.123  1.00  0.00    -0.000 C 
BRANCH   4   5
ATOM      5  C   UNL     1     176.469 192.537 197.292  1.00  0.00    -0.000 C 
BRANCH   5   6
ATOM      6  C   UNL     1     177.774 191.831 196.885  1.00  0.00    -0.000 C 
BRANCH   6   7
ATOM      7  C   UNL     1     178.207 192.173 195.450  1.00  0.00    -0.000 C 
BRANCH   7   8
ATOM      8  C   UNL     1     178.833 190.975 194.721  1.00  0.00    -0.003 C 
ATOM      9  C   UNL     1     179.285 189.904 195.710  1.00  0.00     0.004 C 
ENDBRANCH   7   8
ENDBRANCH   6   7
ENDBRANCH   5   6
ENDBRANCH   4   5
ENDBRANCH   3   4
ENDBRANCH   2   3
ENDBRANCH   1   2
BRANCH   1  10
ATOM     10  C   UNL     1     175.304 190.837 193.422  1.00  0.00     0.000 C 
BRANCH  10  11
ATOM     11  C   UNL     1     174.682 189.824 194.394  1.00  0.00     0.000 C 
BRANCH  11  12
ATOM     12  C   UNL     1     175.740 188.957 195.099  1.00  0.00     0.000 C 
BRANCH  12  13
ATOM     13  C   UNL     1     175.563 188.932 196.626  1.00  0.00     0.000 C 
BRANCH  13  14
ATOM     14  C   UNL     1     174.197 189.474 197.071  1.00  0.00     0.002 C 
BRANCH  14  15
ATOM     15  C   UNL     1     174.230 189.901 198.545  1.00  0.00     0.028 C 
BRANCH  15  16
ATOM     16  C   UNL     1     173.123 190.909 198.870  1.00  0.00     0.156 C 
BRANCH  16  17
ATOM     17  O   UNL     1     173.655 192.063 199.464  1.00  0.00    -0.396 OA
ATOM     18  H   UNL     1     174.630 191.906 199.564  1.00  0.00     0.210 HD
ENDBRANCH  16  17
ENDBRANCH  15  16
ENDBRANCH  14  15
ENDBRANCH  13  14
ENDBRANCH  12  13
ENDBRANCH  11  12
ENDBRANCH  10  11
ENDBRANCH   1  10
TORSDOF 15
ENDMDL
MODEL 8
REMARK VINA RESULT:     0.031      8.274     10.403
REMARK INTER + INTRA:          -3.035
REMARK INTER:                   0.000
REMARK INTRA:                  -3.035
REMARK UNBOUND:                -3.092
REMARK SMILES CCCCCCCCCCCCCCCCO
REMARK SMILES IDX 9 1 8 2 7 3 6 4 5 5 4 6 3 7 2 8 1 9 10 10 11 11 12 12 13 13
REMARK SMILES IDX 14 14 15 15 16 16 17 17
REMARK H PARENT 17 18
REMARK Flexibility Score: inf
ROOT
ATOM      1  C   UNL     1     176.571 188.172 192.454  1.00  0.00     0.000 C 
ENDROOT
BRANCH   1   2
ATOM      2  C   UNL     1     176.618 189.698 192.271  1.00  0.00    -0.000 C 
BRANCH   2   3
ATOM      3  C   UNL     1     175.220 190.335 192.261  1.00  0.00    -0.000 C 
BRANCH   3   4
ATOM      4  C   UNL     1     175.067 191.342 193.410  1.00  0.00    -0.000 C 
BRANCH   4   5
ATOM      5  C   UNL     1     173.708 191.232 194.118  1.00  0.00    -0.000 C 
BRANCH   5   6
ATOM      6  C   UNL     1     172.627 190.599 193.224  1.00  0.00    -0.000 C 
BRANCH   6   7
ATOM      7  C   UNL     1     171.964 189.376 193.877  1.00  0.00    -0.000 C 
BRANCH   7   8
ATOM      8  C   UNL     1     171.456 188.359 192.845  1.00  0.00    -0.003 C 
ATOM      9  C   UNL     1     171.762 188.819 191.422  1.00  0.00     0.004 C 
ENDBRANCH   7   8
ENDBRANCH   6   7
ENDBRANCH   5   6
ENDBRANCH   4   5
ENDBRANCH   3   4
ENDBRANCH   2   3
ENDBRANCH   1   2
BRANCH   1  10
ATOM     10  C   UNL     1     175.137 187.616 192.420  1.00  0.00     0.000 C 
BRANCH  10  11
ATOM     11  C   UNL     1     174.766 186.868 193.709  1.00  0.00     0.000 C 
BRANCH  11  12
ATOM     12  C   UNL     1     175.632 187.292 194.908  1.00  0.00     0.000 C 
BRANCH  12  13
ATOM     13  C   UNL     1     174.875 188.198 195.893  1.00  0.00     0.000 C 
BRANCH  13  14
ATOM     14  C   UNL     1     175.770 189.289 196.499  1.00  0.00     0.002 C 
BRANCH  14  15
ATOM     15  C   UNL     1     177.205 189.179 195.969  1.00  0.00     0.028 C 
BRANCH  15  16
ATOM     16  C   UNL     1     177.854 190.556 195.793  1.00  0.00     0.156 C 
BRANCH  16  17
ATOM     17  O   UNL     1     177.052 191.563 196.352  1.00  0.00    -0.396 OA
ATOM     18  H   UNL     1     176.454 191.117 197.008  1.00  0.00     0.210 HD
ENDBRANCH  16  17
ENDBRANCH  15  16
ENDBRANCH  14  15
ENDBRANCH  13  14
ENDBRANCH  12  13
ENDBRANCH  11  12
ENDBRANCH  10  11
ENDBRANCH   1  10
TORSDOF 15
ENDMDL
MODEL 9
REMARK VINA RESULT:     0.032      4.845      6.976
REMARK INTER + INTRA:          -3.033
REMARK INTER:                   0.000
REMARK INTRA:                  -3.033
REMARK UNBOUND:                -3.092
REMARK SMILES CCCCCCCCCCCCCCCCO
REMARK SMILES IDX 9 1 8 2 7 3 6 4 5 5 4 6 3 7 2 8 1 9 10 10 11 11 12 12 13 13
REMARK SMILES IDX 14 14 15 15 16 16 17 17
REMARK H PARENT 17 18
REMARK Flexibility Score: inf
ROOT
ATOM      1  C   UNL     1     176.853 189.021 192.311  1.00  0.00     0.000 C 
ENDROOT
BRANCH   1   2
ATOM      2  C   UNL     1     177.689 189.660 193.432  1.00  0.00    -0.000 C 
BRANCH   2   3
ATOM      3  C   UNL     1     176.946 190.800 194.146  1.00  0.00    -0.000 C 
BRANCH   3   4
ATOM      4  C   UNL     1     175.669 191.186 193.384  1.00  0.00    -0.000 C 
BRANCH   4   5
ATOM      5  C   UNL     1     175.688 192.643 192.897  1.00  0.00    -0.000 C 
BRANCH   5   6
ATOM      6  C   UNL     1     175.118 192.797 191.476  1.00  0.00    -0.000 C 
BRANCH   6   7
ATOM      7  C   UNL     1     174.508 191.492 190.940  1.00  0.00    -0.000 C 
BRANCH   7   8
ATOM      8  C   UNL     1     174.857 191.239 189.467  1.00  0.00    -0.003 C 
ATOM      9  C   UNL     1     175.262 192.533 188.767  1.00  0.00     0.004 C 
ENDBRANCH   7   8
ENDBRANCH   6   7
ENDBRANCH   5   6
ENDBRANCH   4   5
ENDBRANCH   3   4
ENDBRANCH   2   3
ENDBRANCH   1   2
BRANCH   1  10
ATOM     10  C   UNL     1     177.547 189.095 190.940  1.00  0.00     0.000 C 
BRANCH  10  11
ATOM     11  C   UNL     1     178.737 190.066 190.935  1.00  0.00     0.000 C 
BRANCH  11  12
ATOM     12  C   UNL     1     178.557 191.215 189.927  1.00  0.00     0.000 C 
BRANCH  12  13
ATOM     13  C   UNL     1     178.644 192.600 190.588  1.00  0.00     0.000 C 
BRANCH  13  14
ATOM     14  C   UNL     1     179.411 192.573 191.918  1.00  0.00     0.002 C 
BRANCH  14  15
ATOM     15  C   UNL     1     179.159 193.856 192.723  1.00  0.00     0.028 C 
BRANCH  15  16
ATOM     16  C   UNL     1     179.392 193.641 194.222  1.00  0.00     0.156 C 
BRANCH  16  17
ATOM     17  O   UNL     1     178.268 194.034 194.965  1.00  0.00    -0.396 OA
ATOM     18  H   UNL     1     177.546 194.221 194.308  1.00  0.00     0.210 HD
ENDBRANCH  16  17
ENDBRANCH  15  16
ENDBRANCH  14  15
ENDBRANCH  13  14
ENDBRANCH  12  13
ENDBRANCH  11  12
ENDBRANCH  10  11
ENDBRANCH   1  10
TORSDOF 15
ENDMDL
