MODEL 1
REMARK VINA RESULT:    -5.686      0.000      0.000
REMARK INTER + INTRA:         -15.636
REMARK INTER:                 -12.333
REMARK INTRA:                  -3.302
REMARK UNBOUND:                -3.302
REMARK SMILES CCCCCCCCCCCCCCCCCCCCCC(=O)[O-]
REMARK SMILES IDX 12 1 11 2 10 3 9 4 8 5 7 6 6 7 5 8 4 9 3 10 2 11 1 12 13 13
REMARK SMILES IDX 14 14 15 15 16 16 17 17 18 18 19 19 20 20 21 21 22 22 23 23
REMARK SMILES IDX 24 24
REMARK H PARENT
REMARK Flexibility Score: inf
ROOT
ATOM      1  C   UNL     1     -16.557   8.757 -23.005  1.00  0.00     0.000 C 
ENDROOT
BRANCH   1   2
ATOM      2  C   UNL     1     -18.016   9.126 -22.698  1.00  0.00     0.000 C 
BRANCH   2   3
ATOM      3  C   UNL     1     -18.722   7.995 -21.939  1.00  0.00     0.000 C 
BRANCH   3   4
ATOM      4  C   UNL     1     -17.716   7.167 -21.126  1.00  0.00    -0.000 C 
BRANCH   4   5
ATOM      5  C   UNL     1     -17.774   5.667 -21.461  1.00  0.00    -0.000 C 
BRANCH   5   6
ATOM      6  C   UNL     1     -17.315   4.782 -20.289  1.00  0.00    -0.000 C 
BRANCH   6   7
ATOM      7  C   UNL     1     -16.915   3.368 -20.739  1.00  0.00    -0.000 C 
BRANCH   7   8
ATOM      8  C   UNL     1     -15.856   2.730 -19.822  1.00  0.00    -0.000 C 
BRANCH   8   9
ATOM      9  C   UNL     1     -14.877   1.821 -20.588  1.00  0.00    -0.000 C 
BRANCH   9  10
ATOM     10  C   UNL     1     -14.735   0.395 -20.019  1.00  0.00    -0.000 C 
BRANCH  10  11
ATOM     11  C   UNL     1     -15.180  -0.729 -20.968  1.00  0.00    -0.003 C 
ATOM     12  C   UNL     1     -15.972  -0.216 -22.170  1.00  0.00     0.004 C 
ENDBRANCH  10  11
ENDBRANCH   9  10
ENDBRANCH   8   9
ENDBRANCH   7   8
ENDBRANCH   6   7
ENDBRANCH   5   6
ENDBRANCH   4   5
ENDBRANCH   3   4
ENDBRANCH   2   3
ENDBRANCH   1   2
BRANCH   1  13
ATOM     13  C   UNL     1     -16.278   8.613 -24.512  1.00  0.00     0.000 C 
BRANCH  13  14
ATOM     14  C   UNL     1     -16.813   7.321 -25.157  1.00  0.00     0.000 C 
BRANCH  14  15
ATOM     15  C   UNL     1     -15.711   6.277 -25.409  1.00  0.00     0.000 C 
BRANCH  15  16
ATOM     16  C   UNL     1     -16.033   4.903 -24.792  1.00  0.00     0.000 C 
BRANCH  16  17
ATOM     17  C   UNL     1     -15.132   4.485 -23.615  1.00  0.00     0.000 C 
BRANCH  17  18
ATOM     18  C   UNL     1     -14.479   5.685 -22.905  1.00  0.00     0.000 C 
BRANCH  18  19
ATOM     19  C   UNL     1     -13.852   5.302 -21.556  1.00  0.00     0.000 C 
BRANCH  19  20
ATOM     20  C   UNL     1     -13.200   6.504 -20.848  1.00  0.00     0.006 C 
BRANCH  20  21
ATOM     21  C   UNL     1     -14.239   7.511 -20.339  1.00  0.00     0.053 C 
BRANCH  21  22
ATOM     22  C   UNL     1     -13.660   8.886 -20.192  1.00  0.00     0.041 C 
ATOM     23  O   UNL     1     -12.444   9.033 -19.896  1.00  0.00    -0.550 OA
ATOM     24  O   UNL     1     -14.457  10.004 -20.398  1.00  0.00    -0.550 OA
ENDBRANCH  21  22
ENDBRANCH  20  21
ENDBRANCH  19  20
ENDBRANCH  18  19
ENDBRANCH  17  18
ENDBRANCH  16  17
ENDBRANCH  15  16
ENDBRANCH  14  15
ENDBRANCH  13  14
ENDBRANCH   1  13
TORSDOF 20
ENDMDL
MODEL 2
REMARK VINA RESULT:    -5.631      3.452      6.686
REMARK INTER + INTRA:         -15.516
REMARK INTER:                 -11.296
REMARK INTRA:                  -4.220
REMARK UNBOUND:                -3.302
REMARK SMILES CCCCCCCCCCCCCCCCCCCCCC(=O)[O-]
REMARK SMILES IDX 12 1 11 2 10 3 9 4 8 5 7 6 6 7 5 8 4 9 3 10 2 11 1 12 13 13
REMARK SMILES IDX 14 14 15 15 16 16 17 17 18 18 19 19 20 20 21 21 22 22 23 23
REMARK SMILES IDX 24 24
REMARK H PARENT
REMARK Flexibility Score: inf
ROOT
ATOM      1  C   UNL     1     -16.985   3.949 -20.237  1.00  0.00     0.000 C 
ENDROOT
BRANCH   1   2
ATOM      2  C   UNL     1     -17.885   3.744 -21.464  1.00  0.00     0.000 C 
BRANCH   2   3
ATOM      3  C   UNL     1     -17.757   4.917 -22.445  1.00  0.00     0.000 C 
BRANCH   3   4
ATOM      4  C   UNL     1     -17.964   4.448 -23.893  1.00  0.00    -0.000 C 
BRANCH   4   5
ATOM      5  C   UNL     1     -18.896   5.376 -24.690  1.00  0.00    -0.000 C 
BRANCH   5   6
ATOM      6  C   UNL     1     -18.132   6.256 -25.696  1.00  0.00    -0.000 C 
BRANCH   6   7
ATOM      7  C   UNL     1     -16.661   5.837 -25.847  1.00  0.00    -0.000 C 
BRANCH   7   8
ATOM      8  C   UNL     1     -15.682   6.955 -25.450  1.00  0.00    -0.000 C 
BRANCH   8   9
ATOM      9  C   UNL     1     -16.386   8.157 -24.794  1.00  0.00    -0.000 C 
BRANCH   9  10
ATOM     10  C   UNL     1     -16.044   8.378 -23.307  1.00  0.00    -0.000 C 
BRANCH  10  11
ATOM     11  C   UNL     1     -17.254   8.380 -22.357  1.00  0.00    -0.003 C 
ATOM     12  C   UNL     1     -18.480   9.067 -22.955  1.00  0.00     0.004 C 
ENDBRANCH  10  11
ENDBRANCH   9  10
ENDBRANCH   8   9
ENDBRANCH   7   8
ENDBRANCH   6   7
ENDBRANCH   5   6
ENDBRANCH   4   5
ENDBRANCH   3   4
ENDBRANCH   2   3
ENDBRANCH   1   2
BRANCH   1  13
ATOM     13  C   UNL     1     -16.107   5.210 -20.339  1.00  0.00     0.000 C 
BRANCH  13  14
ATOM     14  C   UNL     1     -14.596   4.948 -20.469  1.00  0.00     0.000 C 
BRANCH  14  15
ATOM     15  C   UNL     1     -13.967   5.661 -21.679  1.00  0.00     0.000 C 
BRANCH  15  16
ATOM     16  C   UNL     1     -14.195   4.909 -23.004  1.00  0.00     0.000 C 
BRANCH  16  17
ATOM     17  C   UNL     1     -13.672   3.461 -23.036  1.00  0.00     0.000 C 
BRANCH  17  18
ATOM     18  C   UNL     1     -14.712   2.459 -23.568  1.00  0.00     0.000 C 
BRANCH  18  19
ATOM     19  C   UNL     1     -15.283   1.558 -22.462  1.00  0.00     0.000 C 
BRANCH  19  20
ATOM     20  C   UNL     1     -14.262   1.276 -21.346  1.00  0.00     0.006 C 
BRANCH  20  21
ATOM     21  C   UNL     1     -14.911   0.635 -20.113  1.00  0.00     0.053 C 
BRANCH  21  22
ATOM     22  C   UNL     1     -14.635  -0.836 -20.037  1.00  0.00     0.041 C 
ATOM     23  O   UNL     1     -15.127  -1.618 -20.893  1.00  0.00    -0.550 OA
ATOM     24  O   UNL     1     -13.822  -1.343 -19.031  1.00  0.00    -0.550 OA
ENDBRANCH  21  22
ENDBRANCH  20  21
ENDBRANCH  19  20
ENDBRANCH  18  19
ENDBRANCH  17  18
ENDBRANCH  16  17
ENDBRANCH  15  16
ENDBRANCH  14  15
ENDBRANCH  13  14
ENDBRANCH   1  13
TORSDOF 20
ENDMDL
MODEL 3
REMARK VINA RESULT:    -5.566      1.363      3.308
REMARK INTER + INTRA:         -15.376
REMARK INTER:                 -11.524
REMARK INTRA:                  -3.852
REMARK UNBOUND:                -3.302
REMARK SMILES CCCCCCCCCCCCCCCCCCCCCC(=O)[O-]
REMARK SMILES IDX 12 1 11 2 10 3 9 4 8 5 7 6 6 7 5 8 4 9 3 10 2 11 1 12 13 13
REMARK SMILES IDX 14 14 15 15 16 16 17 17 18 18 19 19 20 20 21 21 22 22 23 23
REMARK SMILES IDX 24 24
REMARK H PARENT
REMARK Flexibility Score: inf
ROOT
ATOM      1  C   UNL     1     -17.856   3.909 -22.020  1.00  0.00     0.000 C 
ENDROOT
BRANCH   1   2
ATOM      2  C   UNL     1     -17.261   4.084 -20.615  1.00  0.00     0.000 C 
BRANCH   2   3
ATOM      3  C   UNL     1     -17.085   5.569 -20.273  1.00  0.00     0.000 C 
BRANCH   3   4
ATOM      4  C   UNL     1     -15.607   5.902 -20.017  1.00  0.00    -0.000 C 
BRANCH   4   5
ATOM      5  C   UNL     1     -14.648   4.925 -20.717  1.00  0.00    -0.000 C 
BRANCH   5   6
ATOM      6  C   UNL     1     -14.028   5.519 -21.994  1.00  0.00    -0.000 C 
BRANCH   6   7
ATOM      7  C   UNL     1     -14.394   4.719 -23.254  1.00  0.00    -0.000 C 
BRANCH   7   8
ATOM      8  C   UNL     1     -13.845   3.282 -23.225  1.00  0.00    -0.000 C 
BRANCH   8   9
ATOM      9  C   UNL     1     -14.958   2.223 -23.122  1.00  0.00    -0.000 C 
BRANCH   9  10
ATOM     10  C   UNL     1     -14.486   0.826 -22.672  1.00  0.00    -0.000 C 
BRANCH  10  11
ATOM     11  C   UNL     1     -15.061   0.349 -21.328  1.00  0.00    -0.003 C 
ATOM     12  C   UNL     1     -14.800   1.331 -20.187  1.00  0.00     0.004 C 
ENDBRANCH  10  11
ENDBRANCH   9  10
ENDBRANCH   8   9
ENDBRANCH   7   8
ENDBRANCH   6   7
ENDBRANCH   5   6
ENDBRANCH   4   5
ENDBRANCH   3   4
ENDBRANCH   2   3
ENDBRANCH   1   2
BRANCH   1  13
ATOM     13  C   UNL     1     -18.011   5.240 -22.778  1.00  0.00     0.000 C 
BRANCH  13  14
ATOM     14  C   UNL     1     -18.045   5.119 -24.313  1.00  0.00     0.000 C 
BRANCH  14  15
ATOM     15  C   UNL     1     -17.906   6.477 -25.023  1.00  0.00     0.000 C 
BRANCH  15  16
ATOM     16  C   UNL     1     -16.445   6.830 -25.364  1.00  0.00     0.000 C 
BRANCH  16  17
ATOM     17  C   UNL     1     -15.832   7.967 -24.525  1.00  0.00     0.000 C 
BRANCH  17  18
ATOM     18  C   UNL     1     -16.892   8.819 -23.804  1.00  0.00     0.000 C 
BRANCH  18  19
ATOM     19  C   UNL     1     -16.731   8.793 -22.276  1.00  0.00     0.000 C 
BRANCH  19  20
ATOM     20  C   UNL     1     -15.281   9.055 -21.833  1.00  0.00     0.006 C 
BRANCH  20  21
ATOM     21  C   UNL     1     -15.163   9.249 -20.315  1.00  0.00     0.053 C 
BRANCH  21  22
ATOM     22  C   UNL     1     -13.736   9.378 -19.877  1.00  0.00     0.041 C 
ATOM     23  O   UNL     1     -13.382  10.341 -19.147  1.00  0.00    -0.550 OA
ATOM     24  O   UNL     1     -12.800   8.426 -20.260  1.00  0.00    -0.550 OA
ENDBRANCH  21  22
ENDBRANCH  20  21
ENDBRANCH  19  20
ENDBRANCH  18  19
ENDBRANCH  17  18
ENDBRANCH  16  17
ENDBRANCH  15  16
ENDBRANCH  14  15
ENDBRANCH  13  14
ENDBRANCH   1  13
TORSDOF 20
ENDMDL
MODEL 4
REMARK VINA RESULT:    -5.562      2.900      7.014
REMARK INTER + INTRA:         -15.367
REMARK INTER:                 -11.982
REMARK INTRA:                  -3.384
REMARK UNBOUND:                -3.302
REMARK SMILES CCCCCCCCCCCCCCCCCCCCCC(=O)[O-]
REMARK SMILES IDX 12 1 11 2 10 3 9 4 8 5 7 6 6 7 5 8 4 9 3 10 2 11 1 12 13 13
REMARK SMILES IDX 14 14 15 15 16 16 17 17 18 18 19 19 20 20 21 21 22 22 23 23
REMARK SMILES IDX 24 24
REMARK H PARENT
REMARK Flexibility Score: inf
ROOT
ATOM      1  C   UNL     1     -14.661   5.099 -20.193  1.00  0.00     0.000 C 
ENDROOT
BRANCH   1   2
ATOM      2  C   UNL     1     -13.661   5.489 -21.292  1.00  0.00     0.000 C 
BRANCH   2   3
ATOM      3  C   UNL     1     -14.143   5.014 -22.668  1.00  0.00     0.000 C 
BRANCH   3   4
ATOM      4  C   UNL     1     -15.280   5.906 -23.191  1.00  0.00    -0.000 C 
BRANCH   4   5
ATOM      5  C   UNL     1     -15.691   5.560 -24.632  1.00  0.00    -0.000 C 
BRANCH   5   6
ATOM      6  C   UNL     1     -16.324   6.755 -25.367  1.00  0.00    -0.000 C 
BRANCH   6   7
ATOM      7  C   UNL     1     -15.984   8.100 -24.708  1.00  0.00    -0.000 C 
BRANCH   7   8
ATOM      8  C   UNL     1     -17.181   9.066 -24.677  1.00  0.00    -0.000 C 
BRANCH   8   9
ATOM      9  C   UNL     1     -17.755   9.258 -23.261  1.00  0.00    -0.000 C 
BRANCH   9  10
ATOM     10  C   UNL     1     -16.742   9.059 -22.117  1.00  0.00    -0.000 C 
BRANCH  10  11
ATOM     11  C   UNL     1     -17.108   7.957 -21.110  1.00  0.00    -0.003 C 
ATOM     12  C   UNL     1     -18.373   7.193 -21.497  1.00  0.00     0.004 C 
ENDBRANCH  10  11
ENDBRANCH   9  10
ENDBRANCH   8   9
ENDBRANCH   7   8
ENDBRANCH   6   7
ENDBRANCH   5   6
ENDBRANCH   4   5
ENDBRANCH   3   4
ENDBRANCH   2   3
ENDBRANCH   1   2
BRANCH   1  13
ATOM     13  C   UNL     1     -14.650   3.592 -19.876  1.00  0.00     0.000 C 
BRANCH  13  14
ATOM     14  C   UNL     1     -16.032   2.913 -19.880  1.00  0.00     0.000 C 
BRANCH  14  15
ATOM     15  C   UNL     1     -17.136   3.805 -20.471  1.00  0.00     0.000 C 
BRANCH  15  16
ATOM     16  C   UNL     1     -17.640   3.310 -21.841  1.00  0.00     0.000 C 
BRANCH  16  17
ATOM     17  C   UNL     1     -16.722   2.296 -22.549  1.00  0.00     0.000 C 
BRANCH  17  18
ATOM     18  C   UNL     1     -17.486   1.079 -23.100  1.00  0.00     0.000 C 
BRANCH  18  19
ATOM     19  C   UNL     1     -17.101  -0.230 -22.393  1.00  0.00     0.000 C 
BRANCH  19  20
ATOM     20  C   UNL     1     -15.731  -0.764 -22.848  1.00  0.00     0.006 C 
BRANCH  20  21
ATOM     21  C   UNL     1     -14.927  -1.364 -21.688  1.00  0.00     0.053 C 
BRANCH  21  22
ATOM     22  C   UNL     1     -14.349  -0.303 -20.800  1.00  0.00     0.041 C 
ATOM     23  O   UNL     1     -13.620   0.601 -21.286  1.00  0.00    -0.550 OA
ATOM     24  O   UNL     1     -14.629  -0.303 -19.440  1.00  0.00    -0.550 OA
ENDBRANCH  21  22
ENDBRANCH  20  21
ENDBRANCH  19  20
ENDBRANCH  18  19
ENDBRANCH  17  18
ENDBRANCH  16  17
ENDBRANCH  15  16
ENDBRANCH  14  15
ENDBRANCH  13  14
ENDBRANCH   1  13
TORSDOF 20
ENDMDL
MODEL 5
REMARK VINA RESULT:    -5.561      3.178      6.551
REMARK INTER + INTRA:         -15.365
REMARK INTER:                 -12.085
REMARK INTRA:                  -3.280
REMARK UNBOUND:                -3.302
REMARK SMILES CCCCCCCCCCCCCCCCCCCCCC(=O)[O-]
REMARK SMILES IDX 12 1 11 2 10 3 9 4 8 5 7 6 6 7 5 8 4 9 3 10 2 11 1 12 13 13
REMARK SMILES IDX 14 14 15 15 16 16 17 17 18 18 19 19 20 20 21 21 22 22 23 23
REMARK SMILES IDX 24 24
REMARK H PARENT
REMARK Flexibility Score: inf
ROOT
ATOM      1  C   UNL     1     -15.177   4.477 -23.958  1.00  0.00     0.000 C 
ENDROOT
BRANCH   1   2
ATOM      2  C   UNL     1     -16.329   5.416 -24.346  1.00  0.00     0.000 C 
BRANCH   2   3
ATOM      3  C   UNL     1     -15.906   6.373 -25.468  1.00  0.00     0.000 C 
BRANCH   3   4
ATOM      4  C   UNL     1     -15.955   7.833 -24.993  1.00  0.00    -0.000 C 
BRANCH   4   5
ATOM      5  C   UNL     1     -15.951   7.959 -23.460  1.00  0.00    -0.000 C 
BRANCH   5   6
ATOM      6  C   UNL     1     -17.097   8.844 -22.938  1.00  0.00    -0.000 C 
BRANCH   6   7
ATOM      7  C   UNL     1     -17.181   8.855 -21.403  1.00  0.00    -0.000 C 
BRANCH   7   8
ATOM      8  C   UNL     1     -17.201   7.439 -20.800  1.00  0.00    -0.000 C 
BRANCH   8   9
ATOM      9  C   UNL     1     -15.883   7.077 -20.090  1.00  0.00    -0.000 C 
BRANCH   9  10
ATOM     10  C   UNL     1     -14.941   8.267 -19.823  1.00  0.00    -0.000 C 
BRANCH  10  11
ATOM     11  C   UNL     1     -13.520   8.110 -20.390  1.00  0.00    -0.003 C 
ATOM     12  C   UNL     1     -13.171   6.661 -20.728  1.00  0.00     0.004 C 
ENDBRANCH  10  11
ENDBRANCH   9  10
ENDBRANCH   8   9
ENDBRANCH   7   8
ENDBRANCH   6   7
ENDBRANCH   5   6
ENDBRANCH   4   5
ENDBRANCH   3   4
ENDBRANCH   2   3
ENDBRANCH   1   2
BRANCH   1  13
ATOM     13  C   UNL     1     -15.239   4.024 -22.488  1.00  0.00     0.000 C 
BRANCH  13  14
ATOM     14  C   UNL     1     -16.657   3.892 -21.903  1.00  0.00     0.000 C 
BRANCH  14  15
ATOM     15  C   UNL     1     -16.700   3.032 -20.627  1.00  0.00     0.000 C 
BRANCH  15  16
ATOM     16  C   UNL     1     -15.320   2.882 -19.957  1.00  0.00     0.000 C 
BRANCH  16  17
ATOM     17  C   UNL     1     -15.164   1.647 -19.050  1.00  0.00     0.000 C 
BRANCH  17  18
ATOM     18  C   UNL     1     -14.696   0.396 -19.815  1.00  0.00     0.000 C 
BRANCH  18  19
ATOM     19  C   UNL     1     -13.893   0.743 -21.078  1.00  0.00     0.000 C 
BRANCH  19  20
ATOM     20  C   UNL     1     -14.404  -0.004 -22.323  1.00  0.00     0.006 C 
BRANCH  20  21
ATOM     21  C   UNL     1     -15.858  -0.467 -22.167  1.00  0.00     0.053 C 
BRANCH  21  22
ATOM     22  C   UNL     1     -16.766   0.195 -23.158  1.00  0.00     0.041 C 
ATOM     23  O   UNL     1     -16.290   0.950 -24.046  1.00  0.00    -0.550 OA
ATOM     24  O   UNL     1     -18.135  -0.035 -23.112  1.00  0.00    -0.550 OA
ENDBRANCH  21  22
ENDBRANCH  20  21
ENDBRANCH  19  20
ENDBRANCH  18  19
ENDBRANCH  17  18
ENDBRANCH  16  17
ENDBRANCH  15  16
ENDBRANCH  14  15
ENDBRANCH  13  14
ENDBRANCH   1  13
TORSDOF 20
ENDMDL
MODEL 6
REMARK VINA RESULT:    -5.429      1.448      3.720
REMARK INTER + INTRA:         -15.078
REMARK INTER:                 -11.424
REMARK INTRA:                  -3.654
REMARK UNBOUND:                -3.302
REMARK SMILES CCCCCCCCCCCCCCCCCCCCCC(=O)[O-]
REMARK SMILES IDX 12 1 11 2 10 3 9 4 8 5 7 6 6 7 5 8 4 9 3 10 2 11 1 12 13 13
REMARK SMILES IDX 14 14 15 15 16 16 17 17 18 18 19 19 20 20 21 21 22 22 23 23
REMARK SMILES IDX 24 24
REMARK H PARENT
REMARK Flexibility Score: inf
ROOT
ATOM      1  C   UNL     1     -16.157   5.064 -20.400  1.00  0.00     0.000 C 
ENDROOT
BRANCH   1   2
ATOM      2  C   UNL     1     -14.927   4.295 -20.905  1.00  0.00     0.000 C 
BRANCH   2   3
ATOM      3  C   UNL     1     -14.100   5.152 -21.871  1.00  0.00     0.000 C 
BRANCH   3   4
ATOM      4  C   UNL     1     -13.823   4.394 -23.179  1.00  0.00    -0.000 C 
BRANCH   4   5
ATOM      5  C   UNL     1     -14.217   2.910 -23.100  1.00  0.00    -0.000 C 
BRANCH   5   6
ATOM      6  C   UNL     1     -15.269   2.522 -24.154  1.00  0.00    -0.000 C 
BRANCH   6   7
ATOM      7  C   UNL     1     -16.042   1.249 -23.775  1.00  0.00    -0.000 C 
BRANCH   7   8
ATOM      8  C   UNL     1     -16.276   1.126 -22.259  1.00  0.00    -0.000 C 
BRANCH   8   9
ATOM      9  C   UNL     1     -15.691  -0.172 -21.671  1.00  0.00    -0.000 C 
BRANCH   9  10
ATOM     10  C   UNL     1     -14.637   0.033 -20.566  1.00  0.00    -0.000 C 
BRANCH  10  11
ATOM     11  C   UNL     1     -13.692  -1.159 -20.342  1.00  0.00    -0.003 C 
ATOM     12  C   UNL     1     -13.911  -1.847 -18.995  1.00  0.00     0.004 C 
ENDBRANCH  10  11
ENDBRANCH   9  10
ENDBRANCH   8   9
ENDBRANCH   7   8
ENDBRANCH   6   7
ENDBRANCH   5   6
ENDBRANCH   4   5
ENDBRANCH   3   4
ENDBRANCH   2   3
ENDBRANCH   1   2
BRANCH   1  13
ATOM     13  C   UNL     1     -17.485   4.351 -20.717  1.00  0.00     0.000 C 
BRANCH  13  14
ATOM     14  C   UNL     1     -17.868   4.313 -22.207  1.00  0.00     0.000 C 
BRANCH  14  15
ATOM     15  C   UNL     1     -17.919   5.711 -22.848  1.00  0.00     0.000 C 
BRANCH  15  16
ATOM     16  C   UNL     1     -17.024   5.833 -24.096  1.00  0.00     0.000 C 
BRANCH  16  17
ATOM     17  C   UNL     1     -16.212   7.139 -24.195  1.00  0.00     0.000 C 
BRANCH  17  18
ATOM     18  C   UNL     1     -16.779   8.266 -23.314  1.00  0.00     0.000 C 
BRANCH  18  19
ATOM     19  C   UNL     1     -15.705   8.927 -22.437  1.00  0.00     0.000 C 
BRANCH  19  20
ATOM     20  C   UNL     1     -15.966   8.724 -20.934  1.00  0.00     0.006 C 
BRANCH  20  21
ATOM     21  C   UNL     1     -14.677   8.432 -20.155  1.00  0.00     0.053 C 
BRANCH  21  22
ATOM     22  C   UNL     1     -14.048   9.685 -19.624  1.00  0.00     0.041 C 
ATOM     23  O   UNL     1     -12.797   9.763 -19.501  1.00  0.00    -0.550 OA
ATOM     24  O   UNL     1     -14.842  10.773 -19.282  1.00  0.00    -0.550 OA
ENDBRANCH  21  22
ENDBRANCH  20  21
ENDBRANCH  19  20
ENDBRANCH  18  19
ENDBRANCH  17  18
ENDBRANCH  16  17
ENDBRANCH  15  16
ENDBRANCH  14  15
ENDBRANCH  13  14
ENDBRANCH   1  13
TORSDOF 20
ENDMDL
MODEL 7
REMARK VINA RESULT:    -5.422      1.844      5.429
REMARK INTER + INTRA:         -15.063
REMARK INTER:                 -11.032
REMARK INTRA:                  -4.031
REMARK UNBOUND:                -3.302
REMARK SMILES CCCCCCCCCCCCCCCCCCCCCC(=O)[O-]
REMARK SMILES IDX 12 1 11 2 10 3 9 4 8 5 7 6 6 7 5 8 4 9 3 10 2 11 1 12 13 13
REMARK SMILES IDX 14 14 15 15 16 16 17 17 18 18 19 19 20 20 21 21 22 22 23 23
REMARK SMILES IDX 24 24
REMARK H PARENT
REMARK Flexibility Score: inf
ROOT
ATOM      1  C   UNL     1     -16.831   3.605 -20.465  1.00  0.00     0.000 C 
ENDROOT
BRANCH   1   2
ATOM      2  C   UNL     1     -15.480   3.195 -19.859  1.00  0.00     0.000 C 
BRANCH   2   3
ATOM      3  C   UNL     1     -15.296   1.673 -19.905  1.00  0.00     0.000 C 
BRANCH   3   4
ATOM      4  C   UNL     1     -14.076   1.292 -20.758  1.00  0.00    -0.000 C 
BRANCH   4   5
ATOM      5  C   UNL     1     -14.412   0.255 -21.843  1.00  0.00    -0.000 C 
BRANCH   5   6
ATOM      6  C   UNL     1     -15.259   0.848 -22.984  1.00  0.00    -0.000 C 
BRANCH   6   7
ATOM      7  C   UNL     1     -14.468   1.840 -23.850  1.00  0.00    -0.000 C 
BRANCH   7   8
ATOM      8  C   UNL     1     -14.922   3.297 -23.649  1.00  0.00    -0.000 C 
BRANCH   8   9
ATOM      9  C   UNL     1     -13.780   4.216 -23.175  1.00  0.00    -0.000 C 
BRANCH   9  10
ATOM     10  C   UNL     1     -14.236   5.549 -22.552  1.00  0.00    -0.000 C 
BRANCH  10  11
ATOM     11  C   UNL     1     -13.494   5.952 -21.266  1.00  0.00    -0.003 C 
ATOM     12  C   UNL     1     -14.040   7.234 -20.640  1.00  0.00     0.004 C 
ENDBRANCH  10  11
ENDBRANCH   9  10
ENDBRANCH   8   9
ENDBRANCH   7   8
ENDBRANCH   6   7
ENDBRANCH   5   6
ENDBRANCH   4   5
ENDBRANCH   3   4
ENDBRANCH   2   3
ENDBRANCH   1   2
BRANCH   1  13
ATOM     13  C   UNL     1     -17.098   5.119 -20.371  1.00  0.00     0.000 C 
BRANCH  13  14
ATOM     14  C   UNL     1     -17.708   5.756 -21.633  1.00  0.00     0.000 C 
BRANCH  14  15
ATOM     15  C   UNL     1     -18.074   4.719 -22.709  1.00  0.00     0.000 C 
BRANCH  15  16
ATOM     16  C   UNL     1     -18.446   5.360 -24.059  1.00  0.00     0.000 C 
BRANCH  16  17
ATOM     17  C   UNL     1     -17.252   5.818 -24.918  1.00  0.00     0.000 C 
BRANCH  17  18
ATOM     18  C   UNL     1     -17.226   7.340 -25.146  1.00  0.00     0.000 C 
BRANCH  18  19
ATOM     19  C   UNL     1     -16.000   8.012 -24.508  1.00  0.00     0.000 C 
BRANCH  19  20
ATOM     20  C   UNL     1     -16.372   8.882 -23.294  1.00  0.00     0.006 C 
BRANCH  20  21
ATOM     21  C   UNL     1     -17.755   9.528 -23.445  1.00  0.00     0.053 C 
BRANCH  21  22
ATOM     22  C   UNL     1     -18.647   9.219 -22.280  1.00  0.00     0.041 C 
ATOM     23  O   UNL     1     -19.689   8.532 -22.446  1.00  0.00    -0.550 OA
ATOM     24  O   UNL     1     -18.318   9.675 -21.010  1.00  0.00    -0.550 OA
ENDBRANCH  21  22
ENDBRANCH  20  21
ENDBRANCH  19  20
ENDBRANCH  18  19
ENDBRANCH  17  18
ENDBRANCH  16  17
ENDBRANCH  15  16
ENDBRANCH  14  15
ENDBRANCH  13  14
ENDBRANCH   1  13
TORSDOF 20
ENDMDL
MODEL 8
REMARK VINA RESULT:    -5.408      1.983      6.234
REMARK INTER + INTRA:         -15.033
REMARK INTER:                 -11.695
REMARK INTRA:                  -3.339
REMARK UNBOUND:                -3.302
REMARK SMILES CCCCCCCCCCCCCCCCCCCCCC(=O)[O-]
REMARK SMILES IDX 12 1 11 2 10 3 9 4 8 5 7 6 6 7 5 8 4 9 3 10 2 11 1 12 13 13
REMARK SMILES IDX 14 14 15 15 16 16 17 17 18 18 19 19 20 20 21 21 22 22 23 23
REMARK SMILES IDX 24 24
REMARK H PARENT
REMARK Flexibility Score: inf
ROOT
ATOM      1  C   UNL     1     -16.361  -0.825 -22.305  1.00  0.00     0.000 C 
ENDROOT
BRANCH   1   2
ATOM      2  C   UNL     1     -14.942  -0.561 -21.778  1.00  0.00     0.000 C 
BRANCH   2   3
ATOM      3  C   UNL     1     -14.881  -0.728 -20.254  1.00  0.00     0.000 C 
BRANCH   3   4
ATOM      4  C   UNL     1     -14.878   0.638 -19.551  1.00  0.00    -0.000 C 
BRANCH   4   5
ATOM      5  C   UNL     1     -14.506   1.792 -20.497  1.00  0.00    -0.000 C 
BRANCH   5   6
ATOM      6  C   UNL     1     -14.800   3.173 -19.887  1.00  0.00    -0.000 C 
BRANCH   6   7
ATOM      7  C   UNL     1     -16.265   3.600 -20.073  1.00  0.00    -0.000 C 
BRANCH   7   8
ATOM      8  C   UNL     1     -16.418   5.115 -20.297  1.00  0.00    -0.000 C 
BRANCH   8   9
ATOM      9  C   UNL     1     -15.091   5.877 -20.131  1.00  0.00    -0.000 C 
BRANCH   9  10
ATOM     10  C   UNL     1     -15.237   7.394 -19.900  1.00  0.00    -0.000 C 
BRANCH  10  11
ATOM     11  C   UNL     1     -14.080   8.249 -20.444  1.00  0.00    -0.003 C 
ATOM     12  C   UNL     1     -13.949   9.595 -19.734  1.00  0.00     0.004 C 
ENDBRANCH  10  11
ENDBRANCH   9  10
ENDBRANCH   8   9
ENDBRANCH   7   8
ENDBRANCH   6   7
ENDBRANCH   5   6
ENDBRANCH   4   5
ENDBRANCH   3   4
ENDBRANCH   2   3
ENDBRANCH   1   2
BRANCH   1  13
ATOM     13  C   UNL     1     -16.862   0.274 -23.260  1.00  0.00     0.000 C 
BRANCH  13  14
ATOM     14  C   UNL     1     -17.490   1.501 -22.574  1.00  0.00     0.000 C 
BRANCH  14  15
ATOM     15  C   UNL     1     -17.356   2.787 -23.408  1.00  0.00     0.000 C 
BRANCH  15  16
ATOM     16  C   UNL     1     -16.095   2.801 -24.293  1.00  0.00     0.000 C 
BRANCH  16  17
ATOM     17  C   UNL     1     -14.869   3.501 -23.676  1.00  0.00     0.000 C 
BRANCH  17  18
ATOM     18  C   UNL     1     -14.961   5.036 -23.739  1.00  0.00     0.000 C 
BRANCH  18  19
ATOM     19  C   UNL     1     -15.627   5.535 -25.031  1.00  0.00     0.000 C 
BRANCH  19  20
ATOM     20  C   UNL     1     -16.093   6.998 -24.925  1.00  0.00     0.006 C 
BRANCH  20  21
ATOM     21  C   UNL     1     -16.187   7.474 -23.470  1.00  0.00     0.053 C 
BRANCH  21  22
ATOM     22  C   UNL     1     -17.597   7.451 -22.964  1.00  0.00     0.041 C 
ATOM     23  O   UNL     1     -18.022   8.382 -22.230  1.00  0.00    -0.550 OA
ATOM     24  O   UNL     1     -18.448   6.411 -23.317  1.00  0.00    -0.550 OA
ENDBRANCH  21  22
ENDBRANCH  20  21
ENDBRANCH  19  20
ENDBRANCH  18  19
ENDBRANCH  17  18
ENDBRANCH  16  17
ENDBRANCH  15  16
ENDBRANCH  14  15
ENDBRANCH  13  14
ENDBRANCH   1  13
TORSDOF 20
ENDMDL
MODEL 9
REMARK VINA RESULT:    -5.407      2.705      5.601
REMARK INTER + INTRA:         -15.032
REMARK INTER:                 -11.137
REMARK INTRA:                  -3.895
REMARK UNBOUND:                -3.302
REMARK SMILES CCCCCCCCCCCCCCCCCCCCCC(=O)[O-]
REMARK SMILES IDX 12 1 11 2 10 3 9 4 8 5 7 6 6 7 5 8 4 9 3 10 2 11 1 12 13 13
REMARK SMILES IDX 14 14 15 15 16 16 17 17 18 18 19 19 20 20 21 21 22 22 23 23
REMARK SMILES IDX 24 24
REMARK H PARENT
REMARK Flexibility Score: inf
ROOT
ATOM      1  C   UNL     1     -17.022   9.477 -20.679  1.00  0.00     0.000 C 
ENDROOT
BRANCH   1   2
ATOM      2  C   UNL     1     -17.321   8.005 -20.998  1.00  0.00     0.000 C 
BRANCH   2   3
ATOM      3  C   UNL     1     -18.684   7.856 -21.686  1.00  0.00     0.000 C 
BRANCH   3   4
ATOM      4  C   UNL     1     -19.062   9.139 -22.442  1.00  0.00    -0.000 C 
BRANCH   4   5
ATOM      5  C   UNL     1     -19.649   8.857 -23.835  1.00  0.00    -0.000 C 
BRANCH   5   6
ATOM      6  C   UNL     1     -18.560   8.683 -24.909  1.00  0.00    -0.000 C 
BRANCH   6   7
ATOM      7  C   UNL     1     -17.354   9.607 -24.682  1.00  0.00    -0.000 C 
BRANCH   7   8
ATOM      8  C   UNL     1     -16.051   8.831 -24.423  1.00  0.00    -0.000 C 
BRANCH   8   9
ATOM      9  C   UNL     1     -16.142   7.356 -24.856  1.00  0.00    -0.000 C 
BRANCH   9  10
ATOM     10  C   UNL     1     -15.645   6.339 -23.809  1.00  0.00    -0.000 C 
BRANCH  10  11
ATOM     11  C   UNL     1     -16.292   4.947 -23.899  1.00  0.00    -0.003 C 
ATOM     12  C   UNL     1     -17.796   4.971 -23.631  1.00  0.00     0.004 C 
ENDBRANCH  10  11
ENDBRANCH   9  10
ENDBRANCH   8   9
ENDBRANCH   7   8
ENDBRANCH   6   7
ENDBRANCH   5   6
ENDBRANCH   4   5
ENDBRANCH   3   4
ENDBRANCH   2   3
ENDBRANCH   1   2
BRANCH   1  13
ATOM     13  C   UNL     1     -15.545   9.729 -20.324  1.00  0.00     0.000 C 
BRANCH  13  14
ATOM     14  C   UNL     1     -14.532   8.844 -21.073  1.00  0.00     0.000 C 
BRANCH  14  15
ATOM     15  C   UNL     1     -13.904   7.763 -20.176  1.00  0.00     0.000 C 
BRANCH  15  16
ATOM     16  C   UNL     1     -13.418   6.534 -20.968  1.00  0.00     0.000 C 
BRANCH  16  17
ATOM     17  C   UNL     1     -14.128   5.210 -20.625  1.00  0.00     0.000 C 
BRANCH  17  18
ATOM     18  C   UNL     1     -15.546   5.419 -20.063  1.00  0.00     0.000 C 
BRANCH  18  19
ATOM     19  C   UNL     1     -16.437   4.178 -20.234  1.00  0.00     0.000 C 
BRANCH  19  20
ATOM     20  C   UNL     1     -15.647   2.864 -20.101  1.00  0.00     0.006 C 
BRANCH  20  21
ATOM     21  C   UNL     1     -15.703   2.021 -21.382  1.00  0.00     0.053 C 
BRANCH  21  22
ATOM     22  C   UNL     1     -14.343   1.558 -21.806  1.00  0.00     0.041 C 
ATOM     23  O   UNL     1     -13.738   2.143 -22.743  1.00  0.00    -0.550 OA
ATOM     24  O   UNL     1     -13.736   0.490 -21.157  1.00  0.00    -0.550 OA
ENDBRANCH  21  22
ENDBRANCH  20  21
ENDBRANCH  19  20
ENDBRANCH  18  19
ENDBRANCH  17  18
ENDBRANCH  16  17
ENDBRANCH  15  16
ENDBRANCH  14  15
ENDBRANCH  13  14
ENDBRANCH   1  13
TORSDOF 20
ENDMDL
