MODEL 1
REMARK VINA RESULT:    -5.521      0.000      0.000
REMARK INTER + INTRA:          -5.683
REMARK INTER:                  -5.683
REMARK INTRA:                   0.000
REMARK UNBOUND:                 0.000
REMARK SMILES C=C1[C@@H](O)C[C@@]23C[C@@H]1C(C)(C)[C@@H]2CC[C@H]3C
REMARK SMILES IDX 16 1 15 2 14 3 13 4 12 5 6 6 7 7 8 8 9 9 10 10 11 11 2 12
REMARK SMILES IDX 1 13 3 14 5 15 4 16
REMARK H PARENT 4 17
REMARK Flexibility Score: inf
ROOT
ATOM      1  C   UNL     1     141.975 145.218 145.822  1.00  0.00     0.008 C 
ATOM      2  C   UNL     1     141.163 144.405 144.795  1.00  0.00    -0.008 C 
ATOM      3  C   UNL     1     140.569 143.162 145.462  1.00  0.00     0.004 C 
ATOM      4  C   UNL     1     141.611 142.065 145.292  1.00  0.00     0.005 C 
ATOM      5  C   UNL     1     142.390 142.392 144.001  1.00  0.00     0.002 C 
ATOM      6  C   UNL     1     142.003 143.841 143.617  1.00  0.00    -0.020 C 
ATOM      7  C   UNL     1     141.151 143.695 142.350  1.00  0.00     0.016 C 
ATOM      8  C   UNL     1     141.887 142.596 141.614  1.00  0.00     0.023 C 
ATOM      9  C   UNL     1     142.117 141.523 142.719  1.00  0.00    -0.025 C 
ATOM     10  C   UNL     1     140.855 140.621 142.811  1.00  0.00     0.012 C 
ATOM     11  C   UNL     1     143.317 140.593 142.413  1.00  0.00     0.012 C 
ATOM     12  C   UNL     1     143.193 143.194 141.093  1.00  0.00    -0.045 C 
ATOM     13  C   UNL     1     143.679 142.793 139.908  1.00  0.00     0.011 C 
ATOM     14  C   UNL     1     144.028 144.113 141.987  1.00  0.00     0.140 C 
ATOM     15  C   UNL     1     143.254 144.680 143.218  1.00  0.00     0.044 C 
ENDROOT
BRANCH  14  16
ATOM     16  O   UNL     1     144.526 145.181 141.222  1.00  0.00    -0.389 OA
ATOM     17  H   UNL     1     143.956 145.245 140.411  1.00  0.00     0.211 HD
ENDBRANCH  14  16
TORSDOF 1
ENDMDL
MODEL 2
REMARK VINA RESULT:    -5.343     11.858     13.929
REMARK INTER + INTRA:          -5.499
REMARK INTER:                  -5.499
REMARK INTRA:                   0.000
REMARK UNBOUND:                 0.000
REMARK SMILES C=C1[C@@H](O)C[C@@]23C[C@@H]1C(C)(C)[C@@H]2CC[C@H]3C
REMARK SMILES IDX 16 1 15 2 14 3 13 4 12 5 6 6 7 7 8 8 9 9 10 10 11 11 2 12
REMARK SMILES IDX 1 13 3 14 5 15 4 16
REMARK H PARENT 4 17
REMARK Flexibility Score: inf
ROOT
ATOM      1  C   UNL     1     136.684 130.925 149.600  1.00  0.00     0.008 C 
ATOM      2  C   UNL     1     137.384 132.114 150.286  1.00  0.00    -0.008 C 
ATOM      3  C   UNL     1     137.223 133.378 149.437  1.00  0.00     0.004 C 
ATOM      4  C   UNL     1     138.421 133.400 148.499  1.00  0.00     0.005 C 
ATOM      5  C   UNL     1     139.566 132.666 149.227  1.00  0.00     0.002 C 
ATOM      6  C   UNL     1     138.920 131.952 150.440  1.00  0.00    -0.020 C 
ATOM      7  C   UNL     1     139.438 132.716 151.665  1.00  0.00     0.016 C 
ATOM      8  C   UNL     1     140.875 132.983 151.272  1.00  0.00     0.023 C 
ATOM      9  C   UNL     1     140.750 133.518 149.815  1.00  0.00    -0.025 C 
ATOM     10  C   UNL     1     140.477 135.047 149.866  1.00  0.00     0.012 C 
ATOM     11  C   UNL     1     142.044 133.316 148.988  1.00  0.00     0.012 C 
ATOM     12  C   UNL     1     141.620 131.651 151.348  1.00  0.00    -0.045 C 
ATOM     13  C   UNL     1     142.898 131.629 151.757  1.00  0.00     0.011 C 
ATOM     14  C   UNL     1     140.974 130.376 150.802  1.00  0.00     0.140 C 
ATOM     15  C   UNL     1     139.433 130.487 150.580  1.00  0.00     0.044 C 
ENDROOT
BRANCH  14  16
ATOM     16  O   UNL     1     141.240 129.307 151.673  1.00  0.00    -0.389 OA
ATOM     17  H   UNL     1     141.081 129.641 152.595  1.00  0.00     0.211 HD
ENDBRANCH  14  16
TORSDOF 1
ENDMDL
MODEL 3
REMARK VINA RESULT:    -5.288     11.775     13.898
REMARK INTER + INTRA:          -5.442
REMARK INTER:                  -5.442
REMARK INTRA:                   0.000
REMARK UNBOUND:                 0.000
REMARK SMILES C=C1[C@@H](O)C[C@@]23C[C@@H]1C(C)(C)[C@@H]2CC[C@H]3C
REMARK SMILES IDX 16 1 15 2 14 3 13 4 12 5 6 6 7 7 8 8 9 9 10 10 11 11 2 12
REMARK SMILES IDX 1 13 3 14 5 15 4 16
REMARK H PARENT 4 17
REMARK Flexibility Score: inf
ROOT
ATOM      1  C   UNL     1     136.698 129.284 150.999  1.00  0.00     0.008 C 
ATOM      2  C   UNL     1     136.385 130.601 150.262  1.00  0.00    -0.008 C 
ATOM      3  C   UNL     1     135.959 130.307 148.822  1.00  0.00     0.004 C 
ATOM      4  C   UNL     1     137.242 130.321 148.002  1.00  0.00     0.005 C 
ATOM      5  C   UNL     1     138.215 131.279 148.720  1.00  0.00     0.002 C 
ATOM      6  C   UNL     1     137.600 131.556 150.114  1.00  0.00    -0.020 C 
ATOM      7  C   UNL     1     137.149 133.021 150.058  1.00  0.00     0.016 C 
ATOM      8  C   UNL     1     138.284 133.660 149.287  1.00  0.00     0.023 C 
ATOM      9  C   UNL     1     138.483 132.692 148.083  1.00  0.00    -0.025 C 
ATOM     10  C   UNL     1     137.491 133.088 146.955  1.00  0.00     0.012 C 
ATOM     11  C   UNL     1     139.908 132.768 147.482  1.00  0.00     0.012 C 
ATOM     12  C   UNL     1     139.496 133.700 150.217  1.00  0.00    -0.045 C 
ATOM     13  C   UNL     1     140.342 134.741 150.158  1.00  0.00     0.011 C 
ATOM     14  C   UNL     1     139.839 132.489 151.086  1.00  0.00     0.140 C 
ATOM     15  C   UNL     1     138.672 131.464 151.240  1.00  0.00     0.044 C 
ENDROOT
BRANCH  14  16
ATOM     16  O   UNL     1     140.241 132.927 152.360  1.00  0.00    -0.389 OA
ATOM     17  H   UNL     1     140.996 132.344 152.639  1.00  0.00     0.211 HD
ENDBRANCH  14  16
TORSDOF 1
ENDMDL
MODEL 4
REMARK VINA RESULT:    -5.256      1.824      2.452
REMARK INTER + INTRA:          -5.409
REMARK INTER:                  -5.409
REMARK INTRA:                   0.000
REMARK UNBOUND:                 0.000
REMARK SMILES C=C1[C@@H](O)C[C@@]23C[C@@H]1C(C)(C)[C@@H]2CC[C@H]3C
REMARK SMILES IDX 16 1 15 2 14 3 13 4 12 5 6 6 7 7 8 8 9 9 10 10 11 11 2 12
REMARK SMILES IDX 1 13 3 14 5 15 4 16
REMARK H PARENT 4 17
REMARK Flexibility Score: inf
ROOT
ATOM      1  C   UNL     1     141.527 145.388 145.323  1.00  0.00     0.008 C 
ATOM      2  C   UNL     1     141.628 143.856 145.442  1.00  0.00    -0.008 C 
ATOM      3  C   UNL     1     142.848 143.474 146.283  1.00  0.00     0.004 C 
ATOM      4  C   UNL     1     143.999 143.329 145.298  1.00  0.00     0.005 C 
ATOM      5  C   UNL     1     143.377 142.905 143.951  1.00  0.00     0.002 C 
ATOM      6  C   UNL     1     141.851 143.122 144.092  1.00  0.00    -0.020 C 
ATOM      7  C   UNL     1     141.256 141.708 144.125  1.00  0.00     0.016 C 
ATOM      8  C   UNL     1     142.106 140.997 143.093  1.00  0.00     0.023 C 
ATOM      9  C   UNL     1     143.556 141.416 143.479  1.00  0.00    -0.025 C 
ATOM     10  C   UNL     1     144.078 140.450 144.579  1.00  0.00     0.012 C 
ATOM     11  C   UNL     1     144.543 141.325 142.289  1.00  0.00     0.012 C 
ATOM     12  C   UNL     1     141.686 141.523 141.721  1.00  0.00    -0.045 C 
ATOM     13  C   UNL     1     141.677 140.691 140.667  1.00  0.00     0.011 C 
ATOM     14  C   UNL     1     141.444 143.019 141.512  1.00  0.00     0.140 C 
ATOM     15  C   UNL     1     141.256 143.825 142.836  1.00  0.00     0.044 C 
ENDROOT
BRANCH  14  16
ATOM     16  O   UNL     1     140.314 143.200 140.696  1.00  0.00    -0.389 OA
ATOM     17  H   UNL     1     139.518 143.060 141.273  1.00  0.00     0.211 HD
ENDBRANCH  14  16
TORSDOF 1
ENDMDL
MODEL 5
REMARK VINA RESULT:    -5.200      8.775     10.513
REMARK INTER + INTRA:          -5.352
REMARK INTER:                  -5.352
REMARK INTRA:                   0.000
REMARK UNBOUND:                 0.000
REMARK SMILES C=C1[C@@H](O)C[C@@]23C[C@@H]1C(C)(C)[C@@H]2CC[C@H]3C
REMARK SMILES IDX 16 1 15 2 14 3 13 4 12 5 6 6 7 7 8 8 9 9 10 10 11 11 2 12
REMARK SMILES IDX 1 13 3 14 5 15 4 16
REMARK H PARENT 4 17
REMARK Flexibility Score: inf
ROOT
ATOM      1  C   UNL     1     147.584 134.124 150.754  1.00  0.00     0.008 C 
ATOM      2  C   UNL     1     148.180 134.418 149.364  1.00  0.00    -0.008 C 
ATOM      3  C   UNL     1     149.627 134.899 149.505  1.00  0.00     0.004 C 
ATOM      4  C   UNL     1     149.546 136.414 149.633  1.00  0.00     0.005 C 
ATOM      5  C   UNL     1     148.277 136.855 148.874  1.00  0.00     0.002 C 
ATOM      6  C   UNL     1     147.471 135.563 148.593  1.00  0.00    -0.020 C 
ATOM      7  C   UNL     1     147.578 135.358 147.076  1.00  0.00     0.016 C 
ATOM      8  C   UNL     1     147.459 136.780 146.568  1.00  0.00     0.023 C 
ATOM      9  C   UNL     1     148.445 137.566 147.482  1.00  0.00    -0.025 C 
ATOM     10  C   UNL     1     149.873 137.467 146.877  1.00  0.00     0.012 C 
ATOM     11  C   UNL     1     148.099 139.072 147.582  1.00  0.00     0.012 C 
ATOM     12  C   UNL     1     146.006 137.210 146.763  1.00  0.00    -0.045 C 
ATOM     13  C   UNL     1     145.425 138.013 145.857  1.00  0.00     0.011 C 
ATOM     14  C   UNL     1     145.271 136.870 148.061  1.00  0.00     0.140 C 
ATOM     15  C   UNL     1     145.958 135.754 148.909  1.00  0.00     0.044 C 
ENDROOT
BRANCH  14  16
ATOM     16  O   UNL     1     143.954 136.481 147.764  1.00  0.00    -0.389 OA
ATOM     17  H   UNL     1     143.845 135.554 148.106  1.00  0.00     0.211 HD
ENDBRANCH  14  16
TORSDOF 1
ENDMDL
MODEL 6
REMARK VINA RESULT:    -5.143      9.199     11.083
REMARK INTER + INTRA:          -5.293
REMARK INTER:                  -5.293
REMARK INTRA:                   0.000
REMARK UNBOUND:                 0.000
REMARK SMILES C=C1[C@@H](O)C[C@@]23C[C@@H]1C(C)(C)[C@@H]2CC[C@H]3C
REMARK SMILES IDX 16 1 15 2 14 3 13 4 12 5 6 6 7 7 8 8 9 9 10 10 11 11 2 12
REMARK SMILES IDX 1 13 3 14 5 15 4 16
REMARK H PARENT 4 17
REMARK Flexibility Score: inf
ROOT
ATOM      1  C   UNL     1     150.275 134.618 149.493  1.00  0.00     0.008 C 
ATOM      2  C   UNL     1     149.544 135.272 148.306  1.00  0.00    -0.008 C 
ATOM      3  C   UNL     1     150.154 136.643 148.005  1.00  0.00     0.004 C 
ATOM      4  C   UNL     1     149.369 137.637 148.850  1.00  0.00     0.005 C 
ATOM      5  C   UNL     1     147.957 137.044 149.033  1.00  0.00     0.002 C 
ATOM      6  C   UNL     1     148.043 135.571 148.564  1.00  0.00    -0.020 C 
ATOM      7  C   UNL     1     147.237 135.528 147.259  1.00  0.00     0.016 C 
ATOM      8  C   UNL     1     146.073 136.438 147.590  1.00  0.00     0.023 C 
ATOM      9  C   UNL     1     146.766 137.680 148.227  1.00  0.00    -0.025 C 
ATOM     10  C   UNL     1     147.202 138.646 147.090  1.00  0.00     0.012 C 
ATOM     11  C   UNL     1     145.825 138.477 149.164  1.00  0.00     0.012 C 
ATOM     12  C   UNL     1     145.181 135.691 148.580  1.00  0.00    -0.045 C 
ATOM     13  C   UNL     1     143.849 135.846 148.518  1.00  0.00     0.011 C 
ATOM     14  C   UNL     1     145.803 134.907 149.737  1.00  0.00     0.140 C 
ATOM     15  C   UNL     1     147.326 134.612 149.560  1.00  0.00     0.044 C 
ENDROOT
BRANCH  14  16
ATOM     16  O   UNL     1     145.113 133.695 149.904  1.00  0.00    -0.389 OA
ATOM     17  H   UNL     1     145.789 133.013 150.160  1.00  0.00     0.211 HD
ENDBRANCH  14  16
TORSDOF 1
ENDMDL
MODEL 7
REMARK VINA RESULT:    -5.028     10.988     12.862
REMARK INTER + INTRA:          -5.175
REMARK INTER:                  -5.175
REMARK INTRA:                   0.000
REMARK UNBOUND:                 0.000
REMARK SMILES C=C1[C@@H](O)C[C@@]23C[C@@H]1C(C)(C)[C@@H]2CC[C@H]3C
REMARK SMILES IDX 16 1 15 2 14 3 13 4 12 5 6 6 7 7 8 8 9 9 10 10 11 11 2 12
REMARK SMILES IDX 1 13 3 14 5 15 4 16
REMARK H PARENT 4 17
REMARK Flexibility Score: inf
ROOT
ATOM      1  C   UNL     1     136.751 132.415 150.252  1.00  0.00     0.008 C 
ATOM      2  C   UNL     1     137.746 133.367 149.561  1.00  0.00    -0.008 C 
ATOM      3  C   UNL     1     137.499 133.379 148.051  1.00  0.00     0.004 C 
ATOM      4  C   UNL     1     138.380 132.276 147.481  1.00  0.00     0.005 C 
ATOM      5  C   UNL     1     139.592 132.145 148.427  1.00  0.00     0.002 C 
ATOM      6  C   UNL     1     139.235 132.949 149.701  1.00  0.00    -0.020 C 
ATOM      7  C   UNL     1     140.159 134.172 149.663  1.00  0.00     0.016 C 
ATOM      8  C   UNL     1     141.450 133.563 149.157  1.00  0.00     0.023 C 
ATOM      9  C   UNL     1     140.982 132.701 147.946  1.00  0.00    -0.025 C 
ATOM     10  C   UNL     1     140.911 133.607 146.686  1.00  0.00     0.012 C 
ATOM     11  C   UNL     1     141.960 131.545 147.620  1.00  0.00     0.012 C 
ATOM     12  C   UNL     1     142.028 132.719 150.291  1.00  0.00    -0.045 C 
ATOM     13  C   UNL     1     143.359 132.656 150.458  1.00  0.00     0.011 C 
ATOM     14  C   UNL     1     141.113 131.820 151.125  1.00  0.00     0.140 C 
ATOM     15  C   UNL     1     139.595 132.159 150.994  1.00  0.00     0.044 C 
ENDROOT
BRANCH  14  16
ATOM     16  O   UNL     1     141.489 131.895 152.476  1.00  0.00    -0.389 OA
ATOM     17  H   UNL     1     142.463 131.702 152.515  1.00  0.00     0.211 HD
ENDBRANCH  14  16
TORSDOF 1
ENDMDL
MODEL 8
REMARK VINA RESULT:    -4.969      8.025      9.496
REMARK INTER + INTRA:          -5.115
REMARK INTER:                  -5.115
REMARK INTRA:                   0.000
REMARK UNBOUND:                 0.000
REMARK SMILES C=C1[C@@H](O)C[C@@]23C[C@@H]1C(C)(C)[C@@H]2CC[C@H]3C
REMARK SMILES IDX 16 1 15 2 14 3 13 4 12 5 6 6 7 7 8 8 9 9 10 10 11 11 2 12
REMARK SMILES IDX 1 13 3 14 5 15 4 16
REMARK H PARENT 4 17
REMARK Flexibility Score: inf
ROOT
ATOM      1  C   UNL     1     150.562 139.513 148.094  1.00  0.00     0.008 C 
ATOM      2  C   UNL     1     149.510 138.692 148.863  1.00  0.00    -0.008 C 
ATOM      3  C   UNL     1     150.151 137.431 149.447  1.00  0.00     0.004 C 
ATOM      4  C   UNL     1     149.997 136.358 148.378  1.00  0.00     0.005 C 
ATOM      5  C   UNL     1     148.728 136.713 147.575  1.00  0.00     0.002 C 
ATOM      6  C   UNL     1     148.348 138.157 147.984  1.00  0.00    -0.020 C 
ATOM      7  C   UNL     1     147.059 138.005 148.801  1.00  0.00     0.016 C 
ATOM      8  C   UNL     1     146.331 136.928 148.025  1.00  0.00     0.023 C 
ATOM      9  C   UNL     1     147.433 135.850 147.799  1.00  0.00    -0.025 C 
ATOM     10  C   UNL     1     147.486 134.921 149.043  1.00  0.00     0.012 C 
ATOM     11  C   UNL     1     147.147 134.949 146.572  1.00  0.00     0.012 C 
ATOM     12  C   UNL     1     145.847 137.558 146.720  1.00  0.00    -0.045 C 
ATOM     13  C   UNL     1     144.671 137.178 146.197  1.00  0.00     0.011 C 
ATOM     14  C   UNL     1     146.769 138.487 145.927  1.00  0.00     0.140 C 
ATOM     15  C   UNL     1     147.986 139.026 146.742  1.00  0.00     0.044 C 
ENDROOT
BRANCH  14  16
ATOM     16  O   UNL     1     146.025 139.572 145.433  1.00  0.00    -0.389 OA
ATOM     17  H   UNL     1     146.295 140.369 145.962  1.00  0.00     0.211 HD
ENDBRANCH  14  16
TORSDOF 1
ENDMDL
MODEL 9
REMARK VINA RESULT:    -4.889      7.297      9.265
REMARK INTER + INTRA:          -5.032
REMARK INTER:                  -5.032
REMARK INTRA:                   0.000
REMARK UNBOUND:                 0.000
REMARK SMILES C=C1[C@@H](O)C[C@@]23C[C@@H]1C(C)(C)[C@@H]2CC[C@H]3C
REMARK SMILES IDX 16 1 15 2 14 3 13 4 12 5 6 6 7 7 8 8 9 9 10 10 11 11 2 12
REMARK SMILES IDX 1 13 3 14 5 15 4 16
REMARK H PARENT 4 17
REMARK Flexibility Score: inf
ROOT
ATOM      1  C   UNL     1     146.773 138.999 144.109  1.00  0.00     0.008 C 
ATOM      2  C   UNL     1     147.077 139.179 145.609  1.00  0.00    -0.008 C 
ATOM      3  C   UNL     1     148.586 139.102 145.852  1.00  0.00     0.004 C 
ATOM      4  C   UNL     1     148.886 137.633 146.115  1.00  0.00     0.005 C 
ATOM      5  C   UNL     1     147.609 137.024 146.731  1.00  0.00     0.002 C 
ATOM      6  C   UNL     1     146.486 138.069 146.519  1.00  0.00    -0.020 C 
ATOM      7  C   UNL     1     146.182 138.608 147.923  1.00  0.00     0.016 C 
ATOM      8  C   UNL     1     146.274 137.348 148.759  1.00  0.00     0.023 C 
ATOM      9  C   UNL     1     147.601 136.695 148.269  1.00  0.00    -0.025 C 
ATOM     10  C   UNL     1     148.784 137.312 149.065  1.00  0.00     0.012 C 
ATOM     11  C   UNL     1     147.641 135.166 148.510  1.00  0.00     0.012 C 
ATOM     12  C   UNL     1     145.046 136.499 148.434  1.00  0.00    -0.045 C 
ATOM     13  C   UNL     1     144.467 135.773 149.404  1.00  0.00     0.011 C 
ATOM     14  C   UNL     1     144.580 136.342 146.985  1.00  0.00     0.140 C 
ATOM     15  C   UNL     1     145.175 137.402 146.006  1.00  0.00     0.044 C 
ENDROOT
BRANCH  14  16
ATOM     16  O   UNL     1     143.177 136.402 146.936  1.00  0.00    -0.389 OA
ATOM     17  H   UNL     1     142.940 136.909 146.115  1.00  0.00     0.211 HD
ENDBRANCH  14  16
TORSDOF 1
ENDMDL
