MODEL 1
REMARK VINA RESULT:    -6.158      0.000      0.000
REMARK INTER + INTRA:          -6.158
REMARK INTER:                  -6.158
REMARK INTRA:                   0.000
REMARK UNBOUND:                 0.000
REMARK SMILES O=c1ccc2ccc3occc3c2o1
REMARK SMILES IDX 6 1 7 2 8 3 12 4 11 5 10 6 9 7 13 8 5 9 4 10 3 11 2 12 1 13
REMARK SMILES IDX 14 14
REMARK H PARENT
REMARK Flexibility Score: inf
ROOT
ATOM      1  C   UNL     1       0.397 -20.898  -3.926  1.00  0.00     0.016 A 
ATOM      2  C   UNL     1       0.690 -19.707  -3.235  1.00  0.00     0.048 A 
ATOM      3  C   UNL     1       1.273 -18.660  -3.948  1.00  0.00     0.137 A 
ATOM      4  C   UNL     1       1.560 -18.766  -5.282  1.00  0.00     0.064 A 
ATOM      5  C   UNL     1       2.121 -17.569  -5.667  1.00  0.00     0.054 A 
ATOM      6  C   UNL     1       2.134 -16.802  -4.508  1.00  0.00     0.196 A 
ATOM      7  O   UNL     1       1.621 -17.481  -3.497  1.00  0.00    -0.464 OA
ATOM      8  C   UNL     1       1.286 -19.927  -6.002  1.00  0.00     0.149 A 
ATOM      9  C   UNL     1       0.693 -21.012  -5.307  1.00  0.00     0.018 A 
ATOM     10  C   UNL     1       0.415 -22.180  -6.023  1.00  0.00     0.019 A 
ATOM     11  C   UNL     1       0.726 -22.239  -7.383  1.00  0.00     0.094 A 
ATOM     12  C   UNL     1       1.311 -21.126  -7.999  1.00  0.00     0.336 A 
ATOM     13  O   UNL     1       1.597 -21.165  -9.224  1.00  0.00    -0.246 OA
ATOM     14  O   UNL     1       1.567 -20.023  -7.298  1.00  0.00    -0.422 OA
ENDROOT
TORSDOF 0
ENDMDL
MODEL 2
REMARK VINA RESULT:    -5.723      1.436      4.233
REMARK INTER + INTRA:          -5.723
REMARK INTER:                  -5.723
REMARK INTRA:                   0.000
REMARK UNBOUND:                 0.000
REMARK SMILES O=c1ccc2ccc3occc3c2o1
REMARK SMILES IDX 6 1 7 2 8 3 12 4 11 5 10 6 9 7 13 8 5 9 4 10 3 11 2 12 1 13
REMARK SMILES IDX 14 14
REMARK H PARENT
REMARK Flexibility Score: inf
ROOT
ATOM      1  C   UNL     1       0.479 -20.283  -4.103  1.00  0.00     0.016 A 
ATOM      2  C   UNL     1       0.259 -21.396  -4.936  1.00  0.00     0.048 A 
ATOM      3  C   UNL     1       0.815 -21.378  -6.215  1.00  0.00     0.137 A 
ATOM      4  C   UNL     1       1.556 -20.320  -6.666  1.00  0.00     0.064 A 
ATOM      5  C   UNL     1       1.948 -20.625  -7.950  1.00  0.00     0.054 A 
ATOM      6  C   UNL     1       1.401 -21.880  -8.193  1.00  0.00     0.196 A 
ATOM      7  O   UNL     1       0.729 -22.304  -7.137  1.00  0.00    -0.464 OA
ATOM      8  C   UNL     1       1.797 -19.200  -5.873  1.00  0.00     0.149 A 
ATOM      9  C   UNL     1       1.245 -19.185  -4.565  1.00  0.00     0.018 A 
ATOM     10  C   UNL     1       1.483 -18.065  -3.764  1.00  0.00     0.019 A 
ATOM     11  C   UNL     1       2.246 -17.011  -4.270  1.00  0.00     0.094 A 
ATOM     12  C   UNL     1       2.756 -17.100  -5.570  1.00  0.00     0.336 A 
ATOM     13  O   UNL     1       3.446 -16.157  -6.040  1.00  0.00    -0.246 OA
ATOM     14  O   UNL     1       2.518 -18.176  -6.317  1.00  0.00    -0.422 OA
ENDROOT
TORSDOF 0
ENDMDL
MODEL 3
REMARK VINA RESULT:    -5.616     10.929     12.206
REMARK INTER + INTRA:          -5.616
REMARK INTER:                  -5.616
REMARK INTRA:                   0.000
REMARK UNBOUND:                 0.000
REMARK SMILES O=c1ccc2ccc3occc3c2o1
REMARK SMILES IDX 6 1 7 2 8 3 12 4 11 5 10 6 9 7 13 8 5 9 4 10 3 11 2 12 1 13
REMARK SMILES IDX 14 14
REMARK H PARENT
REMARK Flexibility Score: inf
ROOT
ATOM      1  C   UNL     1      -6.829 -25.154  -2.566  1.00  0.00     0.016 A 
ATOM      2  C   UNL     1      -8.072 -24.496  -2.616  1.00  0.00     0.048 A 
ATOM      3  C   UNL     1      -9.172 -25.207  -3.094  1.00  0.00     0.137 A 
ATOM      4  C   UNL     1      -9.068 -26.508  -3.508  1.00  0.00     0.064 A 
ATOM      5  C   UNL     1     -10.324 -26.900  -3.913  1.00  0.00     0.054 A 
ATOM      6  C   UNL     1     -11.122 -25.780  -3.711  1.00  0.00     0.196 A 
ATOM      7  O   UNL     1     -10.405 -24.784  -3.221  1.00  0.00    -0.464 OA
ATOM      8  C   UNL     1      -7.856 -27.194  -3.475  1.00  0.00     0.149 A 
ATOM      9  C   UNL     1      -6.716 -26.499  -2.993  1.00  0.00     0.018 A 
ATOM     10  C   UNL     1      -5.496 -27.182  -2.957  1.00  0.00     0.019 A 
ATOM     11  C   UNL     1      -5.441 -28.508  -3.390  1.00  0.00     0.094 A 
ATOM     12  C   UNL     1      -6.610 -29.125  -3.852  1.00  0.00     0.336 A 
ATOM     13  O   UNL     1      -6.576 -30.321  -4.246  1.00  0.00    -0.246 OA
ATOM     14  O   UNL     1      -7.761 -28.457  -3.878  1.00  0.00    -0.422 OA
ENDROOT
TORSDOF 0
ENDMDL
MODEL 4
REMARK VINA RESULT:    -5.614      1.837      2.790
REMARK INTER + INTRA:          -5.614
REMARK INTER:                  -5.614
REMARK INTRA:                   0.000
REMARK UNBOUND:                 0.000
REMARK SMILES O=c1ccc2ccc3occc3c2o1
REMARK SMILES IDX 6 1 7 2 8 3 12 4 11 5 10 6 9 7 13 8 5 9 4 10 3 11 2 12 1 13
REMARK SMILES IDX 14 14
REMARK H PARENT
REMARK Flexibility Score: inf
ROOT
ATOM      1  C   UNL     1       3.499 -19.085  -6.767  1.00  0.00     0.016 A 
ATOM      2  C   UNL     1       3.790 -18.424  -5.559  1.00  0.00     0.048 A 
ATOM      3  C   UNL     1       3.136 -18.851  -4.403  1.00  0.00     0.137 A 
ATOM      4  C   UNL     1       2.234 -19.880  -4.422  1.00  0.00     0.064 A 
ATOM      5  C   UNL     1       1.783 -20.039  -3.131  1.00  0.00     0.054 A 
ATOM      6  C   UNL     1       2.461 -19.069  -2.402  1.00  0.00     0.196 A 
ATOM      7  O   UNL     1       3.263 -18.374  -3.190  1.00  0.00    -0.464 OA
ATOM      8  C   UNL     1       1.918 -20.559  -5.597  1.00  0.00     0.149 A 
ATOM      9  C   UNL     1       2.566 -20.150  -6.791  1.00  0.00     0.018 A 
ATOM     10  C   UNL     1       2.254 -20.827  -7.974  1.00  0.00     0.019 A 
ATOM     11  C   UNL     1       1.328 -21.871  -7.941  1.00  0.00     0.094 A 
ATOM     12  C   UNL     1       0.731 -22.216  -6.722  1.00  0.00     0.336 A 
ATOM     13  O   UNL     1      -0.107 -23.155  -6.677  1.00  0.00    -0.246 OA
ATOM     14  O   UNL     1       1.042 -21.558  -5.608  1.00  0.00    -0.422 OA
ENDROOT
TORSDOF 0
ENDMDL
MODEL 5
REMARK VINA RESULT:    -5.592      1.462      4.921
REMARK INTER + INTRA:          -5.592
REMARK INTER:                  -5.592
REMARK INTRA:                   0.000
REMARK UNBOUND:                 0.000
REMARK SMILES O=c1ccc2ccc3occc3c2o1
REMARK SMILES IDX 6 1 7 2 8 3 12 4 11 5 10 6 9 7 13 8 5 9 4 10 3 11 2 12 1 13
REMARK SMILES IDX 14 14
REMARK H PARENT
REMARK Flexibility Score: inf
ROOT
ATOM      1  C   UNL     1       3.223 -19.866  -7.508  1.00  0.00     0.016 A 
ATOM      2  C   UNL     1       2.664 -21.086  -7.935  1.00  0.00     0.048 A 
ATOM      3  C   UNL     1       1.623 -21.630  -7.183  1.00  0.00     0.137 A 
ATOM      4  C   UNL     1       1.144 -21.012  -6.059  1.00  0.00     0.064 A 
ATOM      5  C   UNL     1       0.133 -21.806  -5.566  1.00  0.00     0.054 A 
ATOM      6  C   UNL     1       0.069 -22.878  -6.450  1.00  0.00     0.196 A 
ATOM      7  O   UNL     1       0.972 -22.744  -7.405  1.00  0.00    -0.464 OA
ATOM      8  C   UNL     1       1.671 -19.805  -5.604  1.00  0.00     0.149 A 
ATOM      9  C   UNL     1       2.731 -19.224  -6.346  1.00  0.00     0.018 A 
ATOM     10  C   UNL     1       3.264 -18.013  -5.895  1.00  0.00     0.019 A 
ATOM     11  C   UNL     1       2.741 -17.422  -4.743  1.00  0.00     0.094 A 
ATOM     12  C   UNL     1       1.694 -18.057  -4.065  1.00  0.00     0.336 A 
ATOM     13  O   UNL     1       1.212 -17.536  -3.025  1.00  0.00    -0.246 OA
ATOM     14  O   UNL     1       1.200 -19.210  -4.512  1.00  0.00    -0.422 OA
ENDROOT
TORSDOF 0
ENDMDL
MODEL 6
REMARK VINA RESULT:    -5.564     10.239     12.018
REMARK INTER + INTRA:          -5.564
REMARK INTER:                  -5.564
REMARK INTRA:                   0.000
REMARK UNBOUND:                 0.000
REMARK SMILES O=c1ccc2ccc3occc3c2o1
REMARK SMILES IDX 6 1 7 2 8 3 12 4 11 5 10 6 9 7 13 8 5 9 4 10 3 11 2 12 1 13
REMARK SMILES IDX 14 14
REMARK H PARENT
REMARK Flexibility Score: inf
ROOT
ATOM      1  C   UNL     1      -9.419 -27.432  -3.032  1.00  0.00     0.016 A 
ATOM      2  C   UNL     1      -8.571 -28.501  -3.380  1.00  0.00     0.048 A 
ATOM      3  C   UNL     1      -7.197 -28.268  -3.403  1.00  0.00     0.137 A 
ATOM      4  C   UNL     1      -6.666 -27.043  -3.100  1.00  0.00     0.064 A 
ATOM      5  C   UNL     1      -5.300 -27.159  -3.219  1.00  0.00     0.054 A 
ATOM      6  C   UNL     1      -5.093 -28.481  -3.596  1.00  0.00     0.196 A 
ATOM      7  O   UNL     1      -6.246 -29.119  -3.698  1.00  0.00    -0.464 OA
ATOM      8  C   UNL     1      -7.471 -25.960  -2.751  1.00  0.00     0.149 A 
ATOM      9  C   UNL     1      -8.875 -26.163  -2.718  1.00  0.00     0.018 A 
ATOM     10  C   UNL     1      -9.688 -25.081  -2.369  1.00  0.00     0.019 A 
ATOM     11  C   UNL     1      -9.099 -23.852  -2.068  1.00  0.00     0.094 A 
ATOM     12  C   UNL     1      -7.705 -23.730  -2.123  1.00  0.00     0.336 A 
ATOM     13  O   UNL     1      -7.160 -22.627  -1.854  1.00  0.00    -0.246 OA
ATOM     14  O   UNL     1      -6.949 -24.773  -2.458  1.00  0.00    -0.422 OA
ENDROOT
TORSDOF 0
ENDMDL
MODEL 7
REMARK VINA RESULT:    -5.563      2.210      4.243
REMARK INTER + INTRA:          -5.563
REMARK INTER:                  -5.563
REMARK INTRA:                   0.000
REMARK UNBOUND:                 0.000
REMARK SMILES O=c1ccc2ccc3occc3c2o1
REMARK SMILES IDX 6 1 7 2 8 3 12 4 11 5 10 6 9 7 13 8 5 9 4 10 3 11 2 12 1 13
REMARK SMILES IDX 14 14
REMARK H PARENT
REMARK Flexibility Score: inf
ROOT
ATOM      1  C   UNL     1       1.241 -21.006  -7.155  1.00  0.00     0.016 A 
ATOM      2  C   UNL     1       2.270 -20.721  -8.072  1.00  0.00     0.048 A 
ATOM      3  C   UNL     1       3.433 -20.121  -7.588  1.00  0.00     0.137 A 
ATOM      4  C   UNL     1       3.589 -19.811  -6.265  1.00  0.00     0.064 A 
ATOM      5  C   UNL     1       4.834 -19.239  -6.132  1.00  0.00     0.054 A 
ATOM      6  C   UNL     1       5.358 -19.243  -7.420  1.00  0.00     0.196 A 
ATOM      7  O   UNL     1       4.497 -19.777  -8.268  1.00  0.00    -0.464 OA
ATOM      8  C   UNL     1       2.594 -20.076  -5.325  1.00  0.00     0.149 A 
ATOM      9  C   UNL     1       1.398 -20.686  -5.784  1.00  0.00     0.018 A 
ATOM     10  C   UNL     1       0.396 -20.955  -4.847  1.00  0.00     0.019 A 
ATOM     11  C   UNL     1       0.603 -20.620  -3.508  1.00  0.00     0.094 A 
ATOM     12  C   UNL     1       1.811 -20.019  -3.133  1.00  0.00     0.336 A 
ATOM     13  O   UNL     1       2.012 -19.711  -1.929  1.00  0.00    -0.246 OA
ATOM     14  O   UNL     1       2.753 -19.772  -4.041  1.00  0.00    -0.422 OA
ENDROOT
TORSDOF 0
ENDMDL
MODEL 8
REMARK VINA RESULT:    -5.496      1.930      2.412
REMARK INTER + INTRA:          -5.496
REMARK INTER:                  -5.496
REMARK INTRA:                   0.000
REMARK UNBOUND:                 0.000
REMARK SMILES O=c1ccc2ccc3occc3c2o1
REMARK SMILES IDX 6 1 7 2 8 3 12 4 11 5 10 6 9 7 13 8 5 9 4 10 3 11 2 12 1 13
REMARK SMILES IDX 14 14
REMARK H PARENT
REMARK Flexibility Score: inf
ROOT
ATOM      1  C   UNL     1       0.469 -21.221  -5.426  1.00  0.00     0.016 A 
ATOM      2  C   UNL     1       0.376 -20.901  -4.058  1.00  0.00     0.048 A 
ATOM      3  C   UNL     1       1.412 -20.164  -3.485  1.00  0.00     0.137 A 
ATOM      4  C   UNL     1       2.496 -19.754  -4.213  1.00  0.00     0.064 A 
ATOM      5  C   UNL     1       3.316 -19.060  -3.352  1.00  0.00     0.054 A 
ATOM      6  C   UNL     1       2.653 -19.100  -2.131  1.00  0.00     0.196 A 
ATOM      7  O   UNL     1       1.518 -19.766  -2.242  1.00  0.00    -0.464 OA
ATOM      8  C   UNL     1       2.626 -20.051  -5.568  1.00  0.00     0.149 A 
ATOM      9  C   UNL     1       1.589 -20.800  -6.183  1.00  0.00     0.018 A 
ATOM     10  C   UNL     1       1.713 -21.101  -7.542  1.00  0.00     0.019 A 
ATOM     11  C   UNL     1       2.838 -20.660  -8.242  1.00  0.00     0.094 A 
ATOM     12  C   UNL     1       3.818 -19.926  -7.564  1.00  0.00     0.336 A 
ATOM     13  O   UNL     1       4.839 -19.522  -8.182  1.00  0.00    -0.246 OA
ATOM     14  O   UNL     1       3.681 -19.650  -6.269  1.00  0.00    -0.422 OA
ENDROOT
TORSDOF 0
ENDMDL
MODEL 9
REMARK VINA RESULT:    -5.415     10.829     12.724
REMARK INTER + INTRA:          -5.415
REMARK INTER:                  -5.415
REMARK INTRA:                   0.000
REMARK UNBOUND:                 0.000
REMARK SMILES O=c1ccc2ccc3occc3c2o1
REMARK SMILES IDX 6 1 7 2 8 3 12 4 11 5 10 6 9 7 13 8 5 9 4 10 3 11 2 12 1 13
REMARK SMILES IDX 14 14
REMARK H PARENT
REMARK Flexibility Score: inf
ROOT
ATOM      1  C   UNL     1      -5.500 -26.551  -3.062  1.00  0.00     0.016 A 
ATOM      2  C   UNL     1      -5.263 -27.887  -3.435  1.00  0.00     0.048 A 
ATOM      3  C   UNL     1      -6.349 -28.761  -3.471  1.00  0.00     0.137 A 
ATOM      4  C   UNL     1      -7.617 -28.352  -3.157  1.00  0.00     0.064 A 
ATOM      5  C   UNL     1      -8.437 -29.450  -3.293  1.00  0.00     0.054 A 
ATOM      6  C   UNL     1      -7.585 -30.474  -3.691  1.00  0.00     0.196 A 
ATOM      7  O   UNL     1      -6.344 -30.032  -3.789  1.00  0.00    -0.464 OA
ATOM      8  C   UNL     1      -7.893 -27.038  -2.782  1.00  0.00     0.149 A 
ATOM      9  C   UNL     1      -6.810 -26.123  -2.736  1.00  0.00     0.018 A 
ATOM     10  C   UNL     1      -7.080 -24.803  -2.361  1.00  0.00     0.019 A 
ATOM     11  C   UNL     1      -8.390 -24.435  -2.050  1.00  0.00     0.094 A 
ATOM     12  C   UNL     1      -9.405 -25.396  -2.119  1.00  0.00     0.336 A 
ATOM     13  O   UNL     1     -10.591 -25.079  -1.841  1.00  0.00    -0.246 OA
ATOM     14  O   UNL     1      -9.127 -26.648  -2.479  1.00  0.00    -0.422 OA
ENDROOT
TORSDOF 0
ENDMDL
