MODEL 1
REMARK VINA RESULT:    -5.468      0.000      0.000
REMARK INTER + INTRA:         -14.905
REMARK INTER:                 -11.862
REMARK INTRA:                  -3.043
REMARK UNBOUND:                -3.043
REMARK SMILES CCCCCCCCCCCCCCCCCCCCCC(=O)[O-]
REMARK SMILES IDX 12 1 11 2 10 3 9 4 8 5 7 6 6 7 5 8 4 9 3 10 2 11 1 12 13 13
REMARK SMILES IDX 14 14 15 15 16 16 17 17 18 18 19 19 20 20 21 21 22 22 23 23
REMARK SMILES IDX 24 24
REMARK H PARENT
REMARK Flexibility Score: inf
ROOT
ATOM      1  C   UNL     1     122.929 179.325 126.481  1.00  0.00     0.000 C 
ENDROOT
BRANCH   1   2
ATOM      2  C   UNL     1     123.811 178.437 127.378  1.00  0.00     0.000 C 
BRANCH   2   3
ATOM      3  C   UNL     1     123.809 178.888 128.846  1.00  0.00     0.000 C 
BRANCH   3   4
ATOM      4  C   UNL     1     123.469 177.744 129.814  1.00  0.00    -0.000 C 
BRANCH   4   5
ATOM      5  C   UNL     1     122.090 177.958 130.455  1.00  0.00    -0.000 C 
BRANCH   5   6
ATOM      6  C   UNL     1     121.437 176.642 130.915  1.00  0.00    -0.000 C 
BRANCH   6   7
ATOM      7  C   UNL     1     120.535 175.962 129.865  1.00  0.00    -0.000 C 
BRANCH   7   8
ATOM      8  C   UNL     1     119.629 176.917 129.062  1.00  0.00    -0.000 C 
BRANCH   8   9
ATOM      9  C   UNL     1     119.250 176.424 127.653  1.00  0.00    -0.000 C 
BRANCH   9  10
ATOM     10  C   UNL     1     120.102 175.233 127.189  1.00  0.00    -0.000 C 
BRANCH  10  11
ATOM     11  C   UNL     1     121.072 175.649 126.078  1.00  0.00    -0.003 C 
ATOM     12  C   UNL     1     122.511 175.292 126.441  1.00  0.00     0.004 C 
ENDBRANCH  10  11
ENDBRANCH   9  10
ENDBRANCH   8   9
ENDBRANCH   7   8
ENDBRANCH   6   7
ENDBRANCH   5   6
ENDBRANCH   4   5
ENDBRANCH   3   4
ENDBRANCH   2   3
ENDBRANCH   1   2
BRANCH   1  13
ATOM     13  C   UNL     1     121.451 179.312 126.926  1.00  0.00     0.000 C 
BRANCH  13  14
ATOM     14  C   UNL     1     120.488 179.925 125.893  1.00  0.00     0.000 C 
BRANCH  14  15
ATOM     15  C   UNL     1     120.157 178.963 124.740  1.00  0.00     0.000 C 
BRANCH  15  16
ATOM     16  C   UNL     1     120.115 179.670 123.375  1.00  0.00     0.000 C 
BRANCH  16  17
ATOM     17  C   UNL     1     121.061 179.021 122.351  1.00  0.00     0.000 C 
BRANCH  17  18
ATOM     18  C   UNL     1     122.052 178.034 122.994  1.00  0.00     0.000 C 
BRANCH  18  19
ATOM     19  C   UNL     1     123.177 177.533 122.066  1.00  0.00     0.000 C 
BRANCH  19  20
ATOM     20  C   UNL     1     124.467 177.092 122.779  1.00  0.00     0.006 C 
BRANCH  20  21
ATOM     21  C   UNL     1     125.722 177.278 121.913  1.00  0.00     0.053 C 
BRANCH  21  22
ATOM     22  C   UNL     1     126.391 175.963 121.667  1.00  0.00     0.041 C 
ATOM     23  O   UNL     1     126.290 175.401 120.543  1.00  0.00    -0.550 OA
ATOM     24  O   UNL     1     127.162 175.374 122.663  1.00  0.00    -0.550 OA
ENDBRANCH  21  22
ENDBRANCH  20  21
ENDBRANCH  19  20
ENDBRANCH  18  19
ENDBRANCH  17  18
ENDBRANCH  16  17
ENDBRANCH  15  16
ENDBRANCH  14  15
ENDBRANCH  13  14
ENDBRANCH   1  13
TORSDOF 20
ENDMDL
MODEL 2
REMARK VINA RESULT:    -5.438      3.312      5.222
REMARK INTER + INTRA:         -14.840
REMARK INTER:                 -11.256
REMARK INTRA:                  -3.584
REMARK UNBOUND:                -3.043
REMARK SMILES CCCCCCCCCCCCCCCCCCCCCC(=O)[O-]
REMARK SMILES IDX 12 1 11 2 10 3 9 4 8 5 7 6 6 7 5 8 4 9 3 10 2 11 1 12 13 13
REMARK SMILES IDX 14 14 15 15 16 16 17 17 18 18 19 19 20 20 21 21 22 22 23 23
REMARK SMILES IDX 24 24
REMARK H PARENT
REMARK Flexibility Score: inf
ROOT
ATOM      1  C   UNL     1     122.286 177.980 128.794  1.00  0.00     0.000 C 
ENDROOT
BRANCH   1   2
ATOM      2  C   UNL     1     122.579 177.203 130.090  1.00  0.00     0.000 C 
BRANCH   2   3
ATOM      3  C   UNL     1     121.319 176.954 130.932  1.00  0.00     0.000 C 
BRANCH   3   4
ATOM      4  C   UNL     1     120.628 175.627 130.579  1.00  0.00    -0.000 C 
BRANCH   4   5
ATOM      5  C   UNL     1     119.125 175.838 130.338  1.00  0.00    -0.000 C 
BRANCH   5   6
ATOM      6  C   UNL     1     118.838 176.825 129.191  1.00  0.00    -0.000 C 
BRANCH   6   7
ATOM      7  C   UNL     1     119.166 176.294 127.781  1.00  0.00    -0.000 C 
BRANCH   7   8
ATOM      8  C   UNL     1     118.841 177.260 126.624  1.00  0.00    -0.000 C 
BRANCH   8   9
ATOM      9  C   UNL     1     119.007 178.754 126.959  1.00  0.00    -0.000 C 
BRANCH   9  10
ATOM     10  C   UNL     1     120.238 179.383 126.289  1.00  0.00    -0.000 C 
BRANCH  10  11
ATOM     11  C   UNL     1     119.855 180.074 124.975  1.00  0.00    -0.003 C 
ATOM     12  C   UNL     1     120.530 179.401 123.783  1.00  0.00     0.004 C 
ENDBRANCH  10  11
ENDBRANCH   9  10
ENDBRANCH   8   9
ENDBRANCH   7   8
ENDBRANCH   6   7
ENDBRANCH   5   6
ENDBRANCH   4   5
ENDBRANCH   3   4
ENDBRANCH   2   3
ENDBRANCH   1   2
BRANCH   1  13
ATOM     13  C   UNL     1     123.427 178.954 128.430  1.00  0.00     0.000 C 
BRANCH  13  14
ATOM     14  C   UNL     1     123.616 179.148 126.915  1.00  0.00     0.000 C 
BRANCH  14  15
ATOM     15  C   UNL     1     124.112 177.877 126.207  1.00  0.00     0.000 C 
BRANCH  15  16
ATOM     16  C   UNL     1     123.608 177.774 124.757  1.00  0.00     0.000 C 
BRANCH  16  17
ATOM     17  C   UNL     1     122.896 176.439 124.480  1.00  0.00     0.000 C 
BRANCH  17  18
ATOM     18  C   UNL     1     122.120 175.910 125.700  1.00  0.00     0.000 C 
BRANCH  18  19
ATOM     19  C   UNL     1     122.572 174.530 126.219  1.00  0.00     0.000 C 
BRANCH  19  20
ATOM     20  C   UNL     1     122.243 174.245 127.695  1.00  0.00     0.006 C 
BRANCH  20  21
ATOM     21  C   UNL     1     122.384 172.761 128.063  1.00  0.00     0.053 C 
BRANCH  21  22
ATOM     22  C   UNL     1     121.038 172.120 128.189  1.00  0.00     0.041 C 
ATOM     23  O   UNL     1     120.930 170.865 128.169  1.00  0.00    -0.550 OA
ATOM     24  O   UNL     1     119.905 172.905 128.370  1.00  0.00    -0.550 OA
ENDBRANCH  21  22
ENDBRANCH  20  21
ENDBRANCH  19  20
ENDBRANCH  18  19
ENDBRANCH  17  18
ENDBRANCH  16  17
ENDBRANCH  15  16
ENDBRANCH  14  15
ENDBRANCH  13  14
ENDBRANCH   1  13
TORSDOF 20
ENDMDL
MODEL 3
REMARK VINA RESULT:    -5.431      3.432      5.129
REMARK INTER + INTRA:         -14.824
REMARK INTER:                 -11.191
REMARK INTRA:                  -3.633
REMARK UNBOUND:                -3.043
REMARK SMILES CCCCCCCCCCCCCCCCCCCCCC(=O)[O-]
REMARK SMILES IDX 12 1 11 2 10 3 9 4 8 5 7 6 6 7 5 8 4 9 3 10 2 11 1 12 13 13
REMARK SMILES IDX 14 14 15 15 16 16 17 17 18 18 19 19 20 20 21 21 22 22 23 23
REMARK SMILES IDX 24 24
REMARK H PARENT
REMARK Flexibility Score: inf
ROOT
ATOM      1  C   UNL     1     118.909 176.510 126.705  1.00  0.00     0.000 C 
ENDROOT
BRANCH   1   2
ATOM      2  C   UNL     1     119.378 176.772 128.148  1.00  0.00     0.000 C 
BRANCH   2   3
ATOM      3  C   UNL     1     118.476 176.103 129.196  1.00  0.00     0.000 C 
BRANCH   3   4
ATOM      4  C   UNL     1     119.144 176.012 130.577  1.00  0.00    -0.000 C 
BRANCH   4   5
ATOM      5  C   UNL     1     120.253 174.950 130.581  1.00  0.00    -0.000 C 
BRANCH   5   6
ATOM      6  C   UNL     1     119.762 173.578 131.078  1.00  0.00    -0.000 C 
BRANCH   6   7
ATOM      7  C   UNL     1     119.787 172.457 130.020  1.00  0.00    -0.000 C 
BRANCH   7   8
ATOM      8  C   UNL     1     119.943 172.935 128.562  1.00  0.00    -0.000 C 
BRANCH   8   9
ATOM      9  C   UNL     1     121.209 172.433 127.845  1.00  0.00    -0.000 C 
BRANCH   9  10
ATOM     10  C   UNL     1     122.430 173.333 128.088  1.00  0.00    -0.000 C 
BRANCH  10  11
ATOM     11  C   UNL     1     122.245 174.702 127.423  1.00  0.00    -0.003 C 
ATOM     12  C   UNL     1     122.038 174.559 125.918  1.00  0.00     0.004 C 
ENDBRANCH  10  11
ENDBRANCH   9  10
ENDBRANCH   8   9
ENDBRANCH   7   8
ENDBRANCH   6   7
ENDBRANCH   5   6
ENDBRANCH   4   5
ENDBRANCH   3   4
ENDBRANCH   2   3
ENDBRANCH   1   2
BRANCH   1  13
ATOM     13  C   UNL     1     118.444 177.804 126.003  1.00  0.00     0.000 C 
BRANCH  13  14
ATOM     14  C   UNL     1     118.890 179.092 126.718  1.00  0.00     0.000 C 
BRANCH  14  15
ATOM     15  C   UNL     1     120.015 179.829 125.974  1.00  0.00     0.000 C 
BRANCH  15  16
ATOM     16  C   UNL     1     120.416 179.128 124.666  1.00  0.00     0.000 C 
BRANCH  16  17
ATOM     17  C   UNL     1     121.832 178.531 124.732  1.00  0.00     0.000 C 
BRANCH  17  18
ATOM     18  C   UNL     1     122.262 178.169 126.166  1.00  0.00     0.000 C 
BRANCH  18  19
ATOM     19  C   UNL     1     123.727 178.497 126.516  1.00  0.00     0.000 C 
BRANCH  19  20
ATOM     20  C   UNL     1     124.047 178.542 128.020  1.00  0.00     0.006 C 
BRANCH  20  21
ATOM     21  C   UNL     1     122.798 178.739 128.892  1.00  0.00     0.053 C 
BRANCH  21  22
ATOM     22  C   UNL     1     122.782 177.756 130.019  1.00  0.00     0.041 C 
ATOM     23  O   UNL     1     123.533 176.745 129.988  1.00  0.00    -0.550 OA
ATOM     24  O   UNL     1     121.969 177.976 131.124  1.00  0.00    -0.550 OA
ENDBRANCH  21  22
ENDBRANCH  20  21
ENDBRANCH  19  20
ENDBRANCH  18  19
ENDBRANCH  17  18
ENDBRANCH  16  17
ENDBRANCH  15  16
ENDBRANCH  14  15
ENDBRANCH  13  14
ENDBRANCH   1  13
TORSDOF 20
ENDMDL
MODEL 4
REMARK VINA RESULT:    -5.431      1.285      2.810
REMARK INTER + INTRA:         -14.824
REMARK INTER:                 -11.376
REMARK INTRA:                  -3.448
REMARK UNBOUND:                -3.043
REMARK SMILES CCCCCCCCCCCCCCCCCCCCCC(=O)[O-]
REMARK SMILES IDX 12 1 11 2 10 3 9 4 8 5 7 6 6 7 5 8 4 9 3 10 2 11 1 12 13 13
REMARK SMILES IDX 14 14 15 15 16 16 17 17 18 18 19 19 20 20 21 21 22 22 23 23
REMARK SMILES IDX 24 24
REMARK H PARENT
REMARK Flexibility Score: inf
ROOT
ATOM      1  C   UNL     1     118.772 176.821 127.075  1.00  0.00     0.000 C 
ENDROOT
BRANCH   1   2
ATOM      2  C   UNL     1     118.940 177.084 128.583  1.00  0.00     0.000 C 
BRANCH   2   3
ATOM      3  C   UNL     1     118.521 175.885 129.445  1.00  0.00     0.000 C 
BRANCH   3   4
ATOM      4  C   UNL     1     119.555 175.549 130.530  1.00  0.00    -0.000 C 
BRANCH   4   5
ATOM      5  C   UNL     1     120.701 176.572 130.532  1.00  0.00    -0.000 C 
BRANCH   5   6
ATOM      6  C   UNL     1     122.004 176.009 129.936  1.00  0.00    -0.000 C 
BRANCH   6   7
ATOM      7  C   UNL     1     122.690 176.920 128.898  1.00  0.00    -0.000 C 
BRANCH   7   8
ATOM      8  C   UNL     1     122.340 176.616 127.427  1.00  0.00    -0.000 C 
BRANCH   8   9
ATOM      9  C   UNL     1     122.372 175.125 127.046  1.00  0.00    -0.000 C 
BRANCH   9  10
ATOM     10  C   UNL     1     121.503 174.803 125.821  1.00  0.00    -0.000 C 
BRANCH  10  11
ATOM     11  C   UNL     1     120.605 173.589 126.086  1.00  0.00    -0.003 C 
ATOM     12  C   UNL     1     120.402 173.372 127.583  1.00  0.00     0.004 C 
ENDBRANCH  10  11
ENDBRANCH   9  10
ENDBRANCH   8   9
ENDBRANCH   7   8
ENDBRANCH   6   7
ENDBRANCH   5   6
ENDBRANCH   4   5
ENDBRANCH   3   4
ENDBRANCH   2   3
ENDBRANCH   1   2
BRANCH   1  13
ATOM     13  C   UNL     1     118.784 178.127 126.253  1.00  0.00     0.000 C 
BRANCH  13  14
ATOM     14  C   UNL     1     119.714 179.212 126.827  1.00  0.00     0.000 C 
BRANCH  14  15
ATOM     15  C   UNL     1     120.824 179.627 125.849  1.00  0.00     0.000 C 
BRANCH  15  16
ATOM     16  C   UNL     1     120.316 179.766 124.404  1.00  0.00     0.000 C 
BRANCH  16  17
ATOM     17  C   UNL     1     121.077 178.854 123.426  1.00  0.00     0.000 C 
BRANCH  17  18
ATOM     18  C   UNL     1     122.191 178.041 124.110  1.00  0.00     0.000 C 
BRANCH  18  19
ATOM     19  C   UNL     1     122.945 177.058 123.193  1.00  0.00     0.000 C 
BRANCH  19  20
ATOM     20  C   UNL     1     124.450 176.915 123.483  1.00  0.00     0.006 C 
BRANCH  20  21
ATOM     21  C   UNL     1     125.330 177.331 122.295  1.00  0.00     0.053 C 
BRANCH  21  22
ATOM     22  C   UNL     1     126.207 176.198 121.866  1.00  0.00     0.041 C 
ATOM     23  O   UNL     1     126.436 175.241 122.654  1.00  0.00    -0.550 OA
ATOM     24  O   UNL     1     126.740 176.174 120.583  1.00  0.00    -0.550 OA
ENDBRANCH  21  22
ENDBRANCH  20  21
ENDBRANCH  19  20
ENDBRANCH  18  19
ENDBRANCH  17  18
ENDBRANCH  16  17
ENDBRANCH  15  16
ENDBRANCH  14  15
ENDBRANCH  13  14
ENDBRANCH   1  13
TORSDOF 20
ENDMDL
MODEL 5
REMARK VINA RESULT:    -5.420      3.273      6.104
REMARK INTER + INTRA:         -14.801
REMARK INTER:                 -11.205
REMARK INTRA:                  -3.596
REMARK UNBOUND:                -3.043
REMARK SMILES CCCCCCCCCCCCCCCCCCCCCC(=O)[O-]
REMARK SMILES IDX 12 1 11 2 10 3 9 4 8 5 7 6 6 7 5 8 4 9 3 10 2 11 1 12 13 13
REMARK SMILES IDX 14 14 15 15 16 16 17 17 18 18 19 19 20 20 21 21 22 22 23 23
REMARK SMILES IDX 24 24
REMARK H PARENT
REMARK Flexibility Score: inf
ROOT
ATOM      1  C   UNL     1     121.178 176.155 130.934  1.00  0.00     0.000 C 
ENDROOT
BRANCH   1   2
ATOM      2  C   UNL     1     119.646 176.025 130.860  1.00  0.00     0.000 C 
BRANCH   2   3
ATOM      3  C   UNL     1     119.056 176.656 129.589  1.00  0.00     0.000 C 
BRANCH   3   4
ATOM      4  C   UNL     1     118.620 175.604 128.558  1.00  0.00    -0.000 C 
BRANCH   4   5
ATOM      5  C   UNL     1     119.838 174.899 127.944  1.00  0.00    -0.000 C 
BRANCH   5   6
ATOM      6  C   UNL     1     120.531 175.743 126.858  1.00  0.00    -0.000 C 
BRANCH   6   7
ATOM      7  C   UNL     1     122.071 175.672 126.866  1.00  0.00    -0.000 C 
BRANCH   7   8
ATOM      8  C   UNL     1     122.725 175.458 125.485  1.00  0.00    -0.000 C 
BRANCH   8   9
ATOM      9  C   UNL     1     122.370 176.518 124.427  1.00  0.00    -0.000 C 
BRANCH   9  10
ATOM     10  C   UNL     1     123.610 177.159 123.785  1.00  0.00    -0.000 C 
BRANCH  10  11
ATOM     11  C   UNL     1     124.899 176.543 124.342  1.00  0.00    -0.003 C 
ATOM     12  C   UNL     1     126.026 177.571 124.386  1.00  0.00     0.004 C 
ENDBRANCH  10  11
ENDBRANCH   9  10
ENDBRANCH   8   9
ENDBRANCH   7   8
ENDBRANCH   6   7
ENDBRANCH   5   6
ENDBRANCH   4   5
ENDBRANCH   3   4
ENDBRANCH   2   3
ENDBRANCH   1   2
BRANCH   1  13
ATOM     13  C   UNL     1     121.672 177.510 130.385  1.00  0.00     0.000 C 
BRANCH  13  14
ATOM     14  C   UNL     1     123.198 177.580 130.190  1.00  0.00     0.000 C 
BRANCH  14  15
ATOM     15  C   UNL     1     123.641 178.812 129.384  1.00  0.00     0.000 C 
BRANCH  15  16
ATOM     16  C   UNL     1     123.829 178.503 127.889  1.00  0.00     0.000 C 
BRANCH  16  17
ATOM     17  C   UNL     1     123.369 179.664 126.990  1.00  0.00     0.000 C 
BRANCH  17  18
ATOM     18  C   UNL     1     122.013 179.396 126.314  1.00  0.00     0.000 C 
BRANCH  18  19
ATOM     19  C   UNL     1     120.811 179.281 127.273  1.00  0.00     0.000 C 
BRANCH  19  20
ATOM     20  C   UNL     1     119.444 179.627 126.656  1.00  0.00     0.006 C 
BRANCH  20  21
ATOM     21  C   UNL     1     119.301 179.139 125.207  1.00  0.00     0.053 C 
BRANCH  21  22
ATOM     22  C   UNL     1     117.963 178.504 124.995  1.00  0.00     0.041 C 
ATOM     23  O   UNL     1     117.689 177.406 125.548  1.00  0.00    -0.550 OA
ATOM     24  O   UNL     1     117.003 179.144 124.221  1.00  0.00    -0.550 OA
ENDBRANCH  21  22
ENDBRANCH  20  21
ENDBRANCH  19  20
ENDBRANCH  18  19
ENDBRANCH  17  18
ENDBRANCH  16  17
ENDBRANCH  15  16
ENDBRANCH  14  15
ENDBRANCH  13  14
ENDBRANCH   1  13
TORSDOF 20
ENDMDL
MODEL 6
REMARK VINA RESULT:    -5.411      2.428      5.584
REMARK INTER + INTRA:         -14.782
REMARK INTER:                 -11.398
REMARK INTRA:                  -3.384
REMARK UNBOUND:                -3.043
REMARK SMILES CCCCCCCCCCCCCCCCCCCCCC(=O)[O-]
REMARK SMILES IDX 12 1 11 2 10 3 9 4 8 5 7 6 6 7 5 8 4 9 3 10 2 11 1 12 13 13
REMARK SMILES IDX 14 14 15 15 16 16 17 17 18 18 19 19 20 20 21 21 22 22 23 23
REMARK SMILES IDX 24 24
REMARK H PARENT
REMARK Flexibility Score: inf
ROOT
ATOM      1  C   UNL     1     121.765 177.126 130.869  1.00  0.00     0.000 C 
ENDROOT
BRANCH   1   2
ATOM      2  C   UNL     1     122.810 177.401 129.772  1.00  0.00     0.000 C 
BRANCH   2   3
ATOM      3  C   UNL     1     122.442 178.602 128.889  1.00  0.00     0.000 C 
BRANCH   3   4
ATOM      4  C   UNL     1     123.646 179.151 128.108  1.00  0.00    -0.000 C 
BRANCH   4   5
ATOM      5  C   UNL     1     123.278 179.405 126.638  1.00  0.00    -0.000 C 
BRANCH   5   6
ATOM      6  C   UNL     1     121.759 179.515 126.415  1.00  0.00    -0.000 C 
BRANCH   6   7
ATOM      7  C   UNL     1     121.283 179.150 124.995  1.00  0.00    -0.000 C 
BRANCH   7   8
ATOM      8  C   UNL     1     121.868 177.842 124.423  1.00  0.00    -0.000 C 
BRANCH   8   9
ATOM      9  C   UNL     1     122.278 177.907 122.941  1.00  0.00    -0.000 C 
BRANCH   9  10
ATOM     10  C   UNL     1     123.613 177.201 122.659  1.00  0.00    -0.000 C 
BRANCH  10  11
ATOM     11  C   UNL     1     124.335 176.848 123.965  1.00  0.00    -0.003 C 
ATOM     12  C   UNL     1     125.680 177.563 124.060  1.00  0.00     0.004 C 
ENDBRANCH  10  11
ENDBRANCH   9  10
ENDBRANCH   8   9
ENDBRANCH   7   8
ENDBRANCH   6   7
ENDBRANCH   5   6
ENDBRANCH   4   5
ENDBRANCH   3   4
ENDBRANCH   2   3
ENDBRANCH   1   2
BRANCH   1  13
ATOM     13  C   UNL     1     120.976 175.826 130.606  1.00  0.00     0.000 C 
BRANCH  13  14
ATOM     14  C   UNL     1     119.451 175.990 130.738  1.00  0.00     0.000 C 
BRANCH  14  15
ATOM     15  C   UNL     1     118.713 175.814 129.401  1.00  0.00     0.000 C 
BRANCH  15  16
ATOM     16  C   UNL     1     118.821 177.056 128.500  1.00  0.00     0.000 C 
BRANCH  16  17
ATOM     17  C   UNL     1     119.494 176.743 127.152  1.00  0.00     0.000 C 
BRANCH  17  18
ATOM     18  C   UNL     1     120.180 175.365 127.131  1.00  0.00     0.000 C 
BRANCH  18  19
ATOM     19  C   UNL     1     121.711 175.396 126.949  1.00  0.00     0.000 C 
BRANCH  19  20
ATOM     20  C   UNL     1     122.326 174.115 126.357  1.00  0.00     0.006 C 
BRANCH  20  21
ATOM     21  C   UNL     1     121.908 172.846 127.114  1.00  0.00     0.053 C 
BRANCH  21  22
ATOM     22  C   UNL     1     123.079 171.935 127.302  1.00  0.00     0.041 C 
ATOM     23  O   UNL     1     123.029 171.005 128.150  1.00  0.00    -0.550 OA
ATOM     24  O   UNL     1     124.213 172.084 126.512  1.00  0.00    -0.550 OA
ENDBRANCH  21  22
ENDBRANCH  20  21
ENDBRANCH  19  20
ENDBRANCH  18  19
ENDBRANCH  17  18
ENDBRANCH  16  17
ENDBRANCH  15  16
ENDBRANCH  14  15
ENDBRANCH  13  14
ENDBRANCH   1  13
TORSDOF 20
ENDMDL
MODEL 7
REMARK VINA RESULT:    -5.403      3.274      5.887
REMARK INTER + INTRA:         -14.764
REMARK INTER:                 -11.106
REMARK INTRA:                  -3.658
REMARK UNBOUND:                -3.043
REMARK SMILES CCCCCCCCCCCCCCCCCCCCCC(=O)[O-]
REMARK SMILES IDX 12 1 11 2 10 3 9 4 8 5 7 6 6 7 5 8 4 9 3 10 2 11 1 12 13 13
REMARK SMILES IDX 14 14 15 15 16 16 17 17 18 18 19 19 20 20 21 21 22 22 23 23
REMARK SMILES IDX 24 24
REMARK H PARENT
REMARK Flexibility Score: inf
ROOT
ATOM      1  C   UNL     1     121.471 177.166 130.998  1.00  0.00     0.000 C 
ENDROOT
BRANCH   1   2
ATOM      2  C   UNL     1     122.746 176.986 130.153  1.00  0.00     0.000 C 
BRANCH   2   3
ATOM      3  C   UNL     1     122.893 178.060 129.065  1.00  0.00     0.000 C 
BRANCH   3   4
ATOM      4  C   UNL     1     121.585 178.825 128.811  1.00  0.00    -0.000 C 
BRANCH   4   5
ATOM      5  C   UNL     1     121.508 179.313 127.357  1.00  0.00    -0.000 C 
BRANCH   5   6
ATOM      6  C   UNL     1     120.070 179.634 126.912  1.00  0.00    -0.000 C 
BRANCH   6   7
ATOM      7  C   UNL     1     119.735 179.238 125.460  1.00  0.00    -0.000 C 
BRANCH   7   8
ATOM      8  C   UNL     1     120.761 179.694 124.402  1.00  0.00    -0.000 C 
BRANCH   8   9
ATOM      9  C   UNL     1     121.328 178.568 123.519  1.00  0.00    -0.000 C 
BRANCH   9  10
ATOM     10  C   UNL     1     122.028 177.467 124.330  1.00  0.00    -0.000 C 
BRANCH  10  11
ATOM     11  C   UNL     1     123.550 177.552 124.175  1.00  0.00    -0.003 C 
ATOM     12  C   UNL     1     124.227 177.798 125.521  1.00  0.00     0.004 C 
ENDBRANCH  10  11
ENDBRANCH   9  10
ENDBRANCH   8   9
ENDBRANCH   7   8
ENDBRANCH   6   7
ENDBRANCH   5   6
ENDBRANCH   4   5
ENDBRANCH   3   4
ENDBRANCH   2   3
ENDBRANCH   1   2
BRANCH   1  13
ATOM     13  C   UNL     1     120.663 175.857 131.115  1.00  0.00     0.000 C 
BRANCH  13  14
ATOM     14  C   UNL     1     119.173 176.014 130.759  1.00  0.00     0.000 C 
BRANCH  14  15
ATOM     15  C   UNL     1     118.817 175.403 129.394  1.00  0.00     0.000 C 
BRANCH  15  16
ATOM     16  C   UNL     1     118.896 176.428 128.250  1.00  0.00     0.000 C 
BRANCH  16  17
ATOM     17  C   UNL     1     119.826 175.966 127.115  1.00  0.00     0.000 C 
BRANCH  17  18
ATOM     18  C   UNL     1     121.009 175.118 127.619  1.00  0.00     0.000 C 
BRANCH  18  19
ATOM     19  C   UNL     1     121.905 174.520 126.516  1.00  0.00     0.000 C 
BRANCH  19  20
ATOM     20  C   UNL     1     121.642 173.039 126.190  1.00  0.00     0.006 C 
BRANCH  20  21
ATOM     21  C   UNL     1     120.309 172.814 125.461  1.00  0.00     0.053 C 
BRANCH  21  22
ATOM     22  C   UNL     1     119.436 171.878 126.236  1.00  0.00     0.041 C 
ATOM     23  O   UNL     1     118.722 171.034 125.633  1.00  0.00    -0.550 OA
ATOM     24  O   UNL     1     119.441 171.909 127.626  1.00  0.00    -0.550 OA
ENDBRANCH  21  22
ENDBRANCH  20  21
ENDBRANCH  19  20
ENDBRANCH  18  19
ENDBRANCH  17  18
ENDBRANCH  16  17
ENDBRANCH  15  16
ENDBRANCH  14  15
ENDBRANCH  13  14
ENDBRANCH   1  13
TORSDOF 20
ENDMDL
MODEL 8
REMARK VINA RESULT:    -5.338      1.133      3.907
REMARK INTER + INTRA:         -14.623
REMARK INTER:                 -11.625
REMARK INTRA:                  -2.998
REMARK UNBOUND:                -3.043
REMARK SMILES CCCCCCCCCCCCCCCCCCCCCC(=O)[O-]
REMARK SMILES IDX 12 1 11 2 10 3 9 4 8 5 7 6 6 7 5 8 4 9 3 10 2 11 1 12 13 13
REMARK SMILES IDX 14 14 15 15 16 16 17 17 18 18 19 19 20 20 21 21 22 22 23 23
REMARK SMILES IDX 24 24
REMARK H PARENT
REMARK Flexibility Score: inf
ROOT
ATOM      1  C   UNL     1     122.122 177.188 130.786  1.00  0.00     0.000 C 
ENDROOT
BRANCH   1   2
ATOM      2  C   UNL     1     120.874 176.555 130.143  1.00  0.00     0.000 C 
BRANCH   2   3
ATOM      3  C   UNL     1     121.214 175.366 129.232  1.00  0.00     0.000 C 
BRANCH   3   4
ATOM      4  C   UNL     1     120.821 175.615 127.768  1.00  0.00    -0.000 C 
BRANCH   4   5
ATOM      5  C   UNL     1     119.570 176.503 127.679  1.00  0.00    -0.000 C 
BRANCH   5   6
ATOM      6  C   UNL     1     119.691 177.596 126.601  1.00  0.00    -0.000 C 
BRANCH   6   7
ATOM      7  C   UNL     1     119.307 179.014 127.069  1.00  0.00    -0.000 C 
BRANCH   7   8
ATOM      8  C   UNL     1     119.360 180.102 125.977  1.00  0.00    -0.000 C 
BRANCH   8   9
ATOM      9  C   UNL     1     119.947 179.643 124.630  1.00  0.00    -0.000 C 
BRANCH   9  10
ATOM     10  C   UNL     1     118.892 179.032 123.696  1.00  0.00    -0.000 C 
BRANCH  10  11
ATOM     11  C   UNL     1     119.375 179.039 122.241  1.00  0.00    -0.003 C 
ATOM     12  C   UNL     1     120.850 179.422 122.153  1.00  0.00     0.004 C 
ENDBRANCH  10  11
ENDBRANCH   9  10
ENDBRANCH   8   9
ENDBRANCH   7   8
ENDBRANCH   6   7
ENDBRANCH   5   6
ENDBRANCH   4   5
ENDBRANCH   3   4
ENDBRANCH   2   3
ENDBRANCH   1   2
BRANCH   1  13
ATOM     13  C   UNL     1     123.134 177.679 129.728  1.00  0.00     0.000 C 
BRANCH  13  14
ATOM     14  C   UNL     1     122.573 178.763 128.791  1.00  0.00     0.000 C 
BRANCH  14  15
ATOM     15  C   UNL     1     123.604 179.255 127.762  1.00  0.00     0.000 C 
BRANCH  15  16
ATOM     16  C   UNL     1     123.153 179.013 126.312  1.00  0.00     0.000 C 
BRANCH  16  17
ATOM     17  C   UNL     1     123.323 177.545 125.885  1.00  0.00     0.000 C 
BRANCH  17  18
ATOM     18  C   UNL     1     122.621 177.225 124.552  1.00  0.00     0.000 C 
BRANCH  18  19
ATOM     19  C   UNL     1     123.550 177.134 123.325  1.00  0.00     0.000 C 
BRANCH  19  20
ATOM     20  C   UNL     1     124.942 176.539 123.600  1.00  0.00     0.006 C 
BRANCH  20  21
ATOM     21  C   UNL     1     126.044 177.173 122.738  1.00  0.00     0.053 C 
BRANCH  21  22
ATOM     22  C   UNL     1     126.737 176.130 121.920  1.00  0.00     0.041 C 
ATOM     23  O   UNL     1     126.814 176.255 120.668  1.00  0.00    -0.550 OA
ATOM     24  O   UNL     1     127.336 175.040 122.540  1.00  0.00    -0.550 OA
ENDBRANCH  21  22
ENDBRANCH  20  21
ENDBRANCH  19  20
ENDBRANCH  18  19
ENDBRANCH  17  18
ENDBRANCH  16  17
ENDBRANCH  15  16
ENDBRANCH  14  15
ENDBRANCH  13  14
ENDBRANCH   1  13
TORSDOF 20
ENDMDL
MODEL 9
REMARK VINA RESULT:    -5.335      3.317      5.059
REMARK INTER + INTRA:         -14.617
REMARK INTER:                 -11.139
REMARK INTRA:                  -3.477
REMARK UNBOUND:                -3.043
REMARK SMILES CCCCCCCCCCCCCCCCCCCCCC(=O)[O-]
REMARK SMILES IDX 12 1 11 2 10 3 9 4 8 5 7 6 6 7 5 8 4 9 3 10 2 11 1 12 13 13
REMARK SMILES IDX 14 14 15 15 16 16 17 17 18 18 19 19 20 20 21 21 22 22 23 23
REMARK SMILES IDX 24 24
REMARK H PARENT
REMARK Flexibility Score: inf
ROOT
ATOM      1  C   UNL     1     123.679 178.928 128.477  1.00  0.00     0.000 C 
ENDROOT
BRANCH   1   2
ATOM      2  C   UNL     1     122.426 178.964 129.371  1.00  0.00     0.000 C 
BRANCH   2   3
ATOM      3  C   UNL     1     122.716 178.530 130.816  1.00  0.00     0.000 C 
BRANCH   3   4
ATOM      4  C   UNL     1     122.195 177.118 131.122  1.00  0.00    -0.000 C 
BRANCH   4   5
ATOM      5  C   UNL     1     120.781 176.919 130.557  1.00  0.00    -0.000 C 
BRANCH   5   6
ATOM      6  C   UNL     1     120.152 175.580 130.983  1.00  0.00    -0.000 C 
BRANCH   6   7
ATOM      7  C   UNL     1     119.697 174.677 129.819  1.00  0.00    -0.000 C 
BRANCH   7   8
ATOM      8  C   UNL     1     120.042 173.182 129.975  1.00  0.00    -0.000 C 
BRANCH   8   9
ATOM      9  C   UNL     1     120.744 172.546 128.762  1.00  0.00    -0.000 C 
BRANCH   9  10
ATOM     10  C   UNL     1     119.868 172.544 127.499  1.00  0.00    -0.000 C 
BRANCH  10  11
ATOM     11  C   UNL     1     120.714 172.781 126.243  1.00  0.00    -0.003 C 
ATOM     12  C   UNL     1     122.200 172.587 126.535  1.00  0.00     0.004 C 
ENDBRANCH  10  11
ENDBRANCH   9  10
ENDBRANCH   8   9
ENDBRANCH   7   8
ENDBRANCH   6   7
ENDBRANCH   5   6
ENDBRANCH   4   5
ENDBRANCH   3   4
ENDBRANCH   2   3
ENDBRANCH   1   2
BRANCH   1  13
ATOM     13  C   UNL     1     123.365 179.338 127.022  1.00  0.00     0.000 C 
BRANCH  13  14
ATOM     14  C   UNL     1     123.818 178.303 125.976  1.00  0.00     0.000 C 
BRANCH  14  15
ATOM     15  C   UNL     1     122.642 177.661 125.222  1.00  0.00     0.000 C 
BRANCH  15  16
ATOM     16  C   UNL     1     122.299 176.257 125.749  1.00  0.00     0.000 C 
BRANCH  16  17
ATOM     17  C   UNL     1     121.382 176.304 126.983  1.00  0.00     0.000 C 
BRANCH  17  18
ATOM     18  C   UNL     1     119.941 176.726 126.642  1.00  0.00     0.000 C 
BRANCH  18  19
ATOM     19  C   UNL     1     119.413 177.947 127.421  1.00  0.00     0.000 C 
BRANCH  19  20
ATOM     20  C   UNL     1     119.704 179.313 126.774  1.00  0.00     0.006 C 
BRANCH  20  21
ATOM     21  C   UNL     1     118.474 179.922 126.085  1.00  0.00     0.053 C 
BRANCH  21  22
ATOM     22  C   UNL     1     118.360 179.428 124.678  1.00  0.00     0.041 C 
ATOM     23  O   UNL     1     117.232 179.359 124.121  1.00  0.00    -0.550 OA
ATOM     24  O   UNL     1     119.502 179.083 123.965  1.00  0.00    -0.550 OA
ENDBRANCH  21  22
ENDBRANCH  20  21
ENDBRANCH  19  20
ENDBRANCH  18  19
ENDBRANCH  17  18
ENDBRANCH  16  17
ENDBRANCH  15  16
ENDBRANCH  14  15
ENDBRANCH  13  14
ENDBRANCH   1  13
TORSDOF 20
ENDMDL
