MODEL 1
REMARK VINA RESULT:    -5.519      0.000      0.000
REMARK INTER + INTRA:          -6.620
REMARK INTER:                  -6.487
REMARK INTRA:                  -0.133
REMARK UNBOUND:                -0.133
REMARK SMILES O=C([O-])C=Cc1ccc(O)c(O)c1
REMARK SMILES IDX 6 1 13 2 7 3 11 4 8 5 9 6 5 7 4 8 2 9 1 10 3 11 12 12 10 14
REMARK H PARENT 12 13 10 15
REMARK Flexibility Score: inf
ROOT
ATOM      1  C   UNL     1      -7.128 -10.324  28.848  1.00  0.00    -0.022 A 
ATOM      2  C   UNL     1      -8.434 -10.254  28.337  1.00  0.00     0.058 A 
ATOM      3  C   UNL     1      -6.719  -9.370  29.801  1.00  0.00     0.012 A 
ATOM      4  C   UNL     1      -9.327  -9.269  28.782  1.00  0.00     0.157 A 
ATOM      5  C   UNL     1      -7.609  -8.386  30.244  1.00  0.00     0.051 A 
ATOM      6  C   UNL     1      -8.913  -8.335  29.739  1.00  0.00     0.157 A 
ENDROOT
BRANCH   1   7
ATOM      7  C   UNL     1      -6.220 -11.381  28.336  1.00  0.00     0.010 C 
ATOM      8  C   UNL     1      -5.260 -11.960  29.072  1.00  0.00     0.025 C 
BRANCH   8   9
ATOM      9  C   UNL     1      -4.385 -13.014  28.533  1.00  0.00     0.064 C 
ATOM     10  O   UNL     1      -4.317 -14.148  29.079  1.00  0.00    -0.545 OA
ATOM     11  O   UNL     1      -3.622 -12.755  27.401  1.00  0.00    -0.545 OA
ENDBRANCH   8   9
ENDBRANCH   1   7
BRANCH   4  12
ATOM     12  O   UNL     1     -10.625  -9.212  28.277  1.00  0.00    -0.504 OA
ATOM     13  H   UNL     1     -11.197  -8.381  28.375  1.00  0.00     0.293 HD
ENDBRANCH   4  12
BRANCH   6  14
ATOM     14  O   UNL     1      -9.803  -7.356  30.181  1.00  0.00    -0.504 OA
ATOM     15  H   UNL     1     -10.793  -7.547  30.278  1.00  0.00     0.293 HD
ENDBRANCH   6  14
TORSDOF 4
ENDMDL
MODEL 2
REMARK VINA RESULT:    -5.087      2.315      3.038
REMARK INTER + INTRA:          -6.113
REMARK INTER:                  -5.979
REMARK INTRA:                  -0.134
REMARK UNBOUND:                -0.133
REMARK SMILES O=C([O-])C=Cc1ccc(O)c(O)c1
REMARK SMILES IDX 6 1 13 2 7 3 11 4 8 5 9 6 5 7 4 8 2 9 1 10 3 11 12 12 10 14
REMARK H PARENT 12 13 10 15
REMARK Flexibility Score: inf
ROOT
ATOM      1  C   UNL     1      -6.845  -9.242  29.851  1.00  0.00    -0.022 A 
ATOM      2  C   UNL     1      -7.862  -8.457  30.418  1.00  0.00     0.058 A 
ATOM      3  C   UNL     1      -7.155 -10.064  28.749  1.00  0.00     0.012 A 
ATOM      4  C   UNL     1      -9.159  -8.469  29.885  1.00  0.00     0.157 A 
ATOM      5  C   UNL     1      -8.449 -10.076  28.218  1.00  0.00     0.051 A 
ATOM      6  C   UNL     1      -9.451  -9.279  28.781  1.00  0.00     0.157 A 
ENDROOT
BRANCH   1   7
ATOM      7  C   UNL     1      -5.492  -9.201  30.460  1.00  0.00     0.010 C 
ATOM      8  C   UNL     1      -4.799 -10.294  30.810  1.00  0.00     0.025 C 
BRANCH   8   9
ATOM      9  C   UNL     1      -3.453 -10.215  31.402  1.00  0.00     0.064 C 
ATOM     10  O   UNL     1      -3.053 -11.076  32.230  1.00  0.00    -0.545 OA
ATOM     11  O   UNL     1      -2.608  -9.174  31.038  1.00  0.00    -0.545 OA
ENDBRANCH   8   9
ENDBRANCH   1   7
BRANCH   4  12
ATOM     12  O   UNL     1     -10.160  -7.679  30.447  1.00  0.00    -0.504 OA
ATOM     13  H   UNL     1     -10.943  -7.344  29.897  1.00  0.00     0.293 HD
ENDBRANCH   4  12
BRANCH   6  14
ATOM     14  O   UNL     1     -10.741  -9.288  28.252  1.00  0.00    -0.504 OA
ATOM     15  H   UNL     1     -11.050  -8.580  27.596  1.00  0.00     0.293 HD
ENDBRANCH   6  14
TORSDOF 4
ENDMDL
MODEL 3
REMARK VINA RESULT:    -5.050      2.088      2.564
REMARK INTER + INTRA:          -6.070
REMARK INTER:                  -5.942
REMARK INTRA:                  -0.127
REMARK UNBOUND:                -0.133
REMARK SMILES O=C([O-])C=Cc1ccc(O)c(O)c1
REMARK SMILES IDX 6 1 13 2 7 3 11 4 8 5 9 6 5 7 4 8 2 9 1 10 3 11 12 12 10 14
REMARK H PARENT 12 13 10 15
REMARK Flexibility Score: inf
ROOT
ATOM      1  C   UNL     1      -7.273 -10.033  28.074  1.00  0.00    -0.022 A 
ATOM      2  C   UNL     1      -8.665  -9.959  27.903  1.00  0.00     0.058 A 
ATOM      3  C   UNL     1      -6.691  -9.399  29.190  1.00  0.00     0.012 A 
ATOM      4  C   UNL     1      -9.468  -9.289  28.837  1.00  0.00     0.157 A 
ATOM      5  C   UNL     1      -7.492  -8.730  30.120  1.00  0.00     0.051 A 
ATOM      6  C   UNL     1      -8.879  -8.676  29.949  1.00  0.00     0.157 A 
ENDROOT
BRANCH   1   7
ATOM      7  C   UNL     1      -6.468 -10.745  27.050  1.00  0.00     0.010 C 
ATOM      8  C   UNL     1      -6.394 -10.368  25.766  1.00  0.00     0.025 C 
BRANCH   8   9
ATOM      9  C   UNL     1      -5.574 -11.093  24.780  1.00  0.00     0.064 C 
ATOM     10  O   UNL     1      -4.395 -11.449  25.047  1.00  0.00    -0.545 OA
ATOM     11  O   UNL     1      -6.111 -11.393  23.535  1.00  0.00    -0.545 OA
ENDBRANCH   8   9
ENDBRANCH   1   7
BRANCH   4  12
ATOM     12  O   UNL     1     -10.850  -9.230  28.666  1.00  0.00    -0.504 OA
ATOM     13  H   UNL     1     -11.483  -9.735  29.276  1.00  0.00     0.293 HD
ENDBRANCH   4  12
BRANCH   6  14
ATOM     14  O   UNL     1      -9.680  -8.012  30.877  1.00  0.00    -0.504 OA
ATOM     15  H   UNL     1     -10.288  -8.517  31.511  1.00  0.00     0.293 HD
ENDBRANCH   6  14
TORSDOF 4
ENDMDL
MODEL 4
REMARK VINA RESULT:    -4.979      2.728      3.342
REMARK INTER + INTRA:          -5.986
REMARK INTER:                  -5.853
REMARK INTRA:                  -0.133
REMARK UNBOUND:                -0.133
REMARK SMILES O=C([O-])C=Cc1ccc(O)c(O)c1
REMARK SMILES IDX 6 1 13 2 7 3 11 4 8 5 9 6 5 7 4 8 2 9 1 10 3 11 12 12 10 14
REMARK H PARENT 12 13 10 15
REMARK Flexibility Score: inf
ROOT
ATOM      1  C   UNL     1      -7.078  -8.818  30.343  1.00  0.00    -0.022 A 
ATOM      2  C   UNL     1      -7.179  -9.617  29.192  1.00  0.00     0.058 A 
ATOM      3  C   UNL     1      -8.228  -8.150  30.809  1.00  0.00     0.012 A 
ATOM      4  C   UNL     1      -8.406  -9.771  28.532  1.00  0.00     0.157 A 
ATOM      5  C   UNL     1      -9.451  -8.303  30.149  1.00  0.00     0.051 A 
ATOM      6  C   UNL     1      -9.544  -9.114  29.013  1.00  0.00     0.157 A 
ENDROOT
BRANCH   1   7
ATOM      7  C   UNL     1      -5.754  -8.680  30.999  1.00  0.00     0.010 C 
ATOM      8  C   UNL     1      -4.767  -9.580  30.882  1.00  0.00     0.025 C 
BRANCH   8   9
ATOM      9  C   UNL     1      -3.460  -9.404  31.539  1.00  0.00     0.064 C 
ATOM     10  O   UNL     1      -3.324  -8.628  32.522  1.00  0.00    -0.545 OA
ATOM     11  O   UNL     1      -2.360 -10.108  31.068  1.00  0.00    -0.545 OA
ENDBRANCH   8   9
ENDBRANCH   1   7
BRANCH   4  12
ATOM     12  O   UNL     1      -8.500 -10.575  27.396  1.00  0.00    -0.504 OA
ATOM     13  H   UNL     1      -8.536 -11.586  27.463  1.00  0.00     0.293 HD
ENDBRANCH   4  12
BRANCH   6  14
ATOM     14  O   UNL     1     -10.763  -9.270  28.354  1.00  0.00    -0.504 OA
ATOM     15  H   UNL     1     -10.844  -9.138  27.353  1.00  0.00     0.293 HD
ENDBRANCH   6  14
TORSDOF 4
ENDMDL
MODEL 5
REMARK VINA RESULT:    -4.922      1.067      2.071
REMARK INTER + INTRA:          -5.918
REMARK INTER:                  -5.787
REMARK INTRA:                  -0.131
REMARK UNBOUND:                -0.133
REMARK SMILES O=C([O-])C=Cc1ccc(O)c(O)c1
REMARK SMILES IDX 6 1 13 2 7 3 11 4 8 5 9 6 5 7 4 8 2 9 1 10 3 11 12 12 10 14
REMARK H PARENT 12 13 10 15
REMARK Flexibility Score: inf
ROOT
ATOM      1  C   UNL     1      -6.990 -10.329  29.152  1.00  0.00    -0.022 A 
ATOM      2  C   UNL     1      -6.868  -9.441  30.234  1.00  0.00     0.058 A 
ATOM      3  C   UNL     1      -8.158 -10.285  28.365  1.00  0.00     0.012 A 
ATOM      4  C   UNL     1      -7.877  -8.508  30.512  1.00  0.00     0.157 A 
ATOM      5  C   UNL     1      -9.164  -9.355  28.644  1.00  0.00     0.051 A 
ATOM      6  C   UNL     1      -9.025  -8.464  29.713  1.00  0.00     0.157 A 
ENDROOT
BRANCH   1   7
ATOM      7  C   UNL     1      -5.898 -11.305  28.907  1.00  0.00     0.010 C 
ATOM      8  C   UNL     1      -5.130 -11.823  29.876  1.00  0.00     0.025 C 
BRANCH   8   9
ATOM      9  C   UNL     1      -4.063 -12.798  29.596  1.00  0.00     0.064 C 
ATOM     10  O   UNL     1      -2.961 -12.752  30.205  1.00  0.00    -0.545 OA
ATOM     11  O   UNL     1      -4.276 -13.788  28.645  1.00  0.00    -0.545 OA
ENDBRANCH   8   9
ENDBRANCH   1   7
BRANCH   4  12
ATOM     12  O   UNL     1      -7.744  -7.623  31.581  1.00  0.00    -0.504 OA
ATOM     13  H   UNL     1      -8.248  -7.760  32.449  1.00  0.00     0.293 HD
ENDBRANCH   4  12
BRANCH   6  14
ATOM     14  O   UNL     1     -10.026  -7.534  29.992  1.00  0.00    -0.504 OA
ATOM     15  H   UNL     1     -10.045  -7.022  30.866  1.00  0.00     0.293 HD
ENDBRANCH   6  14
TORSDOF 4
ENDMDL
MODEL 6
REMARK VINA RESULT:    -4.817     10.247     11.122
REMARK INTER + INTRA:          -5.796
REMARK INTER:                  -5.670
REMARK INTRA:                  -0.126
REMARK UNBOUND:                -0.133
REMARK SMILES O=C([O-])C=Cc1ccc(O)c(O)c1
REMARK SMILES IDX 6 1 13 2 7 3 11 4 8 5 9 6 5 7 4 8 2 9 1 10 3 11 12 12 10 14
REMARK H PARENT 12 13 10 15
REMARK Flexibility Score: inf
ROOT
ATOM      1  C   UNL     1      -8.622 -13.302  18.633  1.00  0.00    -0.022 A 
ATOM      2  C   UNL     1      -9.604 -12.302  18.557  1.00  0.00     0.058 A 
ATOM      3  C   UNL     1      -8.296 -13.841  19.893  1.00  0.00     0.012 A 
ATOM      4  C   UNL     1     -10.271 -11.863  19.710  1.00  0.00     0.157 A 
ATOM      5  C   UNL     1      -8.959 -13.402  21.043  1.00  0.00     0.051 A 
ATOM      6  C   UNL     1      -9.948 -12.416  20.955  1.00  0.00     0.157 A 
ENDROOT
BRANCH   1   7
ATOM      7  C   UNL     1      -7.939 -13.724  17.383  1.00  0.00     0.010 C 
ATOM      8  C   UNL     1      -6.864 -13.104  16.876  1.00  0.00     0.025 C 
BRANCH   8   9
ATOM      9  C   UNL     1      -6.206 -13.559  15.639  1.00  0.00     0.064 C 
ATOM     10  O   UNL     1      -5.348 -14.482  15.658  1.00  0.00    -0.545 OA
ATOM     11  O   UNL     1      -6.538 -12.962  14.430  1.00  0.00    -0.545 OA
ENDBRANCH   8   9
ENDBRANCH   1   7
BRANCH   4  12
ATOM     12  O   UNL     1     -11.253 -10.877  19.626  1.00  0.00    -0.504 OA
ATOM     13  H   UNL     1     -11.511 -10.460  18.739  1.00  0.00     0.293 HD
ENDBRANCH   4  12
BRANCH   6  14
ATOM     14  O   UNL     1     -10.613 -11.978  22.100  1.00  0.00    -0.504 OA
ATOM     15  H   UNL     1     -10.804 -12.604  22.873  1.00  0.00     0.293 HD
ENDBRANCH   6  14
TORSDOF 4
ENDMDL
MODEL 7
REMARK VINA RESULT:    -4.615      8.509      9.413
REMARK INTER + INTRA:          -5.558
REMARK INTER:                  -5.431
REMARK INTRA:                  -0.127
REMARK UNBOUND:                -0.133
REMARK SMILES O=C([O-])C=Cc1ccc(O)c(O)c1
REMARK SMILES IDX 6 1 13 2 7 3 11 4 8 5 9 6 5 7 4 8 2 9 1 10 3 11 12 12 10 14
REMARK H PARENT 12 13 10 15
REMARK Flexibility Score: inf
ROOT
ATOM      1  C   UNL     1      -9.505 -14.848  21.226  1.00  0.00    -0.022 A 
ATOM      2  C   UNL     1     -10.000 -13.952  22.188  1.00  0.00     0.058 A 
ATOM      3  C   UNL     1      -9.542 -14.476  19.867  1.00  0.00     0.012 A 
ATOM      4  C   UNL     1     -10.499 -12.697  21.808  1.00  0.00     0.157 A 
ATOM      5  C   UNL     1     -10.042 -13.226  19.490  1.00  0.00     0.051 A 
ATOM      6  C   UNL     1     -10.518 -12.334  20.457  1.00  0.00     0.157 A 
ENDROOT
BRANCH   1   7
ATOM      7  C   UNL     1      -8.996 -16.167  21.679  1.00  0.00     0.010 C 
ATOM      8  C   UNL     1      -9.704 -17.018  22.436  1.00  0.00     0.025 C 
BRANCH   8   9
ATOM      9  C   UNL     1      -9.170 -18.325  22.856  1.00  0.00     0.064 C 
ATOM     10  O   UNL     1      -8.936 -18.574  24.069  1.00  0.00    -0.545 OA
ATOM     11  O   UNL     1      -8.924 -19.302  21.900  1.00  0.00    -0.545 OA
ENDBRANCH   8   9
ENDBRANCH   1   7
BRANCH   4  12
ATOM     12  O   UNL     1     -10.979 -11.809  22.770  1.00  0.00    -0.504 OA
ATOM     13  H   UNL     1     -11.734 -11.164  22.567  1.00  0.00     0.293 HD
ENDBRANCH   4  12
BRANCH   6  14
ATOM     14  O   UNL     1     -11.015 -11.086  20.083  1.00  0.00    -0.504 OA
ATOM     15  H   UNL     1     -11.452 -10.467  20.756  1.00  0.00     0.293 HD
ENDBRANCH   6  14
TORSDOF 4
ENDMDL
MODEL 8
REMARK VINA RESULT:    -4.550      9.264     10.268
REMARK INTER + INTRA:          -5.482
REMARK INTER:                  -5.347
REMARK INTRA:                  -0.134
REMARK UNBOUND:                -0.133
REMARK SMILES O=C([O-])C=Cc1ccc(O)c(O)c1
REMARK SMILES IDX 6 1 13 2 7 3 11 4 8 5 9 6 5 7 4 8 2 9 1 10 3 11 12 12 10 14
REMARK H PARENT 12 13 10 15
REMARK Flexibility Score: inf
ROOT
ATOM      1  C   UNL     1      -8.843 -13.559  19.871  1.00  0.00    -0.022 A 
ATOM      2  C   UNL     1      -8.574 -14.180  21.102  1.00  0.00     0.058 A 
ATOM      3  C   UNL     1      -9.883 -12.611  19.802  1.00  0.00     0.012 A 
ATOM      4  C   UNL     1      -9.307 -13.844  22.250  1.00  0.00     0.157 A 
ATOM      5  C   UNL     1     -10.615 -12.278  20.946  1.00  0.00     0.051 A 
ATOM      6  C   UNL     1     -10.328 -12.890  22.171  1.00  0.00     0.157 A 
ENDROOT
BRANCH   1   7
ATOM      7  C   UNL     1      -8.045 -13.957  18.685  1.00  0.00     0.010 C 
ATOM      8  C   UNL     1      -7.630 -13.097  17.744  1.00  0.00     0.025 C 
BRANCH   8   9
ATOM      9  C   UNL     1      -6.828 -13.526  16.585  1.00  0.00     0.064 C 
ATOM     10  O   UNL     1      -6.455 -12.701  15.709  1.00  0.00    -0.545 OA
ATOM     11  O   UNL     1      -6.475 -14.863  16.458  1.00  0.00    -0.545 OA
ENDBRANCH   8   9
ENDBRANCH   1   7
BRANCH   4  12
ATOM     12  O   UNL     1      -9.026 -14.457  23.470  1.00  0.00    -0.504 OA
ATOM     13  H   UNL     1      -9.764 -14.807  24.071  1.00  0.00     0.293 HD
ENDBRANCH   4  12
BRANCH   6  14
ATOM     14  O   UNL     1     -11.054 -12.559  23.314  1.00  0.00    -0.504 OA
ATOM     15  H   UNL     1     -11.144 -13.204  24.089  1.00  0.00     0.293 HD
ENDBRANCH   6  14
TORSDOF 4
ENDMDL
MODEL 9
REMARK VINA RESULT:    -4.394     14.344     16.133
REMARK INTER + INTRA:          -5.298
REMARK INTER:                  -5.160
REMARK INTRA:                  -0.139
REMARK UNBOUND:                -0.133
REMARK SMILES O=C([O-])C=Cc1ccc(O)c(O)c1
REMARK SMILES IDX 6 1 13 2 7 3 11 4 8 5 9 6 5 7 4 8 2 9 1 10 3 11 12 12 10 14
REMARK H PARENT 12 13 10 15
REMARK Flexibility Score: inf
ROOT
ATOM      1  C   UNL     1     -16.097 -18.096  19.516  1.00  0.00    -0.022 A 
ATOM      2  C   UNL     1     -15.092 -17.751  20.434  1.00  0.00     0.058 A 
ATOM      3  C   UNL     1     -16.757 -19.332  19.662  1.00  0.00     0.012 A 
ATOM      4  C   UNL     1     -14.766 -18.609  21.495  1.00  0.00     0.157 A 
ATOM      5  C   UNL     1     -16.430 -20.187  20.718  1.00  0.00     0.051 A 
ATOM      6  C   UNL     1     -15.439 -19.828  21.637  1.00  0.00     0.157 A 
ENDROOT
BRANCH   1   7
ATOM      7  C   UNL     1     -16.397 -17.157  18.405  1.00  0.00     0.010 C 
ATOM      8  C   UNL     1     -17.476 -17.257  17.616  1.00  0.00     0.025 C 
BRANCH   8   9
ATOM      9  C   UNL     1     -17.748 -16.300  16.530  1.00  0.00     0.064 C 
ATOM     10  O   UNL     1     -16.830 -15.909  15.761  1.00  0.00    -0.545 OA
ATOM     11  O   UNL     1     -19.039 -15.821  16.350  1.00  0.00    -0.545 OA
ENDBRANCH   8   9
ENDBRANCH   1   7
BRANCH   4  12
ATOM     12  O   UNL     1     -13.775 -18.255  22.409  1.00  0.00    -0.504 OA
ATOM     13  H   UNL     1     -12.798 -18.215  22.143  1.00  0.00     0.293 HD
ENDBRANCH   4  12
BRANCH   6  14
ATOM     14  O   UNL     1     -15.112 -20.678  22.694  1.00  0.00    -0.504 OA
ATOM     15  H   UNL     1     -14.828 -21.637  22.533  1.00  0.00     0.293 HD
ENDBRANCH   6  14
TORSDOF 4
ENDMDL
