MODEL 1
REMARK VINA RESULT:    -3.866      0.000      0.000
REMARK INTER + INTRA:          -5.099
REMARK INTER:                  -4.996
REMARK INTRA:                  -0.103
REMARK UNBOUND:                -0.103
REMARK SMILES CCCCCCC(=O)[O-]
REMARK SMILES IDX 5 1 6 2 7 3 8 4 9 5 4 6 3 7 2 8 1 9
REMARK H PARENT
REMARK Flexibility Score: inf
ROOT
ATOM      1  C   UNL     1       6.475  -2.263  -5.655  1.00  0.00     0.006 C 
ENDROOT
BRANCH   1   2
ATOM      2  C   UNL     1       5.792  -3.634  -5.590  1.00  0.00     0.053 C 
BRANCH   2   3
ATOM      3  C   UNL     1       6.769  -4.731  -5.295  1.00  0.00     0.041 C 
ATOM      4  O   UNL     1       7.277  -4.834  -4.148  1.00  0.00    -0.550 OA
ATOM      5  O   UNL     1       7.092  -5.659  -6.277  1.00  0.00    -0.550 OA
ENDBRANCH   2   3
ENDBRANCH   1   2
BRANCH   1   6
ATOM      6  C   UNL     1       5.607  -1.212  -6.363  1.00  0.00     0.000 C 
BRANCH   6   7
ATOM      7  C   UNL     1       4.739  -0.448  -5.356  1.00  0.00    -0.000 C 
BRANCH   7   8
ATOM      8  C   UNL     1       5.270   0.974  -5.140  1.00  0.00    -0.003 C 
ATOM      9  C   UNL     1       4.749   1.926  -6.213  1.00  0.00     0.004 C 
ENDBRANCH   7   8
ENDBRANCH   6   7
ENDBRANCH   1   6
TORSDOF 5
ENDMDL
MODEL 2
REMARK VINA RESULT:    -3.740      3.276      5.322
REMARK INTER + INTRA:          -4.936
REMARK INTER:                  -4.804
REMARK INTRA:                  -0.132
REMARK UNBOUND:                -0.103
REMARK SMILES CCCCCCC(=O)[O-]
REMARK SMILES IDX 5 1 6 2 7 3 8 4 9 5 4 6 3 7 2 8 1 9
REMARK H PARENT
REMARK Flexibility Score: inf
ROOT
ATOM      1  C   UNL     1       6.220  -1.393  -5.625  1.00  0.00     0.006 C 
ENDROOT
BRANCH   1   2
ATOM      2  C   UNL     1       4.887  -0.634  -5.620  1.00  0.00     0.053 C 
BRANCH   2   3
ATOM      3  C   UNL     1       5.068   0.807  -5.250  1.00  0.00     0.041 C 
ATOM      4  O   UNL     1       5.474   1.118  -4.100  1.00  0.00    -0.550 OA
ATOM      5  O   UNL     1       4.820   1.803  -6.186  1.00  0.00    -0.550 OA
ENDBRANCH   2   3
ENDBRANCH   1   2
BRANCH   1   6
ATOM      6  C   UNL     1       6.140  -2.705  -6.420  1.00  0.00     0.000 C 
BRANCH   6   7
ATOM      7  C   UNL     1       5.632  -3.852  -5.538  1.00  0.00    -0.000 C 
BRANCH   7   8
ATOM      8  C   UNL     1       6.793  -4.541  -4.811  1.00  0.00    -0.003 C 
ATOM      9  C   UNL     1       7.507  -5.530  -5.726  1.00  0.00     0.004 C 
ENDBRANCH   7   8
ENDBRANCH   6   7
ENDBRANCH   1   6
TORSDOF 5
ENDMDL
MODEL 3
REMARK VINA RESULT:    -3.584      0.943      1.086
REMARK INTER + INTRA:          -4.734
REMARK INTER:                  -4.549
REMARK INTRA:                  -0.185
REMARK UNBOUND:                -0.103
REMARK SMILES CCCCCCC(=O)[O-]
REMARK SMILES IDX 5 1 6 2 7 3 8 4 9 5 4 6 3 7 2 8 1 9
REMARK H PARENT
REMARK Flexibility Score: inf
ROOT
ATOM      1  C   UNL     1       6.430  -1.532  -6.068  1.00  0.00     0.006 C 
ENDROOT
BRANCH   1   2
ATOM      2  C   UNL     1       5.548  -2.715  -5.651  1.00  0.00     0.053 C 
BRANCH   2   3
ATOM      3  C   UNL     1       6.341  -3.979  -5.509  1.00  0.00     0.041 C 
ATOM      4  O   UNL     1       7.133  -4.123  -4.540  1.00  0.00    -0.550 OA
ATOM      5  O   UNL     1       6.181  -5.010  -6.427  1.00  0.00    -0.550 OA
ENDBRANCH   2   3
ENDBRANCH   1   2
BRANCH   1   6
ATOM      6  C   UNL     1       6.029  -0.229  -5.361  1.00  0.00     0.000 C 
BRANCH   6   7
ATOM      7  C   UNL     1       4.512  -0.014  -5.424  1.00  0.00    -0.000 C 
BRANCH   7   8
ATOM      8  C   UNL     1       4.125   0.823  -6.648  1.00  0.00    -0.003 C 
ATOM      9  C   UNL     1       4.505   2.288  -6.456  1.00  0.00     0.004 C 
ENDBRANCH   7   8
ENDBRANCH   6   7
ENDBRANCH   1   6
TORSDOF 5
ENDMDL
MODEL 4
REMARK VINA RESULT:    -3.551      3.794      5.540
REMARK INTER + INTRA:          -4.692
REMARK INTER:                  -4.524
REMARK INTRA:                  -0.168
REMARK UNBOUND:                -0.103
REMARK SMILES CCCCCCC(=O)[O-]
REMARK SMILES IDX 5 1 6 2 7 3 8 4 9 5 4 6 3 7 2 8 1 9
REMARK H PARENT
REMARK Flexibility Score: inf
ROOT
ATOM      1  C   UNL     1       5.091  -0.806  -5.510  1.00  0.00     0.006 C 
ENDROOT
BRANCH   1   2
ATOM      2  C   UNL     1       5.242   0.664  -5.102  1.00  0.00     0.053 C 
BRANCH   2   3
ATOM      3  C   UNL     1       4.867   1.593  -6.216  1.00  0.00     0.041 C 
ATOM      4  O   UNL     1       3.666   1.687  -6.584  1.00  0.00    -0.550 OA
ATOM      5  O   UNL     1       5.837   2.381  -6.824  1.00  0.00    -0.550 OA
ENDBRANCH   2   3
ENDBRANCH   1   2
BRANCH   1   6
ATOM      6  C   UNL     1       6.418  -1.418  -5.984  1.00  0.00     0.000 C 
BRANCH   6   7
ATOM      7  C   UNL     1       6.198  -2.815  -6.577  1.00  0.00    -0.000 C 
BRANCH   7   8
ATOM      8  C   UNL     1       5.651  -3.781  -5.519  1.00  0.00    -0.003 C 
ATOM      9  C   UNL     1       6.782  -4.526  -4.816  1.00  0.00     0.004 C 
ENDBRANCH   7   8
ENDBRANCH   6   7
ENDBRANCH   1   6
TORSDOF 5
ENDMDL
MODEL 5
REMARK VINA RESULT:    -3.461      1.491      2.245
REMARK INTER + INTRA:          -4.576
REMARK INTER:                  -4.392
REMARK INTRA:                  -0.184
REMARK UNBOUND:                -0.103
REMARK SMILES CCCCCCC(=O)[O-]
REMARK SMILES IDX 5 1 6 2 7 3 8 4 9 5 4 6 3 7 2 8 1 9
REMARK H PARENT
REMARK Flexibility Score: inf
ROOT
ATOM      1  C   UNL     1       6.783  -3.888  -4.872  1.00  0.00     0.006 C 
ENDROOT
BRANCH   1   2
ATOM      2  C   UNL     1       7.105  -5.259  -5.478  1.00  0.00     0.053 C 
BRANCH   2   3
ATOM      3  C   UNL     1       7.745  -5.136  -6.827  1.00  0.00     0.041 C 
ATOM      4  O   UNL     1       7.204  -5.664  -7.834  1.00  0.00    -0.550 OA
ATOM      5  O   UNL     1       8.919  -4.409  -6.979  1.00  0.00    -0.550 OA
ENDBRANCH   2   3
ENDBRANCH   1   2
BRANCH   1   6
ATOM      6  C   UNL     1       5.863  -3.053  -5.776  1.00  0.00     0.000 C 
BRANCH   6   7
ATOM      7  C   UNL     1       6.257  -1.571  -5.744  1.00  0.00    -0.000 C 
BRANCH   7   8
ATOM      8  C   UNL     1       5.021  -0.677  -5.599  1.00  0.00    -0.003 C 
ATOM      9  C   UNL     1       5.354   0.606  -4.844  1.00  0.00     0.004 C 
ENDBRANCH   7   8
ENDBRANCH   6   7
ENDBRANCH   1   6
TORSDOF 5
ENDMDL
MODEL 6
REMARK VINA RESULT:    -3.281      1.725      2.455
REMARK INTER + INTRA:          -4.343
REMARK INTER:                  -4.141
REMARK INTRA:                  -0.203
REMARK UNBOUND:                -0.103
REMARK SMILES CCCCCCC(=O)[O-]
REMARK SMILES IDX 5 1 6 2 7 3 8 4 9 5 4 6 3 7 2 8 1 9
REMARK H PARENT
REMARK Flexibility Score: inf
ROOT
ATOM      1  C   UNL     1       5.850  -0.216  -5.323  1.00  0.00     0.006 C 
ENDROOT
BRANCH   1   2
ATOM      2  C   UNL     1       5.750  -1.652  -5.853  1.00  0.00     0.053 C 
BRANCH   2   3
ATOM      3  C   UNL     1       7.044  -2.392  -5.705  1.00  0.00     0.041 C 
ATOM      4  O   UNL     1       8.068  -2.007  -6.329  1.00  0.00    -0.550 OA
ATOM      5  O   UNL     1       7.129  -3.485  -4.851  1.00  0.00    -0.550 OA
ENDBRANCH   2   3
ENDBRANCH   1   2
BRANCH   1   6
ATOM      6  C   UNL     1       4.580   0.599  -5.608  1.00  0.00     0.000 C 
BRANCH   6   7
ATOM      7  C   UNL     1       4.348   0.746  -7.118  1.00  0.00    -0.000 C 
BRANCH   7   8
ATOM      8  C   UNL     1       5.430   1.623  -7.757  1.00  0.00    -0.003 C 
ATOM      9  C   UNL     1       5.304   3.074  -7.301  1.00  0.00     0.004 C 
ENDBRANCH   7   8
ENDBRANCH   6   7
ENDBRANCH   1   6
TORSDOF 5
ENDMDL
MODEL 7
REMARK VINA RESULT:    -3.119      4.286      5.898
REMARK INTER + INTRA:          -4.133
REMARK INTER:                  -3.761
REMARK INTRA:                  -0.372
REMARK UNBOUND:                -0.103
REMARK SMILES CCCCCCC(=O)[O-]
REMARK SMILES IDX 5 1 6 2 7 3 8 4 9 5 4 6 3 7 2 8 1 9
REMARK H PARENT
REMARK Flexibility Score: inf
ROOT
ATOM      1  C   UNL     1       4.510   2.452  -6.591  1.00  0.00     0.006 C 
ENDROOT
BRANCH   1   2
ATOM      2  C   UNL     1       5.419   2.550  -7.822  1.00  0.00     0.053 C 
BRANCH   2   3
ATOM      3  C   UNL     1       6.813   2.961  -7.455  1.00  0.00     0.041 C 
ATOM      4  O   UNL     1       7.526   2.208  -6.741  1.00  0.00    -0.550 OA
ATOM      5  O   UNL     1       7.335   4.158  -7.929  1.00  0.00    -0.550 OA
ENDBRANCH   2   3
ENDBRANCH   1   2
BRANCH   1   6
ATOM      6  C   UNL     1       4.069   1.008  -6.308  1.00  0.00     0.000 C 
BRANCH   6   7
ATOM      7  C   UNL     1       4.966   0.358  -5.247  1.00  0.00    -0.000 C 
BRANCH   7   8
ATOM      8  C   UNL     1       5.405  -1.045  -5.683  1.00  0.00    -0.003 C 
ATOM      9  C   UNL     1       5.709  -1.088  -7.178  1.00  0.00     0.004 C 
ENDBRANCH   7   8
ENDBRANCH   6   7
ENDBRANCH   1   6
TORSDOF 5
ENDMDL
MODEL 8
REMARK VINA RESULT:    -3.115      3.439      4.844
REMARK INTER + INTRA:          -4.129
REMARK INTER:                  -3.715
REMARK INTRA:                  -0.414
REMARK UNBOUND:                -0.103
REMARK SMILES CCCCCCC(=O)[O-]
REMARK SMILES IDX 5 1 6 2 7 3 8 4 9 5 4 6 3 7 2 8 1 9
REMARK H PARENT
REMARK Flexibility Score: inf
ROOT
ATOM      1  C   UNL     1       4.313   2.382  -6.538  1.00  0.00     0.006 C 
ENDROOT
BRANCH   1   2
ATOM      2  C   UNL     1       3.914   0.911  -6.361  1.00  0.00     0.053 C 
BRANCH   2   3
ATOM      3  C   UNL     1       4.797   0.210  -5.375  1.00  0.00     0.041 C 
ATOM      4  O   UNL     1       5.005  -1.028  -5.480  1.00  0.00    -0.550 OA
ATOM      5  O   UNL     1       5.419   0.928  -4.360  1.00  0.00    -0.550 OA
ENDBRANCH   2   3
ENDBRANCH   1   2
BRANCH   1   6
ATOM      6  C   UNL     1       5.072   2.624  -7.852  1.00  0.00     0.000 C 
BRANCH   6   7
ATOM      7  C   UNL     1       6.447   3.248  -7.584  1.00  0.00    -0.000 C 
BRANCH   7   8
ATOM      8  C   UNL     1       7.422   2.209  -7.020  1.00  0.00    -0.003 C 
ATOM      9  C   UNL     1       7.485   0.972  -7.911  1.00  0.00     0.004 C 
ENDBRANCH   7   8
ENDBRANCH   6   7
ENDBRANCH   1   6
TORSDOF 5
ENDMDL
MODEL 9
REMARK VINA RESULT:    -3.083      4.055      5.354
REMARK INTER + INTRA:          -4.087
REMARK INTER:                  -3.704
REMARK INTRA:                  -0.383
REMARK UNBOUND:                -0.103
REMARK SMILES CCCCCCC(=O)[O-]
REMARK SMILES IDX 5 1 6 2 7 3 8 4 9 5 4 6 3 7 2 8 1 9
REMARK H PARENT
REMARK Flexibility Score: inf
ROOT
ATOM      1  C   UNL     1       5.285   0.446  -4.891  1.00  0.00     0.006 C 
ENDROOT
BRANCH   1   2
ATOM      2  C   UNL     1       6.095   1.348  -5.830  1.00  0.00     0.053 C 
BRANCH   2   3
ATOM      3  C   UNL     1       5.223   2.018  -6.848  1.00  0.00     0.041 C 
ATOM      4  O   UNL     1       4.159   2.589  -6.491  1.00  0.00    -0.550 OA
ATOM      5  O   UNL     1       5.603   2.041  -8.184  1.00  0.00    -0.550 OA
ENDBRANCH   2   3
ENDBRANCH   1   2
BRANCH   1   6
ATOM      6  C   UNL     1       4.914  -0.893  -5.546  1.00  0.00     0.000 C 
BRANCH   6   7
ATOM      7  C   UNL     1       6.172  -1.686  -5.924  1.00  0.00    -0.000 C 
BRANCH   7   8
ATOM      8  C   UNL     1       5.989  -2.397  -7.270  1.00  0.00    -0.003 C 
ATOM      9  C   UNL     1       5.346  -1.471  -8.299  1.00  0.00     0.004 C 
ENDBRANCH   7   8
ENDBRANCH   6   7
ENDBRANCH   1   6
TORSDOF 5
ENDMDL
