MODEL 1
REMARK VINA RESULT:    -3.360      0.000      0.000
REMARK INTER + INTRA:          -5.542
REMARK INTER:                  -5.128
REMARK INTRA:                  -0.414
REMARK UNBOUND:                -0.414
REMARK SMILES CCCCCCCCCCC(=O)[O-]
REMARK SMILES IDX 7 1 8 2 9 3 10 4 11 5 12 6 13 7 6 8 5 9 4 10 3 11 2 12 1 13
REMARK H PARENT
REMARK Flexibility Score: inf
ROOT
ATOM      1  C   UNL     1       5.467   0.072  -5.536  1.00  0.00     0.000 C 
ENDROOT
BRANCH   1   2
ATOM      2  C   UNL     1       5.359  -0.256  -4.030  1.00  0.00     0.000 C 
BRANCH   2   3
ATOM      3  C   UNL     1       5.122  -1.750  -3.741  1.00  0.00     0.006 C 
BRANCH   3   4
ATOM      4  C   UNL     1       4.456  -2.511  -4.897  1.00  0.00     0.053 C 
BRANCH   4   5
ATOM      5  C   UNL     1       3.114  -3.055  -4.510  1.00  0.00     0.041 C 
ATOM      6  O   UNL     1       2.802  -4.237  -4.809  1.00  0.00    -0.550 OA
ATOM      7  O   UNL     1       2.202  -2.252  -3.839  1.00  0.00    -0.550 OA
ENDBRANCH   4   5
ENDBRANCH   3   4
ENDBRANCH   2   3
ENDBRANCH   1   2
BRANCH   1   8
ATOM      8  C   UNL     1       6.348   1.301  -5.803  1.00  0.00     0.000 C 
BRANCH   8   9
ATOM      9  C   UNL     1       6.763   1.979  -4.491  1.00  0.00    -0.000 C 
BRANCH   9  10
ATOM     10  C   UNL     1       6.911   3.496  -4.680  1.00  0.00    -0.000 C 
BRANCH  10  11
ATOM     11  C   UNL     1       6.955   4.256  -3.345  1.00  0.00    -0.000 C 
BRANCH  11  12
ATOM     12  C   UNL     1       6.206   5.595  -3.402  1.00  0.00    -0.003 C 
ATOM     13  C   UNL     1       5.033   5.609  -2.426  1.00  0.00     0.004 C 
ENDBRANCH  11  12
ENDBRANCH  10  11
ENDBRANCH   9  10
ENDBRANCH   8   9
ENDBRANCH   1   8
TORSDOF 9
ENDMDL
MODEL 2
REMARK VINA RESULT:    -3.305      3.146      4.346
REMARK INTER + INTRA:          -5.459
REMARK INTER:                  -5.035
REMARK INTRA:                  -0.424
REMARK UNBOUND:                -0.414
REMARK SMILES CCCCCCCCCCC(=O)[O-]
REMARK SMILES IDX 7 1 8 2 9 3 10 4 11 5 12 6 13 7 6 8 5 9 4 10 3 11 2 12 1 13
REMARK H PARENT
REMARK Flexibility Score: inf
ROOT
ATOM      1  C   UNL     1       5.107   0.049  -6.616  1.00  0.00     0.000 C 
ENDROOT
BRANCH   1   2
ATOM      2  C   UNL     1       5.746   0.458  -5.271  1.00  0.00     0.000 C 
BRANCH   2   3
ATOM      3  C   UNL     1       5.309  -0.426  -4.088  1.00  0.00     0.006 C 
BRANCH   3   4
ATOM      4  C   UNL     1       4.511  -1.671  -4.501  1.00  0.00     0.053 C 
BRANCH   4   5
ATOM      5  C   UNL     1       3.390  -1.959  -3.549  1.00  0.00     0.041 C 
ATOM      6  O   UNL     1       2.308  -2.442  -3.974  1.00  0.00    -0.550 OA
ATOM      7  O   UNL     1       3.531  -1.675  -2.197  1.00  0.00    -0.550 OA
ENDBRANCH   4   5
ENDBRANCH   3   4
ENDBRANCH   2   3
ENDBRANCH   1   2
BRANCH   1   8
ATOM      8  C   UNL     1       5.949   0.492  -7.821  1.00  0.00     0.000 C 
BRANCH   8   9
ATOM      9  C   UNL     1       5.568   1.909  -8.270  1.00  0.00    -0.000 C 
BRANCH   9  10
ATOM     10  C   UNL     1       4.243   1.900  -9.047  1.00  0.00    -0.000 C 
BRANCH  10  11
ATOM     11  C   UNL     1       3.711   3.315  -9.324  1.00  0.00    -0.000 C 
BRANCH  11  12
ATOM     12  C   UNL     1       2.192   3.343  -9.545  1.00  0.00    -0.003 C 
ATOM     13  C   UNL     1       1.578   1.966  -9.313  1.00  0.00     0.004 C 
ENDBRANCH  11  12
ENDBRANCH  10  11
ENDBRANCH   9  10
ENDBRANCH   8   9
ENDBRANCH   1   8
TORSDOF 9
ENDMDL
MODEL 3
REMARK VINA RESULT:    -3.298      0.874      1.360
REMARK INTER + INTRA:          -5.448
REMARK INTER:                  -5.016
REMARK INTRA:                  -0.432
REMARK UNBOUND:                -0.414
REMARK SMILES CCCCCCCCCCC(=O)[O-]
REMARK SMILES IDX 7 1 8 2 9 3 10 4 11 5 12 6 13 7 6 8 5 9 4 10 3 11 2 12 1 13
REMARK H PARENT
REMARK Flexibility Score: inf
ROOT
ATOM      1  C   UNL     1       5.956   0.575  -5.638  1.00  0.00     0.000 C 
ENDROOT
BRANCH   1   2
ATOM      2  C   UNL     1       5.109  -0.641  -5.205  1.00  0.00     0.000 C 
BRANCH   2   3
ATOM      3  C   UNL     1       5.329  -1.052  -3.737  1.00  0.00     0.006 C 
BRANCH   3   4
ATOM      4  C   UNL     1       4.048  -1.499  -3.016  1.00  0.00     0.053 C 
BRANCH   4   5
ATOM      5  C   UNL     1       3.286  -2.518  -3.809  1.00  0.00     0.041 C 
ATOM      6  O   UNL     1       2.085  -2.306  -4.120  1.00  0.00    -0.550 OA
ATOM      7  O   UNL     1       3.894  -3.708  -4.186  1.00  0.00    -0.550 OA
ENDBRANCH   4   5
ENDBRANCH   3   4
ENDBRANCH   2   3
ENDBRANCH   1   2
BRANCH   1   8
ATOM      8  C   UNL     1       6.183   1.566  -4.487  1.00  0.00     0.000 C 
BRANCH   8   9
ATOM      9  C   UNL     1       7.038   2.756  -4.943  1.00  0.00    -0.000 C 
BRANCH   9  10
ATOM     10  C   UNL     1       7.128   3.822  -3.841  1.00  0.00    -0.000 C 
BRANCH  10  11
ATOM     11  C   UNL     1       6.938   5.248  -4.380  1.00  0.00    -0.000 C 
BRANCH  11  12
ATOM     12  C   UNL     1       6.197   6.161  -3.392  1.00  0.00    -0.003 C 
ATOM     13  C   UNL     1       5.246   5.356  -2.510  1.00  0.00     0.004 C 
ENDBRANCH  11  12
ENDBRANCH  10  11
ENDBRANCH   9  10
ENDBRANCH   8   9
ENDBRANCH   1   8
TORSDOF 9
ENDMDL
MODEL 4
REMARK VINA RESULT:    -3.265      8.275     11.397
REMARK INTER + INTRA:          -5.397
REMARK INTER:                  -4.231
REMARK INTRA:                  -1.166
REMARK UNBOUND:                -0.414
REMARK SMILES CCCCCCCCCCC(=O)[O-]
REMARK SMILES IDX 7 1 8 2 9 3 10 4 11 5 12 6 13 7 6 8 5 9 4 10 3 11 2 12 1 13
REMARK H PARENT
REMARK Flexibility Score: inf
ROOT
ATOM      1  C   UNL     1      -6.465  -1.694  -6.116  1.00  0.00     0.000 C 
ENDROOT
BRANCH   1   2
ATOM      2  C   UNL     1      -5.226  -0.793  -6.308  1.00  0.00     0.000 C 
BRANCH   2   3
ATOM      3  C   UNL     1      -4.146  -1.418  -7.212  1.00  0.00     0.006 C 
BRANCH   3   4
ATOM      4  C   UNL     1      -2.813  -1.687  -6.498  1.00  0.00     0.053 C 
BRANCH   4   5
ATOM      5  C   UNL     1      -1.710  -0.821  -7.027  1.00  0.00     0.041 C 
ATOM      6  O   UNL     1      -1.796  -0.323  -8.180  1.00  0.00    -0.550 OA
ATOM      7  O   UNL     1      -0.579  -0.583  -6.259  1.00  0.00    -0.550 OA
ENDBRANCH   4   5
ENDBRANCH   3   4
ENDBRANCH   2   3
ENDBRANCH   1   2
BRANCH   1   8
ATOM      8  C   UNL     1      -6.795  -1.923  -4.634  1.00  0.00     0.000 C 
BRANCH   8   9
ATOM      9  C   UNL     1      -5.549  -1.746  -3.757  1.00  0.00    -0.000 C 
BRANCH   9  10
ATOM     10  C   UNL     1      -5.492  -2.819  -2.660  1.00  0.00    -0.000 C 
BRANCH  10  11
ATOM     11  C   UNL     1      -5.183  -4.218  -3.217  1.00  0.00    -0.000 C 
BRANCH  11  12
ATOM     12  C   UNL     1      -3.926  -4.238  -4.099  1.00  0.00    -0.003 C 
ATOM     13  C   UNL     1      -4.208  -4.912  -5.439  1.00  0.00     0.004 C 
ENDBRANCH  11  12
ENDBRANCH  10  11
ENDBRANCH   9  10
ENDBRANCH   8   9
ENDBRANCH   1   8
TORSDOF 9
ENDMDL
MODEL 5
REMARK VINA RESULT:    -3.230      8.674     11.302
REMARK INTER + INTRA:          -5.344
REMARK INTER:                  -4.186
REMARK INTRA:                  -1.158
REMARK UNBOUND:                -0.414
REMARK SMILES CCCCCCCCCCC(=O)[O-]
REMARK SMILES IDX 7 1 8 2 9 3 10 4 11 5 12 6 13 7 6 8 5 9 4 10 3 11 2 12 1 13
REMARK H PARENT
REMARK Flexibility Score: inf
ROOT
ATOM      1  C   UNL     1      -4.442  -5.090  -4.829  1.00  0.00     0.000 C 
ENDROOT
BRANCH   1   2
ATOM      2  C   UNL     1      -4.212  -4.217  -6.083  1.00  0.00     0.000 C 
BRANCH   2   3
ATOM      3  C   UNL     1      -2.975  -3.305  -5.979  1.00  0.00     0.006 C 
BRANCH   3   4
ATOM      4  C   UNL     1      -3.281  -1.814  -6.180  1.00  0.00     0.053 C 
BRANCH   4   5
ATOM      5  C   UNL     1      -2.174  -1.107  -6.902  1.00  0.00     0.041 C 
ATOM      6  O   UNL     1      -2.284  -0.848  -8.129  1.00  0.00    -0.550 OA
ATOM      7  O   UNL     1      -1.013  -0.756  -6.228  1.00  0.00    -0.550 OA
ENDBRANCH   4   5
ENDBRANCH   3   4
ENDBRANCH   2   3
ENDBRANCH   1   2
BRANCH   1   8
ATOM      8  C   UNL     1      -3.867  -4.447  -3.559  1.00  0.00     0.000 C 
BRANCH   8   9
ATOM      9  C   UNL     1      -4.982  -3.865  -2.681  1.00  0.00    -0.000 C 
BRANCH   9  10
ATOM     10  C   UNL     1      -5.174  -2.367  -2.958  1.00  0.00    -0.000 C 
BRANCH  10  11
ATOM     11  C   UNL     1      -6.650  -1.940  -2.903  1.00  0.00    -0.000 C 
BRANCH  11  12
ATOM     12  C   UNL     1      -7.458  -2.447  -4.107  1.00  0.00    -0.003 C 
ATOM     13  C   UNL     1      -6.947  -1.833  -5.408  1.00  0.00     0.004 C 
ENDBRANCH  11  12
ENDBRANCH  10  11
ENDBRANCH   9  10
ENDBRANCH   8   9
ENDBRANCH   1   8
TORSDOF 9
ENDMDL
MODEL 6
REMARK VINA RESULT:    -3.205      6.032      6.772
REMARK INTER + INTRA:          -5.305
REMARK INTER:                  -4.904
REMARK INTRA:                  -0.402
REMARK UNBOUND:                -0.414
REMARK SMILES CCCCCCCCCCC(=O)[O-]
REMARK SMILES IDX 7 1 8 2 9 3 10 4 11 5 12 6 13 7 6 8 5 9 4 10 3 11 2 12 1 13
REMARK H PARENT
REMARK Flexibility Score: inf
ROOT
ATOM      1  C   UNL     1      -0.624   1.803  -9.043  1.00  0.00     0.000 C 
ENDROOT
BRANCH   1   2
ATOM      2  C   UNL     1       0.080   0.476  -9.401  1.00  0.00     0.000 C 
BRANCH   2   3
ATOM      3  C   UNL     1      -0.780  -0.772  -9.121  1.00  0.00     0.006 C 
BRANCH   3   4
ATOM      4  C   UNL     1      -1.977  -0.510  -8.196  1.00  0.00     0.053 C 
BRANCH   4   5
ATOM      5  C   UNL     1      -1.694  -0.926  -6.784  1.00  0.00     0.041 C 
ATOM      6  O   UNL     1      -2.601  -1.451  -6.086  1.00  0.00    -0.550 OA
ATOM      7  O   UNL     1      -0.438  -0.715  -6.231  1.00  0.00    -0.550 OA
ENDBRANCH   4   5
ENDBRANCH   3   4
ENDBRANCH   2   3
ENDBRANCH   1   2
BRANCH   1   8
ATOM      8  C   UNL     1       0.215   3.030  -9.426  1.00  0.00     0.000 C 
BRANCH   8   9
ATOM      9  C   UNL     1       1.714   2.702  -9.409  1.00  0.00    -0.000 C 
BRANCH   9  10
ATOM     10  C   UNL     1       2.557   3.985  -9.447  1.00  0.00    -0.000 C 
BRANCH  10  11
ATOM     11  C   UNL     1       4.066   3.699  -9.492  1.00  0.00    -0.000 C 
BRANCH  11  12
ATOM     12  C   UNL     1       4.914   4.964  -9.291  1.00  0.00    -0.003 C 
ATOM     13  C   UNL     1       4.058   6.222  -9.406  1.00  0.00     0.004 C 
ENDBRANCH  11  12
ENDBRANCH  10  11
ENDBRANCH   9  10
ENDBRANCH   8   9
ENDBRANCH   1   8
TORSDOF 9
ENDMDL
MODEL 7
REMARK VINA RESULT:    -3.144      2.294      3.312
REMARK INTER + INTRA:          -5.213
REMARK INTER:                  -4.113
REMARK INTRA:                  -1.100
REMARK UNBOUND:                -0.414
REMARK SMILES CCCCCCCCCCC(=O)[O-]
REMARK SMILES IDX 7 1 8 2 9 3 10 4 11 5 12 6 13 7 6 8 5 9 4 10 3 11 2 12 1 13
REMARK H PARENT
REMARK Flexibility Score: inf
ROOT
ATOM      1  C   UNL     1       6.425  -1.054  -5.264  1.00  0.00     0.000 C 
ENDROOT
BRANCH   1   2
ATOM      2  C   UNL     1       5.512  -2.034  -6.033  1.00  0.00     0.000 C 
BRANCH   2   3
ATOM      3  C   UNL     1       4.080  -1.506  -6.242  1.00  0.00     0.006 C 
BRANCH   3   4
ATOM      4  C   UNL     1       3.006  -2.604  -6.250  1.00  0.00     0.053 C 
BRANCH   4   5
ATOM      5  C   UNL     1       2.711  -3.109  -4.870  1.00  0.00     0.041 C 
ATOM      6  O   UNL     1       2.926  -4.314  -4.579  1.00  0.00    -0.550 OA
ATOM      7  O   UNL     1       2.179  -2.256  -3.913  1.00  0.00    -0.550 OA
ENDBRANCH   4   5
ENDBRANCH   3   4
ENDBRANCH   2   3
ENDBRANCH   1   2
BRANCH   1   8
ATOM      8  C   UNL     1       5.623  -0.015  -4.467  1.00  0.00     0.000 C 
BRANCH   8   9
ATOM      9  C   UNL     1       6.205   1.392  -4.650  1.00  0.00    -0.000 C 
BRANCH   9  10
ATOM     10  C   UNL     1       7.198   1.427  -5.821  1.00  0.00    -0.000 C 
BRANCH  10  11
ATOM     11  C   UNL     1       6.700   2.284  -6.995  1.00  0.00    -0.000 C 
BRANCH  11  12
ATOM     12  C   UNL     1       6.305   1.443  -8.217  1.00  0.00    -0.003 C 
ATOM     13  C   UNL     1       4.788   1.333  -8.342  1.00  0.00     0.004 C 
ENDBRANCH  11  12
ENDBRANCH  10  11
ENDBRANCH   9  10
ENDBRANCH   8   9
ENDBRANCH   1   8
TORSDOF 9
ENDMDL
MODEL 8
REMARK VINA RESULT:    -3.144      3.036      4.727
REMARK INTER + INTRA:          -5.212
REMARK INTER:                  -4.411
REMARK INTRA:                  -0.801
REMARK UNBOUND:                -0.414
REMARK SMILES CCCCCCCCCCC(=O)[O-]
REMARK SMILES IDX 7 1 8 2 9 3 10 4 11 5 12 6 13 7 6 8 5 9 4 10 3 11 2 12 1 13
REMARK H PARENT
REMARK Flexibility Score: inf
ROOT
ATOM      1  C   UNL     1       5.688  -0.768  -6.392  1.00  0.00     0.000 C 
ENDROOT
BRANCH   1   2
ATOM      2  C   UNL     1       4.660  -0.505  -7.514  1.00  0.00     0.000 C 
BRANCH   2   3
ATOM      3  C   UNL     1       3.467  -1.480  -7.497  1.00  0.00     0.006 C 
BRANCH   3   4
ATOM      4  C   UNL     1       3.450  -2.423  -6.285  1.00  0.00     0.053 C 
BRANCH   4   5
ATOM      5  C   UNL     1       2.183  -2.293  -5.494  1.00  0.00     0.041 C 
ATOM      6  O   UNL     1       1.080  -2.156  -6.085  1.00  0.00    -0.550 OA
ATOM      7  O   UNL     1       2.222  -2.301  -4.106  1.00  0.00    -0.550 OA
ENDBRANCH   4   5
ENDBRANCH   3   4
ENDBRANCH   2   3
ENDBRANCH   1   2
BRANCH   1   8
ATOM      8  C   UNL     1       5.633   0.299  -5.289  1.00  0.00     0.000 C 
BRANCH   8   9
ATOM      9  C   UNL     1       5.296  -0.328  -3.930  1.00  0.00    -0.000 C 
BRANCH   9  10
ATOM     10  C   UNL     1       6.125  -1.598  -3.690  1.00  0.00    -0.000 C 
BRANCH  10  11
ATOM     11  C   UNL     1       5.446  -2.573  -2.716  1.00  0.00    -0.000 C 
BRANCH  11  12
ATOM     12  C   UNL     1       6.452  -3.319  -1.827  1.00  0.00    -0.003 C 
ATOM     13  C   UNL     1       7.830  -2.667  -1.892  1.00  0.00     0.004 C 
ENDBRANCH  11  12
ENDBRANCH  10  11
ENDBRANCH   9  10
ENDBRANCH   8   9
ENDBRANCH   1   8
TORSDOF 9
ENDMDL
MODEL 9
REMARK VINA RESULT:    -3.111      9.796     11.711
REMARK INTER + INTRA:          -5.162
REMARK INTER:                  -3.775
REMARK INTRA:                  -1.387
REMARK UNBOUND:                -0.414
REMARK SMILES CCCCCCCCCCC(=O)[O-]
REMARK SMILES IDX 7 1 8 2 9 3 10 4 11 5 12 6 13 7 6 8 5 9 4 10 3 11 2 12 1 13
REMARK H PARENT
REMARK Flexibility Score: inf
ROOT
ATOM      1  C   UNL     1      -6.704  -5.133  -5.485  1.00  0.00     0.000 C 
ENDROOT
BRANCH   1   2
ATOM      2  C   UNL     1      -5.190  -4.916  -5.697  1.00  0.00     0.000 C 
BRANCH   2   3
ATOM      3  C   UNL     1      -4.311  -5.703  -4.705  1.00  0.00     0.006 C 
BRANCH   3   4
ATOM      4  C   UNL     1      -3.533  -4.817  -3.722  1.00  0.00     0.053 C 
BRANCH   4   5
ATOM      5  C   UNL     1      -4.005  -4.998  -2.311  1.00  0.00     0.041 C 
ATOM      6  O   UNL     1      -4.959  -4.307  -1.870  1.00  0.00    -0.550 OA
ATOM      7  O   UNL     1      -3.378  -5.914  -1.477  1.00  0.00    -0.550 OA
ENDBRANCH   4   5
ENDBRANCH   3   4
ENDBRANCH   2   3
ENDBRANCH   1   2
BRANCH   1   8
ATOM      8  C   UNL     1      -7.314  -4.095  -4.532  1.00  0.00     0.000 C 
BRANCH   8   9
ATOM      9  C   UNL     1      -7.016  -2.667  -5.008  1.00  0.00    -0.000 C 
BRANCH   9  10
ATOM     10  C   UNL     1      -6.390  -1.832  -3.880  1.00  0.00    -0.000 C 
BRANCH  10  11
ATOM     11  C   UNL     1      -4.942  -1.417  -4.186  1.00  0.00    -0.000 C 
BRANCH  11  12
ATOM     12  C   UNL     1      -4.692  -1.205  -5.687  1.00  0.00    -0.003 C 
ATOM     13  C   UNL     1      -3.334  -1.765  -6.101  1.00  0.00     0.004 C 
ENDBRANCH  11  12
ENDBRANCH  10  11
ENDBRANCH   9  10
ENDBRANCH   8   9
ENDBRANCH   1   8
TORSDOF 9
ENDMDL
