MODEL 1
REMARK VINA RESULT:     4.663      0.000      0.000
REMARK INTER + INTRA:           5.713
REMARK INTER:                   5.618
REMARK INTRA:                   0.095
REMARK UNBOUND:                 0.095
REMARK SMILES O=c1c(O)c(-c2ccc(O)cc2O)oc2cc(O)cc(O)c12
REMARK SMILES IDX 5 1 3 2 2 3 1 4 22 5 20 6 19 7 17 8 16 9 15 10 14 11 6 12
REMARK SMILES IDX 8 13 7 14 9 15 11 16 12 17 10 18 13 20 4 22 21 24 18 26
REMARK H PARENT 10 19 13 21 4 23 21 25 18 27
REMARK Flexibility Score: inf
ROOT
ATOM      1  C   UNL     1      11.191  13.889  19.998  1.00  0.00     0.184 A 
ATOM      2  C   UNL     1      11.586  15.234  19.897  1.00  0.00     0.208 A 
ATOM      3  C   UNL     1      12.671  15.681  20.666  1.00  0.00     0.238 A 
ATOM      4  O   UNL     1      13.043  16.883  20.575  1.00  0.00    -0.285 OA
ATOM      5  C   UNL     1      13.327  14.784  21.533  1.00  0.00     0.111 A 
ATOM      6  C   UNL     1      14.426  15.155  22.345  1.00  0.00     0.134 A 
ATOM      7  C   UNL     1      15.019  14.205  23.190  1.00  0.00     0.093 A 
ATOM      8  C   UNL     1      14.534  12.894  23.239  1.00  0.00     0.123 A 
ATOM      9  C   UNL     1      13.450  12.523  22.441  1.00  0.00     0.094 A 
ATOM     10  C   UNL     1      12.847  13.453  21.591  1.00  0.00     0.146 A 
ATOM     11  O   UNL     1      11.820  13.073  20.838  1.00  0.00    -0.451 OA
ENDROOT
BRANCH   1  12
ATOM     12  C   UNL     1      10.064  13.349  19.209  1.00  0.00     0.063 A 
ATOM     13  C   UNL     1       8.757  13.388  17.160  1.00  0.00     0.047 A 
ATOM     14  C   UNL     1       9.818  13.871  17.929  1.00  0.00     0.020 A 
ATOM     15  C   UNL     1       7.922  12.387  17.662  1.00  0.00     0.119 A 
ATOM     16  C   UNL     1       8.144  11.876  18.948  1.00  0.00     0.093 A 
ATOM     17  C   UNL     1       9.204  12.360  19.730  1.00  0.00     0.130 A 
BRANCH  15  18
ATOM     18  O   UNL     1       6.871  11.912  16.881  1.00  0.00    -0.508 OA
ATOM     19  H   UNL     1       6.032  11.527  17.300  1.00  0.00     0.293 HD
ENDBRANCH  15  18
BRANCH  17  20
ATOM     20  O   UNL     1       9.386  11.878  21.026  1.00  0.00    -0.507 OA
ATOM     21  H   UNL     1       9.737  10.944  21.201  1.00  0.00     0.293 HD
ENDBRANCH  17  20
ENDBRANCH   1  12
BRANCH   2  22
ATOM     22  O   UNL     1      10.888  16.110  19.061  1.00  0.00    -0.502 OA
ATOM     23  H   UNL     1      10.122  16.682  19.395  1.00  0.00     0.293 HD
ENDBRANCH   2  22
BRANCH   6  24
ATOM     24  O   UNL     1      14.932  16.455  22.319  1.00  0.00    -0.507 OA
ATOM     25  H   UNL     1      15.768  16.713  22.831  1.00  0.00     0.293 HD
ENDBRANCH   6  24
BRANCH   8  26
ATOM     26  O   UNL     1      15.121  11.949  24.078  1.00  0.00    -0.508 OA
ATOM     27  H   UNL     1      14.806  10.986  24.094  1.00  0.00     0.293 HD
ENDBRANCH   8  26
TORSDOF 6
ENDMDL
MODEL 2
REMARK VINA RESULT:     5.345      1.353      3.137
REMARK INTER + INTRA:           6.533
REMARK INTER:                   5.924
REMARK INTRA:                   0.609
REMARK UNBOUND:                 0.095
REMARK SMILES O=c1c(O)c(-c2ccc(O)cc2O)oc2cc(O)cc(O)c12
REMARK SMILES IDX 5 1 3 2 2 3 1 4 22 5 20 6 19 7 17 8 16 9 15 10 14 11 6 12
REMARK SMILES IDX 8 13 7 14 9 15 11 16 12 17 10 18 13 20 4 22 21 24 18 26
REMARK H PARENT 10 19 13 21 4 23 21 25 18 27
REMARK Flexibility Score: inf
ROOT
ATOM      1  C   UNL     1      10.775  13.707  20.211  1.00  0.00     0.184 A 
ATOM      2  C   UNL     1      10.923  12.990  21.412  1.00  0.00     0.208 A 
ATOM      3  C   UNL     1      11.908  13.396  22.326  1.00  0.00     0.238 A 
ATOM      4  O   UNL     1      12.043  12.769  23.411  1.00  0.00    -0.285 OA
ATOM      5  C   UNL     1      12.737  14.493  22.015  1.00  0.00     0.111 A 
ATOM      6  C   UNL     1      13.756  14.964  22.879  1.00  0.00     0.134 A 
ATOM      7  C   UNL     1      14.545  16.057  22.493  1.00  0.00     0.093 A 
ATOM      8  C   UNL     1      14.336  16.687  21.261  1.00  0.00     0.123 A 
ATOM      9  C   UNL     1      13.334  16.227  20.406  1.00  0.00     0.094 A 
ATOM     10  C   UNL     1      12.535  15.141  20.772  1.00  0.00     0.146 A 
ATOM     11  O   UNL     1      11.584  14.727  19.941  1.00  0.00    -0.451 OA
ENDROOT
BRANCH   1  12
ATOM     12  C   UNL     1       9.751  13.341  19.210  1.00  0.00     0.063 A 
ATOM     13  C   UNL     1       7.931  11.875  18.542  1.00  0.00     0.047 A 
ATOM     14  C   UNL     1       8.905  12.252  19.470  1.00  0.00     0.020 A 
ATOM     15  C   UNL     1       7.798  12.573  17.339  1.00  0.00     0.119 A 
ATOM     16  C   UNL     1       8.653  13.647  17.060  1.00  0.00     0.093 A 
ATOM     17  C   UNL     1       9.639  14.028  17.983  1.00  0.00     0.130 A 
BRANCH  15  18
ATOM     18  O   UNL     1       6.818  12.189  16.426  1.00  0.00    -0.508 OA
ATOM     19  H   UNL     1       6.986  12.217  15.427  1.00  0.00     0.293 HD
ENDBRANCH  15  18
BRANCH  17  20
ATOM     20  O   UNL     1      10.515  15.067  17.673  1.00  0.00    -0.507 OA
ATOM     21  H   UNL     1      11.519  14.929  17.659  1.00  0.00     0.293 HD
ENDBRANCH  17  20
ENDBRANCH   1  12
BRANCH   2  22
ATOM     22  O   UNL     1      10.115  11.880  21.671  1.00  0.00    -0.502 OA
ATOM     23  H   UNL     1       9.105  11.939  21.697  1.00  0.00     0.293 HD
ENDBRANCH   2  22
BRANCH   6  24
ATOM     24  O   UNL     1      13.988  14.355  24.113  1.00  0.00    -0.507 OA
ATOM     25  H   UNL     1      13.594  13.450  24.343  1.00  0.00     0.293 HD
ENDBRANCH   6  24
BRANCH   8  26
ATOM     26  O   UNL     1      15.121  17.772  20.877  1.00  0.00    -0.508 OA
ATOM     27  H   UNL     1      15.417  17.897  19.915  1.00  0.00     0.293 HD
ENDBRANCH   8  26
TORSDOF 6
ENDMDL
