MODEL 1
REMARK VINA RESULT:    -5.216      0.000      0.000
REMARK INTER + INTRA:          -5.839
REMARK INTER:                  -5.674
REMARK INTRA:                  -0.165
REMARK UNBOUND:                -0.165
REMARK SMILES CC1=CC[C@@H](C(C)(C)O)CC1
REMARK SMILES IDX 6 1 7 2 8 3 5 4 1 5 2 6 3 7 11 8 4 9 10 10 9 11
REMARK H PARENT 9 12
REMARK Flexibility Score: inf
ROOT
ATOM      1  C   UNL     1      -1.538  17.772  46.616  1.00  0.00     0.062 C 
ATOM      2  C   UNL     1      -1.695  16.979  45.295  1.00  0.00     0.042 C 
ATOM      3  C   UNL     1      -0.143  18.437  46.657  1.00  0.00     0.042 C 
ENDROOT
BRANCH   1   4
ATOM      4  C   UNL     1      -2.657  18.853  46.797  1.00  0.00     0.024 C 
ATOM      5  C   UNL     1      -5.382  22.028  47.705  1.00  0.00     0.039 C 
ATOM      6  C   UNL     1      -4.168  21.144  47.643  1.00  0.00    -0.077 C 
ATOM      7  C   UNL     1      -3.312  21.245  46.614  1.00  0.00    -0.028 C 
ATOM      8  C   UNL     1      -3.887  20.126  48.727  1.00  0.00     0.031 C 
ATOM      9  C   UNL     1      -2.153  20.291  46.524  1.00  0.00     0.034 C 
ATOM     10  C   UNL     1      -3.447  18.762  48.148  1.00  0.00     0.011 C 
ENDBRANCH   1   4
BRANCH   1  11
ATOM     11  O   UNL     1      -1.634  16.876  47.701  1.00  0.00    -0.390 OA
ATOM     12  H   UNL     1      -0.977  16.143  47.562  1.00  0.00     0.211 HD
ENDBRANCH   1  11
TORSDOF 2
ENDMDL
MODEL 2
REMARK VINA RESULT:    -5.038      7.730      9.005
REMARK INTER + INTRA:          -5.645
REMARK INTER:                  -5.493
REMARK INTRA:                  -0.151
REMARK UNBOUND:                -0.165
REMARK SMILES CC1=CC[C@@H](C(C)(C)O)CC1
REMARK SMILES IDX 6 1 7 2 8 3 5 4 1 5 2 6 3 7 11 8 4 9 10 10 9 11
REMARK H PARENT 9 12
REMARK Flexibility Score: inf
ROOT
ATOM      1  C   UNL     1      -6.216  26.457  49.825  1.00  0.00     0.062 C 
ATOM      2  C   UNL     1      -5.885  27.401  48.643  1.00  0.00     0.042 C 
ATOM      3  C   UNL     1      -6.868  25.163  49.286  1.00  0.00     0.042 C 
ENDROOT
BRANCH   1   4
ATOM      4  C   UNL     1      -4.949  26.107  50.679  1.00  0.00     0.024 C 
ATOM      5  C   UNL     1      -1.853  25.077  53.450  1.00  0.00     0.039 C 
ATOM      6  C   UNL     1      -3.190  25.303  52.801  1.00  0.00    -0.077 C 
ATOM      7  C   UNL     1      -3.694  24.385  51.960  1.00  0.00    -0.028 C 
ATOM      8  C   UNL     1      -3.989  26.558  53.073  1.00  0.00     0.031 C 
ATOM      9  C   UNL     1      -4.989  24.670  51.252  1.00  0.00     0.034 C 
ATOM     10  C   UNL     1      -4.588  27.160  51.782  1.00  0.00     0.011 C 
ENDBRANCH   1   4
BRANCH   1  11
ATOM     11  O   UNL     1      -7.138  27.097  50.677  1.00  0.00    -0.390 OA
ATOM     12  H   UNL     1      -7.486  27.905  50.214  1.00  0.00     0.211 HD
ENDBRANCH   1  11
TORSDOF 2
ENDMDL
MODEL 3
REMARK VINA RESULT:    -4.994      0.506      1.589
REMARK INTER + INTRA:          -5.597
REMARK INTER:                  -5.426
REMARK INTRA:                  -0.170
REMARK UNBOUND:                -0.165
REMARK SMILES CC1=CC[C@@H](C(C)(C)O)CC1
REMARK SMILES IDX 6 1 7 2 8 3 5 4 1 5 2 6 3 7 11 8 4 9 10 10 9 11
REMARK H PARENT 9 12
REMARK Flexibility Score: inf
ROOT
ATOM      1  C   UNL     1      -1.512  17.924  46.777  1.00  0.00     0.062 C 
ATOM      2  C   UNL     1      -2.056  17.443  45.410  1.00  0.00     0.042 C 
ATOM      3  C   UNL     1      -0.015  18.285  46.641  1.00  0.00     0.042 C 
ENDROOT
BRANCH   1   4
ATOM      4  C   UNL     1      -2.313  19.149  47.338  1.00  0.00     0.024 C 
ATOM      5  C   UNL     1      -4.852  22.423  48.416  1.00  0.00     0.039 C 
ATOM      6  C   UNL     1      -4.279  21.200  47.757  1.00  0.00    -0.077 C 
ATOM      7  C   UNL     1      -4.433  19.993  48.325  1.00  0.00    -0.028 C 
ATOM      8  C   UNL     1      -3.518  21.299  46.453  1.00  0.00     0.031 C 
ATOM      9  C   UNL     1      -3.777  18.795  47.697  1.00  0.00     0.034 C 
ATOM     10  C   UNL     1      -2.229  20.446  46.462  1.00  0.00     0.011 C 
ENDBRANCH   1   4
BRANCH   1  11
ATOM     11  O   UNL     1      -1.632  16.875  47.712  1.00  0.00    -0.390 OA
ATOM     12  H   UNL     1      -2.487  16.990  48.206  1.00  0.00     0.211 HD
ENDBRANCH   1  11
TORSDOF 2
ENDMDL
MODEL 4
REMARK VINA RESULT:    -4.885      2.200      3.443
REMARK INTER + INTRA:          -5.478
REMARK INTER:                  -5.320
REMARK INTRA:                  -0.158
REMARK UNBOUND:                -0.165
REMARK SMILES CC1=CC[C@@H](C(C)(C)O)CC1
REMARK SMILES IDX 6 1 7 2 8 3 5 4 1 5 2 6 3 7 11 8 4 9 10 10 9 11
REMARK H PARENT 9 12
REMARK Flexibility Score: inf
ROOT
ATOM      1  C   UNL     1      -3.296  19.841  47.937  1.00  0.00     0.062 C 
ATOM      2  C   UNL     1      -1.795  20.161  47.733  1.00  0.00     0.042 C 
ATOM      3  C   UNL     1      -3.442  18.646  48.906  1.00  0.00     0.042 C 
ENDROOT
BRANCH   1   4
ATOM      4  C   UNL     1      -4.099  21.074  48.475  1.00  0.00     0.024 C 
ATOM      5  C   UNL     1      -6.009  24.751  49.551  1.00  0.00     0.039 C 
ATOM      6  C   UNL     1      -5.201  23.700  48.843  1.00  0.00    -0.077 C 
ATOM      7  C   UNL     1      -5.804  22.825  48.021  1.00  0.00    -0.028 C 
ATOM      8  C   UNL     1      -3.705  23.600  49.040  1.00  0.00     0.031 C 
ATOM      9  C   UNL     1      -4.993  21.727  47.393  1.00  0.00     0.034 C 
ATOM     10  C   UNL     1      -3.237  22.140  49.234  1.00  0.00     0.011 C 
ENDBRANCH   1   4
BRANCH   1  11
ATOM     11  O   UNL     1      -3.858  19.476  46.696  1.00  0.00    -0.390 OA
ATOM     12  H   UNL     1      -3.559  18.555  46.473  1.00  0.00     0.211 HD
ENDBRANCH   1  11
TORSDOF 2
ENDMDL
MODEL 5
REMARK VINA RESULT:    -4.802      2.474      4.937
REMARK INTER + INTRA:          -5.388
REMARK INTER:                  -5.199
REMARK INTRA:                  -0.189
REMARK UNBOUND:                -0.165
REMARK SMILES CC1=CC[C@@H](C(C)(C)O)CC1
REMARK SMILES IDX 6 1 7 2 8 3 5 4 1 5 2 6 3 7 11 8 4 9 10 10 9 11
REMARK H PARENT 9 12
REMARK Flexibility Score: inf
ROOT
ATOM      1  C   UNL     1      -4.740  22.541  47.821  1.00  0.00     0.062 C 
ATOM      2  C   UNL     1      -4.267  22.808  49.271  1.00  0.00     0.042 C 
ATOM      3  C   UNL     1      -4.117  23.590  46.872  1.00  0.00     0.042 C 
ENDROOT
BRANCH   1   4
ATOM      4  C   UNL     1      -4.382  21.094  47.336  1.00  0.00     0.024 C 
ATOM      5  C   UNL     1      -2.911  17.210  46.299  1.00  0.00     0.039 C 
ATOM      6  C   UNL     1      -3.087  18.564  46.928  1.00  0.00    -0.077 C 
ATOM      7  C   UNL     1      -3.942  18.726  47.951  1.00  0.00    -0.028 C 
ATOM      8  C   UNL     1      -2.318  19.765  46.426  1.00  0.00     0.031 C 
ATOM      9  C   UNL     1      -4.172  20.103  48.507  1.00  0.00     0.034 C 
ATOM     10  C   UNL     1      -3.211  21.020  46.297  1.00  0.00     0.011 C 
ENDBRANCH   1   4
BRANCH   1  11
ATOM     11  O   UNL     1      -6.143  22.672  47.767  1.00  0.00    -0.390 OA
ATOM     12  H   UNL     1      -6.411  23.427  48.354  1.00  0.00     0.211 HD
ENDBRANCH   1  11
TORSDOF 2
ENDMDL
MODEL 6
REMARK VINA RESULT:    -4.757      5.133      7.163
REMARK INTER + INTRA:          -5.339
REMARK INTER:                  -5.161
REMARK INTRA:                  -0.178
REMARK UNBOUND:                -0.165
REMARK SMILES CC1=CC[C@@H](C(C)(C)O)CC1
REMARK SMILES IDX 6 1 7 2 8 3 5 4 1 5 2 6 3 7 11 8 4 9 10 10 9 11
REMARK H PARENT 9 12
REMARK Flexibility Score: inf
ROOT
ATOM      1  C   UNL     1      -3.570  25.227  52.071  1.00  0.00     0.062 C 
ATOM      2  C   UNL     1      -2.385  24.646  52.881  1.00  0.00     0.042 C 
ATOM      3  C   UNL     1      -3.127  26.534  51.373  1.00  0.00     0.042 C 
ENDROOT
BRANCH   1   4
ATOM      4  C   UNL     1      -4.123  24.211  51.014  1.00  0.00     0.024 C 
ATOM      5  C   UNL     1      -5.544  21.850  47.738  1.00  0.00     0.039 C 
ATOM      6  C   UNL     1      -4.920  22.938  48.567  1.00  0.00    -0.077 C 
ATOM      7  C   UNL     1      -3.662  22.804  49.017  1.00  0.00    -0.028 C 
ATOM      8  C   UNL     1      -5.688  24.194  48.914  1.00  0.00     0.031 C 
ATOM      9  C   UNL     1      -3.087  23.861  49.918  1.00  0.00     0.034 C 
ATOM     10  C   UNL     1      -5.511  24.595  50.397  1.00  0.00     0.011 C 
ENDBRANCH   1   4
BRANCH   1  11
ATOM     11  O   UNL     1      -4.623  25.533  52.957  1.00  0.00    -0.390 OA
ATOM     12  H   UNL     1      -4.299  25.403  53.888  1.00  0.00     0.211 HD
ENDBRANCH   1  11
TORSDOF 2
ENDMDL
MODEL 7
REMARK VINA RESULT:    -4.756      4.150      6.880
REMARK INTER + INTRA:          -5.338
REMARK INTER:                  -5.144
REMARK INTRA:                  -0.194
REMARK UNBOUND:                -0.165
REMARK SMILES CC1=CC[C@@H](C(C)(C)O)CC1
REMARK SMILES IDX 6 1 7 2 8 3 5 4 1 5 2 6 3 7 11 8 4 9 10 10 9 11
REMARK H PARENT 9 12
REMARK Flexibility Score: inf
ROOT
ATOM      1  C   UNL     1      -5.699  25.470  49.521  1.00  0.00     0.062 C 
ATOM      2  C   UNL     1      -4.561  26.292  50.174  1.00  0.00     0.042 C 
ATOM      3  C   UNL     1      -6.049  26.075  48.142  1.00  0.00     0.042 C 
ENDROOT
BRANCH   1   4
ATOM      4  C   UNL     1      -5.326  23.956  49.367  1.00  0.00     0.024 C 
ATOM      5  C   UNL     1      -4.020  19.979  48.472  1.00  0.00     0.039 C 
ATOM      6  C   UNL     1      -4.196  21.471  48.475  1.00  0.00    -0.077 C 
ATOM      7  C   UNL     1      -3.542  22.225  49.374  1.00  0.00    -0.028 C 
ATOM      8  C   UNL     1      -5.107  22.153  47.480  1.00  0.00     0.031 C 
ATOM      9  C   UNL     1      -3.799  23.705  49.420  1.00  0.00     0.034 C 
ATOM     10  C   UNL     1      -5.989  23.237  48.141  1.00  0.00     0.011 C 
ENDBRANCH   1   4
BRANCH   1  11
ATOM     11  O   UNL     1      -6.844  25.544  50.341  1.00  0.00    -0.390 OA
ATOM     12  H   UNL     1      -7.338  26.377  50.117  1.00  0.00     0.211 HD
ENDBRANCH   1  11
TORSDOF 2
ENDMDL
MODEL 8
REMARK VINA RESULT:    -4.705      2.200      4.559
REMARK INTER + INTRA:          -5.282
REMARK INTER:                  -5.100
REMARK INTRA:                  -0.182
REMARK UNBOUND:                -0.165
REMARK SMILES CC1=CC[C@@H](C(C)(C)O)CC1
REMARK SMILES IDX 6 1 7 2 8 3 5 4 1 5 2 6 3 7 11 8 4 9 10 10 9 11
REMARK H PARENT 9 12
REMARK Flexibility Score: inf
ROOT
ATOM      1  C   UNL     1      -3.924  22.310  48.280  1.00  0.00     0.062 C 
ATOM      2  C   UNL     1      -3.139  23.476  47.631  1.00  0.00     0.042 C 
ATOM      3  C   UNL     1      -5.386  22.329  47.781  1.00  0.00     0.042 C 
ENDROOT
BRANCH   1   4
ATOM      4  C   UNL     1      -3.271  20.916  47.984  1.00  0.00     0.024 C 
ATOM      5  C   UNL     1      -1.976  16.984  46.894  1.00  0.00     0.039 C 
ATOM      6  C   UNL     1      -2.746  18.270  46.999  1.00  0.00    -0.077 C 
ATOM      7  C   UNL     1      -2.369  19.342  46.284  1.00  0.00    -0.028 C 
ATOM      8  C   UNL     1      -3.951  18.388  47.906  1.00  0.00     0.031 C 
ATOM      9  C   UNL     1      -3.097  20.644  46.470  1.00  0.00     0.034 C 
ATOM     10  C   UNL     1      -3.946  19.705  48.715  1.00  0.00     0.011 C 
ENDBRANCH   1   4
BRANCH   1  11
ATOM     11  O   UNL     1      -3.931  22.486  49.679  1.00  0.00    -0.390 OA
ATOM     12  H   UNL     1      -4.308  21.667  50.098  1.00  0.00     0.211 HD
ENDBRANCH   1  11
TORSDOF 2
ENDMDL
MODEL 9
REMARK VINA RESULT:    -4.648      4.359      5.974
REMARK INTER + INTRA:          -5.221
REMARK INTER:                  -5.042
REMARK INTRA:                  -0.179
REMARK UNBOUND:                -0.165
REMARK SMILES CC1=CC[C@@H](C(C)(C)O)CC1
REMARK SMILES IDX 6 1 7 2 8 3 5 4 1 5 2 6 3 7 11 8 4 9 10 10 9 11
REMARK H PARENT 9 12
REMARK Flexibility Score: inf
ROOT
ATOM      1  C   UNL     1      -4.549  23.161  47.294  1.00  0.00     0.062 C 
ATOM      2  C   UNL     1      -3.210  22.832  46.590  1.00  0.00     0.042 C 
ATOM      3  C   UNL     1      -5.328  21.853  47.559  1.00  0.00     0.042 C 
ENDROOT
BRANCH   1   4
ATOM      4  C   UNL     1      -4.341  23.946  48.633  1.00  0.00     0.024 C 
ATOM      5  C   UNL     1      -4.072  25.669  52.543  1.00  0.00     0.039 C 
ATOM      6  C   UNL     1      -4.320  24.730  51.396  1.00  0.00    -0.077 C 
ATOM      7  C   UNL     1      -3.313  23.996  50.897  1.00  0.00    -0.028 C 
ATOM      8  C   UNL     1      -5.694  24.596  50.779  1.00  0.00     0.031 C 
ATOM      9  C   UNL     1      -3.560  23.130  49.693  1.00  0.00     0.034 C 
ATOM     10  C   UNL     1      -5.643  24.579  49.234  1.00  0.00     0.011 C 
ENDBRANCH   1   4
BRANCH   1  11
ATOM     11  O   UNL     1      -5.325  23.974  46.442  1.00  0.00    -0.390 OA
ATOM     12  H   UNL     1      -5.842  24.612  47.001  1.00  0.00     0.211 HD
ENDBRANCH   1  11
TORSDOF 2
ENDMDL
