MODEL 1
REMARK VINA RESULT:    -6.956      0.000      0.000
REMARK INTER + INTRA:          -8.362
REMARK INTER:                  -8.379
REMARK INTRA:                   0.017
REMARK UNBOUND:                 0.017
REMARK SMILES O=c1c(O)c(-c2ccc(O)c(O)c2)oc2cc(O)cc(O)c12
REMARK SMILES IDX 5 1 3 2 2 3 1 4 22 5 20 6 19 7 17 8 16 9 15 10 14 11 6 12
REMARK SMILES IDX 7 13 8 14 9 15 13 16 11 17 10 18 12 20 4 22 21 24 18 26
REMARK H PARENT 10 19 12 21 4 23 21 25 18 27
REMARK Flexibility Score: inf
ROOT
ATOM      1  C   UNL     1      58.122  22.246  29.441  1.00  0.00     0.180 A 
ATOM      2  C   UNL     1      58.063  23.052  28.291  1.00  0.00     0.208 A 
ATOM      3  C   UNL     1      56.941  22.959  27.451  1.00  0.00     0.238 A 
ATOM      4  O   UNL     1      56.918  23.643  26.395  1.00  0.00    -0.285 OA
ATOM      5  C   UNL     1      55.886  22.075  27.781  1.00  0.00     0.111 A 
ATOM      6  C   UNL     1      54.683  21.929  27.024  1.00  0.00     0.134 A 
ATOM      7  C   UNL     1      53.766  20.931  27.372  1.00  0.00     0.093 A 
ATOM      8  C   UNL     1      53.976  20.116  28.487  1.00  0.00     0.123 A 
ATOM      9  C   UNL     1      55.116  20.290  29.266  1.00  0.00     0.094 A 
ATOM     10  C   UNL     1      56.069  21.254  28.924  1.00  0.00     0.146 A 
ATOM     11  O   UNL     1      57.146  21.380  29.688  1.00  0.00    -0.452 OA
ENDROOT
BRANCH   1  12
ATOM     12  C   UNL     1      59.260  22.307  30.387  1.00  0.00     0.025 A 
ATOM     13  C   UNL     1      59.012  22.513  31.754  1.00  0.00     0.016 A 
ATOM     14  C   UNL     1      60.071  22.594  32.661  1.00  0.00     0.051 A 
ATOM     15  C   UNL     1      61.394  22.486  32.213  1.00  0.00     0.157 A 
ATOM     16  C   UNL     1      60.591  22.220  29.939  1.00  0.00     0.062 A 
ATOM     17  C   UNL     1      61.655  22.303  30.849  1.00  0.00     0.158 A 
BRANCH  15  18
ATOM     18  O   UNL     1      62.454  22.565  33.115  1.00  0.00    -0.504 OA
ATOM     19  H   UNL     1      62.415  22.110  34.019  1.00  0.00     0.293 HD
ENDBRANCH  15  18
BRANCH  17  20
ATOM     20  O   UNL     1      62.972  22.210  30.404  1.00  0.00    -0.504 OA
ATOM     21  H   UNL     1      63.468  23.015  30.041  1.00  0.00     0.293 HD
ENDBRANCH  17  20
ENDBRANCH   1  12
BRANCH   2  22
ATOM     22  O   UNL     1      59.125  23.903  27.972  1.00  0.00    -0.502 OA
ATOM     23  H   UNL     1      59.107  24.519  27.169  1.00  0.00     0.293 HD
ENDBRANCH   2  22
BRANCH   6  24
ATOM     24  O   UNL     1      54.334  22.752  25.949  1.00  0.00    -0.507 OA
ATOM     25  H   UNL     1      53.636  22.527  25.256  1.00  0.00     0.293 HD
ENDBRANCH   6  24
BRANCH   8  26
ATOM     26  O   UNL     1      53.050  19.135  28.834  1.00  0.00    -0.508 OA
ATOM     27  H   UNL     1      53.082  18.670  29.735  1.00  0.00     0.293 HD
ENDBRANCH   8  26
TORSDOF 6
ENDMDL
MODEL 2
REMARK VINA RESULT:    -5.620     13.798     15.020
REMARK INTER + INTRA:          -6.752
REMARK INTER:                  -6.694
REMARK INTRA:                  -0.058
REMARK UNBOUND:                 0.017
REMARK SMILES O=c1c(O)c(-c2ccc(O)c(O)c2)oc2cc(O)cc(O)c12
REMARK SMILES IDX 5 1 3 2 2 3 1 4 22 5 20 6 19 7 17 8 16 9 15 10 14 11 6 12
REMARK SMILES IDX 7 13 8 14 9 15 13 16 11 17 10 18 12 20 4 22 21 24 18 26
REMARK H PARENT 10 19 12 21 4 23 21 25 18 27
REMARK Flexibility Score: inf
ROOT
ATOM      1  C   UNL     1      63.411   8.979  31.394  1.00  0.00     0.180 A 
ATOM      2  C   UNL     1      63.984   7.918  32.115  1.00  0.00     0.208 A 
ATOM      3  C   UNL     1      63.575   6.604  31.833  1.00  0.00     0.238 A 
ATOM      4  O   UNL     1      64.052   5.662  32.519  1.00  0.00    -0.285 OA
ATOM      5  C   UNL     1      62.614   6.368  30.821  1.00  0.00     0.111 A 
ATOM      6  C   UNL     1      62.157   5.075  30.423  1.00  0.00     0.134 A 
ATOM      7  C   UNL     1      61.108   4.967  29.503  1.00  0.00     0.093 A 
ATOM      8  C   UNL     1      60.544   6.102  28.917  1.00  0.00     0.123 A 
ATOM      9  C   UNL     1      61.022   7.366  29.254  1.00  0.00     0.094 A 
ATOM     10  C   UNL     1      62.044   7.508  30.197  1.00  0.00     0.146 A 
ATOM     11  O   UNL     1      62.465   8.730  30.497  1.00  0.00    -0.452 OA
ENDROOT
BRANCH   1  12
ATOM     12  C   UNL     1      63.809  10.388  31.618  1.00  0.00     0.025 A 
ATOM     13  C   UNL     1      63.661  10.953  32.896  1.00  0.00     0.016 A 
ATOM     14  C   UNL     1      64.010  12.286  33.125  1.00  0.00     0.051 A 
ATOM     15  C   UNL     1      64.497  13.079  32.078  1.00  0.00     0.157 A 
ATOM     16  C   UNL     1      64.278  11.194  30.565  1.00  0.00     0.062 A 
ATOM     17  C   UNL     1      64.627  12.533  30.794  1.00  0.00     0.158 A 
BRANCH  15  18
ATOM     18  O   UNL     1      64.847  14.408  32.303  1.00  0.00    -0.504 OA
ATOM     19  H   UNL     1      64.156  15.101  32.568  1.00  0.00     0.293 HD
ENDBRANCH  15  18
BRANCH  17  20
ATOM     20  O   UNL     1      65.098  13.328  29.751  1.00  0.00    -0.504 OA
ATOM     21  H   UNL     1      66.081  13.557  29.660  1.00  0.00     0.293 HD
ENDBRANCH  17  20
ENDBRANCH   1  12
BRANCH   2  22
ATOM     22  O   UNL     1      64.916   8.175  33.125  1.00  0.00    -0.502 OA
ATOM     23  H   UNL     1      65.627   7.505  33.392  1.00  0.00     0.293 HD
ENDBRANCH   2  22
BRANCH   6  24
ATOM     24  O   UNL     1      62.715   3.876  30.877  1.00  0.00    -0.507 OA
ATOM     25  H   UNL     1      63.685   3.751  31.123  1.00  0.00     0.293 HD
ENDBRANCH   6  24
BRANCH   8  26
ATOM     26  O   UNL     1      59.510   5.985  27.990  1.00  0.00    -0.508 OA
ATOM     27  H   UNL     1      59.693   5.785  27.014  1.00  0.00     0.293 HD
ENDBRANCH   8  26
TORSDOF 6
ENDMDL
MODEL 3
REMARK VINA RESULT:    -5.087     13.511     14.753
REMARK INTER + INTRA:          -6.111
REMARK INTER:                  -6.091
REMARK INTRA:                  -0.019
REMARK UNBOUND:                 0.017
REMARK SMILES O=c1c(O)c(-c2ccc(O)c(O)c2)oc2cc(O)cc(O)c12
REMARK SMILES IDX 5 1 3 2 2 3 1 4 22 5 20 6 19 7 17 8 16 9 15 10 14 11 6 12
REMARK SMILES IDX 7 13 8 14 9 15 13 16 11 17 10 18 12 20 4 22 21 24 18 26
REMARK H PARENT 10 19 12 21 4 23 21 25 18 27
REMARK Flexibility Score: inf
ROOT
ATOM      1  C   UNL     1      62.964   9.568  31.552  1.00  0.00     0.180 A 
ATOM      2  C   UNL     1      61.751   9.334  30.882  1.00  0.00     0.208 A 
ATOM      3  C   UNL     1      61.248   8.024  30.824  1.00  0.00     0.238 A 
ATOM      4  O   UNL     1      60.190   7.812  30.176  1.00  0.00    -0.285 OA
ATOM      5  C   UNL     1      61.954   6.970  31.451  1.00  0.00     0.111 A 
ATOM      6  C   UNL     1      61.516   5.611  31.490  1.00  0.00     0.134 A 
ATOM      7  C   UNL     1      62.358   4.629  32.024  1.00  0.00     0.093 A 
ATOM      8  C   UNL     1      63.594   4.966  32.581  1.00  0.00     0.123 A 
ATOM      9  C   UNL     1      64.006   6.296  32.601  1.00  0.00     0.094 A 
ATOM     10  C   UNL     1      63.203   7.294  32.042  1.00  0.00     0.146 A 
ATOM     11  O   UNL     1      63.636   8.549  32.074  1.00  0.00    -0.452 OA
ENDROOT
BRANCH   1  12
ATOM     12  C   UNL     1      63.545  10.925  31.677  1.00  0.00     0.025 A 
ATOM     13  C   UNL     1      63.841  11.435  32.952  1.00  0.00     0.016 A 
ATOM     14  C   UNL     1      64.370  12.720  33.094  1.00  0.00     0.051 A 
ATOM     15  C   UNL     1      64.597  13.520  31.966  1.00  0.00     0.157 A 
ATOM     16  C   UNL     1      63.754  11.740  30.549  1.00  0.00     0.062 A 
ATOM     17  C   UNL     1      64.283  13.031  30.692  1.00  0.00     0.158 A 
BRANCH  15  18
ATOM     18  O   UNL     1      65.125  14.802  32.104  1.00  0.00    -0.504 OA
ATOM     19  H   UNL     1      65.881  14.997  32.750  1.00  0.00     0.293 HD
ENDBRANCH  15  18
BRANCH  17  20
ATOM     20  O   UNL     1      64.496  13.833  29.572  1.00  0.00    -0.504 OA
ATOM     21  H   UNL     1      63.810  14.515  29.270  1.00  0.00     0.293 HD
ENDBRANCH  17  20
ENDBRANCH   1  12
BRANCH   2  22
ATOM     22  O   UNL     1      61.081  10.386  30.251  1.00  0.00    -0.502 OA
ATOM     23  H   UNL     1      60.775  10.335  29.288  1.00  0.00     0.293 HD
ENDBRANCH   2  22
BRANCH   6  24
ATOM     24  O   UNL     1      60.261   5.183  31.046  1.00  0.00    -0.507 OA
ATOM     25  H   UNL     1      60.074   4.281  30.634  1.00  0.00     0.293 HD
ENDBRANCH   6  24
BRANCH   8  26
ATOM     26  O   UNL     1      64.420   3.984  33.125  1.00  0.00    -0.508 OA
ATOM     27  H   UNL     1      64.441   3.042  32.751  1.00  0.00     0.293 HD
ENDBRANCH   8  26
TORSDOF 6
ENDMDL
MODEL 4
REMARK VINA RESULT:    -4.124     12.705     14.000
REMARK INTER + INTRA:          -4.950
REMARK INTER:                  -5.035
REMARK INTRA:                   0.085
REMARK UNBOUND:                 0.017
REMARK SMILES O=c1c(O)c(-c2ccc(O)c(O)c2)oc2cc(O)cc(O)c12
REMARK SMILES IDX 5 1 3 2 2 3 1 4 22 5 20 6 19 7 17 8 16 9 15 10 14 11 6 12
REMARK SMILES IDX 7 13 8 14 9 15 13 16 11 17 10 18 12 20 4 22 21 24 18 26
REMARK H PARENT 10 19 12 21 4 23 21 25 18 27
REMARK Flexibility Score: inf
ROOT
ATOM      1  C   UNL     1      63.400  10.120  31.541  1.00  0.00     0.180 A 
ATOM      2  C   UNL     1      64.011   9.054  32.224  1.00  0.00     0.208 A 
ATOM      3  C   UNL     1      63.529   7.750  32.023  1.00  0.00     0.238 A 
ATOM      4  O   UNL     1      64.045   6.808  32.678  1.00  0.00    -0.285 OA
ATOM      5  C   UNL     1      62.455   7.528  31.128  1.00  0.00     0.111 A 
ATOM      6  C   UNL     1      61.912   6.244  30.816  1.00  0.00     0.134 A 
ATOM      7  C   UNL     1      60.766   6.154  30.019  1.00  0.00     0.093 A 
ATOM      8  C   UNL     1      60.181   7.297  29.468  1.00  0.00     0.123 A 
ATOM      9  C   UNL     1      60.737   8.549  29.717  1.00  0.00     0.094 A 
ATOM     10  C   UNL     1      61.860   8.674  30.540  1.00  0.00     0.146 A 
ATOM     11  O   UNL     1      62.353   9.886  30.759  1.00  0.00    -0.452 OA
ENDROOT
BRANCH   1  12
ATOM     12  C   UNL     1      63.868  11.517  31.684  1.00  0.00     0.025 A 
ATOM     13  C   UNL     1      64.091  12.045  32.966  1.00  0.00     0.016 A 
ATOM     14  C   UNL     1      64.512  13.367  33.125  1.00  0.00     0.051 A 
ATOM     15  C   UNL     1      64.703  14.186  32.005  1.00  0.00     0.157 A 
ATOM     16  C   UNL     1      64.041  12.351  30.563  1.00  0.00     0.062 A 
ATOM     17  C   UNL     1      64.463  13.679  30.722  1.00  0.00     0.158 A 
BRANCH  15  18
ATOM     18  O   UNL     1      65.125  15.506  32.159  1.00  0.00    -0.504 OA
ATOM     19  H   UNL     1      65.984  15.734  32.646  1.00  0.00     0.293 HD
ENDBRANCH  15  18
BRANCH  17  20
ATOM     20  O   UNL     1      64.640  14.500  29.610  1.00  0.00    -0.504 OA
ATOM     21  H   UNL     1      65.143  14.183  28.790  1.00  0.00     0.293 HD
ENDBRANCH  17  20
ENDBRANCH   1  12
BRANCH   2  22
ATOM     22  O   UNL     1      65.056   9.299  33.119  1.00  0.00    -0.502 OA
ATOM     23  H   UNL     1      66.008   9.463  32.813  1.00  0.00     0.293 HD
ENDBRANCH   2  22
BRANCH   6  24
ATOM     24  O   UNL     1      62.475   5.036  31.239  1.00  0.00    -0.507 OA
ATOM     25  H   UNL     1      62.865   4.337  30.625  1.00  0.00     0.293 HD
ENDBRANCH   6  24
BRANCH   8  26
ATOM     26  O   UNL     1      59.048   7.197  28.662  1.00  0.00    -0.508 OA
ATOM     27  H   UNL     1      58.148   7.551  28.966  1.00  0.00     0.293 HD
ENDBRANCH   8  26
TORSDOF 6
ENDMDL
