MODEL 1
REMARK VINA RESULT:    -4.288      0.000      0.000
REMARK INTER + INTRA:          -6.047
REMARK INTER:                  -5.291
REMARK INTRA:                  -0.756
REMARK UNBOUND:                -0.756
REMARK SMILES CC(C)=CCC[C@H](C)c1ccc(C)cc1
REMARK SMILES IDX 6 1 7 2 8 3 9 4 13 5 12 6 11 7 14 8 10 9 15 10 5 11 4 12
REMARK SMILES IDX 2 13 1 14 3 15
REMARK H PARENT
REMARK Flexibility Score: inf
ROOT
ATOM      1  C   UNL     1     -10.622  30.355  15.234  1.00  0.00     0.012 C 
ENDROOT
BRANCH   1   2
ATOM      2  C   UNL     1     -10.912  30.913  13.822  1.00  0.00     0.016 C 
ATOM      3  C   UNL     1     -12.110  31.877  13.801  1.00  0.00     0.013 C 
BRANCH   2   4
ATOM      4  C   UNL     1     -11.004  29.813  12.775  1.00  0.00    -0.045 A 
ATOM      5  C   UNL     1     -11.252  26.595   9.900  1.00  0.00     0.044 C 
ATOM      6  C   UNL     1     -11.188  27.696  10.916  1.00  0.00    -0.051 A 
ATOM      7  C   UNL     1     -12.039  28.804  10.812  1.00  0.00     0.004 A 
ATOM      8  C   UNL     1     -10.235  27.655  11.944  1.00  0.00     0.004 A 
ATOM      9  C   UNL     1     -11.958  29.848  11.738  1.00  0.00     0.004 A 
ATOM     10  C   UNL     1     -10.153  28.697  12.871  1.00  0.00     0.004 A 
ENDBRANCH   2   4
ENDBRANCH   1   2
BRANCH   1  11
ATOM     11  C   UNL     1     -11.868  29.886  16.005  1.00  0.00     0.028 C 
BRANCH  11  12
ATOM     12  C   UNL     1     -11.700  28.461  16.471  1.00  0.00    -0.028 C 
ATOM     13  C   UNL     1     -11.167  28.107  17.661  1.00  0.00    -0.080 C 
ATOM     14  C   UNL     1     -11.025  26.640  17.975  1.00  0.00     0.039 C 
ATOM     15  C   UNL     1     -10.731  29.133  18.680  1.00  0.00     0.039 C 
ENDBRANCH  11  12
ENDBRANCH   1  11
TORSDOF 4
ENDMDL
MODEL 2
REMARK VINA RESULT:    -4.175      1.347      2.061
REMARK INTER + INTRA:          -5.908
REMARK INTER:                  -5.223
REMARK INTRA:                  -0.685
REMARK UNBOUND:                -0.756
REMARK SMILES CC(C)=CCC[C@H](C)c1ccc(C)cc1
REMARK SMILES IDX 6 1 7 2 8 3 9 4 13 5 12 6 11 7 14 8 10 9 15 10 5 11 4 12
REMARK SMILES IDX 2 13 1 14 3 15
REMARK H PARENT
REMARK Flexibility Score: inf
ROOT
ATOM      1  C   UNL     1     -11.993  31.891  15.547  1.00  0.00     0.012 C 
ENDROOT
BRANCH   1   2
ATOM      2  C   UNL     1     -11.215  32.107  14.229  1.00  0.00     0.016 C 
ATOM      3  C   UNL     1     -11.719  33.325  13.436  1.00  0.00     0.013 C 
BRANCH   2   4
ATOM      4  C   UNL     1     -11.132  30.837  13.394  1.00  0.00    -0.045 A 
ATOM      5  C   UNL     1     -10.931  27.303  10.913  1.00  0.00     0.044 C 
ATOM      6  C   UNL     1     -10.982  28.546  11.752  1.00  0.00    -0.051 A 
ATOM      7  C   UNL     1     -10.014  28.772  12.740  1.00  0.00     0.004 A 
ATOM      8  C   UNL     1     -12.033  29.461  11.597  1.00  0.00     0.004 A 
ATOM      9  C   UNL     1     -10.079  29.912  13.546  1.00  0.00     0.004 A 
ATOM     10  C   UNL     1     -12.100  30.601  12.401  1.00  0.00     0.004 A 
ENDBRANCH   2   4
ENDBRANCH   1   2
BRANCH   1  11
ATOM     11  C   UNL     1     -11.121  31.904  16.815  1.00  0.00     0.028 C 
BRANCH  11  12
ATOM     12  C   UNL     1     -10.501  30.549  17.046  1.00  0.00    -0.028 C 
ATOM     13  C   UNL     1     -10.662  29.819  18.172  1.00  0.00    -0.080 C 
ATOM     14  C   UNL     1      -9.949  28.496  18.279  1.00  0.00     0.039 C 
ATOM     15  C   UNL     1     -11.546  30.283  19.306  1.00  0.00     0.039 C 
ENDBRANCH  11  12
ENDBRANCH   1  11
TORSDOF 4
ENDMDL
MODEL 3
REMARK VINA RESULT:    -4.165      1.861      6.903
REMARK INTER + INTRA:          -5.895
REMARK INTER:                  -5.304
REMARK INTRA:                  -0.590
REMARK UNBOUND:                -0.756
REMARK SMILES CC(C)=CCC[C@H](C)c1ccc(C)cc1
REMARK SMILES IDX 6 1 7 2 8 3 9 4 13 5 12 6 11 7 14 8 10 9 15 10 5 11 4 12
REMARK SMILES IDX 2 13 1 14 3 15
REMARK H PARENT
REMARK Flexibility Score: inf
ROOT
ATOM      1  C   UNL     1     -10.446  30.592  15.434  1.00  0.00     0.012 C 
ENDROOT
BRANCH   1   2
ATOM      2  C   UNL     1     -10.724  29.511  16.503  1.00  0.00     0.016 C 
ATOM      3  C   UNL     1     -11.757  28.470  16.039  1.00  0.00     0.013 C 
BRANCH   2   4
ATOM      4  C   UNL     1     -11.045  30.114  17.863  1.00  0.00    -0.045 A 
ATOM      5  C   UNL     1     -11.869  31.740  21.783  1.00  0.00     0.044 C 
ATOM      6  C   UNL     1     -11.550  31.178  20.429  1.00  0.00    -0.051 A 
ATOM      7  C   UNL     1     -11.426  32.029  19.322  1.00  0.00     0.004 A 
ATOM      8  C   UNL     1     -11.435  29.793  20.247  1.00  0.00     0.004 A 
ATOM      9  C   UNL     1     -11.163  31.505  18.054  1.00  0.00     0.004 A 
ATOM     10  C   UNL     1     -11.172  29.267  18.979  1.00  0.00     0.004 A 
ENDBRANCH   2   4
ENDBRANCH   1   2
BRANCH   1  11
ATOM     11  C   UNL     1      -9.840  30.057  14.125  1.00  0.00     0.028 C 
BRANCH  11  12
ATOM     12  C   UNL     1     -10.870  30.064  13.023  1.00  0.00    -0.028 C 
ATOM     13  C   UNL     1     -11.087  29.033  12.175  1.00  0.00    -0.080 C 
ATOM     14  C   UNL     1     -12.124  29.198  11.095  1.00  0.00     0.039 C 
ATOM     15  C   UNL     1     -10.335  27.728  12.295  1.00  0.00     0.039 C 
ENDBRANCH  11  12
ENDBRANCH   1  11
TORSDOF 4
ENDMDL
MODEL 4
REMARK VINA RESULT:    -3.967      2.368      3.973
REMARK INTER + INTRA:          -5.650
REMARK INTER:                  -5.212
REMARK INTRA:                  -0.439
REMARK UNBOUND:                -0.756
REMARK SMILES CC(C)=CCC[C@H](C)c1ccc(C)cc1
REMARK SMILES IDX 6 1 7 2 8 3 9 4 13 5 12 6 11 7 14 8 10 9 15 10 5 11 4 12
REMARK SMILES IDX 2 13 1 14 3 15
REMARK H PARENT
REMARK Flexibility Score: inf
ROOT
ATOM      1  C   UNL     1     -11.008  31.610  12.773  1.00  0.00     0.012 C 
ENDROOT
BRANCH   1   2
ATOM      2  C   UNL     1     -11.010  30.202  13.411  1.00  0.00     0.016 C 
ATOM      3  C   UNL     1      -9.858  30.002  14.411  1.00  0.00     0.013 C 
BRANCH   2   4
ATOM      4  C   UNL     1     -11.101  29.097  12.368  1.00  0.00    -0.045 A 
ATOM      5  C   UNL     1     -11.374  26.055   9.309  1.00  0.00     0.044 C 
ATOM      6  C   UNL     1     -11.258  27.127  10.352  1.00  0.00    -0.051 A 
ATOM      7  C   UNL     1     -10.320  27.006  11.387  1.00  0.00     0.004 A 
ATOM      8  C   UNL     1     -12.125  28.228  10.335  1.00  0.00     0.004 A 
ATOM      9  C   UNL     1     -10.233  27.986  12.380  1.00  0.00     0.004 A 
ATOM     10  C   UNL     1     -12.039  29.209  11.326  1.00  0.00     0.004 A 
ENDBRANCH   2   4
ENDBRANCH   1   2
BRANCH   1  11
ATOM     11  C   UNL     1     -11.979  32.609  13.425  1.00  0.00     0.028 C 
BRANCH  11  12
ATOM     12  C   UNL     1     -11.595  32.861  14.862  1.00  0.00    -0.028 C 
ATOM     13  C   UNL     1     -11.376  34.086  15.389  1.00  0.00    -0.080 C 
ATOM     14  C   UNL     1     -10.960  34.182  16.833  1.00  0.00     0.039 C 
ATOM     15  C   UNL     1     -11.553  35.348  14.578  1.00  0.00     0.039 C 
ENDBRANCH  11  12
ENDBRANCH   1  11
TORSDOF 4
ENDMDL
MODEL 5
REMARK VINA RESULT:    -3.919      1.577      2.942
REMARK INTER + INTRA:          -5.591
REMARK INTER:                  -4.611
REMARK INTRA:                  -0.981
REMARK UNBOUND:                -0.756
REMARK SMILES CC(C)=CCC[C@H](C)c1ccc(C)cc1
REMARK SMILES IDX 6 1 7 2 8 3 9 4 13 5 12 6 11 7 14 8 10 9 15 10 5 11 4 12
REMARK SMILES IDX 2 13 1 14 3 15
REMARK H PARENT
REMARK Flexibility Score: inf
ROOT
ATOM      1  C   UNL     1     -11.889  31.486  17.732  1.00  0.00     0.012 C 
ENDROOT
BRANCH   1   2
ATOM      2  C   UNL     1     -10.811  31.825  16.677  1.00  0.00     0.016 C 
ATOM      3  C   UNL     1     -10.642  33.340  16.468  1.00  0.00     0.013 C 
BRANCH   2   4
ATOM      4  C   UNL     1     -11.014  31.058  15.378  1.00  0.00    -0.045 A 
ATOM      5  C   UNL     1     -11.498  28.960  11.630  1.00  0.00     0.044 C 
ATOM      6  C   UNL     1     -11.298  29.685  12.928  1.00  0.00    -0.051 A 
ATOM      7  C   UNL     1     -11.254  28.975  14.135  1.00  0.00     0.004 A 
ATOM      8  C   UNL     1     -11.213  31.084  12.950  1.00  0.00     0.004 A 
ATOM      9  C   UNL     1     -11.101  29.651  15.348  1.00  0.00     0.004 A 
ATOM     10  C   UNL     1     -11.060  31.763  14.162  1.00  0.00     0.004 A 
ENDBRANCH   2   4
ENDBRANCH   1   2
BRANCH   1  11
ATOM     11  C   UNL     1     -11.347  30.823  19.010  1.00  0.00     0.028 C 
BRANCH  11  12
ATOM     12  C   UNL     1     -11.935  29.445  19.183  1.00  0.00    -0.028 C 
ATOM     13  C   UNL     1     -11.267  28.295  18.942  1.00  0.00    -0.080 C 
ATOM     14  C   UNL     1     -11.996  26.989  19.122  1.00  0.00     0.039 C 
ATOM     15  C   UNL     1      -9.817  28.286  18.519  1.00  0.00     0.039 C 
ENDBRANCH  11  12
ENDBRANCH   1  11
TORSDOF 4
ENDMDL
MODEL 6
REMARK VINA RESULT:    -3.883      2.394      5.056
REMARK INTER + INTRA:          -5.547
REMARK INTER:                  -5.040
REMARK INTRA:                  -0.507
REMARK UNBOUND:                -0.756
REMARK SMILES CC(C)=CCC[C@H](C)c1ccc(C)cc1
REMARK SMILES IDX 6 1 7 2 8 3 9 4 13 5 12 6 11 7 14 8 10 9 15 10 5 11 4 12
REMARK SMILES IDX 2 13 1 14 3 15
REMARK H PARENT
REMARK Flexibility Score: inf
ROOT
ATOM      1  C   UNL     1     -10.903  31.598  12.613  1.00  0.00     0.012 C 
ENDROOT
BRANCH   1   2
ATOM      2  C   UNL     1     -11.000  30.213  13.293  1.00  0.00     0.016 C 
ATOM      3  C   UNL     1      -9.900  29.991  14.345  1.00  0.00     0.013 C 
BRANCH   2   4
ATOM      4  C   UNL     1     -11.103  29.080  12.281  1.00  0.00    -0.045 A 
ATOM      5  C   UNL     1     -11.408  25.957   9.309  1.00  0.00     0.044 C 
ATOM      6  C   UNL     1     -11.280  27.056  10.322  1.00  0.00    -0.051 A 
ATOM      7  C   UNL     1     -10.355  26.947  11.369  1.00  0.00     0.004 A 
ATOM      8  C   UNL     1     -12.124  28.173  10.264  1.00  0.00     0.004 A 
ATOM      9  C   UNL     1     -10.258  27.954  12.334  1.00  0.00     0.004 A 
ATOM     10  C   UNL     1     -12.028  29.181  11.227  1.00  0.00     0.004 A 
ENDBRANCH   2   4
ENDBRANCH   1   2
BRANCH   1  11
ATOM     11  C   UNL     1     -12.082  32.541  12.913  1.00  0.00     0.028 C 
BRANCH  11  12
ATOM     12  C   UNL     1     -12.037  33.749  12.011  1.00  0.00    -0.028 C 
ATOM     13  C   UNL     1     -11.924  35.023  12.448  1.00  0.00    -0.080 C 
ATOM     14  C   UNL     1     -11.931  36.134  11.430  1.00  0.00     0.039 C 
ATOM     15  C   UNL     1     -11.773  35.355  13.913  1.00  0.00     0.039 C 
ENDBRANCH  11  12
ENDBRANCH   1  11
TORSDOF 4
ENDMDL
MODEL 7
REMARK VINA RESULT:    -3.681      1.998      4.356
REMARK INTER + INTRA:          -5.297
REMARK INTER:                  -4.699
REMARK INTRA:                  -0.598
REMARK UNBOUND:                -0.756
REMARK SMILES CC(C)=CCC[C@H](C)c1ccc(C)cc1
REMARK SMILES IDX 6 1 7 2 8 3 9 4 13 5 12 6 11 7 14 8 10 9 15 10 5 11 4 12
REMARK SMILES IDX 2 13 1 14 3 15
REMARK H PARENT
REMARK Flexibility Score: inf
ROOT
ATOM      1  C   UNL     1     -10.558  29.789  15.594  1.00  0.00     0.012 C 
ENDROOT
BRANCH   1   2
ATOM      2  C   UNL     1     -11.006  30.064  14.140  1.00  0.00     0.016 C 
ATOM      3  C   UNL     1     -10.075  29.418  13.100  1.00  0.00     0.013 C 
BRANCH   2   4
ATOM      4  C   UNL     1     -11.260  31.543  13.886  1.00  0.00    -0.045 A 
ATOM      5  C   UNL     1     -11.905  35.773  13.273  1.00  0.00     0.044 C 
ATOM      6  C   UNL     1     -11.649  34.311  13.489  1.00  0.00    -0.051 A 
ATOM      7  C   UNL     1     -11.393  33.470  12.398  1.00  0.00     0.004 A 
ATOM      8  C   UNL     1     -11.723  33.763  14.777  1.00  0.00     0.004 A 
ATOM      9  C   UNL     1     -11.188  32.101  12.594  1.00  0.00     0.004 A 
ATOM     10  C   UNL     1     -11.518  32.395  14.975  1.00  0.00     0.004 A 
ENDBRANCH   2   4
ENDBRANCH   1   2
BRANCH   1  11
ATOM     11  C   UNL     1     -11.512  28.890  16.398  1.00  0.00     0.028 C 
BRANCH  11  12
ATOM     12  C   UNL     1     -11.761  29.472  17.768  1.00  0.00    -0.028 C 
ATOM     13  C   UNL     1     -11.061  29.141  18.876  1.00  0.00    -0.080 C 
ATOM     14  C   UNL     1     -11.449  29.776  20.186  1.00  0.00     0.039 C 
ATOM     15  C   UNL     1      -9.900  28.176  18.829  1.00  0.00     0.039 C 
ENDBRANCH  11  12
ENDBRANCH   1  11
TORSDOF 4
ENDMDL
