MODEL 1
REMARK VINA RESULT:    -5.104      0.000      0.000
REMARK INTER + INTRA:          -5.741
REMARK INTER:                  -5.551
REMARK INTRA:                  -0.189
REMARK UNBOUND:                -0.189
REMARK SMILES C=C(C)[C@@H]1CC[C@@H](C)C[C@@H]1O
REMARK SMILES IDX 8 1 7 2 6 3 5 4 4 5 10 6 9 7 11 8 2 10 1 11 3 12
REMARK H PARENT 11 9
REMARK Flexibility Score: inf
ROOT
ATOM      1  C   UNL     1      13.709 -12.385  26.306  1.00  0.00     0.008 C 
ATOM      2  C   UNL     1      13.137 -13.497  27.193  1.00  0.00    -0.012 C 
ATOM      3  C   UNL     1      12.464 -12.898  28.443  1.00  0.00     0.004 C 
ATOM      4  C   UNL     1      11.911 -13.998  29.357  1.00  0.00     0.011 C 
ATOM      5  C   UNL     1      13.026 -14.988  29.756  1.00  0.00     0.043 C 
ATOM      6  C   UNL     1      13.705 -15.607  28.510  1.00  0.00     0.121 C 
ATOM      7  C   UNL     1      14.247 -14.492  27.594  1.00  0.00     0.035 C 
ENDROOT
BRANCH   6   8
ATOM      8  O   UNL     1      12.800 -16.411  27.797  1.00  0.00    -0.392 OA
ATOM      9  H   UNL     1      13.178 -16.534  26.888  1.00  0.00     0.210 HD
ENDBRANCH   6   8
BRANCH   5  10
ATOM     10  C   UNL     1      12.544 -16.045  30.742  1.00  0.00    -0.075 C 
ATOM     11  C   UNL     1      11.286 -16.088  31.215  1.00  0.00     0.008 C 
ATOM     12  C   UNL     1      13.526 -17.071  31.237  1.00  0.00     0.039 C 
ENDBRANCH   5  10
TORSDOF 2
ENDMDL
MODEL 2
REMARK VINA RESULT:    -5.053      1.591      4.132
REMARK INTER + INTRA:          -5.686
REMARK INTER:                  -5.498
REMARK INTRA:                  -0.188
REMARK UNBOUND:                -0.189
REMARK SMILES C=C(C)[C@@H]1CC[C@@H](C)C[C@@H]1O
REMARK SMILES IDX 8 1 7 2 6 3 5 4 4 5 10 6 9 7 11 8 2 10 1 11 3 12
REMARK H PARENT 11 9
REMARK Flexibility Score: inf
ROOT
ATOM      1  C   UNL     1      10.465 -15.581  31.862  1.00  0.00     0.008 C 
ATOM      2  C   UNL     1      11.562 -15.951  30.858  1.00  0.00    -0.012 C 
ATOM      3  C   UNL     1      12.915 -16.126  31.577  1.00  0.00     0.004 C 
ATOM      4  C   UNL     1      14.031 -16.469  30.582  1.00  0.00     0.011 C 
ATOM      5  C   UNL     1      14.130 -15.393  29.481  1.00  0.00     0.043 C 
ATOM      6  C   UNL     1      12.782 -15.213  28.743  1.00  0.00     0.121 C 
ATOM      7  C   UNL     1      11.666 -14.879  29.752  1.00  0.00     0.035 C 
ENDROOT
BRANCH   6   8
ATOM      8  O   UNL     1      12.446 -16.375  28.028  1.00  0.00    -0.392 OA
ATOM      9  H   UNL     1      12.718 -17.147  28.589  1.00  0.00     0.210 HD
ENDBRANCH   6   8
BRANCH   5  10
ATOM     10  C   UNL     1      15.291 -15.641  28.524  1.00  0.00    -0.075 C 
ATOM     11  C   UNL     1      16.148 -16.667  28.661  1.00  0.00     0.008 C 
ATOM     12  C   UNL     1      15.509 -14.678  27.390  1.00  0.00     0.039 C 
ENDBRANCH   5  10
TORSDOF 2
ENDMDL
MODEL 3
REMARK VINA RESULT:    -5.010      1.587      4.066
REMARK INTER + INTRA:          -5.638
REMARK INTER:                  -5.464
REMARK INTRA:                  -0.175
REMARK UNBOUND:                -0.189
REMARK SMILES C=C(C)[C@@H]1CC[C@@H](C)C[C@@H]1O
REMARK SMILES IDX 8 1 7 2 6 3 5 4 4 5 10 6 9 7 11 8 2 10 1 11 3 12
REMARK H PARENT 11 9
REMARK Flexibility Score: inf
ROOT
ATOM      1  C   UNL     1      10.629 -15.614  31.900  1.00  0.00     0.008 C 
ATOM      2  C   UNL     1      11.695 -15.952  30.853  1.00  0.00    -0.012 C 
ATOM      3  C   UNL     1      13.081 -16.083  31.516  1.00  0.00     0.004 C 
ATOM      4  C   UNL     1      14.166 -16.393  30.477  1.00  0.00     0.011 C 
ATOM      5  C   UNL     1      14.187 -15.317  29.372  1.00  0.00     0.043 C 
ATOM      6  C   UNL     1      12.804 -15.182  28.689  1.00  0.00     0.121 C 
ATOM      7  C   UNL     1      11.720 -14.881  29.742  1.00  0.00     0.035 C 
ENDROOT
BRANCH   6   8
ATOM      8  O   UNL     1      12.476 -16.356  27.990  1.00  0.00    -0.392 OA
ATOM      9  H   UNL     1      11.915 -16.084  27.218  1.00  0.00     0.210 HD
ENDBRANCH   6   8
BRANCH   5  10
ATOM     10  C   UNL     1      15.314 -15.531  28.369  1.00  0.00    -0.075 C 
ATOM     11  C   UNL     1      15.490 -14.755  27.285  1.00  0.00     0.008 C 
ATOM     12  C   UNL     1      16.258 -16.683  28.580  1.00  0.00     0.039 C 
ENDBRANCH   5  10
TORSDOF 2
ENDMDL
MODEL 4
REMARK VINA RESULT:    -4.922      6.049      8.269
REMARK INTER + INTRA:          -5.543
REMARK INTER:                  -5.350
REMARK INTRA:                  -0.193
REMARK UNBOUND:                -0.189
REMARK SMILES C=C(C)[C@@H]1CC[C@@H](C)C[C@@H]1O
REMARK SMILES IDX 8 1 7 2 6 3 5 4 4 5 10 6 9 7 11 8 2 10 1 11 3 12
REMARK H PARENT 11 9
REMARK Flexibility Score: inf
ROOT
ATOM      1  C   UNL     1      10.097 -17.476  32.645  1.00  0.00     0.008 C 
ATOM      2  C   UNL     1       9.547 -18.906  32.608  1.00  0.00    -0.012 C 
ATOM      3  C   UNL     1       9.925 -19.663  33.896  1.00  0.00     0.004 C 
ATOM      4  C   UNL     1       9.407 -21.107  33.863  1.00  0.00     0.011 C 
ATOM      5  C   UNL     1       9.936 -21.848  32.617  1.00  0.00     0.043 C 
ATOM      6  C   UNL     1       9.554 -21.104  31.314  1.00  0.00     0.121 C 
ATOM      7  C   UNL     1      10.070 -19.653  31.362  1.00  0.00     0.035 C 
ENDROOT
BRANCH   6   8
ATOM      8  O   UNL     1       8.162 -21.110  31.126  1.00  0.00    -0.392 OA
ATOM      9  H   UNL     1       7.799 -21.849  31.680  1.00  0.00     0.210 HD
ENDBRANCH   6   8
BRANCH   5  10
ATOM     10  C   UNL     1       9.525 -23.316  32.593  1.00  0.00    -0.075 C 
ATOM     11  C   UNL     1      10.073 -24.216  31.758  1.00  0.00     0.008 C 
ATOM     12  C   UNL     1       8.436 -23.776  33.522  1.00  0.00     0.039 C 
ENDBRANCH   5  10
TORSDOF 2
ENDMDL
MODEL 5
REMARK VINA RESULT:    -4.830      9.961     11.012
REMARK INTER + INTRA:          -5.443
REMARK INTER:                  -5.263
REMARK INTRA:                  -0.180
REMARK UNBOUND:                -0.189
REMARK SMILES C=C(C)[C@@H]1CC[C@@H](C)C[C@@H]1O
REMARK SMILES IDX 8 1 7 2 6 3 5 4 4 5 10 6 9 7 11 8 2 10 1 11 3 12
REMARK H PARENT 11 9
REMARK Flexibility Score: inf
ROOT
ATOM      1  C   UNL     1       7.249 -21.192  20.739  1.00  0.00     0.008 C 
ATOM      2  C   UNL     1       6.632 -19.859  21.176  1.00  0.00    -0.012 C 
ATOM      3  C   UNL     1       6.165 -19.053  19.948  1.00  0.00     0.004 C 
ATOM      4  C   UNL     1       5.570 -17.702  20.365  1.00  0.00     0.011 C 
ATOM      5  C   UNL     1       6.586 -16.893  21.198  1.00  0.00     0.043 C 
ATOM      6  C   UNL     1       7.057 -17.686  22.441  1.00  0.00     0.121 C 
ATOM      7  C   UNL     1       7.642 -19.045  22.011  1.00  0.00     0.035 C 
ENDROOT
BRANCH   6   8
ATOM      8  O   UNL     1       5.993 -17.887  23.337  1.00  0.00    -0.392 OA
ATOM      9  H   UNL     1       6.247 -17.446  24.189  1.00  0.00     0.210 HD
ENDBRANCH   6   8
BRANCH   5  10
ATOM     10  C   UNL     1       6.074 -15.502  21.553  1.00  0.00    -0.075 C 
ATOM     11  C   UNL     1       6.884 -14.495  21.925  1.00  0.00     0.008 C 
ATOM     12  C   UNL     1       4.592 -15.247  21.516  1.00  0.00     0.039 C 
ENDBRANCH   5  10
TORSDOF 2
ENDMDL
MODEL 6
REMARK VINA RESULT:    -4.702      1.932      4.508
REMARK INTER + INTRA:          -5.304
REMARK INTER:                  -5.115
REMARK INTRA:                  -0.189
REMARK UNBOUND:                -0.189
REMARK SMILES C=C(C)[C@@H]1CC[C@@H](C)C[C@@H]1O
REMARK SMILES IDX 8 1 7 2 6 3 5 4 4 5 10 6 9 7 11 8 2 10 1 11 3 12
REMARK H PARENT 11 9
REMARK Flexibility Score: inf
ROOT
ATOM      1  C   UNL     1      10.008 -16.629  32.719  1.00  0.00     0.008 C 
ATOM      2  C   UNL     1      11.244 -16.028  32.041  1.00  0.00    -0.012 C 
ATOM      3  C   UNL     1      10.836 -15.231  30.786  1.00  0.00     0.004 C 
ATOM      4  C   UNL     1      12.064 -14.646  30.078  1.00  0.00     0.011 C 
ATOM      5  C   UNL     1      13.068 -15.760  29.717  1.00  0.00     0.043 C 
ATOM      6  C   UNL     1      13.495 -16.563  30.969  1.00  0.00     0.121 C 
ATOM      7  C   UNL     1      12.254 -17.137  31.679  1.00  0.00     0.035 C 
ENDROOT
BRANCH   6   8
ATOM      8  O   UNL     1      14.220 -15.752  31.859  1.00  0.00    -0.392 OA
ATOM      9  H   UNL     1      13.574 -15.412  32.530  1.00  0.00     0.210 HD
ENDBRANCH   6   8
BRANCH   5  10
ATOM     10  C   UNL     1      14.261 -15.238  28.924  1.00  0.00    -0.075 C 
ATOM     11  C   UNL     1      15.244 -16.033  28.468  1.00  0.00     0.008 C 
ATOM     12  C   UNL     1      14.363 -13.760  28.664  1.00  0.00     0.039 C 
ENDBRANCH   5  10
TORSDOF 2
ENDMDL
MODEL 7
REMARK VINA RESULT:    -4.689     10.135     10.804
REMARK INTER + INTRA:          -5.290
REMARK INTER:                  -5.222
REMARK INTRA:                  -0.068
REMARK UNBOUND:                -0.189
REMARK SMILES C=C(C)[C@@H]1CC[C@@H](C)C[C@@H]1O
REMARK SMILES IDX 8 1 7 2 6 3 5 4 4 5 10 6 9 7 11 8 2 10 1 11 3 12
REMARK H PARENT 11 9
REMARK Flexibility Score: inf
ROOT
ATOM      1  C   UNL     1       4.727 -15.754  22.293  1.00  0.00     0.008 C 
ATOM      2  C   UNL     1       5.811 -16.823  22.118  1.00  0.00    -0.012 C 
ATOM      3  C   UNL     1       6.041 -17.118  20.622  1.00  0.00     0.004 C 
ATOM      4  C   UNL     1       7.104 -18.207  20.429  1.00  0.00     0.011 C 
ATOM      5  C   UNL     1       6.711 -19.492  21.188  1.00  0.00     0.043 C 
ATOM      6  C   UNL     1       6.487 -19.214  22.694  1.00  0.00     0.121 C 
ATOM      7  C   UNL     1       5.426 -18.111  22.876  1.00  0.00     0.035 C 
ENDROOT
BRANCH   6   8
ATOM      8  O   UNL     1       7.687 -18.828  23.314  1.00  0.00    -0.392 OA
ATOM      9  H   UNL     1       7.629 -19.121  24.260  1.00  0.00     0.210 HD
ENDBRANCH   6   8
BRANCH   5  10
ATOM     10  C   UNL     1       7.690 -20.636  20.946  1.00  0.00    -0.075 C 
ATOM     11  C   UNL     1       9.013 -20.449  20.796  1.00  0.00     0.008 C 
ATOM     12  C   UNL     1       7.151 -22.036  20.837  1.00  0.00     0.039 C 
ENDBRANCH   5  10
TORSDOF 2
ENDMDL
MODEL 8
REMARK VINA RESULT:    -4.656      1.653      4.063
REMARK INTER + INTRA:          -5.253
REMARK INTER:                  -5.062
REMARK INTRA:                  -0.191
REMARK UNBOUND:                -0.189
REMARK SMILES C=C(C)[C@@H]1CC[C@@H](C)C[C@@H]1O
REMARK SMILES IDX 8 1 7 2 6 3 5 4 4 5 10 6 9 7 11 8 2 10 1 11 3 12
REMARK H PARENT 11 9
REMARK Flexibility Score: inf
ROOT
ATOM      1  C   UNL     1      13.626 -16.053  32.001  1.00  0.00     0.008 C 
ATOM      2  C   UNL     1      13.445 -15.308  30.674  1.00  0.00    -0.012 C 
ATOM      3  C   UNL     1      11.951 -15.222  30.303  1.00  0.00     0.004 C 
ATOM      4  C   UNL     1      11.753 -14.505  28.962  1.00  0.00     0.011 C 
ATOM      5  C   UNL     1      12.555 -15.205  27.845  1.00  0.00     0.043 C 
ATOM      6  C   UNL     1      14.060 -15.289  28.198  1.00  0.00     0.121 C 
ATOM      7  C   UNL     1      14.247 -16.002  29.552  1.00  0.00     0.035 C 
ENDROOT
BRANCH   6   8
ATOM      8  O   UNL     1      14.632 -14.007  28.252  1.00  0.00    -0.392 OA
ATOM      9  H   UNL     1      13.904 -13.359  28.068  1.00  0.00     0.210 HD
ENDBRANCH   6   8
BRANCH   5  10
ATOM     10  C   UNL     1      12.312 -14.584  26.474  1.00  0.00    -0.075 C 
ATOM     11  C   UNL     1      11.576 -13.474  26.292  1.00  0.00     0.008 C 
ATOM     12  C   UNL     1      12.895 -15.259  25.263  1.00  0.00     0.039 C 
ENDBRANCH   5  10
TORSDOF 2
ENDMDL
MODEL 9
REMARK VINA RESULT:    -4.569      4.996      7.988
REMARK INTER + INTRA:          -5.159
REMARK INTER:                  -5.085
REMARK INTRA:                  -0.075
REMARK UNBOUND:                -0.189
REMARK SMILES C=C(C)[C@@H]1CC[C@@H](C)C[C@@H]1O
REMARK SMILES IDX 8 1 7 2 6 3 5 4 4 5 10 6 9 7 11 8 2 10 1 11 3 12
REMARK H PARENT 11 9
REMARK Flexibility Score: inf
ROOT
ATOM      1  C   UNL     1       8.031 -23.255  32.372  1.00  0.00     0.008 C 
ATOM      2  C   UNL     1       8.876 -22.023  32.033  1.00  0.00    -0.012 C 
ATOM      3  C   UNL     1       9.823 -21.680  33.200  1.00  0.00     0.004 C 
ATOM      4  C   UNL     1      10.657 -20.431  32.889  1.00  0.00     0.011 C 
ATOM      5  C   UNL     1       9.743 -19.234  32.554  1.00  0.00     0.043 C 
ATOM      6  C   UNL     1       8.793 -19.560  31.376  1.00  0.00     0.121 C 
ATOM      7  C   UNL     1       7.968 -20.822  31.695  1.00  0.00     0.035 C 
ENDROOT
BRANCH   6   8
ATOM      8  O   UNL     1       9.519 -19.752  30.189  1.00  0.00    -0.392 OA
ATOM      9  H   UNL     1      10.068 -18.937  30.051  1.00  0.00     0.210 HD
ENDBRANCH   6   8
BRANCH   5  10
ATOM     10  C   UNL     1      10.526 -17.945  32.333  1.00  0.00    -0.075 C 
ATOM     11  C   UNL     1      11.743 -17.915  31.762  1.00  0.00     0.008 C 
ATOM     12  C   UNL     1       9.926 -16.648  32.801  1.00  0.00     0.039 C 
ENDBRANCH   5  10
TORSDOF 2
ENDMDL
