MODEL 1
REMARK VINA RESULT:    -3.306      0.000      0.000
REMARK INTER + INTRA:          -3.995
REMARK INTER:                  -3.885
REMARK INTRA:                  -0.110
REMARK UNBOUND:                -0.110
REMARK SMILES O=C([O-])CCC(=O)[O-]
REMARK SMILES IDX 4 1 2 2 1 3 3 4 5 5 6 6 7 7 8 8
REMARK H PARENT
REMARK Flexibility Score: inf
ROOT
ATOM      1  C   UNL     1       3.438  -3.141 -24.381  1.00  0.00     0.059 C 
ENDROOT
BRANCH   1   2
ATOM      2  C   UNL     1       4.893  -2.827 -24.199  1.00  0.00     0.042 C 
ATOM      3  O   UNL     1       5.268  -2.082 -23.257  1.00  0.00    -0.550 OA
ATOM      4  O   UNL     1       5.828  -3.327 -25.096  1.00  0.00    -0.550 OA
ENDBRANCH   1   2
BRANCH   1   5
ATOM      5  C   UNL     1       2.905  -4.022 -23.247  1.00  0.00     0.059 C 
BRANCH   5   6
ATOM      6  C   UNL     1       1.876  -3.305 -22.427  1.00  0.00     0.042 C 
ATOM      7  O   UNL     1       0.653  -3.441 -22.686  1.00  0.00    -0.550 OA
ATOM      8  O   UNL     1       2.269  -2.518 -21.351  1.00  0.00    -0.550 OA
ENDBRANCH   5   6
ENDBRANCH   1   5
TORSDOF 3
ENDMDL
MODEL 2
REMARK VINA RESULT:    -3.301      1.435      1.851
REMARK INTER + INTRA:          -3.990
REMARK INTER:                  -3.953
REMARK INTRA:                  -0.036
REMARK UNBOUND:                -0.110
REMARK SMILES O=C([O-])CCC(=O)[O-]
REMARK SMILES IDX 4 1 2 2 1 3 3 4 5 5 6 6 7 7 8 8
REMARK H PARENT
REMARK Flexibility Score: inf
ROOT
ATOM      1  C   UNL     1       4.903  -2.253 -23.515  1.00  0.00     0.059 C 
ENDROOT
BRANCH   1   2
ATOM      2  C   UNL     1       5.491  -2.695 -24.820  1.00  0.00     0.042 C 
ATOM      3  O   UNL     1       6.515  -3.427 -24.840  1.00  0.00    -0.550 OA
ATOM      4  O   UNL     1       4.930  -2.265 -26.016  1.00  0.00    -0.550 OA
ENDBRANCH   1   2
BRANCH   1   5
ATOM      5  C   UNL     1       3.579  -2.966 -23.222  1.00  0.00     0.059 C 
BRANCH   5   6
ATOM      6  C   UNL     1       2.747  -2.203 -22.237  1.00  0.00     0.042 C 
ATOM      7  O   UNL     1       2.689  -0.948 -22.294  1.00  0.00    -0.550 OA
ATOM      8  O   UNL     1       2.004  -2.884 -21.280  1.00  0.00    -0.550 OA
ENDBRANCH   5   6
ENDBRANCH   1   5
TORSDOF 3
ENDMDL
MODEL 3
REMARK VINA RESULT:    -3.296      2.722      3.994
REMARK INTER + INTRA:          -3.984
REMARK INTER:                  -3.949
REMARK INTRA:                  -0.035
REMARK UNBOUND:                -0.110
REMARK SMILES O=C([O-])CCC(=O)[O-]
REMARK SMILES IDX 4 1 2 2 1 3 3 4 5 5 6 6 7 7 8 8
REMARK H PARENT
REMARK Flexibility Score: inf
ROOT
ATOM      1  C   UNL     1       4.073  -0.768 -22.493  1.00  0.00     0.059 C 
ENDROOT
BRANCH   1   2
ATOM      2  C   UNL     1       4.517   0.542 -21.915  1.00  0.00     0.042 C 
ATOM      3  O   UNL     1       3.685   1.305 -21.358  1.00  0.00    -0.550 OA
ATOM      4  O   UNL     1       5.844   0.936 -22.029  1.00  0.00    -0.550 OA
ENDBRANCH   1   2
BRANCH   1   5
ATOM      5  C   UNL     1       5.220  -1.486 -23.211  1.00  0.00     0.059 C 
BRANCH   5   6
ATOM      6  C   UNL     1       4.767  -2.776 -23.823  1.00  0.00     0.042 C 
ATOM      7  O   UNL     1       3.820  -3.424 -23.307  1.00  0.00    -0.550 OA
ATOM      8  O   UNL     1       5.366  -3.242 -24.988  1.00  0.00    -0.550 OA
ENDBRANCH   5   6
ENDBRANCH   1   5
TORSDOF 3
ENDMDL
MODEL 4
REMARK VINA RESULT:    -3.296      3.882      4.876
REMARK INTER + INTRA:          -3.983
REMARK INTER:                  -3.935
REMARK INTRA:                  -0.048
REMARK UNBOUND:                -0.110
REMARK SMILES O=C([O-])CCC(=O)[O-]
REMARK SMILES IDX 4 1 2 2 1 3 3 4 5 5 6 6 7 7 8 8
REMARK H PARENT
REMARK Flexibility Score: inf
ROOT
ATOM      1  C   UNL     1       5.476   0.848 -22.111  1.00  0.00     0.059 C 
ENDROOT
BRANCH   1   2
ATOM      2  C   UNL     1       5.236   2.250 -22.584  1.00  0.00     0.042 C 
ATOM      3  O   UNL     1       5.866   2.701 -23.576  1.00  0.00    -0.550 OA
ATOM      4  O   UNL     1       4.346   3.070 -21.903  1.00  0.00    -0.550 OA
ENDBRANCH   1   2
BRANCH   1   5
ATOM      5  C   UNL     1       4.181   0.028 -22.099  1.00  0.00     0.059 C 
BRANCH   5   6
ATOM      6  C   UNL     1       4.372  -1.314 -22.737  1.00  0.00     0.042 C 
ATOM      7  O   UNL     1       5.494  -1.640 -23.204  1.00  0.00    -0.550 OA
ATOM      8  O   UNL     1       3.319  -2.220 -22.780  1.00  0.00    -0.550 OA
ENDBRANCH   5   6
ENDBRANCH   1   5
TORSDOF 3
ENDMDL
MODEL 5
REMARK VINA RESULT:    -3.289      0.572      3.817
REMARK INTER + INTRA:          -3.976
REMARK INTER:                  -3.858
REMARK INTRA:                  -0.118
REMARK UNBOUND:                -0.110
REMARK SMILES O=C([O-])CCC(=O)[O-]
REMARK SMILES IDX 4 1 2 2 1 3 3 4 5 5 6 6 7 7 8 8
REMARK H PARENT
REMARK Flexibility Score: inf
ROOT
ATOM      1  C   UNL     1       2.887  -3.984 -23.423  1.00  0.00     0.059 C 
ENDROOT
BRANCH   1   2
ATOM      2  C   UNL     1       1.823  -3.443 -22.517  1.00  0.00     0.042 C 
ATOM      3  O   UNL     1       2.137  -2.838 -21.459  1.00  0.00    -0.550 OA
ATOM      4  O   UNL     1       0.483  -3.644 -22.824  1.00  0.00    -0.550 OA
ENDBRANCH   1   2
BRANCH   1   5
ATOM      5  C   UNL     1       3.521  -2.878 -24.272  1.00  0.00     0.059 C 
BRANCH   5   6
ATOM      6  C   UNL     1       4.857  -2.465 -23.735  1.00  0.00     0.042 C 
ATOM      7  O   UNL     1       5.892  -3.109 -24.047  1.00  0.00    -0.550 OA
ATOM      8  O   UNL     1       4.963  -1.345 -22.920  1.00  0.00    -0.550 OA
ENDBRANCH   5   6
ENDBRANCH   1   5
TORSDOF 3
ENDMDL
MODEL 6
REMARK VINA RESULT:    -3.285      0.215      1.158
REMARK INTER + INTRA:          -3.970
REMARK INTER:                  -3.850
REMARK INTRA:                  -0.121
REMARK UNBOUND:                -0.110
REMARK SMILES O=C([O-])CCC(=O)[O-]
REMARK SMILES IDX 4 1 2 2 1 3 3 4 5 5 6 6 7 7 8 8
REMARK H PARENT
REMARK Flexibility Score: inf
ROOT
ATOM      1  C   UNL     1       3.506  -2.900 -24.493  1.00  0.00     0.059 C 
ENDROOT
BRANCH   1   2
ATOM      2  C   UNL     1       4.980  -2.749 -24.266  1.00  0.00     0.042 C 
ATOM      3  O   UNL     1       5.406  -2.061 -23.302  1.00  0.00    -0.550 OA
ATOM      4  O   UNL     1       5.881  -3.336 -25.144  1.00  0.00    -0.550 OA
ENDBRANCH   1   2
BRANCH   1   5
ATOM      5  C   UNL     1       2.895  -3.947 -23.556  1.00  0.00     0.059 C 
BRANCH   5   6
ATOM      6  C   UNL     1       1.965  -3.322 -22.561  1.00  0.00     0.042 C 
ATOM      7  O   UNL     1       2.417  -2.587 -21.646  1.00  0.00    -0.550 OA
ATOM      8  O   UNL     1       0.594  -3.521 -22.670  1.00  0.00    -0.550 OA
ENDBRANCH   5   6
ENDBRANCH   1   5
TORSDOF 3
ENDMDL
MODEL 7
REMARK VINA RESULT:    -3.281      3.844      5.073
REMARK INTER + INTRA:          -3.966
REMARK INTER:                  -3.923
REMARK INTRA:                  -0.043
REMARK UNBOUND:                -0.110
REMARK SMILES O=C([O-])CCC(=O)[O-]
REMARK SMILES IDX 4 1 2 2 1 3 3 4 5 5 6 6 7 7 8 8
REMARK H PARENT
REMARK Flexibility Score: inf
ROOT
ATOM      1  C   UNL     1       4.278  -0.031 -22.156  1.00  0.00     0.059 C 
ENDROOT
BRANCH   1   2
ATOM      2  C   UNL     1       4.438  -1.346 -22.857  1.00  0.00     0.042 C 
ATOM      3  O   UNL     1       5.578  -1.734 -23.225  1.00  0.00    -0.550 OA
ATOM      4  O   UNL     1       3.322  -2.124 -23.137  1.00  0.00    -0.550 OA
ENDBRANCH   1   2
BRANCH   1   5
ATOM      5  C   UNL     1       5.562   0.803 -22.222  1.00  0.00     0.059 C 
BRANCH   5   6
ATOM      6  C   UNL     1       5.279   2.223 -22.606  1.00  0.00     0.042 C 
ATOM      7  O   UNL     1       5.901   2.757 -23.561  1.00  0.00    -0.550 OA
ATOM      8  O   UNL     1       4.301   2.945 -21.933  1.00  0.00    -0.550 OA
ENDBRANCH   5   6
ENDBRANCH   1   5
TORSDOF 3
ENDMDL
MODEL 8
REMARK VINA RESULT:    -3.220      4.715      5.615
REMARK INTER + INTRA:          -3.894
REMARK INTER:                  -3.776
REMARK INTRA:                  -0.119
REMARK UNBOUND:                -0.110
REMARK SMILES O=C([O-])CCC(=O)[O-]
REMARK SMILES IDX 4 1 2 2 1 3 3 4 5 5 6 6 7 7 8 8
REMARK H PARENT
REMARK Flexibility Score: inf
ROOT
ATOM      1  C   UNL     1       5.497   2.014 -23.175  1.00  0.00     0.059 C 
ENDROOT
BRANCH   1   2
ATOM      2  C   UNL     1       5.043   3.292 -22.536  1.00  0.00     0.042 C 
ATOM      3  O   UNL     1       4.044   3.298 -21.770  1.00  0.00    -0.550 OA
ATOM      4  O   UNL     1       5.701   4.482 -22.819  1.00  0.00    -0.550 OA
ENDBRANCH   1   2
BRANCH   1   5
ATOM      5  C   UNL     1       5.600   0.878 -22.153  1.00  0.00     0.059 C 
BRANCH   5   6
ATOM      6  C   UNL     1       4.667  -0.247 -22.481  1.00  0.00     0.042 C 
ATOM      7  O   UNL     1       3.428  -0.114 -22.307  1.00  0.00    -0.550 OA
ATOM      8  O   UNL     1       5.163  -1.430 -23.015  1.00  0.00    -0.550 OA
ENDBRANCH   5   6
ENDBRANCH   1   5
TORSDOF 3
ENDMDL
MODEL 9
REMARK VINA RESULT:    -3.198      1.680      3.925
REMARK INTER + INTRA:          -3.868
REMARK INTER:                  -3.747
REMARK INTRA:                  -0.121
REMARK UNBOUND:                -0.110
REMARK SMILES O=C([O-])CCC(=O)[O-]
REMARK SMILES IDX 4 1 2 2 1 3 3 4 5 5 6 6 7 7 8 8
REMARK H PARENT
REMARK Flexibility Score: inf
ROOT
ATOM      1  C   UNL     1       1.510  -2.454 -23.269  1.00  0.00     0.059 C 
ENDROOT
BRANCH   1   2
ATOM      2  C   UNL     1       0.664  -3.689 -23.214  1.00  0.00     0.042 C 
ATOM      3  O   UNL     1      -0.590  -3.597 -23.148  1.00  0.00    -0.550 OA
ATOM      4  O   UNL     1       1.263  -4.942 -23.195  1.00  0.00    -0.550 OA
ENDBRANCH   1   2
BRANCH   1   5
ATOM      5  C   UNL     1       2.832  -2.642 -22.516  1.00  0.00     0.059 C 
BRANCH   5   6
ATOM      6  C   UNL     1       4.002  -2.660 -23.450  1.00  0.00     0.042 C 
ATOM      7  O   UNL     1       3.957  -3.337 -24.510  1.00  0.00    -0.550 OA
ATOM      8  O   UNL     1       5.130  -1.898 -23.168  1.00  0.00    -0.550 OA
ENDBRANCH   5   6
ENDBRANCH   1   5
TORSDOF 3
ENDMDL
