MODEL 1
REMARK VINA RESULT:     9.813      0.000      0.000
REMARK INTER + INTRA:          12.064
REMARK INTER:                  12.108
REMARK INTRA:                  -0.043
REMARK UNBOUND:                -0.043
REMARK SMILES O=c1c(O)c(-c2cc(O)c(O)c(O)c2)oc2cc(O)cc(O)c12
REMARK SMILES IDX 5 1 3 2 2 3 1 4 23 5 21 6 20 7 18 8 17 9 16 10 15 11 6 12
REMARK SMILES IDX 7 13 8 14 14 15 10 16 12 17 9 18 11 20 13 22 4 24 22 26
REMARK SMILES IDX 19 28
REMARK H PARENT 9 19 11 21 13 23 4 25 22 27 19 29
REMARK Flexibility Score: inf
ROOT
ATOM      1  C   UNL     1     134.366 159.772 172.806  1.00  0.00     0.180 A 
ATOM      2  C   UNL     1     133.137 160.410 173.065  1.00  0.00     0.208 A 
ATOM      3  C   UNL     1     133.094 161.433 174.025  1.00  0.00     0.238 A 
ATOM      4  O   UNL     1     131.998 162.005 174.274  1.00  0.00    -0.285 OA
ATOM      5  C   UNL     1     134.277 161.814 174.692  1.00  0.00     0.111 A 
ATOM      6  C   UNL     1     134.319 162.838 175.669  1.00  0.00     0.134 A 
ATOM      7  C   UNL     1     135.538 163.164 176.282  1.00  0.00     0.093 A 
ATOM      8  C   UNL     1     136.712 162.491 175.936  1.00  0.00     0.123 A 
ATOM      9  C   UNL     1     136.676 161.478 174.973  1.00  0.00     0.094 A 
ATOM     10  C   UNL     1     135.471 161.137 174.352  1.00  0.00     0.146 A 
ATOM     11  O   UNL     1     135.463 160.168 173.443  1.00  0.00    -0.452 OA
ENDROOT
BRANCH   1  12
ATOM     12  C   UNL     1     134.488 158.672 171.823  1.00  0.00     0.029 A 
ATOM     13  C   UNL     1     135.412 158.735 170.767  1.00  0.00     0.062 A 
ATOM     14  C   UNL     1     135.504 157.701 169.828  1.00  0.00     0.162 A 
ATOM     15  C   UNL     1     133.627 157.571 171.909  1.00  0.00     0.062 A 
ATOM     16  C   UNL     1     134.648 156.579 169.939  1.00  0.00     0.200 A 
ATOM     17  C   UNL     1     133.710 156.527 170.979  1.00  0.00     0.162 A 
BRANCH  14  18
ATOM     18  O   UNL     1     136.447 157.832 168.807  1.00  0.00    -0.504 OA
ATOM     19  H   UNL     1     136.495 157.227 168.000  1.00  0.00     0.293 HD
ENDBRANCH  14  18
BRANCH  16  20
ATOM     20  O   UNL     1     134.695 155.508 169.043  1.00  0.00    -0.502 OA
ATOM     21  H   UNL     1     134.283 155.523 168.121  1.00  0.00     0.293 HD
ENDBRANCH  16  20
BRANCH  17  22
ATOM     22  O   UNL     1     132.859 155.427 171.083  1.00  0.00    -0.504 OA
ATOM     23  H   UNL     1     133.073 154.646 171.693  1.00  0.00     0.293 HD
ENDBRANCH  17  22
ENDBRANCH   1  12
BRANCH   2  24
ATOM     24  O   UNL     1     131.990 160.048 172.357  1.00  0.00    -0.502 OA
ATOM     25  H   UNL     1     131.203 160.675 172.239  1.00  0.00     0.293 HD
ENDBRANCH   2  24
BRANCH   6  26
ATOM     26  O   UNL     1     133.164 163.531 176.035  1.00  0.00    -0.507 OA
ATOM     27  H   UNL     1     133.143 164.542 176.086  1.00  0.00     0.293 HD
ENDBRANCH   6  26
BRANCH   8  28
ATOM     28  O   UNL     1     137.910 162.835 176.559  1.00  0.00    -0.508 OA
ATOM     29  H   UNL     1     137.951 163.049 177.548  1.00  0.00     0.293 HD
ENDBRANCH   8  28
TORSDOF 7
ENDMDL
MODEL 2
REMARK VINA RESULT:    10.103      3.664      7.804
REMARK INTER + INTRA:          12.422
REMARK INTER:                  11.950
REMARK INTRA:                   0.472
REMARK UNBOUND:                -0.043
REMARK SMILES O=c1c(O)c(-c2cc(O)c(O)c(O)c2)oc2cc(O)cc(O)c12
REMARK SMILES IDX 5 1 3 2 2 3 1 4 23 5 21 6 20 7 18 8 17 9 16 10 15 11 6 12
REMARK SMILES IDX 7 13 8 14 14 15 10 16 12 17 9 18 11 20 13 22 4 24 22 26
REMARK SMILES IDX 19 28
REMARK H PARENT 9 19 11 21 13 23 4 25 22 27 19 29
REMARK Flexibility Score: inf
ROOT
ATOM      1  C   UNL     1     132.327 155.626 171.548  1.00  0.00     0.180 A 
ATOM      2  C   UNL     1     131.885 154.742 170.545  1.00  0.00     0.208 A 
ATOM      3  C   UNL     1     130.906 153.788 170.864  1.00  0.00     0.238 A 
ATOM      4  O   UNL     1     130.510 152.985 169.977  1.00  0.00    -0.285 OA
ATOM      5  C   UNL     1     130.372 153.748 172.169  1.00  0.00     0.111 A 
ATOM      6  C   UNL     1     129.379 152.821 172.571  1.00  0.00     0.134 A 
ATOM      7  C   UNL     1     128.893 152.851 173.886  1.00  0.00     0.093 A 
ATOM      8  C   UNL     1     129.376 153.786 174.804  1.00  0.00     0.123 A 
ATOM      9  C   UNL     1     130.357 154.704 174.413  1.00  0.00     0.094 A 
ATOM     10  C   UNL     1     130.856 154.689 173.107  1.00  0.00     0.146 A 
ATOM     11  O   UNL     1     131.790 155.568 172.762  1.00  0.00    -0.452 OA
ENDROOT
BRANCH   1  12
ATOM     12  C   UNL     1     133.370 156.645 171.293  1.00  0.00     0.029 A 
ATOM     13  C   UNL     1     133.606 157.692 172.200  1.00  0.00     0.062 A 
ATOM     14  C   UNL     1     134.578 158.665 171.939  1.00  0.00     0.162 A 
ATOM     15  C   UNL     1     134.099 156.603 170.098  1.00  0.00     0.062 A 
ATOM     16  C   UNL     1     135.329 158.599 170.741  1.00  0.00     0.200 A 
ATOM     17  C   UNL     1     135.077 157.568 169.825  1.00  0.00     0.162 A 
BRANCH  14  18
ATOM     18  O   UNL     1     134.759 159.674 172.887  1.00  0.00    -0.504 OA
ATOM     19  H   UNL     1     135.659 160.042 173.158  1.00  0.00     0.293 HD
ENDBRANCH  14  18
BRANCH  16  20
ATOM     20  O   UNL     1     136.320 159.530 170.424  1.00  0.00    -0.502 OA
ATOM     21  H   UNL     1     136.460 160.399 170.920  1.00  0.00     0.293 HD
ENDBRANCH  16  20
BRANCH  17  22
ATOM     22  O   UNL     1     135.808 157.507 168.639  1.00  0.00    -0.504 OA
ATOM     23  H   UNL     1     135.974 158.332 168.074  1.00  0.00     0.293 HD
ENDBRANCH  17  22
ENDBRANCH   1  12
BRANCH   2  24
ATOM     24  O   UNL     1     132.394 154.834 169.247  1.00  0.00    -0.502 OA
ATOM     25  H   UNL     1     132.006 155.463 168.555  1.00  0.00     0.293 HD
ENDBRANCH   2  24
BRANCH   6  26
ATOM     26  O   UNL     1     128.876 151.875 171.677  1.00  0.00    -0.507 OA
ATOM     27  H   UNL     1     129.452 151.122 171.319  1.00  0.00     0.293 HD
ENDBRANCH   6  26
BRANCH   8  28
ATOM     28  O   UNL     1     128.875 153.795 176.104  1.00  0.00    -0.508 OA
ATOM     29  H   UNL     1     129.221 153.155 176.809  1.00  0.00     0.293 HD
ENDBRANCH   8  28
TORSDOF 7
ENDMDL
