MODEL 1
REMARK VINA RESULT:    -3.421      0.000      0.000
REMARK INTER + INTRA:          -5.148
REMARK INTER:                  -4.621
REMARK INTRA:                  -0.527
REMARK UNBOUND:                -0.527
REMARK SMILES [NH3+]CCCC[C@H]([NH3+])C(=O)[O-]
REMARK SMILES IDX 4 1 3 2 2 3 1 4 5 8 6 9 7 10 8 14 9 15 10 16
REMARK H PARENT 1 5 1 6 1 7 7 11 7 12 7 13
REMARK Flexibility Score: inf
ROOT
ATOM      1  C   UNL     1     113.133 116.200 109.524  1.00  0.00     0.012 C 
ENDROOT
BRANCH   1   2
ATOM      2  C   UNL     1     113.265 117.693 109.200  1.00  0.00     0.061 C 
BRANCH   2   3
ATOM      3  C   UNL     1     112.102 118.493 109.803  1.00  0.00     0.258 C 
BRANCH   3   4
ATOM      4  N   UNL     1     112.417 118.926 111.165  1.00  0.00    -0.358 N 
ATOM      5  H   UNL     1     111.813 118.418 111.852  1.00  0.00     0.344 HD
ATOM      6  H   UNL     1     112.234 119.952 111.249  1.00  0.00     0.344 HD
ATOM      7  H   UNL     1     113.425 118.743 111.376  1.00  0.00     0.344 HD
ENDBRANCH   3   4
ENDBRANCH   2   3
ENDBRANCH   1   2
BRANCH   1   8
ATOM      8  C   UNL     1     114.477 115.623 110.003  1.00  0.00     0.072 C 
BRANCH   8   9
ATOM      9  C   UNL     1     114.957 116.176 111.365  1.00  0.00     0.227 C 
BRANCH   9  10
ATOM     10  N   UNL     1     116.330 115.758 111.680  1.00  0.00    -0.350 N 
ATOM     11  H   UNL     1     116.981 116.570 111.585  1.00  0.00     0.345 HD
ATOM     12  H   UNL     1     116.373 115.420 112.670  1.00  0.00     0.345 HD
ATOM     13  H   UNL     1     116.649 114.986 111.051  1.00  0.00     0.345 HD
ENDBRANCH   9  10
BRANCH   9  14
ATOM     14  C   UNL     1     114.000 115.822 112.475  1.00  0.00     0.099 C 
ATOM     15  O   UNL     1     113.719 114.621 112.729  1.00  0.00    -0.544 OA
ATOM     16  O   UNL     1     113.380 116.834 113.198  1.00  0.00    -0.544 OA
ENDBRANCH   9  14
ENDBRANCH   8   9
ENDBRANCH   1   8
TORSDOF 7
ENDMDL
MODEL 2
REMARK VINA RESULT:    -3.405     11.530     12.253
REMARK INTER + INTRA:          -5.127
REMARK INTER:                  -4.597
REMARK INTRA:                  -0.530
REMARK UNBOUND:                -0.527
REMARK SMILES [NH3+]CCCC[C@H]([NH3+])C(=O)[O-]
REMARK SMILES IDX 4 1 3 2 2 3 1 4 5 8 6 9 7 10 8 14 9 15 10 16
REMARK H PARENT 1 5 1 6 1 7 7 11 7 12 7 13
REMARK Flexibility Score: inf
ROOT
ATOM      1  C   UNL     1     126.401 115.846 109.561  1.00  0.00     0.012 C 
ENDROOT
BRANCH   1   2
ATOM      2  C   UNL     1     124.995 115.294 109.295  1.00  0.00     0.061 C 
BRANCH   2   3
ATOM      3  C   UNL     1     124.833 113.887 109.886  1.00  0.00     0.258 C 
BRANCH   3   4
ATOM      4  N   UNL     1     124.237 113.946 111.220  1.00  0.00    -0.358 N 
ATOM      5  H   UNL     1     123.960 112.986 111.533  1.00  0.00     0.344 HD
ATOM      6  H   UNL     1     123.384 114.549 111.188  1.00  0.00     0.344 HD
ATOM      7  H   UNL     1     124.917 114.358 111.900  1.00  0.00     0.344 HD
ENDBRANCH   3   4
ENDBRANCH   2   3
ENDBRANCH   1   2
BRANCH   1   8
ATOM      8  C   UNL     1     126.331 117.275 110.127  1.00  0.00     0.072 C 
BRANCH   8   9
ATOM      9  C   UNL     1     125.496 117.405 111.422  1.00  0.00     0.227 C 
BRANCH   9  10
ATOM     10  N   UNL     1     125.112 118.796 111.697  1.00  0.00    -0.350 N 
ATOM     11  H   UNL     1     124.081 118.915 111.561  1.00  0.00     0.345 HD
ATOM     12  H   UNL     1     125.338 119.031 112.692  1.00  0.00     0.345 HD
ATOM     13  H   UNL     1     125.620 119.464 111.074  1.00  0.00     0.345 HD
ENDBRANCH   9  10
BRANCH   9  14
ATOM     14  C   UNL     1     126.200 116.780 112.601  1.00  0.00     0.099 C 
ATOM     15  O   UNL     1     125.682 115.820 113.230  1.00  0.00    -0.544 OA
ATOM     16  O   UNL     1     127.414 117.301 113.031  1.00  0.00    -0.544 OA
ENDBRANCH   9  14
ENDBRANCH   8   9
ENDBRANCH   1   8
TORSDOF 7
ENDMDL
MODEL 3
REMARK VINA RESULT:    -3.381     11.475     12.169
REMARK INTER + INTRA:          -5.094
REMARK INTER:                  -4.586
REMARK INTRA:                  -0.508
REMARK UNBOUND:                -0.527
REMARK SMILES [NH3+]CCCC[C@H]([NH3+])C(=O)[O-]
REMARK SMILES IDX 4 1 3 2 2 3 1 4 5 8 6 9 7 10 8 14 9 15 10 16
REMARK H PARENT 1 5 1 6 1 7 7 11 7 12 7 13
REMARK Flexibility Score: inf
ROOT
ATOM      1  C   UNL     1     119.993 127.418 109.556  1.00  0.00     0.012 C 
ENDROOT
BRANCH   1   2
ATOM      2  C   UNL     1     121.199 126.568 109.136  1.00  0.00     0.061 C 
BRANCH   2   3
ATOM      3  C   UNL     1     122.497 127.110 109.750  1.00  0.00     0.258 C 
BRANCH   3   4
ATOM      4  N   UNL     1     122.626 126.696 111.147  1.00  0.00    -0.358 N 
ATOM      5  H   UNL     1     122.374 127.489 111.781  1.00  0.00     0.344 HD
ATOM      6  H   UNL     1     123.617 126.419 111.332  1.00  0.00     0.344 HD
ATOM      7  H   UNL     1     122.004 125.877 111.339  1.00  0.00     0.344 HD
ENDBRANCH   3   4
ENDBRANCH   2   3
ENDBRANCH   1   2
BRANCH   1   8
ATOM      8  C   UNL     1     118.840 126.526 110.050  1.00  0.00     0.072 C 
BRANCH   8   9
ATOM      9  C   UNL     1     119.099 125.853 111.418  1.00  0.00     0.227 C 
BRANCH   9  10
ATOM     10  N   UNL     1     118.095 124.826 111.729  1.00  0.00    -0.350 N 
ATOM     11  H   UNL     1     117.198 125.042 111.235  1.00  0.00     0.345 HD
ATOM     12  H   UNL     1     118.435 123.894 111.394  1.00  0.00     0.345 HD
ATOM     13  H   UNL     1     117.915 124.764 112.757  1.00  0.00     0.345 HD
ENDBRANCH   9  10
BRANCH   9  14
ATOM     14  C   UNL     1     119.211 126.872 112.524  1.00  0.00     0.099 C 
ATOM     15  O   UNL     1     120.281 127.004 113.177  1.00  0.00    -0.544 OA
ATOM     16  O   UNL     1     118.107 127.644 112.863  1.00  0.00    -0.544 OA
ENDBRANCH   9  14
ENDBRANCH   8   9
ENDBRANCH   1   8
TORSDOF 7
ENDMDL
MODEL 4
REMARK VINA RESULT:    -3.361      2.172      3.959
REMARK INTER + INTRA:          -5.067
REMARK INTER:                  -4.559
REMARK INTRA:                  -0.508
REMARK UNBOUND:                -0.527
REMARK SMILES [NH3+]CCCC[C@H]([NH3+])C(=O)[O-]
REMARK SMILES IDX 4 1 3 2 2 3 1 4 5 8 6 9 7 10 8 14 9 15 10 16
REMARK H PARENT 1 5 1 6 1 7 7 11 7 12 7 13
REMARK Flexibility Score: inf
ROOT
ATOM      1  C   UNL     1     112.964 116.175 109.675  1.00  0.00     0.012 C 
ENDROOT
BRANCH   1   2
ATOM      2  C   UNL     1     114.203 115.666 110.422  1.00  0.00     0.061 C 
BRANCH   2   3
ATOM      3  C   UNL     1     113.823 115.090 111.793  1.00  0.00     0.258 C 
BRANCH   3   4
ATOM      4  N   UNL     1     113.628 116.159 112.772  1.00  0.00    -0.358 N 
ATOM      5  H   UNL     1     112.783 116.725 112.524  1.00  0.00     0.344 HD
ATOM      6  H   UNL     1     114.466 116.785 112.767  1.00  0.00     0.344 HD
ATOM      7  H   UNL     1     113.515 115.754 113.730  1.00  0.00     0.344 HD
ENDBRANCH   3   4
ENDBRANCH   2   3
ENDBRANCH   1   2
BRANCH   1   8
ATOM      8  C   UNL     1     113.116 117.663 109.313  1.00  0.00     0.072 C 
BRANCH   8   9
ATOM      9  C   UNL     1     112.424 118.631 110.300  1.00  0.00     0.227 C 
BRANCH   9  10
ATOM     10  N   UNL     1     111.397 119.452 109.644  1.00  0.00    -0.350 N 
ATOM     11  H   UNL     1     111.663 120.462 109.691  1.00  0.00     0.345 HD
ATOM     12  H   UNL     1     111.326 119.180 108.635  1.00  0.00     0.345 HD
ATOM     13  H   UNL     1     110.460 119.321 110.089  1.00  0.00     0.345 HD
ENDBRANCH   9  10
BRANCH   9  14
ATOM     14  C   UNL     1     113.428 119.483 111.037  1.00  0.00     0.099 C 
ATOM     15  O   UNL     1     114.133 118.998 111.962  1.00  0.00    -0.544 OA
ATOM     16  O   UNL     1     113.544 120.832 110.727  1.00  0.00    -0.544 OA
ENDBRANCH   9  14
ENDBRANCH   8   9
ENDBRANCH   1   8
TORSDOF 7
ENDMDL
MODEL 5
REMARK VINA RESULT:    -3.359      2.261      3.556
REMARK INTER + INTRA:          -5.065
REMARK INTER:                  -4.507
REMARK INTRA:                  -0.558
REMARK UNBOUND:                -0.527
REMARK SMILES [NH3+]CCCC[C@H]([NH3+])C(=O)[O-]
REMARK SMILES IDX 4 1 3 2 2 3 1 4 5 8 6 9 7 10 8 14 9 15 10 16
REMARK H PARENT 1 5 1 6 1 7 7 11 7 12 7 13
REMARK Flexibility Score: inf
ROOT
ATOM      1  C   UNL     1     114.256 115.522 110.147  1.00  0.00     0.012 C 
ENDROOT
BRANCH   1   2
ATOM      2  C   UNL     1     113.703 115.050 111.498  1.00  0.00     0.061 C 
BRANCH   2   3
ATOM      3  C   UNL     1     114.426 115.741 112.662  1.00  0.00     0.258 C 
BRANCH   3   4
ATOM      4  N   UNL     1     113.496 116.560 113.441  1.00  0.00    -0.358 N 
ATOM      5  H   UNL     1     114.027 117.207 114.069  1.00  0.00     0.344 HD
ATOM      6  H   UNL     1     112.899 115.935 114.028  1.00  0.00     0.344 HD
ATOM      7  H   UNL     1     112.880 117.113 112.801  1.00  0.00     0.344 HD
ENDBRANCH   3   4
ENDBRANCH   2   3
ENDBRANCH   1   2
BRANCH   1   8
ATOM      8  C   UNL     1     113.208 116.356 109.388  1.00  0.00     0.072 C 
BRANCH   8   9
ATOM      9  C   UNL     1     113.477 117.879 109.402  1.00  0.00     0.227 C 
BRANCH   9  10
ATOM     10  N   UNL     1     114.865 118.193 109.767  1.00  0.00    -0.350 N 
ATOM     11  H   UNL     1     114.879 118.853 110.579  1.00  0.00     0.345 HD
ATOM     12  H   UNL     1     115.358 117.315 110.053  1.00  0.00     0.345 HD
ATOM     13  H   UNL     1     115.384 118.621 108.967  1.00  0.00     0.345 HD
ENDBRANCH   9  10
BRANCH   9  14
ATOM     14  C   UNL     1     112.492 118.608 110.281  1.00  0.00     0.099 C 
ATOM     15  O   UNL     1     112.671 118.688 111.525  1.00  0.00    -0.544 OA
ATOM     16  O   UNL     1     111.346 119.158 109.720  1.00  0.00    -0.544 OA
ENDBRANCH   9  14
ENDBRANCH   8   9
ENDBRANCH   1   8
TORSDOF 7
ENDMDL
MODEL 6
REMARK VINA RESULT:    -3.322     11.027     12.035
REMARK INTER + INTRA:          -5.014
REMARK INTER:                  -4.486
REMARK INTRA:                  -0.529
REMARK UNBOUND:                -0.527
REMARK SMILES [NH3+]CCCC[C@H]([NH3+])C(=O)[O-]
REMARK SMILES IDX 4 1 3 2 2 3 1 4 5 8 6 9 7 10 8 14 9 15 10 16
REMARK H PARENT 1 5 1 6 1 7 7 11 7 12 7 13
REMARK Flexibility Score: inf
ROOT
ATOM      1  C   UNL     1     126.332 117.219 110.144  1.00  0.00     0.012 C 
ENDROOT
BRANCH   1   2
ATOM      2  C   UNL     1     126.988 117.003 111.513  1.00  0.00     0.061 C 
BRANCH   2   3
ATOM      3  C   UNL     1     125.988 117.255 112.650  1.00  0.00     0.258 C 
BRANCH   3   4
ATOM      4  N   UNL     1     125.838 116.065 113.487  1.00  0.00    -0.358 N 
ATOM      5  H   UNL     1     126.777 115.723 113.798  1.00  0.00     0.344 HD
ATOM      6  H   UNL     1     125.373 115.311 112.931  1.00  0.00     0.344 HD
ATOM      7  H   UNL     1     125.246 116.283 114.321  1.00  0.00     0.344 HD
ENDBRANCH   3   4
ENDBRANCH   2   3
ENDBRANCH   1   2
BRANCH   1   8
ATOM      8  C   UNL     1     126.219 115.891 109.374  1.00  0.00     0.072 C 
BRANCH   8   9
ATOM      9  C   UNL     1     124.782 115.328 109.287  1.00  0.00     0.227 C 
BRANCH   9  10
ATOM     10  N   UNL     1     123.768 116.350 109.578  1.00  0.00    -0.350 N 
ATOM     11  H   UNL     1     123.802 117.104 108.854  1.00  0.00     0.345 HD
ATOM     12  H   UNL     1     122.816 115.915 109.550  1.00  0.00     0.345 HD
ATOM     13  H   UNL     1     123.911 116.774 110.523  1.00  0.00     0.345 HD
ENDBRANCH   9  10
BRANCH   9  14
ATOM     14  C   UNL     1     124.610 114.110 110.160  1.00  0.00     0.099 C 
ATOM     15  O   UNL     1     124.589 112.954 109.661  1.00  0.00    -0.544 OA
ATOM     16  O   UNL     1     124.422 114.265 111.528  1.00  0.00    -0.544 OA
ENDBRANCH   9  14
ENDBRANCH   8   9
ENDBRANCH   1   8
TORSDOF 7
ENDMDL
MODEL 7
REMARK VINA RESULT:    -3.309     11.825     12.268
REMARK INTER + INTRA:          -4.997
REMARK INTER:                  -4.498
REMARK INTRA:                  -0.498
REMARK UNBOUND:                -0.527
REMARK SMILES [NH3+]CCCC[C@H]([NH3+])C(=O)[O-]
REMARK SMILES IDX 4 1 3 2 2 3 1 4 5 8 6 9 7 10 8 14 9 15 10 16
REMARK H PARENT 1 5 1 6 1 7 7 11 7 12 7 13
REMARK Flexibility Score: inf
ROOT
ATOM      1  C   UNL     1     121.076 126.469 109.082  1.00  0.00     0.012 C 
ENDROOT
BRANCH   1   2
ATOM      2  C   UNL     1     119.797 127.282 109.321  1.00  0.00     0.061 C 
BRANCH   2   3
ATOM      3  C   UNL     1     118.777 126.478 110.139  1.00  0.00     0.258 C 
BRANCH   3   4
ATOM      4  N   UNL     1     118.574 127.079 111.457  1.00  0.00    -0.358 N 
ATOM      5  H   UNL     1     118.509 126.332 112.187  1.00  0.00     0.344 HD
ATOM      6  H   UNL     1     117.682 127.623 111.451  1.00  0.00     0.344 HD
ATOM      7  H   UNL     1     119.364 127.727 111.683  1.00  0.00     0.344 HD
ENDBRANCH   3   4
ENDBRANCH   2   3
ENDBRANCH   1   2
BRANCH   1   8
ATOM      8  C   UNL     1     122.286 127.142 109.753  1.00  0.00     0.072 C 
BRANCH   8   9
ATOM      9  C   UNL     1     122.991 126.267 110.815  1.00  0.00     0.227 C 
BRANCH   9  10
ATOM     10  N   UNL     1     123.842 125.235 110.207  1.00  0.00    -0.350 N 
ATOM     11  H   UNL     1     124.422 124.771 110.944  1.00  0.00     0.345 HD
ATOM     12  H   UNL     1     123.238 124.505 109.761  1.00  0.00     0.345 HD
ATOM     13  H   UNL     1     124.471 125.638 109.477  1.00  0.00     0.345 HD
ENDBRANCH   9  10
BRANCH   9  14
ATOM     14  C   UNL     1     122.004 125.672 111.788  1.00  0.00     0.099 C 
ATOM     15  O   UNL     1     121.830 124.426 111.852  1.00  0.00    -0.544 OA
ATOM     16  O   UNL     1     121.239 126.510 112.590  1.00  0.00    -0.544 OA
ENDBRANCH   9  14
ENDBRANCH   8   9
ENDBRANCH   1   8
TORSDOF 7
ENDMDL
MODEL 8
REMARK VINA RESULT:    -3.285     10.248     11.566
REMARK INTER + INTRA:          -4.964
REMARK INTER:                  -4.459
REMARK INTRA:                  -0.505
REMARK UNBOUND:                -0.527
REMARK SMILES [NH3+]CCCC[C@H]([NH3+])C(=O)[O-]
REMARK SMILES IDX 4 1 3 2 2 3 1 4 5 8 6 9 7 10 8 14 9 15 10 16
REMARK H PARENT 1 5 1 6 1 7 7 11 7 12 7 13
REMARK Flexibility Score: inf
ROOT
ATOM      1  C   UNL     1     126.359 115.874 109.643  1.00  0.00     0.012 C 
ENDROOT
BRANCH   1   2
ATOM      2  C   UNL     1     126.127 117.096 110.541  1.00  0.00     0.061 C 
BRANCH   2   3
ATOM      3  C   UNL     1     126.965 117.005 111.823  1.00  0.00     0.258 C 
BRANCH   3   4
ATOM      4  N   UNL     1     126.194 116.401 112.910  1.00  0.00    -0.358 N 
ATOM      5  H   UNL     1     126.732 115.612 113.337  1.00  0.00     0.344 HD
ATOM      6  H   UNL     1     125.296 116.028 112.526  1.00  0.00     0.344 HD
ATOM      7  H   UNL     1     125.977 117.119 113.639  1.00  0.00     0.344 HD
ENDBRANCH   3   4
ENDBRANCH   2   3
ENDBRANCH   1   2
BRANCH   1   8
ATOM      8  C   UNL     1     125.027 115.178 109.310  1.00  0.00     0.072 C 
BRANCH   8   9
ATOM      9  C   UNL     1     124.615 114.081 110.319  1.00  0.00     0.227 C 
BRANCH   9  10
ATOM     10  N   UNL     1     124.388 112.785 109.665  1.00  0.00    -0.350 N 
ATOM     11  H   UNL     1     124.967 112.717 108.796  1.00  0.00     0.345 HD
ATOM     12  H   UNL     1     124.679 112.013 110.310  1.00  0.00     0.345 HD
ATOM     13  H   UNL     1     123.381 112.650 109.419  1.00  0.00     0.345 HD
ENDBRANCH   9  10
BRANCH   9  14
ATOM     14  C   UNL     1     123.423 114.503 111.142  1.00  0.00     0.099 C 
ATOM     15  O   UNL     1     123.573 115.141 112.218  1.00  0.00    -0.544 OA
ATOM     16  O   UNL     1     122.144 114.144 110.735  1.00  0.00    -0.544 OA
ENDBRANCH   9  14
ENDBRANCH   8   9
ENDBRANCH   1   8
TORSDOF 7
ENDMDL
MODEL 9
REMARK VINA RESULT:    -3.260     12.197     12.692
REMARK INTER + INTRA:          -4.931
REMARK INTER:                  -4.462
REMARK INTRA:                  -0.468
REMARK UNBOUND:                -0.527
REMARK SMILES [NH3+]CCCC[C@H]([NH3+])C(=O)[O-]
REMARK SMILES IDX 4 1 3 2 2 3 1 4 5 8 6 9 7 10 8 14 9 15 10 16
REMARK H PARENT 1 5 1 6 1 7 7 11 7 12 7 13
REMARK Flexibility Score: inf
ROOT
ATOM      1  C   UNL     1     120.606 127.225 109.537  1.00  0.00     0.012 C 
ENDROOT
BRANCH   1   2
ATOM      2  C   UNL     1     119.168 126.880 109.944  1.00  0.00     0.061 C 
BRANCH   2   3
ATOM      3  C   UNL     1     118.976 127.013 111.461  1.00  0.00     0.258 C 
BRANCH   3   4
ATOM      4  N   UNL     1     120.209 126.681 112.174  1.00  0.00    -0.358 N 
ATOM      5  H   UNL     1     120.576 127.526 112.671  1.00  0.00     0.344 HD
ATOM      6  H   UNL     1     120.926 126.356 111.486  1.00  0.00     0.344 HD
ATOM      7  H   UNL     1     120.030 125.914 112.864  1.00  0.00     0.344 HD
ENDBRANCH   3   4
ENDBRANCH   2   3
ENDBRANCH   1   2
BRANCH   1   8
ATOM      8  C   UNL     1     121.227 126.090 108.704  1.00  0.00     0.072 C 
BRANCH   8   9
ATOM      9  C   UNL     1     122.368 125.328 109.418  1.00  0.00     0.227 C 
BRANCH   9  10
ATOM     10  N   UNL     1     121.860 124.258 110.288  1.00  0.00    -0.350 N 
ATOM     11  H   UNL     1     120.849 124.081 110.082  1.00  0.00     0.345 HD
ATOM     12  H   UNL     1     122.390 123.375 110.100  1.00  0.00     0.345 HD
ATOM     13  H   UNL     1     121.968 124.502 111.298  1.00  0.00     0.345 HD
ENDBRANCH   9  10
BRANCH   9  14
ATOM     14  C   UNL     1     123.277 126.269 110.168  1.00  0.00     0.099 C 
ATOM     15  O   UNL     1     123.268 126.311 111.427  1.00  0.00    -0.544 OA
ATOM     16  O   UNL     1     124.103 127.136 109.463  1.00  0.00    -0.544 OA
ENDBRANCH   9  14
ENDBRANCH   8   9
ENDBRANCH   1   8
TORSDOF 7
ENDMDL
