MODEL 1
REMARK VINA RESULT:    -3.262      0.000      0.000
REMARK INTER + INTRA:          -3.548
REMARK INTER:                  -3.548
REMARK INTRA:                   0.000
REMARK UNBOUND:                 0.000
REMARK SMILES [NH3+]CC(=O)[O-]
REMARK SMILES IDX 2 1 1 2 3 6 4 7 5 8
REMARK H PARENT 1 3 1 4 1 5
REMARK Flexibility Score: inf
ROOT
ATOM      1  C   UNL     1      18.513   1.321 -16.926  1.00  0.00     0.312 C 
ENDROOT
BRANCH   1   2
ATOM      2  N   UNL     1      17.221   1.807 -17.408  1.00  0.00    -0.353 N 
ATOM      3  H   UNL     1      16.604   2.010 -16.589  1.00  0.00     0.344 HD
ATOM      4  H   UNL     1      16.764   1.079 -18.005  1.00  0.00     0.344 HD
ATOM      5  H   UNL     1      17.350   2.686 -17.960  1.00  0.00     0.344 HD
ENDBRANCH   1   2
BRANCH   1   6
ATOM      6  C   UNL     1      18.380   0.750 -15.549  1.00  0.00     0.096 C 
ATOM      7  O   UNL     1      17.309   0.897 -14.902  1.00  0.00    -0.544 OA
ATOM      8  O   UNL     1      19.420   0.013 -14.998  1.00  0.00    -0.544 OA
ENDBRANCH   1   6
TORSDOF 2
ENDMDL
MODEL 2
REMARK VINA RESULT:    -3.149      1.233      1.685
REMARK INTER + INTRA:          -3.425
REMARK INTER:                  -3.425
REMARK INTRA:                   0.000
REMARK UNBOUND:                 0.000
REMARK SMILES [NH3+]CC(=O)[O-]
REMARK SMILES IDX 2 1 1 2 3 6 4 7 5 8
REMARK H PARENT 1 3 1 4 1 5
REMARK Flexibility Score: inf
ROOT
ATOM      1  C   UNL     1      18.636   0.967 -17.003  1.00  0.00     0.312 C 
ENDROOT
BRANCH   1   2
ATOM      2  N   UNL     1      17.908   1.259 -18.237  1.00  0.00    -0.353 N 
ATOM      3  H   UNL     1      18.441   1.969 -18.790  1.00  0.00     0.344 HD
ATOM      4  H   UNL     1      16.961   1.645 -18.013  1.00  0.00     0.344 HD
ATOM      5  H   UNL     1      17.808   0.390 -18.810  1.00  0.00     0.344 HD
ENDBRANCH   1   2
BRANCH   1   6
ATOM      6  C   UNL     1      17.928   1.555 -15.822  1.00  0.00     0.096 C 
ATOM      7  O   UNL     1      17.481   0.805 -14.914  1.00  0.00    -0.544 OA
ATOM      8  O   UNL     1      17.807   2.933 -15.699  1.00  0.00    -0.544 OA
ENDBRANCH   1   6
TORSDOF 2
ENDMDL
MODEL 3
REMARK VINA RESULT:    -3.088      8.800      9.020
REMARK INTER + INTRA:          -3.359
REMARK INTER:                  -3.359
REMARK INTRA:                   0.000
REMARK UNBOUND:                 0.000
REMARK SMILES [NH3+]CC(=O)[O-]
REMARK SMILES IDX 2 1 1 2 3 6 4 7 5 8
REMARK H PARENT 1 3 1 4 1 5
REMARK Flexibility Score: inf
ROOT
ATOM      1  C   UNL     1      16.559   0.008 -25.552  1.00  0.00     0.312 C 
ENDROOT
BRANCH   1   2
ATOM      2  N   UNL     1      15.156   0.220 -25.904  1.00  0.00    -0.353 N 
ATOM      3  H   UNL     1      14.784   1.029 -25.356  1.00  0.00     0.344 HD
ATOM      4  H   UNL     1      14.595  -0.633 -25.674  1.00  0.00     0.344 HD
ATOM      5  H   UNL     1      15.070   0.435 -26.924  1.00  0.00     0.344 HD
ENDBRANCH   1   2
BRANCH   1   6
ATOM      6  C   UNL     1      16.671  -0.749 -24.265  1.00  0.00     0.096 C 
ATOM      7  O   UNL     1      16.415  -0.180 -23.171  1.00  0.00    -0.544 OA
ATOM      8  O   UNL     1      17.009  -2.096 -24.278  1.00  0.00    -0.544 OA
ENDBRANCH   1   6
TORSDOF 2
ENDMDL
MODEL 4
REMARK VINA RESULT:    -2.921      8.905      9.203
REMARK INTER + INTRA:          -3.177
REMARK INTER:                  -3.177
REMARK INTRA:                   0.000
REMARK UNBOUND:                 0.000
REMARK SMILES [NH3+]CC(=O)[O-]
REMARK SMILES IDX 2 1 1 2 3 6 4 7 5 8
REMARK H PARENT 1 3 1 4 1 5
REMARK Flexibility Score: inf
ROOT
ATOM      1  C   UNL     1      16.306   1.644 -24.923  1.00  0.00     0.312 C 
ENDROOT
BRANCH   1   2
ATOM      2  N   UNL     1      15.456   1.852 -26.094  1.00  0.00    -0.353 N 
ATOM      3  H   UNL     1      14.594   2.367 -25.805  1.00  0.00     0.344 HD
ATOM      4  H   UNL     1      15.179   0.930 -26.505  1.00  0.00     0.344 HD
ATOM      5  H   UNL     1      15.964   2.419 -26.811  1.00  0.00     0.344 HD
ENDBRANCH   1   2
BRANCH   1   6
ATOM      6  C   UNL     1      16.329   0.198 -24.537  1.00  0.00     0.096 C 
ATOM      7  O   UNL     1      16.335  -0.695 -25.427  1.00  0.00    -0.544 OA
ATOM      8  O   UNL     1      16.393  -0.164 -23.198  1.00  0.00    -0.544 OA
ENDBRANCH   1   6
TORSDOF 2
ENDMDL
MODEL 5
REMARK VINA RESULT:    -2.884      2.417      2.925
REMARK INTER + INTRA:          -3.136
REMARK INTER:                  -3.136
REMARK INTRA:                   0.000
REMARK UNBOUND:                 0.000
REMARK SMILES [NH3+]CC(=O)[O-]
REMARK SMILES IDX 2 1 1 2 3 6 4 7 5 8
REMARK H PARENT 1 3 1 4 1 5
REMARK Flexibility Score: inf
ROOT
ATOM      1  C   UNL     1      18.710   0.967 -16.103  1.00  0.00     0.312 C 
ENDROOT
BRANCH   1   2
ATOM      2  N   UNL     1      17.680   0.957 -15.066  1.00  0.00    -0.353 N 
ATOM      3  H   UNL     1      16.829   1.449 -15.423  1.00  0.00     0.344 HD
ATOM      4  H   UNL     1      18.025   1.453 -14.211  1.00  0.00     0.344 HD
ATOM      5  H   UNL     1      17.424  -0.027 -14.823  1.00  0.00     0.344 HD
ENDBRANCH   1   2
BRANCH   1   6
ATOM      6  C   UNL     1      18.140   1.428 -17.408  1.00  0.00     0.096 C 
ATOM      7  O   UNL     1      18.812   1.315 -18.468  1.00  0.00    -0.544 OA
ATOM      8  O   UNL     1      16.849   1.935 -17.462  1.00  0.00    -0.544 OA
ENDBRANCH   1   6
TORSDOF 2
ENDMDL
MODEL 6
REMARK VINA RESULT:    -2.840     18.449     18.851
REMARK INTER + INTRA:          -3.089
REMARK INTER:                  -3.089
REMARK INTRA:                   0.000
REMARK UNBOUND:                 0.000
REMARK SMILES [NH3+]CC(=O)[O-]
REMARK SMILES IDX 2 1 1 2 3 6 4 7 5 8
REMARK H PARENT 1 3 1 4 1 5
REMARK Flexibility Score: inf
ROOT
ATOM      1  C   UNL     1      25.912 -12.314 -24.863  1.00  0.00     0.312 C 
ENDROOT
BRANCH   1   2
ATOM      2  N   UNL     1      26.363 -12.044 -23.499  1.00  0.00    -0.353 N 
ATOM      3  H   UNL     1      26.932 -12.853 -23.160  1.00  0.00     0.344 HD
ATOM      4  H   UNL     1      25.538 -11.921 -22.866  1.00  0.00     0.344 HD
ATOM      5  H   UNL     1      26.954 -11.182 -23.480  1.00  0.00     0.344 HD
ENDBRANCH   1   2
BRANCH   1   6
ATOM      6  C   UNL     1      26.287 -13.703 -25.278  1.00  0.00     0.096 C 
ATOM      7  O   UNL     1      27.181 -13.885 -26.146  1.00  0.00    -0.544 OA
ATOM      8  O   UNL     1      25.686 -14.797 -24.669  1.00  0.00    -0.544 OA
ENDBRANCH   1   6
TORSDOF 2
ENDMDL
MODEL 7
REMARK VINA RESULT:    -2.793      9.956     10.102
REMARK INTER + INTRA:          -3.038
REMARK INTER:                  -3.038
REMARK INTRA:                   0.000
REMARK UNBOUND:                 0.000
REMARK SMILES [NH3+]CC(=O)[O-]
REMARK SMILES IDX 2 1 1 2 3 6 4 7 5 8
REMARK H PARENT 1 3 1 4 1 5
REMARK Flexibility Score: inf
ROOT
ATOM      1  C   UNL     1      26.577  -1.202 -10.641  1.00  0.00     0.312 C 
ENDROOT
BRANCH   1   2
ATOM      2  N   UNL     1      25.682  -2.256 -10.167  1.00  0.00    -0.353 N 
ATOM      3  H   UNL     1      26.252  -3.081  -9.869  1.00  0.00     0.344 HD
ATOM      4  H   UNL     1      25.035  -2.550 -10.935  1.00  0.00     0.344 HD
ATOM      5  H   UNL     1      25.127  -1.915  -9.349  1.00  0.00     0.344 HD
ENDBRANCH   1   2
BRANCH   1   6
ATOM      6  C   UNL     1      26.856  -1.365 -12.103  1.00  0.00     0.096 C 
ATOM      7  O   UNL     1      26.773  -2.502 -12.641  1.00  0.00    -0.544 OA
ATOM      8  O   UNL     1      27.157  -0.256 -12.882  1.00  0.00    -0.544 OA
ENDBRANCH   1   6
TORSDOF 2
ENDMDL
MODEL 8
REMARK VINA RESULT:    -2.767      2.449      2.750
REMARK INTER + INTRA:          -3.010
REMARK INTER:                  -3.010
REMARK INTRA:                   0.000
REMARK UNBOUND:                 0.000
REMARK SMILES [NH3+]CC(=O)[O-]
REMARK SMILES IDX 2 1 1 2 3 6 4 7 5 8
REMARK H PARENT 1 3 1 4 1 5
REMARK Flexibility Score: inf
ROOT
ATOM      1  C   UNL     1      19.880   0.399 -15.183  1.00  0.00     0.312 C 
ENDROOT
BRANCH   1   2
ATOM      2  N   UNL     1      19.953  -1.026 -14.865  1.00  0.00    -0.353 N 
ATOM      3  H   UNL     1      19.142  -1.517 -15.305  1.00  0.00     0.344 HD
ATOM      4  H   UNL     1      19.912  -1.164 -13.828  1.00  0.00     0.344 HD
ATOM      5  H   UNL     1      20.840  -1.433 -15.241  1.00  0.00     0.344 HD
ENDBRANCH   1   2
BRANCH   1   6
ATOM      6  C   UNL     1      18.532   0.747 -15.736  1.00  0.00     0.096 C 
ATOM      7  O   UNL     1      18.390   0.967 -16.968  1.00  0.00    -0.544 OA
ATOM      8  O   UNL     1      17.425   0.779 -14.899  1.00  0.00    -0.544 OA
ENDBRANCH   1   6
TORSDOF 2
ENDMDL
MODEL 9
REMARK VINA RESULT:    -2.729     16.833     17.009
REMARK INTER + INTRA:          -2.969
REMARK INTER:                  -2.969
REMARK INTRA:                   0.000
REMARK UNBOUND:                 0.000
REMARK SMILES [NH3+]CC(=O)[O-]
REMARK SMILES IDX 2 1 1 2 3 6 4 7 5 8
REMARK H PARENT 1 3 1 4 1 5
REMARK Flexibility Score: inf
ROOT
ATOM      1  C   UNL     1      14.701 -16.160 -15.645  1.00  0.00     0.312 C 
ENDROOT
BRANCH   1   2
ATOM      2  N   UNL     1      15.942 -15.984 -16.398  1.00  0.00    -0.353 N 
ATOM      3  H   UNL     1      15.771 -15.323 -17.190  1.00  0.00     0.344 HD
ATOM      4  H   UNL     1      16.261 -16.902 -16.786  1.00  0.00     0.344 HD
ATOM      5  H   UNL     1      16.684 -15.585 -15.779  1.00  0.00     0.344 HD
ENDBRANCH   1   2
BRANCH   1   6
ATOM      6  C   UNL     1      13.661 -15.188 -16.108  1.00  0.00     0.096 C 
ATOM      7  O   UNL     1      13.653 -14.789 -17.303  1.00  0.00    -0.544 OA
ATOM      8  O   UNL     1      12.671 -14.760 -15.233  1.00  0.00    -0.544 OA
ENDBRANCH   1   6
TORSDOF 2
ENDMDL
