MODEL 1
REMARK VINA RESULT:    -4.105      0.000      0.000
REMARK INTER + INTRA:          -6.215
REMARK INTER:                  -6.025
REMARK INTRA:                  -0.189
REMARK UNBOUND:                -0.189
REMARK SMILES O=c1c(O[C@@H]2O[C@@H](CO)[C@H](O)[C@@H](O)[C@@H]2O)c(-c2ccc(O)c(O)c2)oc2cc(O)cc(O)c12
REMARK SMILES IDX 4 1 3 2 16 3 25 4 2 5 26 6 1 7 33 8 27 9 31 10 28 11 30 12
REMARK SMILES IDX 17 13 18 14 19 15 20 16 24 17 22 18 21 19 23 21 32 23 29 25
REMARK SMILES IDX 5 27 14 28 6 29 12 30 7 31 10 32 15 33 13 35 8 37 9 38 11 40
REMARK H PARENT 21 20 23 22 32 24 29 26 15 34 13 36 9 39 11 41
REMARK Flexibility Score: inf
ROOT
ATOM      1  O   UNL     1     -10.749   9.656   4.753  1.00  0.00    -0.454 OA
ENDROOT
BRANCH   1   2
ATOM      2  C   UNL     1     -10.556   8.517   5.558  1.00  0.00     0.214 A 
ATOM      3  C   UNL     1      -9.318   8.287   6.186  1.00  0.00     0.180 A 
ATOM      4  O   UNL     1      -9.139   7.199   6.932  1.00  0.00    -0.452 OA
ATOM      5  C   UNL     1     -11.595   7.594   5.769  1.00  0.00     0.239 A 
ATOM      6  C   UNL     1     -10.084   6.289   7.131  1.00  0.00     0.146 A 
ATOM      7  O   UNL     1     -12.734   7.817   5.285  1.00  0.00    -0.285 OA
ATOM      8  C   UNL     1     -11.361   6.440   6.539  1.00  0.00     0.111 A 
ATOM      9  C   UNL     1      -9.806   5.180   7.934  1.00  0.00     0.094 A 
ATOM     10  C   UNL     1     -12.351   5.453   6.773  1.00  0.00     0.134 A 
ATOM     11  C   UNL     1     -10.789   4.220   8.177  1.00  0.00     0.123 A 
ATOM     12  C   UNL     1     -12.052   4.353   7.591  1.00  0.00     0.093 A 
BRANCH   3  13
ATOM     13  C   UNL     1      -8.177   9.214   6.033  1.00  0.00     0.025 A 
ATOM     14  C   UNL     1      -7.673   9.474   4.753  1.00  0.00     0.016 A 
ATOM     15  C   UNL     1      -6.612  10.363   4.581  1.00  0.00     0.051 A 
ATOM     16  C   UNL     1      -6.035  11.007   5.685  1.00  0.00     0.157 A 
ATOM     17  C   UNL     1      -7.573   9.816   7.148  1.00  0.00     0.062 A 
ATOM     18  C   UNL     1      -6.507  10.711   6.987  1.00  0.00     0.158 A 
BRANCH  16  19
ATOM     19  O   UNL     1      -5.007  11.919   5.441  1.00  0.00    -0.504 OA
ATOM     20  H   UNL     1      -5.155  12.905   5.260  1.00  0.00     0.293 HD
ENDBRANCH  16  19
BRANCH  18  21
ATOM     21  O   UNL     1      -5.961  11.298   8.135  1.00  0.00    -0.504 OA
ATOM     22  H   UNL     1      -5.619  12.244   8.176  1.00  0.00     0.293 HD
ENDBRANCH  18  21
ENDBRANCH   3  13
BRANCH  10  23
ATOM     23  O   UNL     1     -13.614   5.555   6.194  1.00  0.00    -0.507 OA
ATOM     24  H   UNL     1     -14.461   5.357   6.715  1.00  0.00     0.293 HD
ENDBRANCH  10  23
BRANCH  11  25
ATOM     25  O   UNL     1     -10.499   3.132   9.000  1.00  0.00    -0.508 OA
ATOM     26  H   UNL     1      -9.718   3.149   9.644  1.00  0.00     0.293 HD
ENDBRANCH  11  25
ENDBRANCH   1   2
BRANCH   1  27
ATOM     27  C   UNL     1     -10.843  10.995   5.274  1.00  0.00     0.339 C 
ATOM     28  C   UNL     1     -11.721  11.886   4.375  1.00  0.00     0.214 C 
ATOM     29  O   UNL     1     -11.372  10.973   6.595  1.00  0.00    -0.332 OA
ATOM     30  C   UNL     1     -13.129  11.292   4.298  1.00  0.00     0.180 C 
ATOM     31  C   UNL     1     -12.692  10.432   6.647  1.00  0.00     0.179 C 
ATOM     32  C   UNL     1     -13.688  11.201   5.725  1.00  0.00     0.177 C 
BRANCH  28  33
ATOM     33  O   UNL     1     -11.170  11.999   3.091  1.00  0.00    -0.384 OA
ATOM     34  H   UNL     1     -11.736  11.462   2.480  1.00  0.00     0.211 HD
ENDBRANCH  28  33
BRANCH  30  35
ATOM     35  O   UNL     1     -13.936  12.125   3.498  1.00  0.00    -0.387 OA
ATOM     36  H   UNL     1     -14.890  11.896   3.676  1.00  0.00     0.211 HD
ENDBRANCH  30  35
BRANCH  31  37
ATOM     37  C   UNL     1     -13.181  10.442   8.106  1.00  0.00     0.191 C 
BRANCH  37  38
ATOM     38  O   UNL     1     -14.127  11.446   8.348  1.00  0.00    -0.394 OA
ATOM     39  H   UNL     1     -13.761  12.032   9.059  1.00  0.00     0.210 HD
ENDBRANCH  37  38
ENDBRANCH  31  37
BRANCH  32  40
ATOM     40  O   UNL     1     -14.929  10.542   5.704  1.00  0.00    -0.387 OA
ATOM     41  H   UNL     1     -14.801   9.683   6.188  1.00  0.00     0.211 HD
ENDBRANCH  32  40
ENDBRANCH   1  27
TORSDOF 12
ENDMDL
MODEL 2
REMARK VINA RESULT:    -3.662      1.729      5.976
REMARK INTER + INTRA:          -5.563
REMARK INTER:                  -4.634
REMARK INTRA:                  -0.929
REMARK UNBOUND:                -0.189
REMARK SMILES O=c1c(O[C@@H]2O[C@@H](CO)[C@H](O)[C@@H](O)[C@@H]2O)c(-c2ccc(O)c(O)c2)oc2cc(O)cc(O)c12
REMARK SMILES IDX 4 1 3 2 16 3 25 4 2 5 26 6 1 7 33 8 27 9 31 10 28 11 30 12
REMARK SMILES IDX 17 13 18 14 19 15 20 16 24 17 22 18 21 19 23 21 32 23 29 25
REMARK SMILES IDX 5 27 14 28 6 29 12 30 7 31 10 32 15 33 13 35 8 37 9 38 11 40
REMARK H PARENT 21 20 23 22 32 24 29 26 15 34 13 36 9 39 11 41
REMARK Flexibility Score: inf
ROOT
ATOM      1  O   UNL     1     -11.258   8.196   5.471  1.00  0.00    -0.454 OA
ENDROOT
BRANCH   1   2
ATOM      2  C   UNL     1      -9.923   8.501   5.797  1.00  0.00     0.214 A 
ATOM      3  C   UNL     1      -9.160   7.620   6.586  1.00  0.00     0.180 A 
ATOM      4  O   UNL     1      -7.903   7.924   6.903  1.00  0.00    -0.452 OA
ATOM      5  C   UNL     1      -9.313   9.679   5.331  1.00  0.00     0.239 A 
ATOM      6  C   UNL     1      -7.302   9.039   6.509  1.00  0.00     0.146 A 
ATOM      7  O   UNL     1      -9.946  10.444   4.559  1.00  0.00    -0.285 OA
ATOM      8  C   UNL     1      -7.993   9.982   5.711  1.00  0.00     0.111 A 
ATOM      9  C   UNL     1      -5.978   9.271   6.887  1.00  0.00     0.094 A 
ATOM     10  C   UNL     1      -7.323  11.162   5.302  1.00  0.00     0.134 A 
ATOM     11  C   UNL     1      -5.315  10.426   6.468  1.00  0.00     0.123 A 
ATOM     12  C   UNL     1      -5.990  11.370   5.687  1.00  0.00     0.093 A 
BRANCH   3  13
ATOM     13  C   UNL     1      -9.715   6.351   7.103  1.00  0.00     0.025 A 
ATOM     14  C   UNL     1      -9.854   6.178   8.486  1.00  0.00     0.016 A 
ATOM     15  C   UNL     1     -10.397   5.000   8.997  1.00  0.00     0.051 A 
ATOM     16  C   UNL     1     -10.808   3.972   8.136  1.00  0.00     0.157 A 
ATOM     17  C   UNL     1     -10.078   5.308   6.237  1.00  0.00     0.062 A 
ATOM     18  C   UNL     1     -10.625   4.120   6.740  1.00  0.00     0.158 A 
BRANCH  16  19
ATOM     19  O   UNL     1     -11.385   2.837   8.709  1.00  0.00    -0.504 OA
ATOM     20  H   UNL     1     -12.048   2.236   8.232  1.00  0.00     0.293 HD
ENDBRANCH  16  19
BRANCH  18  21
ATOM     21  O   UNL     1     -10.990   3.125   5.825  1.00  0.00    -0.504 OA
ATOM     22  H   UNL     1     -10.760   2.150   5.931  1.00  0.00     0.293 HD
ENDBRANCH  18  21
ENDBRANCH   3  13
BRANCH  10  23
ATOM     23  O   UNL     1      -7.974  12.124   4.533  1.00  0.00    -0.507 OA
ATOM     24  H   UNL     1      -8.456  11.886   3.673  1.00  0.00     0.293 HD
ENDBRANCH  10  23
BRANCH  11  25
ATOM     25  O   UNL     1      -3.987  10.628   6.837  1.00  0.00    -0.508 OA
ATOM     26  H   UNL     1      -3.314   9.871   6.832  1.00  0.00     0.293 HD
ENDBRANCH  11  25
ENDBRANCH   1   2
BRANCH   1  27
ATOM     27  C   UNL     1     -12.347   8.278   6.410  1.00  0.00     0.339 C 
ATOM     28  C   UNL     1     -12.840   9.729   6.571  1.00  0.00     0.214 C 
ATOM     29  O   UNL     1     -13.423   7.446   5.991  1.00  0.00    -0.332 OA
ATOM     30  C   UNL     1     -13.324  10.250   5.216  1.00  0.00     0.180 C 
ATOM     31  C   UNL     1     -13.957   7.840   4.727  1.00  0.00     0.179 C 
ATOM     32  C   UNL     1     -14.442   9.323   4.719  1.00  0.00     0.177 C 
BRANCH  28  33
ATOM     33  O   UNL     1     -11.821  10.551   7.074  1.00  0.00    -0.384 OA
ATOM     34  H   UNL     1     -11.929  11.442   6.653  1.00  0.00     0.211 HD
ENDBRANCH  28  33
BRANCH  30  35
ATOM     35  O   UNL     1     -13.800  11.566   5.374  1.00  0.00    -0.387 OA
ATOM     36  H   UNL     1     -13.516  12.096   4.577  1.00  0.00     0.211 HD
ENDBRANCH  30  35
BRANCH  31  37
ATOM     37  C   UNL     1     -15.107   6.889   4.350  1.00  0.00     0.191 C 
BRANCH  37  38
ATOM     38  O   UNL     1     -14.771   6.036   3.292  1.00  0.00    -0.394 OA
ATOM     39  H   UNL     1     -15.245   6.365   2.485  1.00  0.00     0.210 HD
ENDBRANCH  37  38
ENDBRANCH  31  37
BRANCH  32  40
ATOM     40  O   UNL     1     -14.822   9.697   3.419  1.00  0.00    -0.387 OA
ATOM     41  H   UNL     1     -14.095   9.392   2.813  1.00  0.00     0.211 HD
ENDBRANCH  32  40
ENDBRANCH   1  27
TORSDOF 12
ENDMDL
MODEL 3
REMARK VINA RESULT:    -3.245      1.675      5.621
REMARK INTER + INTRA:          -4.952
REMARK INTER:                  -5.103
REMARK INTRA:                   0.151
REMARK UNBOUND:                -0.189
REMARK SMILES O=c1c(O[C@@H]2O[C@@H](CO)[C@H](O)[C@@H](O)[C@@H]2O)c(-c2ccc(O)c(O)c2)oc2cc(O)cc(O)c12
REMARK SMILES IDX 4 1 3 2 16 3 25 4 2 5 26 6 1 7 33 8 27 9 31 10 28 11 30 12
REMARK SMILES IDX 17 13 18 14 19 15 20 16 24 17 22 18 21 19 23 21 32 23 29 25
REMARK SMILES IDX 5 27 14 28 6 29 12 30 7 31 10 32 15 33 13 35 8 37 9 38 11 40
REMARK H PARENT 21 20 23 22 32 24 29 26 15 34 13 36 9 39 11 41
REMARK Flexibility Score: inf
ROOT
ATOM      1  O   UNL     1     -10.429   7.852   6.960  1.00  0.00    -0.454 OA
ENDROOT
BRANCH   1   2
ATOM      2  C   UNL     1     -11.014   8.703   6.003  1.00  0.00     0.214 A 
ATOM      3  C   UNL     1     -10.264   9.736   5.412  1.00  0.00     0.180 A 
ATOM      4  O   UNL     1     -10.829  10.547   4.520  1.00  0.00    -0.452 OA
ATOM      5  C   UNL     1     -12.351   8.534   5.603  1.00  0.00     0.239 A 
ATOM      6  C   UNL     1     -12.096  10.439   4.139  1.00  0.00     0.146 A 
ATOM      7  O   UNL     1     -13.019   7.569   6.056  1.00  0.00    -0.285 OA
ATOM      8  C   UNL     1     -12.924   9.427   4.681  1.00  0.00     0.111 A 
ATOM      9  C   UNL     1     -12.602  11.333   3.192  1.00  0.00     0.094 A 
ATOM     10  C   UNL     1     -14.271   9.336   4.250  1.00  0.00     0.134 A 
ATOM     11  C   UNL     1     -13.924  11.229   2.758  1.00  0.00     0.123 A 
ATOM     12  C   UNL     1     -14.756  10.239   3.292  1.00  0.00     0.093 A 
BRANCH   3  13
ATOM     13  C   UNL     1      -8.847   9.975   5.761  1.00  0.00     0.025 A 
ATOM     14  C   UNL     1      -7.842   9.398   4.977  1.00  0.00     0.016 A 
ATOM     15  C   UNL     1      -6.498   9.628   5.273  1.00  0.00     0.051 A 
ATOM     16  C   UNL     1      -6.136  10.437   6.360  1.00  0.00     0.157 A 
ATOM     17  C   UNL     1      -8.494  10.745   6.881  1.00  0.00     0.062 A 
ATOM     18  C   UNL     1      -7.147  10.983   7.187  1.00  0.00     0.158 A 
BRANCH  16  19
ATOM     19  O   UNL     1      -4.776  10.665   6.575  1.00  0.00    -0.504 OA
ATOM     20  H   UNL     1      -4.105   9.934   6.787  1.00  0.00     0.293 HD
ENDBRANCH  16  19
BRANCH  18  21
ATOM     21  O   UNL     1      -6.857  11.779   8.302  1.00  0.00    -0.504 OA
ATOM     22  H   UNL     1      -7.406  11.786   9.147  1.00  0.00     0.293 HD
ENDBRANCH  18  21
ENDBRANCH   3  13
BRANCH  10  23
ATOM     23  O   UNL     1     -15.125   8.366   4.773  1.00  0.00    -0.507 OA
ATOM     24  H   UNL     1     -16.134   8.461   4.732  1.00  0.00     0.293 HD
ENDBRANCH  10  23
BRANCH  11  25
ATOM     25  O   UNL     1     -14.404  12.117   1.796  1.00  0.00    -0.508 OA
ATOM     26  H   UNL     1     -14.668  13.065   2.036  1.00  0.00     0.293 HD
ENDBRANCH  11  25
ENDBRANCH   1   2
BRANCH   1  27
ATOM     27  C   UNL     1      -9.640   6.695   6.623  1.00  0.00     0.339 C 
ATOM     28  C   UNL     1      -9.685   5.639   7.744  1.00  0.00     0.214 C 
ATOM     29  O   UNL     1     -10.099   6.124   5.403  1.00  0.00    -0.332 OA
ATOM     30  C   UNL     1     -11.134   5.195   7.960  1.00  0.00     0.180 C 
ATOM     31  C   UNL     1     -11.451   5.672   5.486  1.00  0.00     0.179 C 
ATOM     32  C   UNL     1     -11.665   4.637   6.632  1.00  0.00     0.177 C 
BRANCH  28  33
ATOM     33  O   UNL     1      -9.150   6.150   8.935  1.00  0.00    -0.384 OA
ATOM     34  H   UNL     1      -9.746   5.860   9.672  1.00  0.00     0.211 HD
ENDBRANCH  28  33
BRANCH  30  35
ATOM     35  O   UNL     1     -11.167   4.210   8.965  1.00  0.00    -0.387 OA
ATOM     36  H   UNL     1     -10.335   4.294   9.509  1.00  0.00     0.211 HD
ENDBRANCH  30  35
BRANCH  31  37
ATOM     37  C   UNL     1     -11.865   5.077   4.128  1.00  0.00     0.191 C 
BRANCH  37  38
ATOM     38  O   UNL     1     -13.204   5.338   3.814  1.00  0.00    -0.394 OA
ATOM     39  H   UNL     1     -13.452   6.187   4.262  1.00  0.00     0.210 HD
ENDBRANCH  37  38
ENDBRANCH  31  37
BRANCH  32  40
ATOM     40  O   UNL     1     -13.032   4.337   6.759  1.00  0.00    -0.387 OA
ATOM     41  H   UNL     1     -13.401   4.978   7.425  1.00  0.00     0.211 HD
ENDBRANCH  32  40
ENDBRANCH   1  27
TORSDOF 12
ENDMDL
MODEL 4
REMARK VINA RESULT:    -2.498      1.178      1.450
REMARK INTER + INTRA:          -3.855
REMARK INTER:                  -4.854
REMARK INTRA:                   0.999
REMARK UNBOUND:                -0.189
REMARK SMILES O=c1c(O[C@@H]2O[C@@H](CO)[C@H](O)[C@@H](O)[C@@H]2O)c(-c2ccc(O)c(O)c2)oc2cc(O)cc(O)c12
REMARK SMILES IDX 4 1 3 2 16 3 25 4 2 5 26 6 1 7 33 8 27 9 31 10 28 11 30 12
REMARK SMILES IDX 17 13 18 14 19 15 20 16 24 17 22 18 21 19 23 21 32 23 29 25
REMARK SMILES IDX 5 27 14 28 6 29 12 30 7 31 10 32 15 33 13 35 8 37 9 38 11 40
REMARK H PARENT 21 20 23 22 32 24 29 26 15 34 13 36 9 39 11 41
REMARK Flexibility Score: inf
ROOT
ATOM      1  O   UNL     1     -10.878   9.395   4.842  1.00  0.00    -0.454 OA
ENDROOT
BRANCH   1   2
ATOM      2  C   UNL     1     -10.644   8.268   5.654  1.00  0.00     0.214 A 
ATOM      3  C   UNL     1      -9.398   8.086   6.282  1.00  0.00     0.180 A 
ATOM      4  O   UNL     1      -9.179   7.009   7.034  1.00  0.00    -0.452 OA
ATOM      5  C   UNL     1     -11.649   7.309   5.870  1.00  0.00     0.239 A 
ATOM      6  C   UNL     1     -10.091   6.067   7.238  1.00  0.00     0.146 A 
ATOM      7  O   UNL     1     -12.795   7.490   5.386  1.00  0.00    -0.285 OA
ATOM      8  C   UNL     1     -11.373   6.169   6.646  1.00  0.00     0.111 A 
ATOM      9  C   UNL     1      -9.774   4.973   8.047  1.00  0.00     0.094 A 
ATOM     10  C   UNL     1     -12.327   5.149   6.887  1.00  0.00     0.134 A 
ATOM     11  C   UNL     1     -10.721   3.980   8.296  1.00  0.00     0.123 A 
ATOM     12  C   UNL     1     -11.988   4.064   7.710  1.00  0.00     0.093 A 
BRANCH   3  13
ATOM     13  C   UNL     1      -8.291   9.053   6.123  1.00  0.00     0.025 A 
ATOM     14  C   UNL     1      -7.859   9.392   4.835  1.00  0.00     0.016 A 
ATOM     15  C   UNL     1      -6.832  10.319   4.659  1.00  0.00     0.051 A 
ATOM     16  C   UNL     1      -6.217  10.922   5.766  1.00  0.00     0.157 A 
ATOM     17  C   UNL     1      -7.648   9.613   7.237  1.00  0.00     0.062 A 
ATOM     18  C   UNL     1      -6.615  10.546   7.072  1.00  0.00     0.158 A 
BRANCH  16  19
ATOM     19  O   UNL     1      -5.227  11.875   5.521  1.00  0.00    -0.504 OA
ATOM     20  H   UNL     1      -4.346  11.672   5.061  1.00  0.00     0.293 HD
ENDBRANCH  16  19
BRANCH  18  21
ATOM     21  O   UNL     1      -6.028  11.088   8.222  1.00  0.00    -0.504 OA
ATOM     22  H   UNL     1      -5.037  11.218   8.340  1.00  0.00     0.293 HD
ENDBRANCH  18  21
ENDBRANCH   3  13
BRANCH  10  23
ATOM     23  O   UNL     1     -13.593   5.203   6.308  1.00  0.00    -0.507 OA
ATOM     24  H   UNL     1     -14.171   6.035   6.358  1.00  0.00     0.293 HD
ENDBRANCH  10  23
BRANCH  11  25
ATOM     25  O   UNL     1     -10.392   2.908   9.124  1.00  0.00    -0.508 OA
ATOM     26  H   UNL     1      -9.600   2.308   8.925  1.00  0.00     0.293 HD
ENDBRANCH  11  25
ENDBRANCH   1   2
BRANCH   1  27
ATOM     27  C   UNL     1     -11.590  10.565   5.288  1.00  0.00     0.339 C 
ATOM     28  C   UNL     1     -11.607  11.658   4.202  1.00  0.00     0.214 C 
ATOM     29  O   UNL     1     -12.923  10.222   5.649  1.00  0.00    -0.332 OA
ATOM     30  C   UNL     1     -12.298  11.113   2.950  1.00  0.00     0.180 C 
ATOM     31  C   UNL     1     -13.669   9.697   4.551  1.00  0.00     0.179 C 
ATOM     32  C   UNL     1     -13.718  10.677   3.339  1.00  0.00     0.177 C 
BRANCH  28  33
ATOM     33  O   UNL     1     -10.306  12.080   3.895  1.00  0.00    -0.384 OA
ATOM     34  H   UNL     1      -9.877  12.353   4.746  1.00  0.00     0.211 HD
ENDBRANCH  28  33
BRANCH  30  35
ATOM     35  O   UNL     1     -12.337  12.124   1.970  1.00  0.00    -0.387 OA
ATOM     36  H   UNL     1     -12.081  12.985   2.404  1.00  0.00     0.211 HD
ENDBRANCH  30  35
BRANCH  31  37
ATOM     37  C   UNL     1     -15.090   9.350   5.030  1.00  0.00     0.191 C 
BRANCH  37  38
ATOM     38  O   UNL     1     -15.092   8.398   6.056  1.00  0.00    -0.394 OA
ATOM     39  H   UNL     1     -15.493   7.569   5.690  1.00  0.00     0.210 HD
ENDBRANCH  37  38
ENDBRANCH  31  37
BRANCH  32  40
ATOM     40  O   UNL     1     -14.338  10.055   2.242  1.00  0.00    -0.387 OA
ATOM     41  H   UNL     1     -14.801  10.773   1.734  1.00  0.00     0.211 HD
ENDBRANCH  32  40
ENDBRANCH   1  27
TORSDOF 12
ENDMDL
