MODEL 1
REMARK VINA RESULT:    -3.363      0.000      0.000
REMARK INTER + INTRA:          -5.637
REMARK INTER:                  -5.133
REMARK INTRA:                  -0.504
REMARK UNBOUND:                -0.504
REMARK SMILES O=C([O-])CCCCCCCCC(=O)[O-]
REMARK SMILES IDX 7 1 6 2 5 3 4 4 2 5 1 6 3 7 8 8 9 9 10 10 11 11 12 12 13 13
REMARK SMILES IDX 14 14
REMARK H PARENT
REMARK Flexibility Score: inf
ROOT
ATOM      1  C   UNL     1      71.626  31.251  58.961  1.00  0.00     0.000 C 
ENDROOT
BRANCH   1   2
ATOM      2  C   UNL     1      71.282  32.131  60.169  1.00  0.00     0.000 C 
BRANCH   2   3
ATOM      3  C   UNL     1      70.943  33.563  59.727  1.00  0.00     0.006 C 
BRANCH   3   4
ATOM      4  C   UNL     1      70.425  33.618  58.284  1.00  0.00     0.053 C 
BRANCH   4   5
ATOM      5  C   UNL     1      69.740  34.918  57.989  1.00  0.00     0.041 C 
ATOM      6  O   UNL     1      68.492  35.024  58.129  1.00  0.00    -0.550 OA
ATOM      7  O   UNL     1      70.475  36.003  57.529  1.00  0.00    -0.550 OA
ENDBRANCH   4   5
ENDBRANCH   3   4
ENDBRANCH   2   3
ENDBRANCH   1   2
BRANCH   1   8
ATOM      8  C   UNL     1      72.600  30.135  59.353  1.00  0.00     0.000 C 
BRANCH   8   9
ATOM      9  C   UNL     1      72.726  30.024  60.878  1.00  0.00     0.000 C 
BRANCH   9  10
ATOM     10  C   UNL     1      72.342  28.617  61.361  1.00  0.00     0.006 C 
BRANCH  10  11
ATOM     11  C   UNL     1      71.479  27.868  60.337  1.00  0.00     0.053 C 
BRANCH  11  12
ATOM     12  C   UNL     1      70.022  28.167  60.513  1.00  0.00     0.041 C 
ATOM     13  O   UNL     1      69.592  28.596  61.617  1.00  0.00    -0.550 OA
ATOM     14  O   UNL     1      69.143  28.004  59.450  1.00  0.00    -0.550 OA
ENDBRANCH  11  12
ENDBRANCH  10  11
ENDBRANCH   9  10
ENDBRANCH   8   9
ENDBRANCH   1   8
TORSDOF 9
ENDMDL
MODEL 2
REMARK VINA RESULT:    -3.354     17.249     19.716
REMARK INTER + INTRA:          -5.622
REMARK INTER:                  -5.005
REMARK INTRA:                  -0.618
REMARK UNBOUND:                -0.504
REMARK SMILES O=C([O-])CCCCCCCCC(=O)[O-]
REMARK SMILES IDX 7 1 6 2 5 3 4 4 2 5 1 6 3 7 8 8 9 9 10 10 11 11 12 12 13 13
REMARK SMILES IDX 14 14
REMARK H PARENT
REMARK Flexibility Score: inf
ROOT
ATOM      1  C   UNL     1      59.829  18.421  50.217  1.00  0.00     0.000 C 
ENDROOT
BRANCH   1   2
ATOM      2  C   UNL     1      58.966  18.099  48.992  1.00  0.00     0.000 C 
BRANCH   2   3
ATOM      3  C   UNL     1      57.803  17.169  49.368  1.00  0.00     0.006 C 
BRANCH   3   4
ATOM      4  C   UNL     1      57.272  17.445  50.780  1.00  0.00     0.053 C 
BRANCH   4   5
ATOM      5  C   UNL     1      56.126  18.412  50.764  1.00  0.00     0.041 C 
ATOM      6  O   UNL     1      55.353  18.461  49.771  1.00  0.00    -0.550 OA
ATOM      7  O   UNL     1      55.934  19.279  51.831  1.00  0.00    -0.550 OA
ENDBRANCH   4   5
ENDBRANCH   3   4
ENDBRANCH   2   3
ENDBRANCH   1   2
BRANCH   1   8
ATOM      8  C   UNL     1      60.342  19.865  50.165  1.00  0.00     0.000 C 
BRANCH   8   9
ATOM      9  C   UNL     1      60.148  20.469  48.768  1.00  0.00     0.000 C 
BRANCH   9  10
ATOM     10  C   UNL     1      61.122  21.632  48.532  1.00  0.00     0.006 C 
BRANCH  10  11
ATOM     11  C   UNL     1      61.326  22.483  49.792  1.00  0.00     0.053 C 
BRANCH  11  12
ATOM     12  C   UNL     1      60.256  23.520  49.943  1.00  0.00     0.041 C 
ATOM     13  O   UNL     1      60.226  24.516  49.172  1.00  0.00    -0.550 OA
ATOM     14  O   UNL     1      59.273  23.371  50.913  1.00  0.00    -0.550 OA
ENDBRANCH  11  12
ENDBRANCH  10  11
ENDBRANCH   9  10
ENDBRANCH   8   9
ENDBRANCH   1   8
TORSDOF 9
ENDMDL
MODEL 3
REMARK VINA RESULT:    -3.280     16.096     16.794
REMARK INTER + INTRA:          -5.510
REMARK INTER:                  -5.232
REMARK INTRA:                  -0.279
REMARK UNBOUND:                -0.504
REMARK SMILES O=C([O-])CCCCCCCCC(=O)[O-]
REMARK SMILES IDX 7 1 6 2 5 3 4 4 2 5 1 6 3 7 8 8 9 9 10 10 11 11 12 12 13 13
REMARK SMILES IDX 14 14
REMARK H PARENT
REMARK Flexibility Score: inf
ROOT
ATOM      1  C   UNL     1      59.814  27.490  48.654  1.00  0.00     0.000 C 
ENDROOT
BRANCH   1   2
ATOM      2  C   UNL     1      58.660  28.496  48.580  1.00  0.00     0.000 C 
BRANCH   2   3
ATOM      3  C   UNL     1      57.935  28.602  49.931  1.00  0.00     0.006 C 
BRANCH   3   4
ATOM      4  C   UNL     1      56.423  28.379  49.797  1.00  0.00     0.053 C 
BRANCH   4   5
ATOM      5  C   UNL     1      55.644  29.590  50.210  1.00  0.00     0.041 C 
ATOM      6  O   UNL     1      54.490  29.791  49.747  1.00  0.00    -0.550 OA
ATOM      7  O   UNL     1      56.206  30.514  51.082  1.00  0.00    -0.550 OA
ENDBRANCH   4   5
ENDBRANCH   3   4
ENDBRANCH   2   3
ENDBRANCH   1   2
BRANCH   1   8
ATOM      8  C   UNL     1      59.321  26.122  49.140  1.00  0.00     0.000 C 
BRANCH   8   9
ATOM      9  C   UNL     1      60.484  25.129  49.261  1.00  0.00     0.000 C 
BRANCH   9  10
ATOM     10  C   UNL     1      60.000  23.780  49.812  1.00  0.00     0.006 C 
BRANCH  10  11
ATOM     11  C   UNL     1      61.140  22.760  49.933  1.00  0.00     0.053 C 
BRANCH  11  12
ATOM     12  C   UNL     1      60.717  21.397  49.477  1.00  0.00     0.041 C 
ATOM     13  O   UNL     1      60.628  21.141  48.247  1.00  0.00    -0.550 OA
ATOM     14  O   UNL     1      60.455  20.400  50.408  1.00  0.00    -0.550 OA
ENDBRANCH  11  12
ENDBRANCH  10  11
ENDBRANCH   9  10
ENDBRANCH   8   9
ENDBRANCH   1   8
TORSDOF 9
ENDMDL
MODEL 4
REMARK VINA RESULT:    -3.279     17.300     19.283
REMARK INTER + INTRA:          -5.509
REMARK INTER:                  -4.887
REMARK INTRA:                  -0.622
REMARK UNBOUND:                -0.504
REMARK SMILES O=C([O-])CCCCCCCCC(=O)[O-]
REMARK SMILES IDX 7 1 6 2 5 3 4 4 2 5 1 6 3 7 8 8 9 9 10 10 11 11 12 12 13 13
REMARK SMILES IDX 14 14
REMARK H PARENT
REMARK Flexibility Score: inf
ROOT
ATOM      1  C   UNL     1      60.447  18.902  51.528  1.00  0.00     0.000 C 
ENDROOT
BRANCH   1   2
ATOM      2  C   UNL     1      61.112  19.941  50.619  1.00  0.00     0.000 C 
BRANCH   2   3
ATOM      3  C   UNL     1      60.211  20.281  49.422  1.00  0.00     0.006 C 
BRANCH   3   4
ATOM      4  C   UNL     1      60.830  21.355  48.517  1.00  0.00     0.053 C 
BRANCH   4   5
ATOM      5  C   UNL     1      61.031  22.648  49.247  1.00  0.00     0.041 C 
ATOM      6  O   UNL     1      60.038  23.310  49.650  1.00  0.00    -0.550 OA
ATOM      7  O   UNL     1      62.314  23.138  49.453  1.00  0.00    -0.550 OA
ENDBRANCH   4   5
ENDBRANCH   3   4
ENDBRANCH   2   3
ENDBRANCH   1   2
BRANCH   1   8
ATOM      8  C   UNL     1      60.238  17.575  50.787  1.00  0.00     0.000 C 
BRANCH   8   9
ATOM      9  C   UNL     1      58.995  16.843  51.308  1.00  0.00     0.000 C 
BRANCH   9  10
ATOM     10  C   UNL     1      57.944  16.687  50.199  1.00  0.00     0.006 C 
BRANCH  10  11
ATOM     11  C   UNL     1      57.322  18.030  49.796  1.00  0.00     0.053 C 
BRANCH  11  12
ATOM     12  C   UNL     1      55.965  18.220  50.401  1.00  0.00     0.041 C 
ATOM     13  O   UNL     1      54.951  18.325  49.661  1.00  0.00    -0.550 OA
ATOM     14  O   UNL     1      55.815  18.247  51.781  1.00  0.00    -0.550 OA
ENDBRANCH  11  12
ENDBRANCH  10  11
ENDBRANCH   9  10
ENDBRANCH   8   9
ENDBRANCH   1   8
TORSDOF 9
ENDMDL
MODEL 5
REMARK VINA RESULT:    -3.262     15.775     16.880
REMARK INTER + INTRA:          -5.482
REMARK INTER:                  -4.700
REMARK INTRA:                  -0.782
REMARK UNBOUND:                -0.504
REMARK SMILES O=C([O-])CCCCCCCCC(=O)[O-]
REMARK SMILES IDX 7 1 6 2 5 3 4 4 2 5 1 6 3 7 8 8 9 9 10 10 11 11 12 12 13 13
REMARK SMILES IDX 14 14
REMARK H PARENT
REMARK Flexibility Score: inf
ROOT
ATOM      1  C   UNL     1      58.312  28.790  50.549  1.00  0.00     0.000 C 
ENDROOT
BRANCH   1   2
ATOM      2  C   UNL     1      57.241  28.622  49.465  1.00  0.00     0.000 C 
BRANCH   2   3
ATOM      3  C   UNL     1      55.832  28.799  50.052  1.00  0.00     0.006 C 
BRANCH   3   4
ATOM      4  C   UNL     1      55.275  30.207  49.808  1.00  0.00     0.053 C 
BRANCH   4   5
ATOM      5  C   UNL     1      54.877  30.876  51.089  1.00  0.00     0.041 C 
ATOM      6  O   UNL     1      55.682  31.644  51.680  1.00  0.00    -0.550 OA
ATOM      7  O   UNL     1      53.629  30.626  51.645  1.00  0.00    -0.550 OA
ENDBRANCH   4   5
ENDBRANCH   3   4
ENDBRANCH   2   3
ENDBRANCH   1   2
BRANCH   1   8
ATOM      8  C   UNL     1      59.709  28.490  49.994  1.00  0.00     0.000 C 
BRANCH   8   9
ATOM      9  C   UNL     1      59.630  27.557  48.778  1.00  0.00     0.000 C 
BRANCH   9  10
ATOM     10  C   UNL     1      59.952  26.109  49.175  1.00  0.00     0.006 C 
BRANCH  10  11
ATOM     11  C   UNL     1      58.704  25.217  49.180  1.00  0.00     0.053 C 
BRANCH  11  12
ATOM     12  C   UNL     1      58.082  25.135  50.540  1.00  0.00     0.041 C 
ATOM     13  O   UNL     1      58.802  25.212  51.571  1.00  0.00    -0.550 OA
ATOM     14  O   UNL     1      56.705  25.008  50.671  1.00  0.00    -0.550 OA
ENDBRANCH  11  12
ENDBRANCH  10  11
ENDBRANCH   9  10
ENDBRANCH   8   9
ENDBRANCH   1   8
TORSDOF 9
ENDMDL
MODEL 6
REMARK VINA RESULT:    -3.258     17.815     20.252
REMARK INTER + INTRA:          -5.477
REMARK INTER:                  -4.733
REMARK INTRA:                  -0.744
REMARK UNBOUND:                -0.504
REMARK SMILES O=C([O-])CCCCCCCCC(=O)[O-]
REMARK SMILES IDX 7 1 6 2 5 3 4 4 2 5 1 6 3 7 8 8 9 9 10 10 11 11 12 12 13 13
REMARK SMILES IDX 14 14
REMARK H PARENT
REMARK Flexibility Score: inf
ROOT
ATOM      1  C   UNL     1      58.852  16.407  50.920  1.00  0.00     0.000 C 
ENDROOT
BRANCH   1   2
ATOM      2  C   UNL     1      57.758  16.589  49.862  1.00  0.00     0.000 C 
BRANCH   2   3
ATOM      3  C   UNL     1      57.153  17.999  49.933  1.00  0.00     0.006 C 
BRANCH   3   4
ATOM      4  C   UNL     1      56.206  18.164  51.129  1.00  0.00     0.053 C 
BRANCH   4   5
ATOM      5  C   UNL     1      54.949  18.885  50.747  1.00  0.00     0.041 C 
ATOM      6  O   UNL     1      54.500  18.797  49.573  1.00  0.00    -0.550 OA
ATOM      7  O   UNL     1      54.291  19.678  51.678  1.00  0.00    -0.550 OA
ENDBRANCH   4   5
ENDBRANCH   3   4
ENDBRANCH   2   3
ENDBRANCH   1   2
BRANCH   1   8
ATOM      8  C   UNL     1      60.019  17.373  50.678  1.00  0.00     0.000 C 
BRANCH   8   9
ATOM      9  C   UNL     1      60.254  18.270  51.900  1.00  0.00     0.000 C 
BRANCH   9  10
ATOM     10  C   UNL     1      60.445  19.734  51.478  1.00  0.00     0.006 C 
BRANCH  10  11
ATOM     11  C   UNL     1      60.225  19.938  49.974  1.00  0.00     0.053 C 
BRANCH  11  12
ATOM     12  C   UNL     1      60.750  21.263  49.509  1.00  0.00     0.041 C 
ATOM     13  O   UNL     1      61.077  22.143  50.348  1.00  0.00    -0.550 OA
ATOM     14  O   UNL     1      60.908  21.513  48.152  1.00  0.00    -0.550 OA
ENDBRANCH  11  12
ENDBRANCH  10  11
ENDBRANCH   9  10
ENDBRANCH   8   9
ENDBRANCH   1   8
TORSDOF 9
ENDMDL
MODEL 7
REMARK VINA RESULT:    -3.253      1.328      2.218
REMARK INTER + INTRA:          -5.469
REMARK INTER:                  -4.633
REMARK INTRA:                  -0.836
REMARK UNBOUND:                -0.504
REMARK SMILES O=C([O-])CCCCCCCCC(=O)[O-]
REMARK SMILES IDX 7 1 6 2 5 3 4 4 2 5 1 6 3 7 8 8 9 9 10 10 11 11 12 12 13 13
REMARK SMILES IDX 14 14
REMARK H PARENT
REMARK Flexibility Score: inf
ROOT
ATOM      1  C   UNL     1      72.911  29.984  61.365  1.00  0.00     0.000 C 
ENDROOT
BRANCH   1   2
ATOM      2  C   UNL     1      72.613  30.540  59.968  1.00  0.00     0.000 C 
BRANCH   2   3
ATOM      3  C   UNL     1      71.431  31.521  60.007  1.00  0.00     0.006 C 
BRANCH   3   4
ATOM      4  C   UNL     1      71.105  32.092  58.621  1.00  0.00     0.053 C 
BRANCH   4   5
ATOM      5  C   UNL     1      70.593  33.498  58.706  1.00  0.00     0.041 C 
ATOM      6  O   UNL     1      70.136  34.069  57.681  1.00  0.00    -0.550 OA
ATOM      7  O   UNL     1      70.651  34.187  59.911  1.00  0.00    -0.550 OA
ENDBRANCH   4   5
ENDBRANCH   3   4
ENDBRANCH   2   3
ENDBRANCH   1   2
BRANCH   1   8
ATOM      8  C   UNL     1      72.543  28.498  61.456  1.00  0.00     0.000 C 
BRANCH   8   9
ATOM      9  C   UNL     1      72.458  27.865  60.062  1.00  0.00     0.000 C 
BRANCH   9  10
ATOM     10  C   UNL     1      71.124  27.127  59.873  1.00  0.00     0.006 C 
BRANCH  10  11
ATOM     11  C   UNL     1      69.953  27.868  60.531  1.00  0.00     0.053 C 
BRANCH  11  12
ATOM     12  C   UNL     1      69.022  28.454  59.514  1.00  0.00     0.041 C 
ATOM     13  O   UNL     1      67.784  28.501  59.742  1.00  0.00    -0.550 OA
ATOM     14  O   UNL     1      69.524  28.976  58.329  1.00  0.00    -0.550 OA
ENDBRANCH  11  12
ENDBRANCH  10  11
ENDBRANCH   9  10
ENDBRANCH   8   9
ENDBRANCH   1   8
TORSDOF 9
ENDMDL
MODEL 8
REMARK VINA RESULT:    -3.183      3.228      5.270
REMARK INTER + INTRA:          -5.362
REMARK INTER:                  -4.386
REMARK INTRA:                  -0.976
REMARK UNBOUND:                -0.504
REMARK SMILES O=C([O-])CCCCCCCCC(=O)[O-]
REMARK SMILES IDX 7 1 6 2 5 3 4 4 2 5 1 6 3 7 8 8 9 9 10 10 11 11 12 12 13 13
REMARK SMILES IDX 14 14
REMARK H PARENT
REMARK Flexibility Score: inf
ROOT
ATOM      1  C   UNL     1      72.737  30.581  60.143  1.00  0.00     0.000 C 
ENDROOT
BRANCH   1   2
ATOM      2  C   UNL     1      72.970  30.144  61.593  1.00  0.00     0.000 C 
BRANCH   2   3
ATOM      3  C   UNL     1      72.638  28.655  61.779  1.00  0.00     0.006 C 
BRANCH   3   4
ATOM      4  C   UNL     1      72.069  28.024  60.501  1.00  0.00     0.053 C 
BRANCH   4   5
ATOM      5  C   UNL     1      70.584  27.837  60.588  1.00  0.00     0.041 C 
ATOM      6  O   UNL     1      70.016  26.944  59.905  1.00  0.00    -0.550 OA
ATOM      7  O   UNL     1      69.825  28.672  61.398  1.00  0.00    -0.550 OA
ENDBRANCH   4   5
ENDBRANCH   3   4
ENDBRANCH   2   3
ENDBRANCH   1   2
BRANCH   1   8
ATOM      8  C   UNL     1      71.609  31.615  60.054  1.00  0.00     0.000 C 
BRANCH   8   9
ATOM      9  C   UNL     1      70.815  31.453  58.751  1.00  0.00     0.000 C 
BRANCH   9  10
ATOM     10  C   UNL     1      71.617  30.654  57.714  1.00  0.00     0.006 C 
BRANCH  10  11
ATOM     11  C   UNL     1      70.846  29.431  57.200  1.00  0.00     0.053 C 
BRANCH  11  12
ATOM     12  C   UNL     1      71.766  28.311  56.823  1.00  0.00     0.041 C 
ATOM     13  O   UNL     1      73.008  28.426  56.996  1.00  0.00    -0.550 OA
ATOM     14  O   UNL     1      71.250  27.127  56.312  1.00  0.00    -0.550 OA
ENDBRANCH  11  12
ENDBRANCH  10  11
ENDBRANCH   9  10
ENDBRANCH   8   9
ENDBRANCH   1   8
TORSDOF 9
ENDMDL
MODEL 9
REMARK VINA RESULT:    -3.168      2.139      3.169
REMARK INTER + INTRA:          -5.339
REMARK INTER:                  -4.490
REMARK INTRA:                  -0.850
REMARK UNBOUND:                -0.504
REMARK SMILES O=C([O-])CCCCCCCCC(=O)[O-]
REMARK SMILES IDX 7 1 6 2 5 3 4 4 2 5 1 6 3 7 8 8 9 9 10 10 11 11 12 12 13 13
REMARK SMILES IDX 14 14
REMARK H PARENT
REMARK Flexibility Score: inf
ROOT
ATOM      1  C   UNL     1      72.719  29.062  59.976  1.00  0.00     0.000 C 
ENDROOT
BRANCH   1   2
ATOM      2  C   UNL     1      72.084  28.981  58.583  1.00  0.00     0.000 C 
BRANCH   2   3
ATOM      3  C   UNL     1      71.988  30.373  57.940  1.00  0.00     0.006 C 
BRANCH   3   4
ATOM      4  C   UNL     1      70.660  31.070  58.260  1.00  0.00     0.053 C 
BRANCH   4   5
ATOM      5  C   UNL     1      70.875  32.403  58.911  1.00  0.00     0.041 C 
ATOM      6  O   UNL     1      70.748  33.463  58.243  1.00  0.00    -0.550 OA
ATOM      7  O   UNL     1      71.247  32.471  60.248  1.00  0.00    -0.550 OA
ENDBRANCH   4   5
ENDBRANCH   3   4
ENDBRANCH   2   3
ENDBRANCH   1   2
BRANCH   1   8
ATOM      8  C   UNL     1      71.853  28.346  61.019  1.00  0.00     0.000 C 
BRANCH   8   9
ATOM      9  C   UNL     1      70.577  29.144  61.316  1.00  0.00     0.000 C 
BRANCH   9  10
ATOM     10  C   UNL     1      69.336  28.243  61.244  1.00  0.00     0.006 C 
BRANCH  10  11
ATOM     11  C   UNL     1      68.719  28.214  59.840  1.00  0.00     0.053 C 
BRANCH  11  12
ATOM     12  C   UNL     1      67.283  27.791  59.870  1.00  0.00     0.041 C 
ATOM     13  O   UNL     1      66.904  26.790  59.208  1.00  0.00    -0.550 OA
ATOM     14  O   UNL     1      66.369  28.482  60.656  1.00  0.00    -0.550 OA
ENDBRANCH  11  12
ENDBRANCH  10  11
ENDBRANCH   9  10
ENDBRANCH   8   9
ENDBRANCH   1   8
TORSDOF 9
ENDMDL
