MODEL 1
REMARK VINA RESULT:    -4.653      0.000      0.000
REMARK INTER + INTRA:          -5.095
REMARK INTER:                  -4.925
REMARK INTRA:                  -0.170
REMARK UNBOUND:                -0.170
REMARK SMILES CC(C)[C@H]1CC[C@H](C)CC1=O
REMARK SMILES IDX 8 1 7 2 6 3 5 4 4 5 10 6 11 7 9 8 2 9 1 10 3 11
REMARK H PARENT
REMARK Flexibility Score: inf
ROOT
ATOM      1  C   UNL     1       9.165 -27.099  26.372  1.00  0.00     0.008 C 
ATOM      2  C   UNL     1       8.744 -27.571  27.767  1.00  0.00    -0.007 C 
ATOM      3  C   UNL     1       8.929 -29.095  27.902  1.00  0.00     0.004 C 
ATOM      4  C   UNL     1       8.465 -29.580  29.284  1.00  0.00     0.012 C 
ATOM      5  C   UNL     1       9.255 -28.889  30.421  1.00  0.00     0.058 C 
ATOM      6  C   UNL     1       9.235 -27.382  30.217  1.00  0.00     0.136 C 
ATOM      7  O   UNL     1       9.087 -26.617  31.157  1.00  0.00    -0.299 OA
ATOM      8  C   UNL     1       9.544 -26.828  28.852  1.00  0.00     0.079 C 
ENDROOT
BRANCH   5   9
ATOM      9  C   UNL     1       8.790 -29.321  31.849  1.00  0.00    -0.007 C 
ATOM     10  C   UNL     1       7.589 -30.282  31.842  1.00  0.00     0.008 C 
ATOM     11  C   UNL     1       9.945 -29.925  32.664  1.00  0.00     0.008 C 
ENDBRANCH   5   9
TORSDOF 1
ENDMDL
MODEL 2
REMARK VINA RESULT:    -4.526      2.129      3.424
REMARK INTER + INTRA:          -4.960
REMARK INTER:                  -4.783
REMARK INTRA:                  -0.177
REMARK UNBOUND:                -0.170
REMARK SMILES CC(C)[C@H]1CC[C@H](C)CC1=O
REMARK SMILES IDX 8 1 7 2 6 3 5 4 4 5 10 6 11 7 9 8 2 9 1 10 3 11
REMARK H PARENT
REMARK Flexibility Score: inf
ROOT
ATOM      1  C   UNL     1       9.691 -23.327  30.899  1.00  0.00     0.008 C 
ATOM      2  C   UNL     1       9.902 -24.844  30.861  1.00  0.00    -0.007 C 
ATOM      3  C   UNL     1       9.511 -25.479  32.209  1.00  0.00     0.004 C 
ATOM      4  C   UNL     1       9.764 -26.994  32.191  1.00  0.00     0.012 C 
ATOM      5  C   UNL     1       8.956 -27.690  31.071  1.00  0.00     0.058 C 
ATOM      6  C   UNL     1       9.188 -26.973  29.750  1.00  0.00     0.136 C 
ATOM      7  O   UNL     1       9.335 -27.594  28.708  1.00  0.00    -0.299 OA
ATOM      8  C   UNL     1       9.095 -25.471  29.709  1.00  0.00     0.079 C 
ENDROOT
BRANCH   5   9
ATOM      9  C   UNL     1       9.211 -29.229  30.987  1.00  0.00    -0.007 C 
ATOM     10  C   UNL     1      10.635 -29.640  31.400  1.00  0.00     0.008 C 
ATOM     11  C   UNL     1       8.175 -30.023  31.798  1.00  0.00     0.008 C 
ENDBRANCH   5   9
TORSDOF 1
ENDMDL
MODEL 3
REMARK VINA RESULT:    -4.523      8.474      9.292
REMARK INTER + INTRA:          -4.957
REMARK INTER:                  -4.782
REMARK INTRA:                  -0.176
REMARK UNBOUND:                -0.170
REMARK SMILES CC(C)[C@H]1CC[C@H](C)CC1=O
REMARK SMILES IDX 8 1 7 2 6 3 5 4 4 5 10 6 11 7 9 8 2 9 1 10 3 11
REMARK H PARENT
REMARK Flexibility Score: inf
ROOT
ATOM      1  C   UNL     1      17.755 -24.738  28.679  1.00  0.00     0.008 C 
ATOM      2  C   UNL     1      17.493 -24.330  30.132  1.00  0.00    -0.007 C 
ATOM      3  C   UNL     1      15.990 -24.081  30.363  1.00  0.00     0.004 C 
ATOM      4  C   UNL     1      15.729 -23.627  31.806  1.00  0.00     0.012 C 
ATOM      5  C   UNL     1      16.211 -24.683  32.828  1.00  0.00     0.058 C 
ATOM      6  C   UNL     1      17.646 -25.079  32.518  1.00  0.00     0.136 C 
ATOM      7  O   UNL     1      18.465 -25.245  33.409  1.00  0.00    -0.299 OA
ATOM      8  C   UNL     1      18.021 -25.407  31.098  1.00  0.00     0.079 C 
ENDROOT
BRANCH   5   9
ATOM      9  C   UNL     1      16.002 -24.249  34.314  1.00  0.00    -0.007 C 
ATOM     10  C   UNL     1      15.859 -22.728  34.497  1.00  0.00     0.008 C 
ATOM     11  C   UNL     1      14.807 -24.972  34.957  1.00  0.00     0.008 C 
ENDBRANCH   5   9
TORSDOF 1
ENDMDL
MODEL 4
REMARK VINA RESULT:    -4.451      3.018      4.987
REMARK INTER + INTRA:          -4.881
REMARK INTER:                  -4.717
REMARK INTRA:                  -0.164
REMARK UNBOUND:                -0.170
REMARK SMILES CC(C)[C@H]1CC[C@H](C)CC1=O
REMARK SMILES IDX 8 1 7 2 6 3 5 4 4 5 10 6 11 7 9 8 2 9 1 10 3 11
REMARK H PARENT
REMARK Flexibility Score: inf
ROOT
ATOM      1  C   UNL     1       9.434 -28.901  30.176  1.00  0.00     0.008 C 
ATOM      2  C   UNL     1       9.766 -27.431  30.451  1.00  0.00    -0.007 C 
ATOM      3  C   UNL     1       9.087 -26.519  29.411  1.00  0.00     0.004 C 
ATOM      4  C   UNL     1       9.454 -25.048  29.654  1.00  0.00     0.012 C 
ATOM      5  C   UNL     1       9.024 -24.583  31.065  1.00  0.00     0.058 C 
ATOM      6  C   UNL     1       9.537 -25.565  32.107  1.00  0.00     0.136 C 
ATOM      7  O   UNL     1       9.999 -25.180  33.170  1.00  0.00    -0.299 OA
ATOM      8  C   UNL     1       9.341 -27.040  31.878  1.00  0.00     0.079 C 
ENDROOT
BRANCH   5   9
ATOM      9  C   UNL     1       9.413 -23.102  31.375  1.00  0.00    -0.007 C 
ATOM     10  C   UNL     1      10.801 -22.705  30.844  1.00  0.00     0.008 C 
ATOM     11  C   UNL     1       8.350 -22.116  30.865  1.00  0.00     0.008 C 
ENDBRANCH   5   9
TORSDOF 1
ENDMDL
MODEL 5
REMARK VINA RESULT:    -4.428      1.999      2.597
REMARK INTER + INTRA:          -4.856
REMARK INTER:                  -4.909
REMARK INTRA:                   0.053
REMARK UNBOUND:                -0.170
REMARK SMILES CC(C)[C@H]1CC[C@H](C)CC1=O
REMARK SMILES IDX 8 1 7 2 6 3 5 4 4 5 10 6 11 7 9 8 2 9 1 10 3 11
REMARK H PARENT
REMARK Flexibility Score: inf
ROOT
ATOM      1  C   UNL     1       9.857 -28.743  25.941  1.00  0.00     0.008 C 
ATOM      2  C   UNL     1       9.691 -29.383  27.323  1.00  0.00    -0.007 C 
ATOM      3  C   UNL     1      10.403 -28.540  28.399  1.00  0.00     0.004 C 
ATOM      4  C   UNL     1      10.279 -29.201  29.779  1.00  0.00     0.012 C 
ATOM      5  C   UNL     1       8.799 -29.372  30.194  1.00  0.00     0.058 C 
ATOM      6  C   UNL     1       8.028 -30.052  29.073  1.00  0.00     0.136 C 
ATOM      7  O   UNL     1       7.193 -30.912  29.308  1.00  0.00    -0.299 OA
ATOM      8  C   UNL     1       8.200 -29.553  27.664  1.00  0.00     0.079 C 
ENDROOT
BRANCH   5   9
ATOM      9  C   UNL     1       8.621 -30.078  31.577  1.00  0.00    -0.007 C 
ATOM     10  C   UNL     1       9.763 -29.793  32.566  1.00  0.00     0.008 C 
ATOM     11  C   UNL     1       7.267 -29.736  32.220  1.00  0.00     0.008 C 
ENDBRANCH   5   9
TORSDOF 1
ENDMDL
MODEL 6
REMARK VINA RESULT:    -4.401      7.278      9.050
REMARK INTER + INTRA:          -4.828
REMARK INTER:                  -4.712
REMARK INTRA:                  -0.116
REMARK UNBOUND:                -0.170
REMARK SMILES CC(C)[C@H]1CC[C@H](C)CC1=O
REMARK SMILES IDX 8 1 7 2 6 3 5 4 4 5 10 6 11 7 9 8 2 9 1 10 3 11
REMARK H PARENT
REMARK Flexibility Score: inf
ROOT
ATOM      1  C   UNL     1       9.108 -19.655  37.125  1.00  0.00     0.008 C 
ATOM      2  C   UNL     1       8.934 -20.548  35.892  1.00  0.00    -0.007 C 
ATOM      3  C   UNL     1       8.604 -19.699  34.650  1.00  0.00     0.004 C 
ATOM      4  C   UNL     1       8.384 -20.593  33.421  1.00  0.00     0.012 C 
ATOM      5  C   UNL     1       9.636 -21.446  33.110  1.00  0.00     0.058 C 
ATOM      6  C   UNL     1      10.091 -22.167  34.370  1.00  0.00     0.136 C 
ATOM      7  O   UNL     1      10.475 -23.326  34.334  1.00  0.00    -0.299 OA
ATOM      8  C   UNL     1      10.200 -21.391  35.654  1.00  0.00     0.079 C 
ENDROOT
BRANCH   5   9
ATOM      9  C   UNL     1       9.446 -22.404  31.890  1.00  0.00    -0.007 C 
ATOM     10  C   UNL     1       8.248 -22.035  30.999  1.00  0.00     0.008 C 
ATOM     11  C   UNL     1      10.724 -22.506  31.042  1.00  0.00     0.008 C 
ENDBRANCH   5   9
TORSDOF 1
ENDMDL
MODEL 7
REMARK VINA RESULT:    -4.397      1.574      4.290
REMARK INTER + INTRA:          -4.824
REMARK INTER:                  -4.663
REMARK INTRA:                  -0.160
REMARK UNBOUND:                -0.170
REMARK SMILES CC(C)[C@H]1CC[C@H](C)CC1=O
REMARK SMILES IDX 8 1 7 2 6 3 5 4 4 5 10 6 11 7 9 8 2 9 1 10 3 11
REMARK H PARENT
REMARK Flexibility Score: inf
ROOT
ATOM      1  C   UNL     1       9.860 -29.700  32.652  1.00  0.00     0.008 C 
ATOM      2  C   UNL     1       9.766 -29.680  31.123  1.00  0.00    -0.007 C 
ATOM      3  C   UNL     1       8.313 -29.912  30.667  1.00  0.00     0.004 C 
ATOM      4  C   UNL     1       8.221 -29.940  29.134  1.00  0.00     0.012 C 
ATOM      5  C   UNL     1       8.722 -28.615  28.513  1.00  0.00     0.058 C 
ATOM      6  C   UNL     1      10.091 -28.269  29.079  1.00  0.00     0.136 C 
ATOM      7  O   UNL     1      10.977 -27.821  28.368  1.00  0.00    -0.299 OA
ATOM      8  C   UNL     1      10.306 -28.351  30.566  1.00  0.00     0.079 C 
ENDROOT
BRANCH   5   9
ATOM      9  C   UNL     1       8.686 -28.610  26.951  1.00  0.00    -0.007 C 
ATOM     10  C   UNL     1       7.994 -29.844  26.347  1.00  0.00     0.008 C 
ATOM     11  C   UNL     1       8.047 -27.325  26.400  1.00  0.00     0.008 C 
ENDBRANCH   5   9
TORSDOF 1
ENDMDL
MODEL 8
REMARK VINA RESULT:    -4.387      2.026      4.780
REMARK INTER + INTRA:          -4.813
REMARK INTER:                  -4.686
REMARK INTRA:                  -0.127
REMARK UNBOUND:                -0.170
REMARK SMILES CC(C)[C@H]1CC[C@H](C)CC1=O
REMARK SMILES IDX 8 1 7 2 6 3 5 4 4 5 10 6 11 7 9 8 2 9 1 10 3 11
REMARK H PARENT
REMARK Flexibility Score: inf
ROOT
ATOM      1  C   UNL     1       8.979 -29.991  32.267  1.00  0.00     0.008 C 
ATOM      2  C   UNL     1       9.080 -29.334  30.886  1.00  0.00    -0.007 C 
ATOM      3  C   UNL     1      10.550 -29.261  30.428  1.00  0.00     0.004 C 
ATOM      4  C   UNL     1      10.661 -28.563  29.065  1.00  0.00     0.012 C 
ATOM      5  C   UNL     1       9.847 -29.305  27.979  1.00  0.00     0.058 C 
ATOM      6  C   UNL     1       8.430 -29.546  28.476  1.00  0.00     0.136 C 
ATOM      7  O   UNL     1       7.466 -29.405  27.739  1.00  0.00    -0.299 OA
ATOM      8  C   UNL     1       8.227 -30.101  29.860  1.00  0.00     0.079 C 
ENDROOT
BRANCH   5   9
ATOM      9  C   UNL     1       9.897 -28.608  26.582  1.00  0.00    -0.007 C 
ATOM     10  C   UNL     1      11.015 -27.560  26.457  1.00  0.00     0.008 C 
ATOM     11  C   UNL     1      10.002 -29.631  25.439  1.00  0.00     0.008 C 
ENDBRANCH   5   9
TORSDOF 1
ENDMDL
