MODEL 1
REMARK VINA RESULT:    -3.828      0.000      0.000
REMARK INTER + INTRA:          -9.354
REMARK INTER:                  -6.961
REMARK INTRA:                  -2.393
REMARK UNBOUND:                -2.393
REMARK SMILES CCCCCCCCCCCCCCCC(=O)[O-]
REMARK SMILES IDX 9 1 10 2 11 3 12 4 13 5 14 6 15 7 16 8 17 9 18 10 8 11 7 12
REMARK SMILES IDX 6 13 5 14 4 15 3 16 2 17 1 18
REMARK H PARENT
REMARK Flexibility Score: inf
ROOT
ATOM      1  C   UNL     1     -47.524 -54.624  38.672  1.00  0.00     0.000 C 
ENDROOT
BRANCH   1   2
ATOM      2  C   UNL     1     -47.933 -53.221  38.200  1.00  0.00     0.000 C 
BRANCH   2   3
ATOM      3  C   UNL     1     -46.996 -52.668  37.105  1.00  0.00     0.000 C 
BRANCH   3   4
ATOM      4  C   UNL     1     -46.637 -51.181  37.288  1.00  0.00     0.000 C 
BRANCH   4   5
ATOM      5  C   UNL     1     -45.268 -50.766  36.716  1.00  0.00     0.000 C 
BRANCH   5   6
ATOM      6  C   UNL     1     -44.988 -49.249  36.728  1.00  0.00     0.006 C 
BRANCH   6   7
ATOM      7  C   UNL     1     -45.564 -48.503  37.942  1.00  0.00     0.053 C 
BRANCH   7   8
ATOM      8  C   UNL     1     -44.507 -48.161  38.946  1.00  0.00     0.041 C 
ATOM      9  O   UNL     1     -43.518 -48.925  39.109  1.00  0.00    -0.550 OA
ATOM     10  O   UNL     1     -44.595 -46.984  39.678  1.00  0.00    -0.550 OA
ENDBRANCH   7   8
ENDBRANCH   6   7
ENDBRANCH   5   6
ENDBRANCH   4   5
ENDBRANCH   3   4
ENDBRANCH   2   3
ENDBRANCH   1   2
BRANCH   1  11
ATOM     11  C   UNL     1     -47.635 -54.746  40.196  1.00  0.00     0.000 C 
BRANCH  11  12
ATOM     12  C   UNL     1     -48.566 -53.666  40.769  1.00  0.00    -0.000 C 
BRANCH  12  13
ATOM     13  C   UNL     1     -48.341 -53.414  42.271  1.00  0.00    -0.000 C 
BRANCH  13  14
ATOM     14  C   UNL     1     -47.669 -52.072  42.615  1.00  0.00    -0.000 C 
BRANCH  14  15
ATOM     15  C   UNL     1     -47.849 -51.012  41.514  1.00  0.00    -0.000 C 
BRANCH  15  16
ATOM     16  C   UNL     1     -46.513 -50.592  40.878  1.00  0.00    -0.000 C 
BRANCH  16  17
ATOM     17  C   UNL     1     -45.334 -51.456  41.350  1.00  0.00    -0.003 C 
ATOM     18  C   UNL     1     -44.668 -52.164  40.173  1.00  0.00     0.004 C 
ENDBRANCH  16  17
ENDBRANCH  15  16
ENDBRANCH  14  15
ENDBRANCH  13  14
ENDBRANCH  12  13
ENDBRANCH  11  12
ENDBRANCH   1  11
TORSDOF 14
ENDMDL
MODEL 2
REMARK VINA RESULT:    -3.672      3.443      6.262
REMARK INTER + INTRA:          -9.071
REMARK INTER:                  -6.969
REMARK INTRA:                  -2.102
REMARK UNBOUND:                -2.393
REMARK SMILES CCCCCCCCCCCCCCCC(=O)[O-]
REMARK SMILES IDX 9 1 10 2 11 3 12 4 13 5 14 6 15 7 16 8 17 9 18 10 8 11 7 12
REMARK SMILES IDX 6 13 5 14 4 15 3 16 2 17 1 18
REMARK H PARENT
REMARK Flexibility Score: inf
ROOT
ATOM      1  C   UNL     1     -45.752 -51.076  40.724  1.00  0.00     0.000 C 
ENDROOT
BRANCH   1   2
ATOM      2  C   UNL     1     -47.277 -51.006  40.552  1.00  0.00     0.000 C 
BRANCH   2   3
ATOM      3  C   UNL     1     -48.031 -51.167  41.889  1.00  0.00     0.000 C 
BRANCH   3   4
ATOM      4  C   UNL     1     -48.592 -52.583  42.119  1.00  0.00     0.000 C 
BRANCH   4   5
ATOM      5  C   UNL     1     -48.786 -53.422  40.843  1.00  0.00     0.000 C 
BRANCH   5   6
ATOM      6  C   UNL     1     -47.765 -54.563  40.649  1.00  0.00     0.006 C 
BRANCH   6   7
ATOM      7  C   UNL     1     -47.769 -55.191  39.246  1.00  0.00     0.053 C 
BRANCH   7   8
ATOM      8  C   UNL     1     -47.628 -56.682  39.297  1.00  0.00     0.041 C 
ATOM      9  O   UNL     1     -47.231 -57.244  40.353  1.00  0.00    -0.550 OA
ATOM     10  O   UNL     1     -47.966 -57.452  38.192  1.00  0.00    -0.550 OA
ENDBRANCH   7   8
ENDBRANCH   6   7
ENDBRANCH   5   6
ENDBRANCH   4   5
ENDBRANCH   3   4
ENDBRANCH   2   3
ENDBRANCH   1   2
BRANCH   1  11
ATOM     11  C   UNL     1     -45.083 -51.654  39.472  1.00  0.00     0.000 C 
BRANCH  11  12
ATOM     12  C   UNL     1     -46.130 -52.047  38.419  1.00  0.00    -0.000 C 
BRANCH  12  13
ATOM     13  C   UNL     1     -46.021 -51.221  37.124  1.00  0.00    -0.000 C 
BRANCH  13  14
ATOM     14  C   UNL     1     -46.897 -49.956  37.079  1.00  0.00    -0.000 C 
BRANCH  14  15
ATOM     15  C   UNL     1     -46.125 -48.679  37.454  1.00  0.00    -0.000 C 
BRANCH  15  16
ATOM     16  C   UNL     1     -44.639 -48.753  37.063  1.00  0.00    -0.000 C 
BRANCH  16  17
ATOM     17  C   UNL     1     -43.702 -48.429  38.237  1.00  0.00    -0.003 C 
ATOM     18  C   UNL     1     -44.473 -47.809  39.399  1.00  0.00     0.004 C 
ENDBRANCH  16  17
ENDBRANCH  15  16
ENDBRANCH  14  15
ENDBRANCH  13  14
ENDBRANCH  12  13
ENDBRANCH  11  12
ENDBRANCH   1  11
TORSDOF 14
ENDMDL
MODEL 3
REMARK VINA RESULT:    -3.564      3.177      6.489
REMARK INTER + INTRA:          -8.875
REMARK INTER:                  -6.800
REMARK INTRA:                  -2.075
REMARK UNBOUND:                -2.393
REMARK SMILES CCCCCCCCCCCCCCCC(=O)[O-]
REMARK SMILES IDX 9 1 10 2 11 3 12 4 13 5 14 6 15 7 16 8 17 9 18 10 8 11 7 12
REMARK SMILES IDX 6 13 5 14 4 15 3 16 2 17 1 18
REMARK H PARENT
REMARK Flexibility Score: inf
ROOT
ATOM      1  C   UNL     1     -45.123 -48.657  37.116  1.00  0.00     0.000 C 
ENDROOT
BRANCH   1   2
ATOM      2  C   UNL     1     -46.088 -49.848  37.021  1.00  0.00     0.000 C 
BRANCH   2   3
ATOM      3  C   UNL     1     -45.382 -51.201  37.251  1.00  0.00     0.000 C 
BRANCH   3   4
ATOM      4  C   UNL     1     -45.686 -51.835  38.622  1.00  0.00     0.000 C 
BRANCH   4   5
ATOM      5  C   UNL     1     -46.960 -51.313  39.312  1.00  0.00     0.000 C 
BRANCH   5   6
ATOM      6  C   UNL     1     -46.796 -50.960  40.805  1.00  0.00     0.006 C 
BRANCH   6   7
ATOM      7  C   UNL     1     -48.109 -50.942  41.605  1.00  0.00     0.053 C 
BRANCH   7   8
ATOM      8  C   UNL     1     -48.651 -52.321  41.825  1.00  0.00     0.041 C 
ATOM      9  O   UNL     1     -49.601 -52.749  41.116  1.00  0.00    -0.550 OA
ATOM     10  O   UNL     1     -48.087 -53.145  42.790  1.00  0.00    -0.550 OA
ENDBRANCH   7   8
ENDBRANCH   6   7
ENDBRANCH   5   6
ENDBRANCH   4   5
ENDBRANCH   3   4
ENDBRANCH   2   3
ENDBRANCH   1   2
BRANCH   1  11
ATOM     11  C   UNL     1     -44.980 -48.179  38.566  1.00  0.00     0.000 C 
BRANCH  11  12
ATOM     12  C   UNL     1     -43.648 -48.645  39.171  1.00  0.00    -0.000 C 
BRANCH  12  13
ATOM     13  C   UNL     1     -42.473 -48.555  38.180  1.00  0.00    -0.000 C 
BRANCH  13  14
ATOM     14  C   UNL     1     -41.909 -49.908  37.709  1.00  0.00    -0.000 C 
BRANCH  14  15
ATOM     15  C   UNL     1     -41.607 -49.938  36.200  1.00  0.00    -0.000 C 
BRANCH  15  16
ATOM     16  C   UNL     1     -41.695 -48.545  35.554  1.00  0.00    -0.000 C 
BRANCH  16  17
ATOM     17  C   UNL     1     -42.688 -48.498  34.382  1.00  0.00    -0.003 C 
ATOM     18  C   UNL     1     -43.332 -49.862  34.154  1.00  0.00     0.004 C 
ENDBRANCH  16  17
ENDBRANCH  15  16
ENDBRANCH  14  15
ENDBRANCH  13  14
ENDBRANCH  12  13
ENDBRANCH  11  12
ENDBRANCH   1  11
TORSDOF 14
ENDMDL
MODEL 4
REMARK VINA RESULT:    -3.563      0.926      2.966
REMARK INTER + INTRA:          -8.872
REMARK INTER:                  -6.872
REMARK INTRA:                  -2.000
REMARK UNBOUND:                -2.393
REMARK SMILES CCCCCCCCCCCCCCCC(=O)[O-]
REMARK SMILES IDX 9 1 10 2 11 3 12 4 13 5 14 6 15 7 16 8 17 9 18 10 8 11 7 12
REMARK SMILES IDX 6 13 5 14 4 15 3 16 2 17 1 18
REMARK H PARENT
REMARK Flexibility Score: inf
ROOT
ATOM      1  C   UNL     1     -45.683 -50.790  40.401  1.00  0.00     0.000 C 
ENDROOT
BRANCH   1   2
ATOM      2  C   UNL     1     -45.804 -51.826  39.273  1.00  0.00     0.000 C 
BRANCH   2   3
ATOM      3  C   UNL     1     -47.049 -51.598  38.391  1.00  0.00     0.000 C 
BRANCH   3   4
ATOM      4  C   UNL     1     -46.819 -50.605  37.236  1.00  0.00     0.000 C 
BRANCH   4   5
ATOM      5  C   UNL     1     -45.362 -50.499  36.749  1.00  0.00     0.000 C 
BRANCH   5   6
ATOM      6  C   UNL     1     -44.753 -49.083  36.815  1.00  0.00     0.006 C 
BRANCH   6   7
ATOM      7  C   UNL     1     -45.367 -48.173  37.891  1.00  0.00     0.053 C 
BRANCH   7   8
ATOM      8  C   UNL     1     -44.386 -47.842  38.974  1.00  0.00     0.041 C 
ATOM      9  O   UNL     1     -44.628 -46.907  39.783  1.00  0.00    -0.550 OA
ATOM     10  O   UNL     1     -43.223 -48.587  39.111  1.00  0.00    -0.550 OA
ENDBRANCH   7   8
ENDBRANCH   6   7
ENDBRANCH   5   6
ENDBRANCH   4   5
ENDBRANCH   3   4
ENDBRANCH   2   3
ENDBRANCH   1   2
BRANCH   1  11
ATOM     11  C   UNL     1     -47.007 -50.647  41.161  1.00  0.00     0.000 C 
BRANCH  11  12
ATOM     12  C   UNL     1     -47.303 -51.905  41.992  1.00  0.00    -0.000 C 
BRANCH  12  13
ATOM     13  C   UNL     1     -48.735 -52.435  41.790  1.00  0.00    -0.000 C 
BRANCH  13  14
ATOM     14  C   UNL     1     -48.844 -53.722  40.953  1.00  0.00    -0.000 C 
BRANCH  14  15
ATOM     15  C   UNL     1     -47.574 -54.588  41.016  1.00  0.00    -0.000 C 
BRANCH  15  16
ATOM     16  C   UNL     1     -47.593 -55.738  39.995  1.00  0.00    -0.000 C 
BRANCH  16  17
ATOM     17  C   UNL     1     -47.291 -55.264  38.565  1.00  0.00    -0.003 C 
ATOM     18  C   UNL     1     -45.802 -55.378  38.252  1.00  0.00     0.004 C 
ENDBRANCH  16  17
ENDBRANCH  15  16
ENDBRANCH  14  15
ENDBRANCH  13  14
ENDBRANCH  12  13
ENDBRANCH  11  12
ENDBRANCH   1  11
TORSDOF 14
ENDMDL
MODEL 5
REMARK VINA RESULT:    -3.554      3.145      6.589
REMARK INTER + INTRA:          -8.856
REMARK INTER:                  -6.476
REMARK INTRA:                  -2.380
REMARK UNBOUND:                -2.393
REMARK SMILES CCCCCCCCCCCCCCCC(=O)[O-]
REMARK SMILES IDX 9 1 10 2 11 3 12 4 13 5 14 6 15 7 16 8 17 9 18 10 8 11 7 12
REMARK SMILES IDX 6 13 5 14 4 15 3 16 2 17 1 18
REMARK H PARENT
REMARK Flexibility Score: inf
ROOT
ATOM      1  C   UNL     1     -43.249 -48.416  38.237  1.00  0.00     0.000 C 
ENDROOT
BRANCH   1   2
ATOM      2  C   UNL     1     -44.713 -48.726  38.578  1.00  0.00     0.000 C 
BRANCH   2   3
ATOM      3  C   UNL     1     -45.689 -48.253  37.479  1.00  0.00     0.000 C 
BRANCH   3   4
ATOM      4  C   UNL     1     -46.933 -49.149  37.326  1.00  0.00     0.000 C 
BRANCH   4   5
ATOM      5  C   UNL     1     -46.869 -50.487  38.085  1.00  0.00     0.000 C 
BRANCH   5   6
ATOM      6  C   UNL     1     -46.722 -51.738  37.192  1.00  0.00     0.006 C 
BRANCH   6   7
ATOM      7  C   UNL     1     -47.668 -52.894  37.552  1.00  0.00     0.053 C 
BRANCH   7   8
ATOM      8  C   UNL     1     -47.484 -53.352  38.966  1.00  0.00     0.041 C 
ATOM      9  O   UNL     1     -46.350 -53.729  39.367  1.00  0.00    -0.550 OA
ATOM     10  O   UNL     1     -48.554 -53.331  39.850  1.00  0.00    -0.550 OA
ENDBRANCH   7   8
ENDBRANCH   6   7
ENDBRANCH   5   6
ENDBRANCH   4   5
ENDBRANCH   3   4
ENDBRANCH   2   3
ENDBRANCH   1   2
BRANCH   1  11
ATOM     11  C   UNL     1     -42.396 -49.690  38.262  1.00  0.00     0.000 C 
BRANCH  11  12
ATOM     12  C   UNL     1     -43.186 -50.892  37.724  1.00  0.00    -0.000 C 
BRANCH  12  13
ATOM     13  C   UNL     1     -42.914 -51.173  36.235  1.00  0.00    -0.000 C 
BRANCH  13  14
ATOM     14  C   UNL     1     -43.902 -50.516  35.254  1.00  0.00    -0.000 C 
BRANCH  14  15
ATOM     15  C   UNL     1     -43.284 -49.338  34.481  1.00  0.00    -0.000 C 
BRANCH  15  16
ATOM     16  C   UNL     1     -41.747 -49.365  34.495  1.00  0.00    -0.000 C 
BRANCH  16  17
ATOM     17  C   UNL     1     -41.137 -48.077  35.072  1.00  0.00    -0.003 C 
ATOM     18  C   UNL     1     -39.847 -48.374  35.832  1.00  0.00     0.004 C 
ENDBRANCH  16  17
ENDBRANCH  15  16
ENDBRANCH  14  15
ENDBRANCH  13  14
ENDBRANCH  12  13
ENDBRANCH  11  12
ENDBRANCH   1  11
TORSDOF 14
ENDMDL
MODEL 6
REMARK VINA RESULT:    -3.544      3.056      6.297
REMARK INTER + INTRA:          -8.838
REMARK INTER:                  -6.524
REMARK INTRA:                  -2.314
REMARK UNBOUND:                -2.393
REMARK SMILES CCCCCCCCCCCCCCCC(=O)[O-]
REMARK SMILES IDX 9 1 10 2 11 3 12 4 13 5 14 6 15 7 16 8 17 9 18 10 8 11 7 12
REMARK SMILES IDX 6 13 5 14 4 15 3 16 2 17 1 18
REMARK H PARENT
REMARK Flexibility Score: inf
ROOT
ATOM      1  C   UNL     1     -45.172 -51.296  40.811  1.00  0.00     0.000 C 
ENDROOT
BRANCH   1   2
ATOM      2  C   UNL     1     -46.554 -50.629  40.846  1.00  0.00     0.000 C 
BRANCH   2   3
ATOM      3  C   UNL     1     -47.548 -51.373  41.763  1.00  0.00     0.000 C 
BRANCH   3   4
ATOM      4  C   UNL     1     -48.634 -52.153  40.998  1.00  0.00     0.000 C 
BRANCH   4   5
ATOM      5  C   UNL     1     -48.739 -53.647  41.359  1.00  0.00     0.000 C 
BRANCH   5   6
ATOM      6  C   UNL     1     -47.395 -54.340  41.668  1.00  0.00     0.006 C 
BRANCH   6   7
ATOM      7  C   UNL     1     -46.604 -54.782  40.426  1.00  0.00     0.053 C 
BRANCH   7   8
ATOM      8  C   UNL     1     -47.262 -55.928  39.720  1.00  0.00     0.041 C 
ATOM      9  O   UNL     1     -47.832 -55.745  38.611  1.00  0.00    -0.550 OA
ATOM     10  O   UNL     1     -47.215 -57.203  40.268  1.00  0.00    -0.550 OA
ENDBRANCH   7   8
ENDBRANCH   6   7
ENDBRANCH   5   6
ENDBRANCH   4   5
ENDBRANCH   3   4
ENDBRANCH   2   3
ENDBRANCH   1   2
BRANCH   1  11
ATOM     11  C   UNL     1     -44.071 -50.269  40.520  1.00  0.00     0.000 C 
BRANCH  11  12
ATOM     12  C   UNL     1     -44.638 -49.052  39.773  1.00  0.00    -0.000 C 
BRANCH  12  13
ATOM     13  C   UNL     1     -43.930 -48.785  38.433  1.00  0.00    -0.000 C 
BRANCH  13  14
ATOM     14  C   UNL     1     -44.820 -48.920  37.184  1.00  0.00    -0.000 C 
BRANCH  14  15
ATOM     15  C   UNL     1     -46.310 -48.676  37.481  1.00  0.00    -0.000 C 
BRANCH  15  16
ATOM     16  C   UNL     1     -47.176 -49.916  37.205  1.00  0.00    -0.000 C 
BRANCH  16  17
ATOM     17  C   UNL     1     -46.348 -51.207  37.106  1.00  0.00    -0.003 C 
ATOM     18  C   UNL     1     -47.158 -52.415  37.571  1.00  0.00     0.004 C 
ENDBRANCH  16  17
ENDBRANCH  15  16
ENDBRANCH  14  15
ENDBRANCH  13  14
ENDBRANCH  12  13
ENDBRANCH  11  12
ENDBRANCH   1  11
TORSDOF 14
ENDMDL
MODEL 7
REMARK VINA RESULT:    -3.537      1.896      5.173
REMARK INTER + INTRA:          -8.825
REMARK INTER:                  -7.021
REMARK INTRA:                  -1.804
REMARK UNBOUND:                -2.393
REMARK SMILES CCCCCCCCCCCCCCCC(=O)[O-]
REMARK SMILES IDX 9 1 10 2 11 3 12 4 13 5 14 6 15 7 16 8 17 9 18 10 8 11 7 12
REMARK SMILES IDX 6 13 5 14 4 15 3 16 2 17 1 18
REMARK H PARENT
REMARK Flexibility Score: inf
ROOT
ATOM      1  C   UNL     1     -47.276 -50.836  40.812  1.00  0.00     0.000 C 
ENDROOT
BRANCH   1   2
ATOM      2  C   UNL     1     -48.407 -51.224  41.775  1.00  0.00     0.000 C 
BRANCH   2   3
ATOM      3  C   UNL     1     -48.521 -52.751  41.969  1.00  0.00     0.000 C 
BRANCH   3   4
ATOM      4  C   UNL     1     -48.848 -53.519  40.673  1.00  0.00     0.000 C 
BRANCH   4   5
ATOM      5  C   UNL     1     -47.771 -54.522  40.221  1.00  0.00     0.000 C 
BRANCH   5   6
ATOM      6  C   UNL     1     -47.437 -54.488  38.715  1.00  0.00     0.006 C 
BRANCH   6   7
ATOM      7  C   UNL     1     -48.034 -53.292  37.956  1.00  0.00     0.053 C 
BRANCH   7   8
ATOM      8  C   UNL     1     -46.972 -52.378  37.424  1.00  0.00     0.041 C 
ATOM      9  O   UNL     1     -47.232 -51.164  37.208  1.00  0.00    -0.550 OA
ATOM     10  O   UNL     1     -45.689 -52.859  37.197  1.00  0.00    -0.550 OA
ENDBRANCH   7   8
ENDBRANCH   6   7
ENDBRANCH   5   6
ENDBRANCH   4   5
ENDBRANCH   3   4
ENDBRANCH   2   3
ENDBRANCH   1   2
BRANCH   1  11
ATOM     11  C   UNL     1     -45.930 -51.397  41.288  1.00  0.00     0.000 C 
BRANCH  11  12
ATOM     12  C   UNL     1     -44.806 -51.040  40.305  1.00  0.00    -0.000 C 
BRANCH  12  13
ATOM     13  C   UNL     1     -43.981 -49.819  40.752  1.00  0.00    -0.000 C 
BRANCH  13  14
ATOM     14  C   UNL     1     -43.471 -48.921  39.611  1.00  0.00    -0.000 C 
BRANCH  14  15
ATOM     15  C   UNL     1     -44.570 -48.020  39.020  1.00  0.00    -0.000 C 
BRANCH  15  16
ATOM     16  C   UNL     1     -45.016 -48.475  37.621  1.00  0.00    -0.000 C 
BRANCH  16  17
ATOM     17  C   UNL     1     -44.016 -49.439  36.965  1.00  0.00    -0.003 C 
ATOM     18  C   UNL     1     -43.522 -48.890  35.629  1.00  0.00     0.004 C 
ENDBRANCH  16  17
ENDBRANCH  15  16
ENDBRANCH  14  15
ENDBRANCH  13  14
ENDBRANCH  12  13
ENDBRANCH  11  12
ENDBRANCH   1  11
TORSDOF 14
ENDMDL
MODEL 8
REMARK VINA RESULT:    -3.528      1.744      3.913
REMARK INTER + INTRA:          -8.809
REMARK INTER:                  -6.629
REMARK INTRA:                  -2.179
REMARK UNBOUND:                -2.393
REMARK SMILES CCCCCCCCCCCCCCCC(=O)[O-]
REMARK SMILES IDX 9 1 10 2 11 3 12 4 13 5 14 6 15 7 16 8 17 9 18 10 8 11 7 12
REMARK SMILES IDX 6 13 5 14 4 15 3 16 2 17 1 18
REMARK H PARENT
REMARK Flexibility Score: inf
ROOT
ATOM      1  C   UNL     1     -44.321 -51.306  40.759  1.00  0.00     0.000 C 
ENDROOT
BRANCH   1   2
ATOM      2  C   UNL     1     -43.959 -49.818  40.861  1.00  0.00     0.000 C 
BRANCH   2   3
ATOM      3  C   UNL     1     -42.931 -49.384  39.794  1.00  0.00     0.000 C 
BRANCH   3   4
ATOM      4  C   UNL     1     -43.452 -48.297  38.835  1.00  0.00     0.000 C 
BRANCH   4   5
ATOM      5  C   UNL     1     -44.979 -48.097  38.846  1.00  0.00     0.000 C 
BRANCH   5   6
ATOM      6  C   UNL     1     -45.688 -48.407  37.511  1.00  0.00     0.006 C 
BRANCH   6   7
ATOM      7  C   UNL     1     -46.200 -49.851  37.380  1.00  0.00     0.053 C 
BRANCH   7   8
ATOM      8  C   UNL     1     -45.188 -50.750  36.738  1.00  0.00     0.041 C 
ATOM      9  O   UNL     1     -44.976 -51.900  37.206  1.00  0.00    -0.550 OA
ATOM     10  O   UNL     1     -44.505 -50.331  35.604  1.00  0.00    -0.550 OA
ENDBRANCH   7   8
ENDBRANCH   6   7
ENDBRANCH   5   6
ENDBRANCH   4   5
ENDBRANCH   3   4
ENDBRANCH   2   3
ENDBRANCH   1   2
BRANCH   1  11
ATOM     11  C   UNL     1     -45.650 -51.600  41.464  1.00  0.00     0.000 C 
BRANCH  11  12
ATOM     12  C   UNL     1     -46.786 -50.750  40.874  1.00  0.00    -0.000 C 
BRANCH  12  13
ATOM     13  C   UNL     1     -48.119 -50.923  41.623  1.00  0.00    -0.000 C 
BRANCH  13  14
ATOM     14  C   UNL     1     -48.441 -52.364  42.062  1.00  0.00    -0.000 C 
BRANCH  14  15
ATOM     15  C   UNL     1     -48.987 -53.231  40.915  1.00  0.00    -0.000 C 
BRANCH  15  16
ATOM     16  C   UNL     1     -48.052 -54.401  40.564  1.00  0.00    -0.000 C 
BRANCH  16  17
ATOM     17  C   UNL     1     -47.232 -54.143  39.291  1.00  0.00    -0.003 C 
ATOM     18  C   UNL     1     -48.028 -53.317  38.284  1.00  0.00     0.004 C 
ENDBRANCH  16  17
ENDBRANCH  15  16
ENDBRANCH  14  15
ENDBRANCH  13  14
ENDBRANCH  12  13
ENDBRANCH  11  12
ENDBRANCH   1  11
TORSDOF 14
ENDMDL
MODEL 9
REMARK VINA RESULT:    -3.503      2.076      2.502
REMARK INTER + INTRA:          -8.762
REMARK INTER:                  -6.563
REMARK INTRA:                  -2.199
REMARK UNBOUND:                -2.393
REMARK SMILES CCCCCCCCCCCCCCCC(=O)[O-]
REMARK SMILES IDX 9 1 10 2 11 3 12 4 13 5 14 6 15 7 16 8 17 9 18 10 8 11 7 12
REMARK SMILES IDX 6 13 5 14 4 15 3 16 2 17 1 18
REMARK H PARENT
REMARK Flexibility Score: inf
ROOT
ATOM      1  C   UNL     1     -48.035 -53.301  38.092  1.00  0.00     0.000 C 
ENDROOT
BRANCH   1   2
ATOM      2  C   UNL     1     -47.180 -52.195  37.456  1.00  0.00     0.000 C 
BRANCH   2   3
ATOM      3  C   UNL     1     -45.674 -52.529  37.473  1.00  0.00     0.000 C 
BRANCH   3   4
ATOM      4  C   UNL     1     -44.801 -51.497  36.733  1.00  0.00     0.000 C 
BRANCH   4   5
ATOM      5  C   UNL     1     -45.424 -50.095  36.596  1.00  0.00     0.000 C 
BRANCH   5   6
ATOM      6  C   UNL     1     -44.415 -48.928  36.597  1.00  0.00     0.006 C 
BRANCH   6   7
ATOM      7  C   UNL     1     -42.943 -49.358  36.500  1.00  0.00     0.053 C 
BRANCH   7   8
ATOM      8  C   UNL     1     -42.388 -49.157  35.123  1.00  0.00     0.041 C 
ATOM      9  O   UNL     1     -41.589 -50.000  34.634  1.00  0.00    -0.550 OA
ATOM     10  O   UNL     1     -42.780 -48.061  34.367  1.00  0.00    -0.550 OA
ENDBRANCH   7   8
ENDBRANCH   6   7
ENDBRANCH   5   6
ENDBRANCH   4   5
ENDBRANCH   3   4
ENDBRANCH   2   3
ENDBRANCH   1   2
BRANCH   1  11
ATOM     11  C   UNL     1     -47.193 -54.182  39.022  1.00  0.00     0.000 C 
BRANCH  11  12
ATOM     12  C   UNL     1     -47.884 -54.367  40.381  1.00  0.00    -0.000 C 
BRANCH  12  13
ATOM     13  C   UNL     1     -48.877 -53.238  40.710  1.00  0.00    -0.000 C 
BRANCH  13  14
ATOM     14  C   UNL     1     -48.386 -52.216  41.751  1.00  0.00    -0.000 C 
BRANCH  14  15
ATOM     15  C   UNL     1     -47.640 -51.028  41.119  1.00  0.00    -0.000 C 
BRANCH  15  16
ATOM     16  C   UNL     1     -46.114 -51.215  41.133  1.00  0.00    -0.000 C 
BRANCH  16  17
ATOM     17  C   UNL     1     -45.377 -50.126  40.339  1.00  0.00    -0.003 C 
ATOM     18  C   UNL     1     -43.890 -50.449  40.216  1.00  0.00     0.004 C 
ENDBRANCH  16  17
ENDBRANCH  15  16
ENDBRANCH  14  15
ENDBRANCH  13  14
ENDBRANCH  12  13
ENDBRANCH  11  12
ENDBRANCH   1  11
TORSDOF 14
ENDMDL
