MODEL 1
REMARK VINA RESULT:    -6.217      0.000      0.000
REMARK INTER + INTRA:          -7.894
REMARK INTER:                  -7.671
REMARK INTRA:                  -0.223
REMARK UNBOUND:                -0.223
REMARK SMILES O=c1c(O)c(-c2cc(O)c(O)c(O)c2)oc2cc(O)cc(O)c12
REMARK SMILES IDX 5 1 3 2 2 3 1 4 23 5 21 6 20 7 18 8 17 9 16 10 15 11 6 12
REMARK SMILES IDX 7 13 8 14 14 15 10 16 12 17 9 18 11 20 13 22 4 24 22 26
REMARK SMILES IDX 19 28
REMARK H PARENT 9 19 11 21 13 23 4 25 22 27 19 29
REMARK Flexibility Score: inf
ROOT
ATOM      1  C   UNL     1      -2.666 -20.340  17.995  1.00  0.00     0.180 A 
ATOM      2  C   UNL     1      -3.660 -19.833  18.850  1.00  0.00     0.208 A 
ATOM      3  C   UNL     1      -4.182 -20.664  19.855  1.00  0.00     0.238 A 
ATOM      4  O   UNL     1      -5.031 -20.186  20.652  1.00  0.00    -0.285 OA
ATOM      5  C   UNL     1      -3.717 -21.994  19.982  1.00  0.00     0.111 A 
ATOM      6  C   UNL     1      -4.204 -22.936  20.937  1.00  0.00     0.134 A 
ATOM      7  C   UNL     1      -3.580 -24.183  21.059  1.00  0.00     0.093 A 
ATOM      8  C   UNL     1      -2.530 -24.548  20.216  1.00  0.00     0.123 A 
ATOM      9  C   UNL     1      -2.086 -23.658  19.238  1.00  0.00     0.094 A 
ATOM     10  C   UNL     1      -2.664 -22.393  19.117  1.00  0.00     0.146 A 
ATOM     11  O   UNL     1      -2.204 -21.571  18.181  1.00  0.00    -0.452 OA
ENDROOT
BRANCH   1  12
ATOM     12  C   UNL     1      -2.085 -19.535  16.896  1.00  0.00     0.029 A 
ATOM     13  C   UNL     1      -1.281 -18.413  17.160  1.00  0.00     0.062 A 
ATOM     14  C   UNL     1      -0.759 -17.648  16.111  1.00  0.00     0.162 A 
ATOM     15  C   UNL     1      -2.388 -19.860  15.566  1.00  0.00     0.062 A 
ATOM     16  C   UNL     1      -1.047 -17.993  14.779  1.00  0.00     0.200 A 
ATOM     17  C   UNL     1      -1.868 -19.101  14.509  1.00  0.00     0.162 A 
BRANCH  14  18
ATOM     18  O   UNL     1       0.040 -16.546  16.413  1.00  0.00    -0.504 OA
ATOM     19  H   UNL     1       0.644 -16.114  15.724  1.00  0.00     0.293 HD
ENDBRANCH  14  18
BRANCH  16  20
ATOM     20  O   UNL     1      -0.519 -17.228  13.739  1.00  0.00    -0.502 OA
ATOM     21  H   UNL     1      -0.502 -16.216  13.767  1.00  0.00     0.293 HD
ENDBRANCH  16  20
BRANCH  17  22
ATOM     22  O   UNL     1      -2.165 -19.444  13.190  1.00  0.00    -0.504 OA
ATOM     23  H   UNL     1      -2.830 -20.176  12.969  1.00  0.00     0.293 HD
ENDBRANCH  17  22
ENDBRANCH   1  12
BRANCH   2  24
ATOM     24  O   UNL     1      -4.089 -18.509  18.721  1.00  0.00    -0.502 OA
ATOM     25  H   UNL     1      -4.214 -17.899  19.519  1.00  0.00     0.293 HD
ENDBRANCH   2  24
BRANCH   6  26
ATOM     26  O   UNL     1      -5.306 -22.707  21.766  1.00  0.00    -0.507 OA
ATOM     27  H   UNL     1      -6.153 -23.255  21.760  1.00  0.00     0.293 HD
ENDBRANCH   6  26
BRANCH   8  28
ATOM     28  O   UNL     1      -1.943 -25.805  20.355  1.00  0.00    -0.508 OA
ATOM     29  H   UNL     1      -1.119 -25.943  20.927  1.00  0.00     0.293 HD
ENDBRANCH   8  28
TORSDOF 7
ENDMDL
MODEL 2
REMARK VINA RESULT:    -6.203      0.065      1.756
REMARK INTER + INTRA:          -7.876
REMARK INTER:                  -7.663
REMARK INTRA:                  -0.214
REMARK UNBOUND:                -0.223
REMARK SMILES O=c1c(O)c(-c2cc(O)c(O)c(O)c2)oc2cc(O)cc(O)c12
REMARK SMILES IDX 5 1 3 2 2 3 1 4 23 5 21 6 20 7 18 8 17 9 16 10 15 11 6 12
REMARK SMILES IDX 7 13 8 14 14 15 10 16 12 17 9 18 11 20 13 22 4 24 22 26
REMARK SMILES IDX 19 28
REMARK H PARENT 9 19 11 21 13 23 4 25 22 27 19 29
REMARK Flexibility Score: inf
ROOT
ATOM      1  C   UNL     1      -2.702 -20.320  17.980  1.00  0.00     0.180 A 
ATOM      2  C   UNL     1      -3.681 -19.829  18.860  1.00  0.00     0.208 A 
ATOM      3  C   UNL     1      -4.181 -20.676  19.864  1.00  0.00     0.238 A 
ATOM      4  O   UNL     1      -5.018 -20.213  20.683  1.00  0.00    -0.285 OA
ATOM      5  C   UNL     1      -3.708 -22.005  19.964  1.00  0.00     0.111 A 
ATOM      6  C   UNL     1      -4.174 -22.962  20.915  1.00  0.00     0.134 A 
ATOM      7  C   UNL     1      -3.542 -24.209  21.009  1.00  0.00     0.093 A 
ATOM      8  C   UNL     1      -2.507 -24.557  20.141  1.00  0.00     0.123 A 
ATOM      9  C   UNL     1      -2.084 -23.652  19.167  1.00  0.00     0.094 A 
ATOM     10  C   UNL     1      -2.670 -22.388  19.075  1.00  0.00     0.146 A 
ATOM     11  O   UNL     1      -2.231 -21.551  18.141  1.00  0.00    -0.452 OA
ENDROOT
BRANCH   1  12
ATOM     12  C   UNL     1      -2.145 -19.497  16.883  1.00  0.00     0.029 A 
ATOM     13  C   UNL     1      -2.368 -19.828  15.536  1.00  0.00     0.062 A 
ATOM     14  C   UNL     1      -1.815 -19.054  14.510  1.00  0.00     0.162 A 
ATOM     15  C   UNL     1      -1.329 -18.398  17.189  1.00  0.00     0.062 A 
ATOM     16  C   UNL     1      -1.018 -17.939  14.824  1.00  0.00     0.200 A 
ATOM     17  C   UNL     1      -0.772 -17.615  16.169  1.00  0.00     0.162 A 
BRANCH  14  18
ATOM     18  O   UNL     1      -2.066 -19.410  13.186  1.00  0.00    -0.504 OA
ATOM     19  H   UNL     1      -2.758 -20.107  12.937  1.00  0.00     0.293 HD
ENDBRANCH  14  18
BRANCH  16  20
ATOM     20  O   UNL     1      -0.474 -17.169  13.795  1.00  0.00    -0.502 OA
ATOM     21  H   UNL     1       0.430 -16.719  13.877  1.00  0.00     0.293 HD
ENDBRANCH  16  20
BRANCH  17  22
ATOM     22  O   UNL     1       0.025 -16.516  16.487  1.00  0.00    -0.504 OA
ATOM     23  H   UNL     1       0.978 -16.628  16.811  1.00  0.00     0.293 HD
ENDBRANCH  17  22
ENDBRANCH   1  12
BRANCH   2  24
ATOM     24  O   UNL     1      -4.118 -18.505  18.758  1.00  0.00    -0.502 OA
ATOM     25  H   UNL     1      -3.481 -17.719  18.785  1.00  0.00     0.293 HD
ENDBRANCH   2  24
BRANCH   6  26
ATOM     26  O   UNL     1      -5.261 -22.750  21.767  1.00  0.00    -0.507 OA
ATOM     27  H   UNL     1      -5.471 -21.875  22.224  1.00  0.00     0.293 HD
ENDBRANCH   6  26
BRANCH   8  28
ATOM     28  O   UNL     1      -1.912 -25.813  20.252  1.00  0.00    -0.508 OA
ATOM     29  H   UNL     1      -1.483 -26.121  21.116  1.00  0.00     0.293 HD
ENDBRANCH   8  28
TORSDOF 7
ENDMDL
MODEL 3
REMARK VINA RESULT:    -6.138      1.540      6.628
REMARK INTER + INTRA:          -7.797
REMARK INTER:                  -7.542
REMARK INTRA:                  -0.255
REMARK UNBOUND:                -0.223
REMARK SMILES O=c1c(O)c(-c2cc(O)c(O)c(O)c2)oc2cc(O)cc(O)c12
REMARK SMILES IDX 5 1 3 2 2 3 1 4 23 5 21 6 20 7 18 8 17 9 16 10 15 11 6 12
REMARK SMILES IDX 7 13 8 14 14 15 10 16 12 17 9 18 11 20 13 22 4 24 22 26
REMARK SMILES IDX 19 28
REMARK H PARENT 9 19 11 21 13 23 4 25 22 27 19 29
REMARK Flexibility Score: inf
ROOT
ATOM      1  C   UNL     1      -2.672 -21.233  18.260  1.00  0.00     0.180 A 
ATOM      2  C   UNL     1      -3.794 -20.450  18.582  1.00  0.00     0.208 A 
ATOM      3  C   UNL     1      -3.889 -19.150  18.059  1.00  0.00     0.238 A 
ATOM      4  O   UNL     1      -4.922 -18.474  18.306  1.00  0.00    -0.285 OA
ATOM      5  C   UNL     1      -2.855 -18.644  17.237  1.00  0.00     0.111 A 
ATOM      6  C   UNL     1      -2.828 -17.327  16.687  1.00  0.00     0.134 A 
ATOM      7  C   UNL     1      -1.819 -16.977  15.780  1.00  0.00     0.093 A 
ATOM      8  C   UNL     1      -0.801 -17.873  15.455  1.00  0.00     0.123 A 
ATOM      9  C   UNL     1      -0.785 -19.143  16.034  1.00  0.00     0.094 A 
ATOM     10  C   UNL     1      -1.797 -19.533  16.913  1.00  0.00     0.146 A 
ATOM     11  O   UNL     1      -1.751 -20.754  17.433  1.00  0.00    -0.452 OA
ENDROOT
BRANCH   1  12
ATOM     12  C   UNL     1      -2.489 -22.603  18.792  1.00  0.00     0.029 A 
ATOM     13  C   UNL     1      -2.256 -22.831  20.159  1.00  0.00     0.062 A 
ATOM     14  C   UNL     1      -2.060 -24.130  20.642  1.00  0.00     0.162 A 
ATOM     15  C   UNL     1      -2.490 -23.693  17.909  1.00  0.00     0.062 A 
ATOM     16  C   UNL     1      -2.086 -25.220  19.755  1.00  0.00     0.200 A 
ATOM     17  C   UNL     1      -2.297 -24.997  18.384  1.00  0.00     0.162 A 
BRANCH  14  18
ATOM     18  O   UNL     1      -1.839 -24.315  22.006  1.00  0.00    -0.504 OA
ATOM     19  H   UNL     1      -2.311 -23.759  22.709  1.00  0.00     0.293 HD
ENDBRANCH  14  18
BRANCH  16  20
ATOM     20  O   UNL     1      -1.896 -26.512  20.245  1.00  0.00    -0.502 OA
ATOM     21  H   UNL     1      -1.668 -26.694  21.215  1.00  0.00     0.293 HD
ENDBRANCH  16  20
BRANCH  17  22
ATOM     22  O   UNL     1      -2.315 -26.074  17.497  1.00  0.00    -0.504 OA
ATOM     23  H   UNL     1      -2.670 -26.982  17.772  1.00  0.00     0.293 HD
ENDBRANCH  17  22
ENDBRANCH   1  12
BRANCH   2  24
ATOM     24  O   UNL     1      -4.815 -20.978  19.378  1.00  0.00    -0.502 OA
ATOM     25  H   UNL     1      -5.733 -20.555  19.435  1.00  0.00     0.293 HD
ENDBRANCH   2  24
BRANCH   6  26
ATOM     26  O   UNL     1      -3.745 -16.325  17.016  1.00  0.00    -0.507 OA
ATOM     27  H   UNL     1      -4.599 -16.475  17.530  1.00  0.00     0.293 HD
ENDBRANCH   6  26
BRANCH   8  28
ATOM     28  O   UNL     1       0.196 -17.486  14.562  1.00  0.00    -0.508 OA
ATOM     29  H   UNL     1       1.106 -17.179  14.885  1.00  0.00     0.293 HD
ENDBRANCH   8  28
TORSDOF 7
ENDMDL
MODEL 4
REMARK VINA RESULT:    -6.107      2.208      7.533
REMARK INTER + INTRA:          -7.759
REMARK INTER:                  -7.556
REMARK INTRA:                  -0.203
REMARK UNBOUND:                -0.223
REMARK SMILES O=c1c(O)c(-c2cc(O)c(O)c(O)c2)oc2cc(O)cc(O)c12
REMARK SMILES IDX 5 1 3 2 2 3 1 4 23 5 21 6 20 7 18 8 17 9 16 10 15 11 6 12
REMARK SMILES IDX 7 13 8 14 14 15 10 16 12 17 9 18 11 20 13 22 4 24 22 26
REMARK SMILES IDX 19 28
REMARK H PARENT 9 19 11 21 13 23 4 25 22 27 19 29
REMARK Flexibility Score: inf
ROOT
ATOM      1  C   UNL     1      -1.455 -18.464  16.273  1.00  0.00     0.180 A 
ATOM      2  C   UNL     1      -2.122 -17.686  15.311  1.00  0.00     0.208 A 
ATOM      3  C   UNL     1      -1.372 -16.823  14.494  1.00  0.00     0.238 A 
ATOM      4  O   UNL     1      -1.969 -16.170  13.598  1.00  0.00    -0.285 OA
ATOM      5  C   UNL     1       0.030 -16.738  14.660  1.00  0.00     0.111 A 
ATOM      6  C   UNL     1       0.883 -15.869  13.917  1.00  0.00     0.134 A 
ATOM      7  C   UNL     1       2.272 -15.962  14.073  1.00  0.00     0.093 A 
ATOM      8  C   UNL     1       2.835 -16.845  14.994  1.00  0.00     0.123 A 
ATOM      9  C   UNL     1       2.006 -17.657  15.771  1.00  0.00     0.094 A 
ATOM     10  C   UNL     1       0.620 -17.612  15.610  1.00  0.00     0.146 A 
ATOM     11  O   UNL     1      -0.131 -18.410  16.360  1.00  0.00    -0.452 OA
ENDROOT
BRANCH   1  12
ATOM     12  C   UNL     1      -2.179 -19.378  17.187  1.00  0.00     0.029 A 
ATOM     13  C   UNL     1      -3.114 -18.891  18.116  1.00  0.00     0.062 A 
ATOM     14  C   UNL     1      -3.771 -19.765  18.989  1.00  0.00     0.162 A 
ATOM     15  C   UNL     1      -1.886 -20.749  17.168  1.00  0.00     0.062 A 
ATOM     16  C   UNL     1      -3.491 -21.141  18.949  1.00  0.00     0.200 A 
ATOM     17  C   UNL     1      -2.541 -21.632  18.037  1.00  0.00     0.162 A 
BRANCH  14  18
ATOM     18  O   UNL     1      -4.698 -19.244  19.892  1.00  0.00    -0.504 OA
ATOM     19  H   UNL     1      -5.570 -18.827  19.589  1.00  0.00     0.293 HD
ENDBRANCH  14  18
BRANCH  16  20
ATOM     20  O   UNL     1      -4.154 -22.006  19.820  1.00  0.00    -0.502 OA
ATOM     21  H   UNL     1      -5.120 -22.278  19.680  1.00  0.00     0.293 HD
ENDBRANCH  16  20
BRANCH  17  22
ATOM     22  O   UNL     1      -2.251 -22.995  17.998  1.00  0.00    -0.504 OA
ATOM     23  H   UNL     1      -1.343 -23.336  17.705  1.00  0.00     0.293 HD
ENDBRANCH  17  22
ENDBRANCH   1  12
BRANCH   2  24
ATOM     24  O   UNL     1      -3.505 -17.803  15.148  1.00  0.00    -0.502 OA
ATOM     25  H   UNL     1      -3.983 -18.695  15.177  1.00  0.00     0.293 HD
ENDBRANCH   2  24
BRANCH   6  26
ATOM     26  O   UNL     1       0.420 -14.886  13.037  1.00  0.00    -0.507 OA
ATOM     27  H   UNL     1       0.855 -13.986  12.901  1.00  0.00     0.293 HD
ENDBRANCH   6  26
BRANCH   8  28
ATOM     28  O   UNL     1       4.220 -16.899  15.136  1.00  0.00    -0.508 OA
ATOM     29  H   UNL     1       4.765 -17.648  14.725  1.00  0.00     0.293 HD
ENDBRANCH   8  28
TORSDOF 7
ENDMDL
MODEL 5
REMARK VINA RESULT:    -6.045      2.189      7.626
REMARK INTER + INTRA:          -7.682
REMARK INTER:                  -7.523
REMARK INTRA:                  -0.159
REMARK UNBOUND:                -0.223
REMARK SMILES O=c1c(O)c(-c2cc(O)c(O)c(O)c2)oc2cc(O)cc(O)c12
REMARK SMILES IDX 5 1 3 2 2 3 1 4 23 5 21 6 20 7 18 8 17 9 16 10 15 11 6 12
REMARK SMILES IDX 7 13 8 14 14 15 10 16 12 17 9 18 11 20 13 22 4 24 22 26
REMARK SMILES IDX 19 28
REMARK H PARENT 9 19 11 21 13 23 4 25 22 27 19 29
REMARK Flexibility Score: inf
ROOT
ATOM      1  C   UNL     1      -1.401 -18.459  16.362  1.00  0.00     0.180 A 
ATOM      2  C   UNL     1      -2.052 -17.732  15.350  1.00  0.00     0.208 A 
ATOM      3  C   UNL     1      -1.295 -16.875  14.534  1.00  0.00     0.238 A 
ATOM      4  O   UNL     1      -1.874 -16.269  13.595  1.00  0.00    -0.285 OA
ATOM      5  C   UNL     1       0.097 -16.744  14.749  1.00  0.00     0.111 A 
ATOM      6  C   UNL     1       0.954 -15.875  14.009  1.00  0.00     0.134 A 
ATOM      7  C   UNL     1       2.338 -15.923  14.221  1.00  0.00     0.093 A 
ATOM      8  C   UNL     1       2.889 -16.759  15.191  1.00  0.00     0.123 A 
ATOM      9  C   UNL     1       2.054 -17.569  15.963  1.00  0.00     0.094 A 
ATOM     10  C   UNL     1       0.674 -17.570  15.749  1.00  0.00     0.146 A 
ATOM     11  O   UNL     1      -0.083 -18.364  16.496  1.00  0.00    -0.452 OA
ENDROOT
BRANCH   1  12
ATOM     12  C   UNL     1      -2.133 -19.363  17.278  1.00  0.00     0.029 A 
ATOM     13  C   UNL     1      -1.884 -20.746  17.295  1.00  0.00     0.062 A 
ATOM     14  C   UNL     1      -2.602 -21.589  18.149  1.00  0.00     0.162 A 
ATOM     15  C   UNL     1      -3.138 -18.841  18.107  1.00  0.00     0.062 A 
ATOM     16  C   UNL     1      -3.590 -21.057  18.994  1.00  0.00     0.200 A 
ATOM     17  C   UNL     1      -3.860 -19.678  18.967  1.00  0.00     0.162 A 
BRANCH  14  18
ATOM     18  O   UNL     1      -2.320 -22.955  18.142  1.00  0.00    -0.504 OA
ATOM     19  H   UNL     1      -1.813 -23.404  18.895  1.00  0.00     0.293 HD
ENDBRANCH  14  18
BRANCH  16  20
ATOM     20  O   UNL     1      -4.298 -21.904  19.847  1.00  0.00    -0.502 OA
ATOM     21  H   UNL     1      -4.490 -21.662  20.812  1.00  0.00     0.293 HD
ENDBRANCH  16  20
BRANCH  17  22
ATOM     22  O   UNL     1      -4.846 -19.144  19.796  1.00  0.00    -0.504 OA
ATOM     23  H   UNL     1      -5.464 -19.738  20.337  1.00  0.00     0.293 HD
ENDBRANCH  17  22
ENDBRANCH   1  12
BRANCH   2  24
ATOM     24  O   UNL     1      -3.424 -17.894  15.139  1.00  0.00    -0.502 OA
ATOM     25  H   UNL     1      -4.013 -17.146  14.795  1.00  0.00     0.293 HD
ENDBRANCH   2  24
BRANCH   6  26
ATOM     26  O   UNL     1       0.498 -14.935  13.081  1.00  0.00    -0.507 OA
ATOM     27  H   UNL     1       1.091 -14.305  12.562  1.00  0.00     0.293 HD
ENDBRANCH   6  26
BRANCH   8  28
ATOM     28  O   UNL     1       4.269 -16.769  15.387  1.00  0.00    -0.508 OA
ATOM     29  H   UNL     1       4.698 -16.260  16.150  1.00  0.00     0.293 HD
ENDBRANCH   8  28
TORSDOF 7
ENDMDL
MODEL 6
REMARK VINA RESULT:    -6.032      1.545      6.851
REMARK INTER + INTRA:          -7.666
REMARK INTER:                  -7.425
REMARK INTRA:                  -0.241
REMARK UNBOUND:                -0.223
REMARK SMILES O=c1c(O)c(-c2cc(O)c(O)c(O)c2)oc2cc(O)cc(O)c12
REMARK SMILES IDX 5 1 3 2 2 3 1 4 23 5 21 6 20 7 18 8 17 9 16 10 15 11 6 12
REMARK SMILES IDX 7 13 8 14 14 15 10 16 12 17 9 18 11 20 13 22 4 24 22 26
REMARK SMILES IDX 19 28
REMARK H PARENT 9 19 11 21 13 23 4 25 22 27 19 29
REMARK Flexibility Score: inf
ROOT
ATOM      1  C   UNL     1      -2.660 -21.146  18.266  1.00  0.00     0.180 A 
ATOM      2  C   UNL     1      -3.704 -20.286  18.646  1.00  0.00     0.208 A 
ATOM      3  C   UNL     1      -3.713 -18.969  18.157  1.00  0.00     0.238 A 
ATOM      4  O   UNL     1      -4.679 -18.220  18.457  1.00  0.00    -0.285 OA
ATOM      5  C   UNL     1      -2.671 -18.525  17.310  1.00  0.00     0.111 A 
ATOM      6  C   UNL     1      -2.557 -17.201  16.789  1.00  0.00     0.134 A 
ATOM      7  C   UNL     1      -1.556 -16.909  15.854  1.00  0.00     0.093 A 
ATOM      8  C   UNL     1      -0.624 -17.873  15.473  1.00  0.00     0.123 A 
ATOM      9  C   UNL     1      -0.689 -19.155  16.022  1.00  0.00     0.094 A 
ATOM     10  C   UNL     1      -1.699 -19.486  16.928  1.00  0.00     0.146 A 
ATOM     11  O   UNL     1      -1.732 -20.720  17.417  1.00  0.00    -0.452 OA
ENDROOT
BRANCH   1  12
ATOM     12  C   UNL     1      -2.568 -22.539  18.760  1.00  0.00     0.029 A 
ATOM     13  C   UNL     1      -2.808 -23.633  17.910  1.00  0.00     0.062 A 
ATOM     14  C   UNL     1      -2.741 -24.942  18.398  1.00  0.00     0.162 A 
ATOM     15  C   UNL     1      -2.293 -22.776  20.115  1.00  0.00     0.062 A 
ATOM     16  C   UNL     1      -2.441 -25.173  19.752  1.00  0.00     0.200 A 
ATOM     17  C   UNL     1      -2.221 -24.084  20.612  1.00  0.00     0.162 A 
BRANCH  14  18
ATOM     18  O   UNL     1      -2.978 -26.001  17.522  1.00  0.00    -0.504 OA
ATOM     19  H   UNL     1      -3.865 -26.490  17.495  1.00  0.00     0.293 HD
ENDBRANCH  14  18
BRANCH  16  20
ATOM     20  O   UNL     1      -2.371 -26.482  20.229  1.00  0.00    -0.502 OA
ATOM     21  H   UNL     1      -2.056 -26.699  21.167  1.00  0.00     0.293 HD
ENDBRANCH  16  20
BRANCH  17  22
ATOM     22  O   UNL     1      -1.933 -24.305  21.958  1.00  0.00    -0.504 OA
ATOM     23  H   UNL     1      -1.496 -25.163  22.273  1.00  0.00     0.293 HD
ENDBRANCH  17  22
ENDBRANCH   1  12
BRANCH   2  24
ATOM     24  O   UNL     1      -4.736 -20.751  19.466  1.00  0.00    -0.502 OA
ATOM     25  H   UNL     1      -5.085 -20.221  20.254  1.00  0.00     0.293 HD
ENDBRANCH   2  24
BRANCH   6  26
ATOM     26  O   UNL     1      -3.379 -16.138  17.174  1.00  0.00    -0.507 OA
ATOM     27  H   UNL     1      -4.362 -16.064  16.957  1.00  0.00     0.293 HD
ENDBRANCH   6  26
BRANCH   8  28
ATOM     28  O   UNL     1       0.370 -17.543  14.553  1.00  0.00    -0.508 OA
ATOM     29  H   UNL     1       1.140 -16.935  14.802  1.00  0.00     0.293 HD
ENDBRANCH   8  28
TORSDOF 7
ENDMDL
MODEL 7
REMARK VINA RESULT:    -5.730      1.969      2.888
REMARK INTER + INTRA:          -7.294
REMARK INTER:                  -6.956
REMARK INTRA:                  -0.338
REMARK UNBOUND:                -0.223
REMARK SMILES O=c1c(O)c(-c2cc(O)c(O)c(O)c2)oc2cc(O)cc(O)c12
REMARK SMILES IDX 5 1 3 2 2 3 1 4 23 5 21 6 20 7 18 8 17 9 16 10 15 11 6 12
REMARK SMILES IDX 7 13 8 14 14 15 10 16 12 17 9 18 11 20 13 22 4 24 22 26
REMARK SMILES IDX 19 28
REMARK H PARENT 9 19 11 21 13 23 4 25 22 27 19 29
REMARK Flexibility Score: inf
ROOT
ATOM      1  C   UNL     1      -2.380 -20.690  17.254  1.00  0.00     0.180 A 
ATOM      2  C   UNL     1      -3.259 -21.378  16.400  1.00  0.00     0.208 A 
ATOM      3  C   UNL     1      -3.727 -22.646  16.783  1.00  0.00     0.238 A 
ATOM      4  O   UNL     1      -4.557 -23.232  16.040  1.00  0.00    -0.285 OA
ATOM      5  C   UNL     1      -3.298 -23.216  18.004  1.00  0.00     0.111 A 
ATOM      6  C   UNL     1      -3.676 -24.510  18.472  1.00  0.00     0.134 A 
ATOM      7  C   UNL     1      -3.297 -24.920  19.756  1.00  0.00     0.093 A 
ATOM      8  C   UNL     1      -2.497 -24.111  20.562  1.00  0.00     0.123 A 
ATOM      9  C   UNL     1      -2.071 -22.868  20.091  1.00  0.00     0.094 A 
ATOM     10  C   UNL     1      -2.465 -22.417  18.830  1.00  0.00     0.146 A 
ATOM     11  O   UNL     1      -2.047 -21.224  18.424  1.00  0.00    -0.452 OA
ENDROOT
BRANCH   1  12
ATOM     12  C   UNL     1      -1.824 -19.361  16.909  1.00  0.00     0.029 A 
ATOM     13  C   UNL     1      -0.747 -19.229  16.016  1.00  0.00     0.062 A 
ATOM     14  C   UNL     1      -0.218 -17.969  15.719  1.00  0.00     0.162 A 
ATOM     15  C   UNL     1      -2.342 -18.214  17.528  1.00  0.00     0.062 A 
ATOM     16  C   UNL     1      -0.757 -16.821  16.324  1.00  0.00     0.200 A 
ATOM     17  C   UNL     1      -1.820 -16.947  17.235  1.00  0.00     0.162 A 
BRANCH  14  18
ATOM     18  O   UNL     1       0.846 -17.879  14.822  1.00  0.00    -0.504 OA
ATOM     19  H   UNL     1       1.403 -18.685  14.564  1.00  0.00     0.293 HD
ENDBRANCH  14  18
BRANCH  16  20
ATOM     20  O   UNL     1      -0.227 -15.567  16.019  1.00  0.00    -0.502 OA
ATOM     21  H   UNL     1       0.380 -15.066  16.657  1.00  0.00     0.293 HD
ENDBRANCH  16  20
BRANCH  17  22
ATOM     22  O   UNL     1      -2.353 -15.813  17.846  1.00  0.00    -0.504 OA
ATOM     23  H   UNL     1      -2.133 -15.574  18.805  1.00  0.00     0.293 HD
ENDBRANCH  17  22
ENDBRANCH   1  12
BRANCH   2  24
ATOM     24  O   UNL     1      -3.688 -20.786  15.209  1.00  0.00    -0.502 OA
ATOM     25  H   UNL     1      -4.097 -21.321  14.452  1.00  0.00     0.293 HD
ENDBRANCH   2  24
BRANCH   6  26
ATOM     26  O   UNL     1      -4.397 -25.435  17.710  1.00  0.00    -0.507 OA
ATOM     27  H   UNL     1      -5.389 -25.386  17.535  1.00  0.00     0.293 HD
ENDBRANCH   6  26
BRANCH   8  28
ATOM     28  O   UNL     1      -2.124 -24.557  21.829  1.00  0.00    -0.508 OA
ATOM     29  H   UNL     1      -2.071 -25.545  22.047  1.00  0.00     0.293 HD
ENDBRANCH   8  28
TORSDOF 7
ENDMDL
MODEL 8
REMARK VINA RESULT:    -5.686      5.115      6.537
REMARK INTER + INTRA:          -7.239
REMARK INTER:                  -7.106
REMARK INTRA:                  -0.132
REMARK UNBOUND:                -0.223
REMARK SMILES O=c1c(O)c(-c2cc(O)c(O)c(O)c2)oc2cc(O)cc(O)c12
REMARK SMILES IDX 5 1 3 2 2 3 1 4 23 5 21 6 20 7 18 8 17 9 16 10 15 11 6 12
REMARK SMILES IDX 7 13 8 14 14 15 10 16 12 17 9 18 11 20 13 22 4 24 22 26
REMARK SMILES IDX 19 28
REMARK H PARENT 9 19 11 21 13 23 4 25 22 27 19 29
REMARK Flexibility Score: inf
ROOT
ATOM      1  C   UNL     1      -1.124 -17.089  15.289  1.00  0.00     0.180 A 
ATOM      2  C   UNL     1      -1.847 -16.947  16.486  1.00  0.00     0.208 A 
ATOM      3  C   UNL     1      -3.246 -17.066  16.454  1.00  0.00     0.238 A 
ATOM      4  O   UNL     1      -3.883 -16.993  17.537  1.00  0.00    -0.285 OA
ATOM      5  C   UNL     1      -3.905 -17.307  15.225  1.00  0.00     0.111 A 
ATOM      6  C   UNL     1      -5.320 -17.404  15.069  1.00  0.00     0.134 A 
ATOM      7  C   UNL     1      -5.856 -17.775  13.829  1.00  0.00     0.093 A 
ATOM      8  C   UNL     1      -5.032 -17.986  12.724  1.00  0.00     0.123 A 
ATOM      9  C   UNL     1      -3.650 -17.835  12.851  1.00  0.00     0.094 A 
ATOM     10  C   UNL     1      -3.085 -17.502  14.084  1.00  0.00     0.146 A 
ATOM     11  O   UNL     1      -1.765 -17.379  14.164  1.00  0.00    -0.452 OA
ENDROOT
BRANCH   1  12
ATOM     12  C   UNL     1       0.350 -16.953  15.239  1.00  0.00     0.029 A 
ATOM     13  C   UNL     1       0.967 -15.985  14.428  1.00  0.00     0.062 A 
ATOM     14  C   UNL     1       2.361 -15.885  14.373  1.00  0.00     0.162 A 
ATOM     15  C   UNL     1       1.152 -17.843  15.968  1.00  0.00     0.062 A 
ATOM     16  C   UNL     1       3.158 -16.765  15.125  1.00  0.00     0.200 A 
ATOM     17  C   UNL     1       2.549 -17.749  15.921  1.00  0.00     0.162 A 
BRANCH  14  18
ATOM     18  O   UNL     1       2.936 -14.907  13.562  1.00  0.00    -0.504 OA
ATOM     19  H   UNL     1       2.542 -13.977  13.478  1.00  0.00     0.293 HD
ENDBRANCH  14  18
BRANCH  16  20
ATOM     20  O   UNL     1       4.548 -16.656  15.068  1.00  0.00    -0.502 OA
ATOM     21  H   UNL     1       5.075 -16.879  14.232  1.00  0.00     0.293 HD
ENDBRANCH  16  20
BRANCH  17  22
ATOM     22  O   UNL     1       3.334 -18.632  16.662  1.00  0.00    -0.504 OA
ATOM     23  H   UNL     1       3.440 -18.534  17.665  1.00  0.00     0.293 HD
ENDBRANCH  17  22
ENDBRANCH   1  12
BRANCH   2  24
ATOM     24  O   UNL     1      -1.175 -16.732  17.693  1.00  0.00    -0.502 OA
ATOM     25  H   UNL     1      -1.490 -16.057  18.378  1.00  0.00     0.293 HD
ENDBRANCH   2  24
BRANCH   6  26
ATOM     26  O   UNL     1      -6.238 -17.123  16.086  1.00  0.00    -0.507 OA
ATOM     27  H   UNL     1      -6.046 -17.206  17.072  1.00  0.00     0.293 HD
ENDBRANCH   6  26
BRANCH   8  28
ATOM     28  O   UNL     1      -5.600 -18.338  11.501  1.00  0.00    -0.508 OA
ATOM     29  H   UNL     1      -6.470 -18.854  11.451  1.00  0.00     0.293 HD
ENDBRANCH   8  28
TORSDOF 7
ENDMDL
MODEL 9
REMARK VINA RESULT:    -5.681      1.355      7.227
REMARK INTER + INTRA:          -7.233
REMARK INTER:                  -6.903
REMARK INTRA:                  -0.329
REMARK UNBOUND:                -0.223
REMARK SMILES O=c1c(O)c(-c2cc(O)c(O)c(O)c2)oc2cc(O)cc(O)c12
REMARK SMILES IDX 5 1 3 2 2 3 1 4 23 5 21 6 20 7 18 8 17 9 16 10 15 11 6 12
REMARK SMILES IDX 7 13 8 14 14 15 10 16 12 17 9 18 11 20 13 22 4 24 22 26
REMARK SMILES IDX 19 28
REMARK H PARENT 9 19 11 21 13 23 4 25 22 27 19 29
REMARK Flexibility Score: inf
ROOT
ATOM      1  C   UNL     1      -2.477 -20.912  17.217  1.00  0.00     0.180 A 
ATOM      2  C   UNL     1      -3.177 -20.933  15.998  1.00  0.00     0.208 A 
ATOM      3  C   UNL     1      -2.855 -19.985  15.012  1.00  0.00     0.238 A 
ATOM      4  O   UNL     1      -3.447 -20.043  13.903  1.00  0.00    -0.285 OA
ATOM      5  C   UNL     1      -1.852 -19.020  15.264  1.00  0.00     0.111 A 
ATOM      6  C   UNL     1      -1.474 -17.988  14.353  1.00  0.00     0.134 A 
ATOM      7  C   UNL     1      -0.378 -17.168  14.653  1.00  0.00     0.093 A 
ATOM      8  C   UNL     1       0.310 -17.299  15.859  1.00  0.00     0.123 A 
ATOM      9  C   UNL     1      -0.090 -18.266  16.783  1.00  0.00     0.094 A 
ATOM     10  C   UNL     1      -1.155 -19.122  16.496  1.00  0.00     0.146 A 
ATOM     11  O   UNL     1      -1.496 -20.035  17.397  1.00  0.00    -0.452 OA
ENDROOT
BRANCH   1  12
ATOM     12  C   UNL     1      -2.775 -21.862  18.313  1.00  0.00     0.029 A 
ATOM     13  C   UNL     1      -2.271 -23.173  18.300  1.00  0.00     0.062 A 
ATOM     14  C   UNL     1      -2.582 -24.066  19.332  1.00  0.00     0.162 A 
ATOM     15  C   UNL     1      -3.624 -21.467  19.357  1.00  0.00     0.062 A 
ATOM     16  C   UNL     1      -3.415 -23.657  20.388  1.00  0.00     0.200 A 
ATOM     17  C   UNL     1      -3.939 -22.354  20.396  1.00  0.00     0.162 A 
BRANCH  14  18
ATOM     18  O   UNL     1      -2.057 -25.357  19.287  1.00  0.00    -0.504 OA
ATOM     19  H   UNL     1      -2.190 -25.966  18.488  1.00  0.00     0.293 HD
ENDBRANCH  14  18
BRANCH  16  20
ATOM     20  O   UNL     1      -3.716 -24.552  21.415  1.00  0.00    -0.502 OA
ATOM     21  H   UNL     1      -3.234 -24.534  22.306  1.00  0.00     0.293 HD
ENDBRANCH  16  20
BRANCH  17  22
ATOM     22  O   UNL     1      -4.773 -21.944  21.436  1.00  0.00    -0.504 OA
ATOM     23  H   UNL     1      -5.368 -22.599  21.929  1.00  0.00     0.293 HD
ENDBRANCH  17  22
ENDBRANCH   1  12
BRANCH   2  24
ATOM     24  O   UNL     1      -4.148 -21.909  15.762  1.00  0.00    -0.502 OA
ATOM     25  H   UNL     1      -4.529 -22.086  14.840  1.00  0.00     0.293 HD
ENDBRANCH   2  24
BRANCH   6  26
ATOM     26  O   UNL     1      -2.152 -17.710  13.163  1.00  0.00    -0.507 OA
ATOM     27  H   UNL     1      -1.767 -17.841  12.239  1.00  0.00     0.293 HD
ENDBRANCH   6  26
BRANCH   8  28
ATOM     28  O   UNL     1       1.385 -16.456  16.132  1.00  0.00    -0.508 OA
ATOM     29  H   UNL     1       1.327 -15.457  15.975  1.00  0.00     0.293 HD
ENDBRANCH   8  28
TORSDOF 7
ENDMDL
