MODEL 1
REMARK VINA RESULT:    -6.828      0.000      0.000
REMARK INTER + INTRA:          -8.489
REMARK INTER:                  -8.225
REMARK INTRA:                  -0.263
REMARK UNBOUND:                -0.263
REMARK SMILES O=c1c(O)c(-c2ccc(O)c(O)c2)oc2cc(O)cc(O)c12
REMARK SMILES IDX 5 1 3 2 2 3 1 4 22 5 20 6 19 7 17 8 16 9 15 10 14 11 6 12
REMARK SMILES IDX 7 13 8 14 9 15 13 16 11 17 10 18 12 20 4 22 21 24 18 26
REMARK H PARENT 10 19 12 21 4 23 21 25 18 27
REMARK Flexibility Score: inf
ROOT
ATOM      1  C   UNL     1      31.454  11.194  27.935  1.00  0.00     0.180 A 
ATOM      2  C   UNL     1      31.897  12.069  26.928  1.00  0.00     0.208 A 
ATOM      3  C   UNL     1      31.770  11.681  25.585  1.00  0.00     0.238 A 
ATOM      4  O   UNL     1      32.119  12.491  24.686  1.00  0.00    -0.285 OA
ATOM      5  C   UNL     1      31.218  10.417  25.266  1.00  0.00     0.111 A 
ATOM      6  C   UNL     1      31.079   9.904  23.942  1.00  0.00     0.134 A 
ATOM      7  C   UNL     1      30.399   8.697  23.735  1.00  0.00     0.093 A 
ATOM      8  C   UNL     1      29.911   7.954  24.812  1.00  0.00     0.123 A 
ATOM      9  C   UNL     1      30.093   8.417  26.113  1.00  0.00     0.094 A 
ATOM     10  C   UNL     1      30.736   9.634  26.347  1.00  0.00     0.146 A 
ATOM     11  O   UNL     1      30.880  10.044  27.602  1.00  0.00    -0.452 OA
ENDROOT
BRANCH   1  12
ATOM     12  C   UNL     1      31.576  11.523  29.374  1.00  0.00     0.025 A 
ATOM     13  C   UNL     1      32.834  11.458  29.994  1.00  0.00     0.016 A 
ATOM     14  C   UNL     1      32.976  11.784  31.345  1.00  0.00     0.051 A 
ATOM     15  C   UNL     1      31.868  12.194  32.093  1.00  0.00     0.157 A 
ATOM     16  C   UNL     1      30.467  11.956  30.122  1.00  0.00     0.062 A 
ATOM     17  C   UNL     1      30.608  12.287  31.478  1.00  0.00     0.158 A 
BRANCH  15  18
ATOM     18  O   UNL     1      32.040  12.511  33.439  1.00  0.00    -0.504 OA
ATOM     19  H   UNL     1      31.400  13.121  33.934  1.00  0.00     0.293 HD
ENDBRANCH  15  18
BRANCH  17  20
ATOM     20  O   UNL     1      29.502  12.709  32.216  1.00  0.00    -0.504 OA
ATOM     21  H   UNL     1      29.604  13.120  33.136  1.00  0.00     0.293 HD
ENDBRANCH  17  20
ENDBRANCH   1  12
BRANCH   2  22
ATOM     22  O   UNL     1      32.419  13.321  27.264  1.00  0.00    -0.502 OA
ATOM     23  H   UNL     1      33.396  13.459  27.496  1.00  0.00     0.293 HD
ENDBRANCH   2  22
BRANCH   6  24
ATOM     24  O   UNL     1      31.611  10.522  22.805  1.00  0.00    -0.507 OA
ATOM     25  H   UNL     1      31.813  11.508  22.729  1.00  0.00     0.293 HD
ENDBRANCH   6  24
BRANCH   8  26
ATOM     26  O   UNL     1      29.249   6.746  24.599  1.00  0.00    -0.508 OA
ATOM     27  H   UNL     1      29.675   5.859  24.838  1.00  0.00     0.293 HD
ENDBRANCH   8  26
TORSDOF 6
ENDMDL
MODEL 2
REMARK VINA RESULT:    -6.718      2.292      6.631
REMARK INTER + INTRA:          -8.355
REMARK INTER:                  -8.071
REMARK INTRA:                  -0.284
REMARK UNBOUND:                -0.263
REMARK SMILES O=c1c(O)c(-c2ccc(O)c(O)c2)oc2cc(O)cc(O)c12
REMARK SMILES IDX 5 1 3 2 2 3 1 4 22 5 20 6 19 7 17 8 16 9 15 10 14 11 6 12
REMARK SMILES IDX 7 13 8 14 9 15 13 16 11 17 10 18 12 20 4 22 21 24 18 26
REMARK H PARENT 10 19 12 21 4 23 21 25 18 27
REMARK Flexibility Score: inf
ROOT
ATOM      1  C   UNL     1      31.291  11.054  28.438  1.00  0.00     0.180 A 
ATOM      2  C   UNL     1      32.002  12.111  29.031  1.00  0.00     0.208 A 
ATOM      3  C   UNL     1      32.443  11.976  30.357  1.00  0.00     0.238 A 
ATOM      4  O   UNL     1      33.125  12.904  30.865  1.00  0.00    -0.285 OA
ATOM      5  C   UNL     1      32.153  10.792  31.078  1.00  0.00     0.111 A 
ATOM      6  C   UNL     1      32.516  10.563  32.439  1.00  0.00     0.134 A 
ATOM      7  C   UNL     1      32.293   9.305  33.012  1.00  0.00     0.093 A 
ATOM      8  C   UNL     1      31.662   8.288  32.291  1.00  0.00     0.123 A 
ATOM      9  C   UNL     1      31.251   8.521  30.981  1.00  0.00     0.094 A 
ATOM     10  C   UNL     1      31.492   9.754  30.372  1.00  0.00     0.146 A 
ATOM     11  O   UNL     1      31.093   9.931  29.117  1.00  0.00    -0.452 OA
ENDROOT
BRANCH   1  12
ATOM     12  C   UNL     1      30.773  11.132  27.052  1.00  0.00     0.025 A 
ATOM     13  C   UNL     1      29.619  11.885  26.787  1.00  0.00     0.016 A 
ATOM     14  C   UNL     1      29.124  11.989  25.485  1.00  0.00     0.051 A 
ATOM     15  C   UNL     1      29.784  11.358  24.426  1.00  0.00     0.157 A 
ATOM     16  C   UNL     1      31.447  10.515  25.983  1.00  0.00     0.062 A 
ATOM     17  C   UNL     1      30.954  10.621  24.674  1.00  0.00     0.158 A 
BRANCH  15  18
ATOM     18  O   UNL     1      29.266  11.479  23.137  1.00  0.00    -0.504 OA
ATOM     19  H   UNL     1      28.578  12.183  22.898  1.00  0.00     0.293 HD
ENDBRANCH  15  18
BRANCH  17  20
ATOM     20  O   UNL     1      31.624  10.000  23.620  1.00  0.00    -0.504 OA
ATOM     21  H   UNL     1      32.301  10.499  23.055  1.00  0.00     0.293 HD
ENDBRANCH  17  20
ENDBRANCH   1  12
BRANCH   2  22
ATOM     22  O   UNL     1      32.295  13.262  28.294  1.00  0.00    -0.502 OA
ATOM     23  H   UNL     1      32.535  13.231  27.310  1.00  0.00     0.293 HD
ENDBRANCH   2  22
BRANCH   6  24
ATOM     24  O   UNL     1      33.067  11.540  33.275  1.00  0.00    -0.507 OA
ATOM     25  H   UNL     1      32.685  12.464  33.409  1.00  0.00     0.293 HD
ENDBRANCH   6  24
BRANCH   8  26
ATOM     26  O   UNL     1      31.431   7.044  32.873  1.00  0.00    -0.508 OA
ATOM     27  H   UNL     1      30.492   6.713  33.061  1.00  0.00     0.293 HD
ENDBRANCH   8  26
TORSDOF 6
ENDMDL
MODEL 3
REMARK VINA RESULT:    -6.691      2.462      6.286
REMARK INTER + INTRA:          -8.323
REMARK INTER:                  -8.005
REMARK INTRA:                  -0.318
REMARK UNBOUND:                -0.263
REMARK SMILES O=c1c(O)c(-c2ccc(O)c(O)c2)oc2cc(O)cc(O)c12
REMARK SMILES IDX 5 1 3 2 2 3 1 4 22 5 20 6 19 7 17 8 16 9 15 10 14 11 6 12
REMARK SMILES IDX 7 13 8 14 9 15 13 16 11 17 10 18 12 20 4 22 21 24 18 26
REMARK H PARENT 10 19 12 21 4 23 21 25 18 27
REMARK Flexibility Score: inf
ROOT
ATOM      1  C   UNL     1      31.239  11.756  27.591  1.00  0.00     0.180 A 
ATOM      2  C   UNL     1      32.007  12.523  28.483  1.00  0.00     0.208 A 
ATOM      3  C   UNL     1      32.303  12.000  29.751  1.00  0.00     0.238 A 
ATOM      4  O   UNL     1      33.037  12.670  30.526  1.00  0.00    -0.285 OA
ATOM      5  C   UNL     1      31.813  10.724  30.119  1.00  0.00     0.111 A 
ATOM      6  C   UNL     1      32.017  10.113  31.392  1.00  0.00     0.134 A 
ATOM      7  C   UNL     1      31.598   8.794  31.601  1.00  0.00     0.093 A 
ATOM      8  C   UNL     1      30.925   8.086  30.603  1.00  0.00     0.123 A 
ATOM      9  C   UNL     1      30.668   8.694  29.377  1.00  0.00     0.094 A 
ATOM     10  C   UNL     1      31.105   9.997  29.127  1.00  0.00     0.146 A 
ATOM     11  O   UNL     1      30.849  10.536  27.940  1.00  0.00    -0.452 OA
ENDROOT
BRANCH   1  12
ATOM     12  C   UNL     1      30.866  12.250  26.246  1.00  0.00     0.025 A 
ATOM     13  C   UNL     1      29.737  13.071  26.099  1.00  0.00     0.016 A 
ATOM     14  C   UNL     1      29.379  13.565  24.842  1.00  0.00     0.051 A 
ATOM     15  C   UNL     1      30.150  13.260  23.717  1.00  0.00     0.157 A 
ATOM     16  C   UNL     1      31.653  11.961  25.116  1.00  0.00     0.062 A 
ATOM     17  C   UNL     1      31.296  12.459  23.854  1.00  0.00     0.158 A 
BRANCH  15  18
ATOM     18  O   UNL     1      29.767  13.766  22.476  1.00  0.00    -0.504 OA
ATOM     19  H   UNL     1      30.368  13.708  21.662  1.00  0.00     0.293 HD
ENDBRANCH  15  18
BRANCH  17  20
ATOM     20  O   UNL     1      32.078  12.162  22.738  1.00  0.00    -0.504 OA
ATOM     21  H   UNL     1      32.818  12.782  22.428  1.00  0.00     0.293 HD
ENDBRANCH  17  20
ENDBRANCH   1  12
BRANCH   2  22
ATOM     22  O   UNL     1      32.499  13.772  28.092  1.00  0.00    -0.502 OA
ATOM     23  H   UNL     1      31.911  14.481  27.669  1.00  0.00     0.293 HD
ENDBRANCH   2  22
BRANCH   6  24
ATOM     24  O   UNL     1      32.597  10.764  32.486  1.00  0.00    -0.507 OA
ATOM     25  H   UNL     1      32.974  10.299  33.298  1.00  0.00     0.293 HD
ENDBRANCH   6  24
BRANCH   8  26
ATOM     26  O   UNL     1      30.498   6.778  30.824  1.00  0.00    -0.508 OA
ATOM     27  H   UNL     1      30.875   6.218  31.579  1.00  0.00     0.293 HD
ENDBRANCH   8  26
TORSDOF 6
ENDMDL
MODEL 4
REMARK VINA RESULT:    -6.394      1.570      1.927
REMARK INTER + INTRA:          -7.966
REMARK INTER:                  -7.668
REMARK INTRA:                  -0.297
REMARK UNBOUND:                -0.263
REMARK SMILES O=c1c(O)c(-c2ccc(O)c(O)c2)oc2cc(O)cc(O)c12
REMARK SMILES IDX 5 1 3 2 2 3 1 4 22 5 20 6 19 7 17 8 16 9 15 10 14 11 6 12
REMARK SMILES IDX 7 13 8 14 9 15 13 16 11 17 10 18 12 20 4 22 21 24 18 26
REMARK H PARENT 10 19 12 21 4 23 21 25 18 27
REMARK Flexibility Score: inf
ROOT
ATOM      1  C   UNL     1      31.540  10.705  29.737  1.00  0.00     0.180 A 
ATOM      2  C   UNL     1      32.060  11.732  28.931  1.00  0.00     0.208 A 
ATOM      3  C   UNL     1      31.955  11.622  27.536  1.00  0.00     0.238 A 
ATOM      4  O   UNL     1      32.375  12.570  26.821  1.00  0.00    -0.285 OA
ATOM      5  C   UNL     1      31.348  10.479  26.963  1.00  0.00     0.111 A 
ATOM      6  C   UNL     1      31.224  10.243  25.561  1.00  0.00     0.134 A 
ATOM      7  C   UNL     1      30.489   9.141  25.108  1.00  0.00     0.093 A 
ATOM      8  C   UNL     1      29.929   8.230  26.007  1.00  0.00     0.123 A 
ATOM      9  C   UNL     1      30.094   8.420  27.377  1.00  0.00     0.094 A 
ATOM     10  C   UNL     1      30.792   9.529  27.859  1.00  0.00     0.146 A 
ATOM     11  O   UNL     1      30.918   9.677  29.173  1.00  0.00    -0.452 OA
ENDROOT
BRANCH   1  12
ATOM     12  C   UNL     1      31.635  10.739  31.215  1.00  0.00     0.025 A 
ATOM     13  C   UNL     1      32.837  10.374  31.839  1.00  0.00     0.016 A 
ATOM     14  C   UNL     1      32.955  10.419  33.231  1.00  0.00     0.051 A 
ATOM     15  C   UNL     1      31.879  10.843  34.018  1.00  0.00     0.157 A 
ATOM     16  C   UNL     1      30.561  11.185  32.006  1.00  0.00     0.062 A 
ATOM     17  C   UNL     1      30.678  11.233  33.403  1.00  0.00     0.158 A 
BRANCH  15  18
ATOM     18  O   UNL     1      32.026  10.875  35.404  1.00  0.00    -0.504 OA
ATOM     19  H   UNL     1      31.925  11.732  35.935  1.00  0.00     0.293 HD
ENDBRANCH  15  18
BRANCH  17  20
ATOM     20  O   UNL     1      29.606  11.670  34.182  1.00  0.00    -0.504 OA
ATOM     21  H   UNL     1      29.243  11.111  34.945  1.00  0.00     0.293 HD
ENDBRANCH  17  20
ENDBRANCH   1  12
BRANCH   2  22
ATOM     22  O   UNL     1      32.636  12.862  29.517  1.00  0.00    -0.502 OA
ATOM     23  H   UNL     1      32.649  13.767  29.060  1.00  0.00     0.293 HD
ENDBRANCH   2  22
BRANCH   6  24
ATOM     24  O   UNL     1      31.823  11.039  24.580  1.00  0.00    -0.507 OA
ATOM     25  H   UNL     1      32.667  11.576  24.712  1.00  0.00     0.293 HD
ENDBRANCH   6  24
BRANCH   8  26
ATOM     26  O   UNL     1      29.211   7.128  25.547  1.00  0.00    -0.508 OA
ATOM     27  H   UNL     1      28.943   6.374  26.169  1.00  0.00     0.293 HD
ENDBRANCH   8  26
TORSDOF 6
ENDMDL
MODEL 5
REMARK VINA RESULT:    -6.369      2.288      2.964
REMARK INTER + INTRA:          -7.936
REMARK INTER:                  -7.624
REMARK INTRA:                  -0.312
REMARK UNBOUND:                -0.263
REMARK SMILES O=c1c(O)c(-c2ccc(O)c(O)c2)oc2cc(O)cc(O)c12
REMARK SMILES IDX 5 1 3 2 2 3 1 4 22 5 20 6 19 7 17 8 16 9 15 10 14 11 6 12
REMARK SMILES IDX 7 13 8 14 9 15 13 16 11 17 10 18 12 20 4 22 21 24 18 26
REMARK H PARENT 10 19 12 21 4 23 21 25 18 27
REMARK Flexibility Score: inf
ROOT
ATOM      1  C   UNL     1      30.812  11.034  28.788  1.00  0.00     0.180 A 
ATOM      2  C   UNL     1      30.234  12.310  28.682  1.00  0.00     0.208 A 
ATOM      3  C   UNL     1      30.085  12.886  27.411  1.00  0.00     0.238 A 
ATOM      4  O   UNL     1      29.518  14.007  27.318  1.00  0.00    -0.285 OA
ATOM      5  C   UNL     1      30.531  12.188  26.264  1.00  0.00     0.111 A 
ATOM      6  C   UNL     1      30.466  12.693  24.930  1.00  0.00     0.134 A 
ATOM      7  C   UNL     1      30.816  11.862  23.859  1.00  0.00     0.093 A 
ATOM      8  C   UNL     1      31.289  10.566  24.077  1.00  0.00     0.123 A 
ATOM      9  C   UNL     1      31.411  10.084  25.378  1.00  0.00     0.094 A 
ATOM     10  C   UNL     1      31.037  10.877  26.465  1.00  0.00     0.146 A 
ATOM     11  O   UNL     1      31.160  10.375  27.689  1.00  0.00    -0.452 OA
ENDROOT
BRANCH   1  12
ATOM     12  C   UNL     1      31.025  10.371  30.096  1.00  0.00     0.025 A 
ATOM     13  C   UNL     1      32.160  10.691  30.856  1.00  0.00     0.016 A 
ATOM     14  C   UNL     1      32.370  10.093  32.102  1.00  0.00     0.051 A 
ATOM     15  C   UNL     1      31.442   9.180  32.612  1.00  0.00     0.157 A 
ATOM     16  C   UNL     1      30.082   9.468  30.620  1.00  0.00     0.062 A 
ATOM     17  C   UNL     1      30.289   8.869  31.872  1.00  0.00     0.158 A 
BRANCH  15  18
ATOM     18  O   UNL     1      31.679   8.598  33.857  1.00  0.00    -0.504 OA
ATOM     19  H   UNL     1      30.925   8.269  34.449  1.00  0.00     0.293 HD
ENDBRANCH  15  18
BRANCH  17  20
ATOM     20  O   UNL     1      29.353   7.970  32.382  1.00  0.00    -0.504 OA
ATOM     21  H   UNL     1      28.916   7.270  31.795  1.00  0.00     0.293 HD
ENDBRANCH  17  20
ENDBRANCH   1  12
BRANCH   2  22
ATOM     22  O   UNL     1      29.781  12.974  29.826  1.00  0.00    -0.502 OA
ATOM     23  H   UNL     1      29.172  12.533  30.506  1.00  0.00     0.293 HD
ENDBRANCH   2  22
BRANCH   6  24
ATOM     24  O   UNL     1      30.095  14.002  24.610  1.00  0.00    -0.507 OA
ATOM     25  H   UNL     1      29.160  14.292  24.367  1.00  0.00     0.293 HD
ENDBRANCH   6  24
BRANCH   8  26
ATOM     26  O   UNL     1      31.649   9.751  23.006  1.00  0.00    -0.508 OA
ATOM     27  H   UNL     1      31.053   8.995  22.692  1.00  0.00     0.293 HD
ENDBRANCH   8  26
TORSDOF 6
ENDMDL
MODEL 6
REMARK VINA RESULT:    -6.316      2.931      6.830
REMARK INTER + INTRA:          -7.871
REMARK INTER:                  -7.629
REMARK INTRA:                  -0.242
REMARK UNBOUND:                -0.263
REMARK SMILES O=c1c(O)c(-c2ccc(O)c(O)c2)oc2cc(O)cc(O)c12
REMARK SMILES IDX 5 1 3 2 2 3 1 4 22 5 20 6 19 7 17 8 16 9 15 10 14 11 6 12
REMARK SMILES IDX 7 13 8 14 9 15 13 16 11 17 10 18 12 20 4 22 21 24 18 26
REMARK H PARENT 10 19 12 21 4 23 21 25 18 27
REMARK Flexibility Score: inf
ROOT
ATOM      1  C   UNL     1      31.590  10.951  30.388  1.00  0.00     0.180 A 
ATOM      2  C   UNL     1      32.139  11.710  31.435  1.00  0.00     0.208 A 
ATOM      3  C   UNL     1      32.097  11.199  32.742  1.00  0.00     0.238 A 
ATOM      4  O   UNL     1      32.638  11.859  33.668  1.00  0.00    -0.285 OA
ATOM      5  C   UNL     1      31.491   9.943  32.987  1.00  0.00     0.111 A 
ATOM      6  C   UNL     1      31.356   9.347  34.277  1.00  0.00     0.134 A 
ATOM      7  C   UNL     1      30.857   8.043  34.386  1.00  0.00     0.093 A 
ATOM      8  C   UNL     1      30.428   7.339  33.258  1.00  0.00     0.123 A 
ATOM      9  C   UNL     1      30.501   7.935  32.002  1.00  0.00     0.094 A 
ATOM     10  C   UNL     1      31.027   9.221  31.857  1.00  0.00     0.146 A 
ATOM     11  O   UNL     1      31.088   9.748  30.640  1.00  0.00    -0.452 OA
ENDROOT
BRANCH   1  12
ATOM     12  C   UNL     1      31.575  11.435  28.988  1.00  0.00     0.025 A 
ATOM     13  C   UNL     1      32.353  10.778  28.021  1.00  0.00     0.016 A 
ATOM     14  C   UNL     1      32.338  11.204  26.691  1.00  0.00     0.051 A 
ATOM     15  C   UNL     1      31.536  12.281  26.303  1.00  0.00     0.157 A 
ATOM     16  C   UNL     1      30.753  12.505  28.592  1.00  0.00     0.062 A 
ATOM     17  C   UNL     1      30.735  12.932  27.256  1.00  0.00     0.158 A 
BRANCH  15  18
ATOM     18  O   UNL     1      31.544  12.685  24.968  1.00  0.00    -0.504 OA
ATOM     19  H   UNL     1      30.782  12.468  24.336  1.00  0.00     0.293 HD
ENDBRANCH  15  18
BRANCH  17  20
ATOM     20  O   UNL     1      29.922  13.999  26.872  1.00  0.00    -0.504 OA
ATOM     21  H   UNL     1      30.279  14.762  26.309  1.00  0.00     0.293 HD
ENDBRANCH  17  20
ENDBRANCH   1  12
BRANCH   2  22
ATOM     22  O   UNL     1      32.751  12.938  31.167  1.00  0.00    -0.502 OA
ATOM     23  H   UNL     1      32.271  13.694  30.692  1.00  0.00     0.293 HD
ENDBRANCH   2  22
BRANCH   6  24
ATOM     24  O   UNL     1      31.668   9.998  35.474  1.00  0.00    -0.507 OA
ATOM     25  H   UNL     1      32.085  10.914  35.539  1.00  0.00     0.293 HD
ENDBRANCH   6  24
BRANCH   8  26
ATOM     26  O   UNL     1      29.919   6.048  33.378  1.00  0.00    -0.508 OA
ATOM     27  H   UNL     1      28.990   5.813  33.051  1.00  0.00     0.293 HD
ENDBRANCH   8  26
TORSDOF 6
ENDMDL
MODEL 7
REMARK VINA RESULT:    -6.310      3.546      5.034
REMARK INTER + INTRA:          -7.865
REMARK INTER:                  -7.567
REMARK INTRA:                  -0.298
REMARK UNBOUND:                -0.263
REMARK SMILES O=c1c(O)c(-c2ccc(O)c(O)c2)oc2cc(O)cc(O)c12
REMARK SMILES IDX 5 1 3 2 2 3 1 4 22 5 20 6 19 7 17 8 16 9 15 10 14 11 6 12
REMARK SMILES IDX 7 13 8 14 9 15 13 16 11 17 10 18 12 20 4 22 21 24 18 26
REMARK H PARENT 10 19 12 21 4 23 21 25 18 27
REMARK Flexibility Score: inf
ROOT
ATOM      1  C   UNL     1      31.096   8.759  30.736  1.00  0.00     0.180 A 
ATOM      2  C   UNL     1      31.098   7.843  29.671  1.00  0.00     0.208 A 
ATOM      3  C   UNL     1      31.349   8.309  28.371  1.00  0.00     0.238 A 
ATOM      4  O   UNL     1      31.403   7.476  27.429  1.00  0.00    -0.285 OA
ATOM      5  C   UNL     1      31.578   9.689  28.150  1.00  0.00     0.111 A 
ATOM      6  C   UNL     1      31.804  10.278  26.870  1.00  0.00     0.134 A 
ATOM      7  C   UNL     1      32.149  11.632  26.784  1.00  0.00     0.093 A 
ATOM      8  C   UNL     1      32.214  12.433  27.927  1.00  0.00     0.123 A 
ATOM      9  C   UNL     1      31.938  11.880  29.175  1.00  0.00     0.094 A 
ATOM     10  C   UNL     1      31.625  10.525  29.296  1.00  0.00     0.146 A 
ATOM     11  O   UNL     1      31.379  10.035  30.506  1.00  0.00    -0.452 OA
ENDROOT
BRANCH   1  12
ATOM     12  C   UNL     1      30.815   8.346  32.130  1.00  0.00     0.025 A 
ATOM     13  C   UNL     1      31.843   7.790  32.907  1.00  0.00     0.016 A 
ATOM     14  C   UNL     1      31.606   7.412  34.231  1.00  0.00     0.051 A 
ATOM     15  C   UNL     1      30.344   7.599  34.804  1.00  0.00     0.157 A 
ATOM     16  C   UNL     1      29.552   8.553  32.714  1.00  0.00     0.062 A 
ATOM     17  C   UNL     1      29.313   8.177  34.044  1.00  0.00     0.158 A 
BRANCH  15  18
ATOM     18  O   UNL     1      30.136   7.211  36.127  1.00  0.00    -0.504 OA
ATOM     19  H   UNL     1      29.247   7.347  36.594  1.00  0.00     0.293 HD
ENDBRANCH  15  18
BRANCH  17  20
ATOM     20  O   UNL     1      28.056   8.379  34.614  1.00  0.00    -0.504 OA
ATOM     21  H   UNL     1      27.306   7.707  34.496  1.00  0.00     0.293 HD
ENDBRANCH  17  20
ENDBRANCH   1  12
BRANCH   2  22
ATOM     22  O   UNL     1      30.890   6.482  29.914  1.00  0.00    -0.502 OA
ATOM     23  H   UNL     1      30.906   5.788  29.175  1.00  0.00     0.293 HD
ENDBRANCH   2  22
BRANCH   6  24
ATOM     24  O   UNL     1      31.674   9.589  25.660  1.00  0.00    -0.507 OA
ATOM     25  H   UNL     1      31.369  10.004  24.792  1.00  0.00     0.293 HD
ENDBRANCH   6  24
BRANCH   8  26
ATOM     26  O   UNL     1      32.543  13.783  27.831  1.00  0.00    -0.508 OA
ATOM     27  H   UNL     1      33.501  14.102  27.920  1.00  0.00     0.293 HD
ENDBRANCH   8  26
TORSDOF 6
ENDMDL
MODEL 8
REMARK VINA RESULT:    -6.213      2.324      6.882
REMARK INTER + INTRA:          -7.748
REMARK INTER:                  -7.437
REMARK INTRA:                  -0.311
REMARK UNBOUND:                -0.263
REMARK SMILES O=c1c(O)c(-c2ccc(O)c(O)c2)oc2cc(O)cc(O)c12
REMARK SMILES IDX 5 1 3 2 2 3 1 4 22 5 20 6 19 7 17 8 16 9 15 10 14 11 6 12
REMARK SMILES IDX 7 13 8 14 9 15 13 16 11 17 10 18 12 20 4 22 21 24 18 26
REMARK H PARENT 10 19 12 21 4 23 21 25 18 27
REMARK Flexibility Score: inf
ROOT
ATOM      1  C   UNL     1      30.809  10.915  28.238  1.00  0.00     0.180 A 
ATOM      2  C   UNL     1      30.461   9.558  28.341  1.00  0.00     0.208 A 
ATOM      3  C   UNL     1      30.740   8.871  29.533  1.00  0.00     0.238 A 
ATOM      4  O   UNL     1      30.377   7.670  29.639  1.00  0.00    -0.285 OA
ATOM      5  C   UNL     1      31.380   9.545  30.601  1.00  0.00     0.111 A 
ATOM      6  C   UNL     1      31.748   8.938  31.839  1.00  0.00     0.134 A 
ATOM      7  C   UNL     1      32.257   9.732  32.874  1.00  0.00     0.093 A 
ATOM      8  C   UNL     1      32.473  11.100  32.692  1.00  0.00     0.123 A 
ATOM      9  C   UNL     1      32.172  11.691  31.467  1.00  0.00     0.094 A 
ATOM     10  C   UNL     1      31.630  10.932  30.428  1.00  0.00     0.146 A 
ATOM     11  O   UNL     1      31.348  11.537  29.280  1.00  0.00    -0.452 OA
ENDROOT
BRANCH   1  12
ATOM     12  C   UNL     1      30.568  11.699  27.005  1.00  0.00     0.025 A 
ATOM     13  C   UNL     1      29.485  12.590  26.953  1.00  0.00     0.016 A 
ATOM     14  C   UNL     1      29.252  13.355  25.807  1.00  0.00     0.051 A 
ATOM     15  C   UNL     1      30.104  13.253  24.704  1.00  0.00     0.157 A 
ATOM     16  C   UNL     1      31.437  11.614  25.902  1.00  0.00     0.062 A 
ATOM     17  C   UNL     1      31.206  12.383  24.752  1.00  0.00     0.158 A 
BRANCH  15  18
ATOM     18  O   UNL     1      29.845  14.028  23.574  1.00  0.00    -0.504 OA
ATOM     19  H   UNL     1      28.930  14.057  23.140  1.00  0.00     0.293 HD
ENDBRANCH  15  18
BRANCH  17  20
ATOM     20  O   UNL     1      32.068  12.287  23.660  1.00  0.00    -0.504 OA
ATOM     21  H   UNL     1      31.838  12.702  22.764  1.00  0.00     0.293 HD
ENDBRANCH  17  20
ENDBRANCH   1  12
BRANCH   2  22
ATOM     22  O   UNL     1      29.810   8.917  27.283  1.00  0.00    -0.502 OA
ATOM     23  H   UNL     1      29.357   8.016  27.388  1.00  0.00     0.293 HD
ENDBRANCH   2  22
BRANCH   6  24
ATOM     24  O   UNL     1      31.659   7.566  32.091  1.00  0.00    -0.507 OA
ATOM     25  H   UNL     1      32.105   6.849  31.538  1.00  0.00     0.293 HD
ENDBRANCH   6  24
BRANCH   8  26
ATOM     26  O   UNL     1      32.995  11.880  33.721  1.00  0.00    -0.508 OA
ATOM     27  H   UNL     1      32.954  12.892  33.692  1.00  0.00     0.293 HD
ENDBRANCH   8  26
TORSDOF 6
ENDMDL
MODEL 9
REMARK VINA RESULT:    -6.185      3.818      8.379
REMARK INTER + INTRA:          -7.714
REMARK INTER:                  -7.382
REMARK INTRA:                  -0.332
REMARK UNBOUND:                -0.263
REMARK SMILES O=c1c(O)c(-c2ccc(O)c(O)c2)oc2cc(O)cc(O)c12
REMARK SMILES IDX 5 1 3 2 2 3 1 4 22 5 20 6 19 7 17 8 16 9 15 10 14 11 6 12
REMARK SMILES IDX 7 13 8 14 9 15 13 16 11 17 10 18 12 20 4 22 21 24 18 26
REMARK H PARENT 10 19 12 21 4 23 21 25 18 27
REMARK Flexibility Score: inf
ROOT
ATOM      1  C   UNL     1      30.839   9.886  31.993  1.00  0.00     0.180 A 
ATOM      2  C   UNL     1      30.441   8.539  32.005  1.00  0.00     0.208 A 
ATOM      3  C   UNL     1      30.465   7.832  33.218  1.00  0.00     0.238 A 
ATOM      4  O   UNL     1      30.057   6.641  33.233  1.00  0.00    -0.285 OA
ATOM      5  C   UNL     1      30.903   8.477  34.400  1.00  0.00     0.111 A 
ATOM      6  C   UNL     1      31.006   7.847  35.676  1.00  0.00     0.134 A 
ATOM      7  C   UNL     1      31.326   8.615  36.803  1.00  0.00     0.093 A 
ATOM      8  C   UNL     1      31.608   9.978  36.687  1.00  0.00     0.123 A 
ATOM      9  C   UNL     1      31.567  10.590  35.437  1.00  0.00     0.094 A 
ATOM     10  C   UNL     1      31.217   9.857  34.301  1.00  0.00     0.146 A 
ATOM     11  O   UNL     1      31.180  10.482  33.129  1.00  0.00    -0.452 OA
ENDROOT
BRANCH   1  12
ATOM     12  C   UNL     1      30.863  10.690  30.749  1.00  0.00     0.025 A 
ATOM     13  C   UNL     1      29.770  11.512  30.436  1.00  0.00     0.016 A 
ATOM     14  C   UNL     1      29.780  12.294  29.278  1.00  0.00     0.051 A 
ATOM     15  C   UNL     1      30.888  12.278  28.425  1.00  0.00     0.157 A 
ATOM     16  C   UNL     1      31.985  10.691  29.901  1.00  0.00     0.062 A 
ATOM     17  C   UNL     1      31.999  11.478  28.739  1.00  0.00     0.158 A 
BRANCH  15  18
ATOM     18  O   UNL     1      30.869  13.068  27.276  1.00  0.00    -0.504 OA
ATOM     19  H   UNL     1      30.004  13.391  26.859  1.00  0.00     0.293 HD
ENDBRANCH  15  18
BRANCH  17  20
ATOM     20  O   UNL     1      33.112  11.468  27.900  1.00  0.00    -0.504 OA
ATOM     21  H   UNL     1      34.054  11.536  28.267  1.00  0.00     0.293 HD
ENDBRANCH  17  20
ENDBRANCH   1  12
BRANCH   2  22
ATOM     22  O   UNL     1      29.993   7.927  30.831  1.00  0.00    -0.502 OA
ATOM     23  H   UNL     1      30.409   8.115  29.926  1.00  0.00     0.293 HD
ENDBRANCH   2  22
BRANCH   6  24
ATOM     24  O   UNL     1      30.835   6.475  35.885  1.00  0.00    -0.507 OA
ATOM     25  H   UNL     1      31.570   5.837  36.149  1.00  0.00     0.293 HD
ENDBRANCH   6  24
BRANCH   8  26
ATOM     26  O   UNL     1      31.940  10.733  37.811  1.00  0.00    -0.508 OA
ATOM     27  H   UNL     1      32.210  11.706  37.735  1.00  0.00     0.293 HD
ENDBRANCH   8  26
TORSDOF 6
ENDMDL
