MODEL 1
REMARK VINA RESULT:    -3.573      0.000      0.000
REMARK INTER + INTRA:          -5.081
REMARK INTER:                  -4.826
REMARK INTRA:                  -0.255
REMARK UNBOUND:                -0.255
REMARK SMILES CCCCCCCC(=O)[O-]
REMARK SMILES IDX 5 1 6 2 7 3 8 4 9 5 10 6 4 7 3 8 2 9 1 10
REMARK H PARENT
REMARK Flexibility Score: inf
ROOT
ATOM      1  C   UNL     1      21.456 -15.962   4.655  1.00  0.00     0.000 C 
ENDROOT
BRANCH   1   2
ATOM      2  C   UNL     1      21.236 -15.716   6.154  1.00  0.00     0.006 C 
BRANCH   2   3
ATOM      3  C   UNL     1      21.537 -14.266   6.556  1.00  0.00     0.053 C 
BRANCH   3   4
ATOM      4  C   UNL     1      21.515 -14.085   8.044  1.00  0.00     0.041 C 
ATOM      5  O   UNL     1      21.353 -12.939   8.539  1.00  0.00    -0.550 OA
ATOM      6  O   UNL     1      21.707 -15.176   8.880  1.00  0.00    -0.550 OA
ENDBRANCH   3   4
ENDBRANCH   2   3
ENDBRANCH   1   2
BRANCH   1   7
ATOM      7  C   UNL     1      22.149 -14.763   3.997  1.00  0.00     0.000 C 
BRANCH   7   8
ATOM      8  C   UNL     1      21.829 -14.693   2.499  1.00  0.00    -0.000 C 
BRANCH   8   9
ATOM      9  C   UNL     1      21.260 -16.025   1.995  1.00  0.00    -0.003 C 
ATOM     10  C   UNL     1      22.326 -16.838   1.266  1.00  0.00     0.004 C 
ENDBRANCH   8   9
ENDBRANCH   7   8
ENDBRANCH   1   7
TORSDOF 6
ENDMDL
MODEL 2
REMARK VINA RESULT:    -3.530      0.755      1.574
REMARK INTER + INTRA:          -5.023
REMARK INTER:                  -4.841
REMARK INTRA:                  -0.182
REMARK UNBOUND:                -0.255
REMARK SMILES CCCCCCCC(=O)[O-]
REMARK SMILES IDX 5 1 6 2 7 3 8 4 9 5 10 6 4 7 3 8 2 9 1 10
REMARK H PARENT
REMARK Flexibility Score: inf
ROOT
ATOM      1  C   UNL     1      21.867 -16.263   5.071  1.00  0.00     0.000 C 
ENDROOT
BRANCH   1   2
ATOM      2  C   UNL     1      21.051 -15.573   6.174  1.00  0.00     0.006 C 
BRANCH   2   3
ATOM      3  C   UNL     1      21.718 -14.283   6.669  1.00  0.00     0.053 C 
BRANCH   3   4
ATOM      4  C   UNL     1      21.551 -14.103   8.147  1.00  0.00     0.041 C 
ATOM      5  O   UNL     1      21.721 -15.077   8.927  1.00  0.00    -0.550 OA
ATOM      6  O   UNL     1      21.176 -12.869   8.660  1.00  0.00    -0.550 OA
ENDBRANCH   3   4
ENDBRANCH   2   3
ENDBRANCH   1   2
BRANCH   1   7
ATOM      7  C   UNL     1      22.082 -15.325   3.878  1.00  0.00     0.000 C 
BRANCH   7   8
ATOM      8  C   UNL     1      21.478 -15.914   2.597  1.00  0.00    -0.000 C 
BRANCH   8   9
ATOM      9  C   UNL     1      22.039 -15.217   1.353  1.00  0.00    -0.003 C 
ATOM     10  C   UNL     1      21.790 -13.712   1.406  1.00  0.00     0.004 C 
ENDBRANCH   8   9
ENDBRANCH   7   8
ENDBRANCH   1   7
TORSDOF 6
ENDMDL
MODEL 3
REMARK VINA RESULT:    -3.449     13.476     15.392
REMARK INTER + INTRA:          -4.914
REMARK INTER:                  -4.609
REMARK INTRA:                  -0.305
REMARK UNBOUND:                -0.255
REMARK SMILES CCCCCCCC(=O)[O-]
REMARK SMILES IDX 5 1 6 2 7 3 8 4 9 5 10 6 4 7 3 8 2 9 1 10
REMARK H PARENT
REMARK Flexibility Score: inf
ROOT
ATOM      1  C   UNL     1      25.658  -0.886  10.934  1.00  0.00     0.000 C 
ENDROOT
BRANCH   1   2
ATOM      2  C   UNL     1      25.199  -2.301  10.554  1.00  0.00     0.006 C 
BRANCH   2   3
ATOM      3  C   UNL     1      24.338  -2.310   9.283  1.00  0.00     0.053 C 
BRANCH   3   4
ATOM      4  C   UNL     1      22.882  -2.466   9.599  1.00  0.00     0.041 C 
ATOM      5  O   UNL     1      22.101  -1.483   9.487  1.00  0.00    -0.550 OA
ATOM      6  O   UNL     1      22.393  -3.685  10.048  1.00  0.00    -0.550 OA
ENDBRANCH   3   4
ENDBRANCH   2   3
ENDBRANCH   1   2
BRANCH   1   7
ATOM      7  C   UNL     1      27.185  -0.814  11.042  1.00  0.00     0.000 C 
BRANCH   7   8
ATOM      8  C   UNL     1      27.812  -2.212  10.959  1.00  0.00    -0.000 C 
BRANCH   8   9
ATOM      9  C   UNL     1      28.996  -2.342  11.923  1.00  0.00    -0.003 C 
ATOM     10  C   UNL     1      29.386  -0.985  12.503  1.00  0.00     0.004 C 
ENDBRANCH   8   9
ENDBRANCH   7   8
ENDBRANCH   1   7
TORSDOF 6
ENDMDL
MODEL 4
REMARK VINA RESULT:    -3.422      4.147      5.324
REMARK INTER + INTRA:          -4.877
REMARK INTER:                  -4.574
REMARK INTRA:                  -0.303
REMARK UNBOUND:                -0.255
REMARK SMILES CCCCCCCC(=O)[O-]
REMARK SMILES IDX 5 1 6 2 7 3 8 4 9 5 10 6 4 7 3 8 2 9 1 10
REMARK H PARENT
REMARK Flexibility Score: inf
ROOT
ATOM      1  C   UNL     1      21.984 -13.728   1.327  1.00  0.00     0.000 C 
ENDROOT
BRANCH   1   2
ATOM      2  C   UNL     1      23.003 -12.673   0.875  1.00  0.00     0.006 C 
BRANCH   2   3
ATOM      3  C   UNL     1      24.126 -12.472   1.902  1.00  0.00     0.053 C 
BRANCH   3   4
ATOM      4  C   UNL     1      24.431 -11.020   2.115  1.00  0.00     0.041 C 
ATOM      5  O   UNL     1      25.021 -10.644   3.162  1.00  0.00    -0.550 OA
ATOM      6  O   UNL     1      24.033 -10.080   1.174  1.00  0.00    -0.550 OA
ENDBRANCH   3   4
ENDBRANCH   2   3
ENDBRANCH   1   2
BRANCH   1   7
ATOM      7  C   UNL     1      22.376 -14.326   2.683  1.00  0.00     0.000 C 
BRANCH   7   8
ATOM      8  C   UNL     1      21.632 -15.642   2.942  1.00  0.00    -0.000 C 
BRANCH   8   9
ATOM      9  C   UNL     1      21.050 -16.210   1.643  1.00  0.00    -0.003 C 
ATOM     10  C   UNL     1      21.873 -17.394   1.142  1.00  0.00     0.004 C 
ENDBRANCH   8   9
ENDBRANCH   7   8
ENDBRANCH   1   7
TORSDOF 6
ENDMDL
MODEL 5
REMARK VINA RESULT:    -3.324      3.518      5.360
REMARK INTER + INTRA:          -4.745
REMARK INTER:                  -4.463
REMARK INTRA:                  -0.282
REMARK UNBOUND:                -0.255
REMARK SMILES CCCCCCCC(=O)[O-]
REMARK SMILES IDX 5 1 6 2 7 3 8 4 9 5 10 6 4 7 3 8 2 9 1 10
REMARK H PARENT
REMARK Flexibility Score: inf
ROOT
ATOM      1  C   UNL     1      21.991 -15.468   2.025  1.00  0.00     0.000 C 
ENDROOT
BRANCH   1   2
ATOM      2  C   UNL     1      21.706 -13.979   1.783  1.00  0.00     0.006 C 
BRANCH   2   3
ATOM      3  C   UNL     1      22.758 -13.327   0.875  1.00  0.00     0.053 C 
BRANCH   3   4
ATOM      4  C   UNL     1      23.564 -12.298   1.608  1.00  0.00     0.041 C 
ATOM      5  O   UNL     1      23.716 -11.147   1.120  1.00  0.00    -0.550 OA
ATOM      6  O   UNL     1      24.174 -12.621   2.813  1.00  0.00    -0.550 OA
ENDBRANCH   3   4
ENDBRANCH   2   3
ENDBRANCH   1   2
BRANCH   1   7
ATOM      7  C   UNL     1      21.537 -15.894   3.426  1.00  0.00     0.000 C 
BRANCH   7   8
ATOM      8  C   UNL     1      22.076 -14.937   4.496  1.00  0.00    -0.000 C 
BRANCH   8   9
ATOM      9  C   UNL     1      21.537 -15.304   5.883  1.00  0.00    -0.003 C 
ATOM     10  C   UNL     1      21.596 -14.109   6.831  1.00  0.00     0.004 C 
ENDBRANCH   8   9
ENDBRANCH   7   8
ENDBRANCH   1   7
TORSDOF 6
ENDMDL
MODEL 6
REMARK VINA RESULT:    -3.295      3.554      5.168
REMARK INTER + INTRA:          -4.706
REMARK INTER:                  -4.278
REMARK INTRA:                  -0.428
REMARK UNBOUND:                -0.255
REMARK SMILES CCCCCCCC(=O)[O-]
REMARK SMILES IDX 5 1 6 2 7 3 8 4 9 5 10 6 4 7 3 8 2 9 1 10
REMARK H PARENT
REMARK Flexibility Score: inf
ROOT
ATOM      1  C   UNL     1      21.804 -13.659   1.252  1.00  0.00     0.000 C 
ENDROOT
BRANCH   1   2
ATOM      2  C   UNL     1      23.311 -13.438   1.067  1.00  0.00     0.006 C 
BRANCH   2   3
ATOM      3  C   UNL     1      23.716 -11.974   1.293  1.00  0.00     0.053 C 
BRANCH   3   4
ATOM      4  C   UNL     1      24.425 -11.789   2.600  1.00  0.00     0.041 C 
ATOM      5  O   UNL     1      24.532 -12.752   3.404  1.00  0.00    -0.550 OA
ATOM      6  O   UNL     1      24.937 -10.546   2.944  1.00  0.00    -0.550 OA
ENDBRANCH   3   4
ENDBRANCH   2   3
ENDBRANCH   1   2
BRANCH   1   7
ATOM      7  C   UNL     1      21.496 -15.132   1.544  1.00  0.00     0.000 C 
BRANCH   7   8
ATOM      8  C   UNL     1      22.425 -15.686   2.631  1.00  0.00    -0.000 C 
BRANCH   8   9
ATOM      9  C   UNL     1      21.679 -15.848   3.961  1.00  0.00    -0.003 C 
ATOM     10  C   UNL     1      22.049 -14.737   4.939  1.00  0.00     0.004 C 
ENDBRANCH   8   9
ENDBRANCH   7   8
ENDBRANCH   1   7
TORSDOF 6
ENDMDL
MODEL 7
REMARK VINA RESULT:    -3.195      2.225      2.666
REMARK INTER + INTRA:          -4.572
REMARK INTER:                  -4.172
REMARK INTRA:                  -0.400
REMARK UNBOUND:                -0.255
REMARK SMILES CCCCCCCC(=O)[O-]
REMARK SMILES IDX 5 1 6 2 7 3 8 4 9 5 10 6 4 7 3 8 2 9 1 10
REMARK H PARENT
REMARK Flexibility Score: inf
ROOT
ATOM      1  C   UNL     1      22.778 -14.535   3.699  1.00  0.00     0.000 C 
ENDROOT
BRANCH   1   2
ATOM      2  C   UNL     1      22.033 -14.741   5.025  1.00  0.00     0.006 C 
BRANCH   2   3
ATOM      3  C   UNL     1      21.445 -16.153   5.149  1.00  0.00     0.053 C 
BRANCH   3   4
ATOM      4  C   UNL     1      22.215 -16.992   6.123  1.00  0.00     0.041 C 
ATOM      5  O   UNL     1      21.685 -18.012   6.638  1.00  0.00    -0.550 OA
ATOM      6  O   UNL     1      23.505 -16.630   6.486  1.00  0.00    -0.550 OA
ENDBRANCH   3   4
ENDBRANCH   2   3
ENDBRANCH   1   2
BRANCH   1   7
ATOM      7  C   UNL     1      21.822 -14.057   2.599  1.00  0.00     0.000 C 
BRANCH   7   8
ATOM      8  C   UNL     1      21.913 -14.955   1.359  1.00  0.00    -0.000 C 
BRANCH   8   9
ATOM      9  C   UNL     1      21.100 -16.240   1.550  1.00  0.00    -0.003 C 
ATOM     10  C   UNL     1      21.923 -17.472   1.183  1.00  0.00     0.004 C 
ENDBRANCH   8   9
ENDBRANCH   7   8
ENDBRANCH   1   7
TORSDOF 6
ENDMDL
MODEL 8
REMARK VINA RESULT:    -3.182      2.560      3.847
REMARK INTER + INTRA:          -4.554
REMARK INTER:                  -4.167
REMARK INTRA:                  -0.387
REMARK UNBOUND:                -0.255
REMARK SMILES CCCCCCCC(=O)[O-]
REMARK SMILES IDX 5 1 6 2 7 3 8 4 9 5 10 6 4 7 3 8 2 9 1 10
REMARK H PARENT
REMARK Flexibility Score: inf
ROOT
ATOM      1  C   UNL     1      22.344 -15.126   1.307  1.00  0.00     0.000 C 
ENDROOT
BRANCH   1   2
ATOM      2  C   UNL     1      21.451 -15.866   2.312  1.00  0.00     0.006 C 
BRANCH   2   3
ATOM      3  C   UNL     1      22.227 -16.315   3.558  1.00  0.00     0.053 C 
BRANCH   3   4
ATOM      4  C   UNL     1      21.746 -15.616   4.794  1.00  0.00     0.041 C 
ATOM      5  O   UNL     1      22.135 -14.447   5.052  1.00  0.00    -0.550 OA
ATOM      6  O   UNL     1      20.897 -16.269   5.677  1.00  0.00    -0.550 OA
ENDBRANCH   3   4
ENDBRANCH   2   3
ENDBRANCH   1   2
BRANCH   1   7
ATOM      7  C   UNL     1      21.830 -13.703   1.058  1.00  0.00     0.000 C 
BRANCH   7   8
ATOM      8  C   UNL     1      22.983 -12.692   1.049  1.00  0.00    -0.000 C 
BRANCH   8   9
ATOM      9  C   UNL     1      24.031 -13.044   2.110  1.00  0.00    -0.003 C 
ATOM     10  C   UNL     1      24.554 -11.791   2.805  1.00  0.00     0.004 C 
ENDBRANCH   8   9
ENDBRANCH   7   8
ENDBRANCH   1   7
TORSDOF 6
ENDMDL
MODEL 9
REMARK VINA RESULT:    -2.391      1.662      2.271
REMARK INTER + INTRA:          -3.485
REMARK INTER:                  -3.202
REMARK INTRA:                  -0.283
REMARK UNBOUND:                -0.255
REMARK SMILES CCCCCCCC(=O)[O-]
REMARK SMILES IDX 5 1 6 2 7 3 8 4 9 5 10 6 4 7 3 8 2 9 1 10
REMARK H PARENT
REMARK Flexibility Score: inf
ROOT
ATOM      1  C   UNL     1      21.649 -15.862   3.651  1.00  0.00     0.000 C 
ENDROOT
BRANCH   1   2
ATOM      2  C   UNL     1      22.121 -14.767   4.618  1.00  0.00     0.006 C 
BRANCH   2   3
ATOM      3  C   UNL     1      21.511 -14.924   6.017  1.00  0.00     0.053 C 
BRANCH   3   4
ATOM      4  C   UNL     1      22.311 -14.200   7.057  1.00  0.00     0.041 C 
ATOM      5  O   UNL     1      23.389 -13.630   6.743  1.00  0.00    -0.550 OA
ATOM      6  O   UNL     1      21.885 -14.186   8.378  1.00  0.00    -0.550 OA
ENDBRANCH   3   4
ENDBRANCH   2   3
ENDBRANCH   1   2
BRANCH   1   7
ATOM      7  C   UNL     1      21.951 -15.481   2.198  1.00  0.00     0.000 C 
BRANCH   7   8
ATOM      8  C   UNL     1      21.659 -13.997   1.943  1.00  0.00    -0.000 C 
BRANCH   8   9
ATOM      9  C   UNL     1      22.598 -13.426   0.875  1.00  0.00    -0.003 C 
ATOM     10  C   UNL     1      23.640 -12.499   1.496  1.00  0.00     0.004 C 
ENDBRANCH   8   9
ENDBRANCH   7   8
ENDBRANCH   1   7
TORSDOF 6
ENDMDL
