MODEL 1
REMARK VINA RESULT:    -8.199      0.000      0.000
REMARK INTER + INTRA:          -8.933
REMARK INTER:                  -8.679
REMARK INTRA:                  -0.255
REMARK UNBOUND:                -0.255
REMARK SMILES O=c1cc(-c2ccccc2)oc2ccccc12
REMARK SMILES IDX 4 1 3 2 2 3 1 4 17 5 16 6 15 7 14 8 13 9 12 10 11 11 5 12
REMARK SMILES IDX 8 13 7 14 9 15 6 16 10 17
REMARK H PARENT
REMARK Flexibility Score: inf
ROOT
ATOM      1  C   UNL     1     137.815 -16.688  80.241  1.00  0.00     0.138 A 
ATOM      2  C   UNL     1     138.785 -17.659  79.914  1.00  0.00     0.100 A 
ATOM      3  C   UNL     1     138.384 -18.972  79.655  1.00  0.00     0.193 A 
ATOM      4  O   UNL     1     139.251 -19.840  79.361  1.00  0.00    -0.289 OA
ATOM      5  C   UNL     1     137.024 -19.305  79.724  1.00  0.00     0.065 A 
ATOM      6  C   UNL     1     136.555 -20.607  79.474  1.00  0.00     0.016 A 
ATOM      7  C   UNL     1     135.186 -20.885  79.556  1.00  0.00     0.001 A 
ATOM      8  C   UNL     1     134.282 -19.873  79.886  1.00  0.00     0.004 A 
ATOM      9  C   UNL     1     134.740 -18.576  80.136  1.00  0.00     0.048 A 
ATOM     10  C   UNL     1     136.107 -18.287  80.056  1.00  0.00     0.138 A 
ATOM     11  O   UNL     1     136.532 -17.050  80.295  1.00  0.00    -0.456 OA
ENDROOT
BRANCH   1  12
ATOM     12  C   UNL     1     138.159 -15.262  80.533  1.00  0.00     0.017 A 
ATOM     13  C   UNL     1     138.894 -12.602  81.123  1.00  0.00     0.000 A 
ATOM     14  C   UNL     1     139.761 -13.648  81.427  1.00  0.00     0.001 A 
ATOM     15  C   UNL     1     137.662 -12.870  80.525  1.00  0.00     0.001 A 
ATOM     16  C   UNL     1     139.400 -14.967  81.137  1.00  0.00     0.012 A 
ATOM     17  C   UNL     1     137.293 -14.187  80.231  1.00  0.00     0.012 A 
ENDBRANCH   1  12
TORSDOF 1
ENDMDL
MODEL 2
REMARK VINA RESULT:    -8.129      0.174      1.185
REMARK INTER + INTRA:          -8.858
REMARK INTER:                  -8.603
REMARK INTRA:                  -0.255
REMARK UNBOUND:                -0.255
REMARK SMILES O=c1cc(-c2ccccc2)oc2ccccc12
REMARK SMILES IDX 4 1 3 2 2 3 1 4 17 5 16 6 15 7 14 8 13 9 12 10 11 11 5 12
REMARK SMILES IDX 8 13 7 14 9 15 6 16 10 17
REMARK H PARENT
REMARK Flexibility Score: inf
ROOT
ATOM      1  C   UNL     1     137.971 -16.764  80.225  1.00  0.00     0.138 A 
ATOM      2  C   UNL     1     138.899 -17.739  79.802  1.00  0.00     0.100 A 
ATOM      3  C   UNL     1     138.454 -19.027  79.499  1.00  0.00     0.193 A 
ATOM      4  O   UNL     1     139.284 -19.899  79.121  1.00  0.00    -0.289 OA
ATOM      5  C   UNL     1     137.091 -19.333  79.619  1.00  0.00     0.065 A 
ATOM      6  C   UNL     1     136.579 -20.611  79.330  1.00  0.00     0.016 A 
ATOM      7  C   UNL     1     135.209 -20.863  79.466  1.00  0.00     0.001 A 
ATOM      8  C   UNL     1     134.347 -19.848  79.891  1.00  0.00     0.004 A 
ATOM      9  C   UNL     1     134.848 -18.576  80.180  1.00  0.00     0.048 A 
ATOM     10  C   UNL     1     136.216 -18.313  80.047  1.00  0.00     0.138 A 
ATOM     11  O   UNL     1     136.683 -17.100  80.324  1.00  0.00    -0.456 OA
ENDROOT
BRANCH   1  12
ATOM     12  C   UNL     1     138.363 -15.362  80.569  1.00  0.00     0.017 A 
ATOM     13  C   UNL     1     139.013 -12.686  81.185  1.00  0.00     0.000 A 
ATOM     14  C   UNL     1     137.769 -12.993  80.638  1.00  0.00     0.001 A 
ATOM     15  C   UNL     1     139.936 -13.703  81.428  1.00  0.00     0.001 A 
ATOM     16  C   UNL     1     137.444 -14.318  80.332  1.00  0.00     0.012 A 
ATOM     17  C   UNL     1     139.619 -15.031  81.124  1.00  0.00     0.012 A 
ENDBRANCH   1  12
TORSDOF 1
ENDMDL
MODEL 3
REMARK VINA RESULT:    -7.941      1.536      5.719
REMARK INTER + INTRA:          -8.659
REMARK INTER:                  -8.423
REMARK INTRA:                  -0.236
REMARK UNBOUND:                -0.255
REMARK SMILES O=c1cc(-c2ccccc2)oc2ccccc12
REMARK SMILES IDX 4 1 3 2 2 3 1 4 17 5 16 6 15 7 14 8 13 9 12 10 11 11 5 12
REMARK SMILES IDX 8 13 7 14 9 15 6 16 10 17
REMARK H PARENT
REMARK Flexibility Score: inf
ROOT
ATOM      1  C   UNL     1     137.322 -18.260  79.123  1.00  0.00     0.138 A 
ATOM      2  C   UNL     1     138.463 -18.689  78.414  1.00  0.00     0.100 A 
ATOM      3  C   UNL     1     139.673 -18.012  78.583  1.00  0.00     0.193 A 
ATOM      4  O   UNL     1     140.694 -18.397  77.949  1.00  0.00    -0.289 OA
ATOM      5  C   UNL     1     139.736 -16.917  79.455  1.00  0.00     0.065 A 
ATOM      6  C   UNL     1     140.923 -16.193  79.670  1.00  0.00     0.016 A 
ATOM      7  C   UNL     1     140.929 -15.107  80.552  1.00  0.00     0.001 A 
ATOM      8  C   UNL     1     139.760 -14.737  81.221  1.00  0.00     0.004 A 
ATOM      9  C   UNL     1     138.577 -15.451  81.013  1.00  0.00     0.048 A 
ATOM     10  C   UNL     1     138.559 -16.540  80.134  1.00  0.00     0.138 A 
ATOM     11  O   UNL     1     137.428 -17.212  79.943  1.00  0.00    -0.456 OA
ENDROOT
BRANCH   1  12
ATOM     12  C   UNL     1     135.989 -18.927  79.000  1.00  0.00     0.017 A 
ATOM     13  C   UNL     1     133.475 -20.202  78.867  1.00  0.00     0.000 A 
ATOM     14  C   UNL     1     134.118 -20.055  80.094  1.00  0.00     0.001 A 
ATOM     15  C   UNL     1     134.075 -19.716  77.704  1.00  0.00     0.001 A 
ATOM     16  C   UNL     1     135.364 -19.425  80.163  1.00  0.00     0.012 A 
ATOM     17  C   UNL     1     135.321 -19.085  77.765  1.00  0.00     0.012 A 
ENDBRANCH   1  12
TORSDOF 1
ENDMDL
MODEL 4
REMARK VINA RESULT:    -7.852      1.130      2.370
REMARK INTER + INTRA:          -8.566
REMARK INTER:                  -8.307
REMARK INTRA:                  -0.258
REMARK UNBOUND:                -0.255
REMARK SMILES O=c1cc(-c2ccccc2)oc2ccccc12
REMARK SMILES IDX 4 1 3 2 2 3 1 4 17 5 16 6 15 7 14 8 13 9 12 10 11 11 5 12
REMARK SMILES IDX 8 13 7 14 9 15 6 16 10 17
REMARK H PARENT
REMARK Flexibility Score: inf
ROOT
ATOM      1  C   UNL     1     137.345 -16.565  80.508  1.00  0.00     0.138 A 
ATOM      2  C   UNL     1     135.967 -16.858  80.440  1.00  0.00     0.100 A 
ATOM      3  C   UNL     1     135.553 -18.182  80.273  1.00  0.00     0.193 A 
ATOM      4  O   UNL     1     134.320 -18.444  80.213  1.00  0.00    -0.289 OA
ATOM      5  C   UNL     1     136.513 -19.199  80.177  1.00  0.00     0.065 A 
ATOM      6  C   UNL     1     136.162 -20.551  80.009  1.00  0.00     0.016 A 
ATOM      7  C   UNL     1     137.161 -21.526  79.919  1.00  0.00     0.001 A 
ATOM      8  C   UNL     1     138.508 -21.162  79.994  1.00  0.00     0.004 A 
ATOM      9  C   UNL     1     138.864 -19.822  80.161  1.00  0.00     0.048 A 
ATOM     10  C   UNL     1     137.873 -18.837  80.253  1.00  0.00     0.138 A 
ATOM     11  O   UNL     1     138.223 -17.565  80.412  1.00  0.00    -0.456 OA
ENDROOT
BRANCH   1  12
ATOM     12  C   UNL     1     137.874 -15.177  80.684  1.00  0.00     0.017 A 
ATOM     13  C   UNL     1     138.953 -12.596  81.060  1.00  0.00     0.000 A 
ATOM     14  C   UNL     1     139.668 -13.718  81.474  1.00  0.00     0.001 A 
ATOM     15  C   UNL     1     137.703 -12.750  80.459  1.00  0.00     0.001 A 
ATOM     16  C   UNL     1     139.136 -14.997  81.289  1.00  0.00     0.012 A 
ATOM     17  C   UNL     1     137.164 -14.027  80.271  1.00  0.00     0.012 A 
ENDBRANCH   1  12
TORSDOF 1
ENDMDL
MODEL 5
REMARK VINA RESULT:    -7.707      1.377      5.850
REMARK INTER + INTRA:          -8.413
REMARK INTER:                  -8.192
REMARK INTRA:                  -0.221
REMARK UNBOUND:                -0.255
REMARK SMILES O=c1cc(-c2ccccc2)oc2ccccc12
REMARK SMILES IDX 4 1 3 2 2 3 1 4 17 5 16 6 15 7 14 8 13 9 12 10 11 11 5 12
REMARK SMILES IDX 8 13 7 14 9 15 6 16 10 17
REMARK H PARENT
REMARK Flexibility Score: inf
ROOT
ATOM      1  C   UNL     1     136.917 -17.201  79.866  1.00  0.00     0.138 A 
ATOM      2  C   UNL     1     138.230 -17.516  80.274  1.00  0.00     0.100 A 
ATOM      3  C   UNL     1     139.087 -16.493  80.686  1.00  0.00     0.193 A 
ATOM      4  O   UNL     1     140.261 -16.774  81.051  1.00  0.00    -0.289 OA
ATOM      5  C   UNL     1     138.629 -15.168  80.689  1.00  0.00     0.065 A 
ATOM      6  C   UNL     1     139.441 -14.092  81.094  1.00  0.00     0.016 A 
ATOM      7  C   UNL     1     138.933 -12.788  81.078  1.00  0.00     0.001 A 
ATOM      8  C   UNL     1     137.621 -12.550  80.661  1.00  0.00     0.004 A 
ATOM      9  C   UNL     1     136.808 -13.613  80.258  1.00  0.00     0.048 A 
ATOM     10  C   UNL     1     137.305 -14.921  80.270  1.00  0.00     0.138 A 
ATOM     11  O   UNL     1     136.524 -15.926  79.885  1.00  0.00    -0.456 OA
ENDROOT
BRANCH   1  12
ATOM     12  C   UNL     1     135.937 -18.234  79.410  1.00  0.00     0.017 A 
ATOM     13  C   UNL     1     134.064 -20.202  78.645  1.00  0.00     0.000 A 
ATOM     14  C   UNL     1     134.252 -19.905  79.993  1.00  0.00     0.001 A 
ATOM     15  C   UNL     1     134.802 -19.524  77.674  1.00  0.00     0.001 A 
ATOM     16  C   UNL     1     135.180 -18.931  80.375  1.00  0.00     0.012 A 
ATOM     17  C   UNL     1     135.732 -18.549  78.047  1.00  0.00     0.012 A 
ENDBRANCH   1  12
TORSDOF 1
ENDMDL
MODEL 6
REMARK VINA RESULT:    -7.666      2.905      5.581
REMARK INTER + INTRA:          -8.369
REMARK INTER:                  -8.146
REMARK INTRA:                  -0.223
REMARK UNBOUND:                -0.255
REMARK SMILES O=c1cc(-c2ccccc2)oc2ccccc12
REMARK SMILES IDX 4 1 3 2 2 3 1 4 17 5 16 6 15 7 14 8 13 9 12 10 11 11 5 12
REMARK SMILES IDX 8 13 7 14 9 15 6 16 10 17
REMARK H PARENT
REMARK Flexibility Score: inf
ROOT
ATOM      1  C   UNL     1     139.035 -19.705  78.869  1.00  0.00     0.138 A 
ATOM      2  C   UNL     1     137.767 -20.265  78.610  1.00  0.00     0.100 A 
ATOM      3  C   UNL     1     136.649 -19.783  79.295  1.00  0.00     0.193 A 
ATOM      4  O   UNL     1     135.514 -20.284  79.062  1.00  0.00    -0.289 OA
ATOM      5  C   UNL     1     136.804 -18.750  80.229  1.00  0.00     0.065 A 
ATOM      6  C   UNL     1     135.719 -18.220  80.951  1.00  0.00     0.016 A 
ATOM      7  C   UNL     1     135.930 -17.188  81.873  1.00  0.00     0.001 A 
ATOM      8  C   UNL     1     137.215 -16.682  82.079  1.00  0.00     0.004 A 
ATOM      9  C   UNL     1     138.298 -17.202  81.365  1.00  0.00     0.048 A 
ATOM     10  C   UNL     1     138.099 -18.234  80.441  1.00  0.00     0.138 A 
ATOM     11  O   UNL     1     139.135 -18.723  79.767  1.00  0.00    -0.456 OA
ENDROOT
BRANCH   1  12
ATOM     12  C   UNL     1     140.282 -20.162  78.182  1.00  0.00     0.017 A 
ATOM     13  C   UNL     1     142.634 -21.107  76.940  1.00  0.00     0.000 A 
ATOM     14  C   UNL     1     142.013 -21.868  77.928  1.00  0.00     0.001 A 
ATOM     15  C   UNL     1     142.091 -19.878  76.565  1.00  0.00     0.001 A 
ATOM     16  C   UNL     1     140.849 -21.402  78.545  1.00  0.00     0.012 A 
ATOM     17  C   UNL     1     140.926 -19.405  77.177  1.00  0.00     0.012 A 
ENDBRANCH   1  12
TORSDOF 1
ENDMDL
MODEL 7
REMARK VINA RESULT:    -7.607      1.920      6.011
REMARK INTER + INTRA:          -8.306
REMARK INTER:                  -8.053
REMARK INTRA:                  -0.253
REMARK UNBOUND:                -0.255
REMARK SMILES O=c1cc(-c2ccccc2)oc2ccccc12
REMARK SMILES IDX 4 1 3 2 2 3 1 4 17 5 16 6 15 7 14 8 13 9 12 10 11 11 5 12
REMARK SMILES IDX 8 13 7 14 9 15 6 16 10 17
REMARK H PARENT
REMARK Flexibility Score: inf
ROOT
ATOM      1  C   UNL     1     136.846 -17.821  79.951  1.00  0.00     0.138 A 
ATOM      2  C   UNL     1     136.766 -17.141  81.184  1.00  0.00     0.100 A 
ATOM      3  C   UNL     1     137.842 -16.358  81.610  1.00  0.00     0.193 A 
ATOM      4  O   UNL     1     137.770 -15.750  82.713  1.00  0.00    -0.289 OA
ATOM      5  C   UNL     1     138.985 -16.260  80.805  1.00  0.00     0.065 A 
ATOM      6  C   UNL     1     140.102 -15.489  81.175  1.00  0.00     0.016 A 
ATOM      7  C   UNL     1     141.218 -15.425  80.334  1.00  0.00     0.001 A 
ATOM      8  C   UNL     1     141.228 -16.126  79.125  1.00  0.00     0.004 A 
ATOM      9  C   UNL     1     140.122 -16.894  78.750  1.00  0.00     0.048 A 
ATOM     10  C   UNL     1     139.000 -16.964  79.583  1.00  0.00     0.138 A 
ATOM     11  O   UNL     1     137.954 -17.698  79.217  1.00  0.00    -0.456 OA
ENDROOT
BRANCH   1  12
ATOM     12  C   UNL     1     135.741 -18.678  79.422  1.00  0.00     0.017 A 
ATOM     13  C   UNL     1     133.679 -20.267  78.330  1.00  0.00     0.000 A 
ATOM     14  C   UNL     1     134.486 -19.500  77.493  1.00  0.00     0.001 A 
ATOM     15  C   UNL     1     133.893 -20.249  79.709  1.00  0.00     0.001 A 
ATOM     16  C   UNL     1     135.508 -18.712  78.030  1.00  0.00     0.012 A 
ATOM     17  C   UNL     1     134.913 -19.463  80.255  1.00  0.00     0.012 A 
ENDBRANCH   1  12
TORSDOF 1
ENDMDL
MODEL 8
REMARK VINA RESULT:    -7.460      1.899      2.839
REMARK INTER + INTRA:          -8.151
REMARK INTER:                  -7.922
REMARK INTRA:                  -0.229
REMARK UNBOUND:                -0.255
REMARK SMILES O=c1cc(-c2ccccc2)oc2ccccc12
REMARK SMILES IDX 4 1 3 2 2 3 1 4 17 5 16 6 15 7 14 8 13 9 12 10 11 11 5 12
REMARK SMILES IDX 8 13 7 14 9 15 6 16 10 17
REMARK H PARENT
REMARK Flexibility Score: inf
ROOT
ATOM      1  C   UNL     1     137.431 -18.048  79.962  1.00  0.00     0.138 A 
ATOM      2  C   UNL     1     137.074 -18.971  80.967  1.00  0.00     0.100 A 
ATOM      3  C   UNL     1     135.899 -19.713  80.833  1.00  0.00     0.193 A 
ATOM      4  O   UNL     1     135.579 -20.538  81.733  1.00  0.00    -0.289 OA
ATOM      5  C   UNL     1     135.092 -19.532  79.701  1.00  0.00     0.065 A 
ATOM      6  C   UNL     1     133.898 -20.249  79.506  1.00  0.00     0.016 A 
ATOM      7  C   UNL     1     133.130 -20.028  78.357  1.00  0.00     0.001 A 
ATOM      8  C   UNL     1     133.546 -19.098  77.402  1.00  0.00     0.004 A 
ATOM      9  C   UNL     1     134.732 -18.382  77.588  1.00  0.00     0.048 A 
ATOM     10  C   UNL     1     135.507 -18.594  78.733  1.00  0.00     0.138 A 
ATOM     11  O   UNL     1     136.634 -17.909  78.901  1.00  0.00    -0.456 OA
ENDROOT
BRANCH   1  12
ATOM     12  C   UNL     1     138.671 -17.213  80.027  1.00  0.00     0.017 A 
ATOM     13  C   UNL     1     141.046 -15.689  80.071  1.00  0.00     0.000 A 
ATOM     14  C   UNL     1     140.877 -16.689  79.116  1.00  0.00     0.001 A 
ATOM     15  C   UNL     1     140.039 -15.442  81.005  1.00  0.00     0.001 A 
ATOM     16  C   UNL     1     139.702 -17.446  79.092  1.00  0.00     0.012 A 
ATOM     17  C   UNL     1     138.860 -16.194  80.987  1.00  0.00     0.012 A 
ENDBRANCH   1  12
TORSDOF 1
ENDMDL
MODEL 9
REMARK VINA RESULT:    -7.426      5.356      7.524
REMARK INTER + INTRA:          -8.114
REMARK INTER:                  -7.862
REMARK INTRA:                  -0.252
REMARK UNBOUND:                -0.255
REMARK SMILES O=c1cc(-c2ccccc2)oc2ccccc12
REMARK SMILES IDX 4 1 3 2 2 3 1 4 17 5 16 6 15 7 14 8 13 9 12 10 11 11 5 12
REMARK SMILES IDX 8 13 7 14 9 15 6 16 10 17
REMARK H PARENT
REMARK Flexibility Score: inf
ROOT
ATOM      1  C   UNL     1     133.267 -18.654  76.440  1.00  0.00     0.138 A 
ATOM      2  C   UNL     1     133.459 -18.786  75.049  1.00  0.00     0.100 A 
ATOM      3  C   UNL     1     132.502 -18.274  74.170  1.00  0.00     0.193 A 
ATOM      4  O   UNL     1     132.673 -18.392  72.926  1.00  0.00    -0.289 OA
ATOM      5  C   UNL     1     131.365 -17.634  74.684  1.00  0.00     0.065 A 
ATOM      6  C   UNL     1     130.365 -17.096  73.854  1.00  0.00     0.016 A 
ATOM      7  C   UNL     1     129.250 -16.468  74.420  1.00  0.00     0.001 A 
ATOM      8  C   UNL     1     129.126 -16.373  75.809  1.00  0.00     0.004 A 
ATOM      9  C   UNL     1     130.115 -16.905  76.640  1.00  0.00     0.048 A 
ATOM     10  C   UNL     1     131.235 -17.535  76.085  1.00  0.00     0.138 A 
ATOM     11  O   UNL     1     132.170 -18.038  76.884  1.00  0.00    -0.456 OA
ENDROOT
BRANCH   1  12
ATOM     12  C   UNL     1     134.241 -19.174  77.449  1.00  0.00     0.017 A 
ATOM     13  C   UNL     1     136.003 -20.178  79.412  1.00  0.00     0.000 A 
ATOM     14  C   UNL     1     134.627 -20.198  79.633  1.00  0.00     0.001 A 
ATOM     15  C   UNL     1     136.508 -19.663  78.218  1.00  0.00     0.001 A 
ATOM     16  C   UNL     1     133.752 -19.701  78.663  1.00  0.00     0.012 A 
ATOM     17  C   UNL     1     135.639 -19.163  77.242  1.00  0.00     0.012 A 
ENDBRANCH   1  12
TORSDOF 1
ENDMDL
