MODEL 1
REMARK VINA RESULT:    -6.485      0.000      0.000
REMARK INTER + INTRA:          -7.915
REMARK INTER:                  -7.623
REMARK INTRA:                  -0.292
REMARK UNBOUND:                -0.292
REMARK SMILES O=c1c(O)c(-c2ccc(O)cc2)oc2cc(O)cc(O)c12
REMARK SMILES IDX 5 1 3 2 2 3 1 4 21 5 19 6 18 7 16 8 15 9 14 10 13 11 6 12
REMARK SMILES IDX 7 13 8 14 9 15 12 16 11 17 10 18 4 20 20 22 17 24
REMARK H PARENT 10 19 4 21 20 23 17 25
REMARK Flexibility Score: inf
ROOT
ATOM      1  C   UNL     1      14.467  55.812  34.513  1.00  0.00     0.180 A 
ATOM      2  C   UNL     1      14.288  55.550  33.141  1.00  0.00     0.208 A 
ATOM      3  C   UNL     1      14.772  56.478  32.205  1.00  0.00     0.238 A 
ATOM      4  O   UNL     1      14.628  56.250  30.973  1.00  0.00    -0.285 OA
ATOM      5  C   UNL     1      15.406  57.655  32.655  1.00  0.00     0.111 A 
ATOM      6  C   UNL     1      15.917  58.642  31.778  1.00  0.00     0.134 A 
ATOM      7  C   UNL     1      16.526  59.792  32.303  1.00  0.00     0.093 A 
ATOM      8  C   UNL     1      16.631  59.974  33.684  1.00  0.00     0.123 A 
ATOM      9  C   UNL     1      16.129  59.003  34.555  1.00  0.00     0.094 A 
ATOM     10  C   UNL     1      15.520  57.849  34.051  1.00  0.00     0.146 A 
ATOM     11  O   UNL     1      15.055  56.939  34.900  1.00  0.00    -0.452 OA
ENDROOT
BRANCH   1  12
ATOM     12  C   UNL     1      14.002  54.873  35.560  1.00  0.00     0.021 A 
ATOM     13  C   UNL     1      12.699  54.998  36.070  1.00  0.00     0.016 A 
ATOM     14  C   UNL     1      12.246  54.137  37.075  1.00  0.00     0.047 A 
ATOM     15  C   UNL     1      13.096  53.150  37.592  1.00  0.00     0.115 A 
ATOM     16  C   UNL     1      14.856  53.893  36.099  1.00  0.00     0.016 A 
ATOM     17  C   UNL     1      14.401  53.034  37.104  1.00  0.00     0.047 A 
BRANCH  15  18
ATOM     18  O   UNL     1      12.657  52.287  38.592  1.00  0.00    -0.508 OA
ATOM     19  H   UNL     1      12.662  51.282  38.464  1.00  0.00     0.293 HD
ENDBRANCH  15  18
ENDBRANCH   1  12
BRANCH   2  20
ATOM     20  O   UNL     1      13.614  54.400  32.723  1.00  0.00    -0.502 OA
ATOM     21  H   UNL     1      14.090  53.520  32.563  1.00  0.00     0.293 HD
ENDBRANCH   2  20
BRANCH   6  22
ATOM     22  O   UNL     1      15.827  58.491  30.394  1.00  0.00    -0.507 OA
ATOM     23  H   UNL     1      14.935  58.379  29.926  1.00  0.00     0.293 HD
ENDBRANCH   6  22
BRANCH   8  24
ATOM     24  O   UNL     1      17.239  61.125  34.180  1.00  0.00    -0.508 OA
ATOM     25  H   UNL     1      17.124  62.023  33.725  1.00  0.00     0.293 HD
ENDBRANCH   8  24
TORSDOF 5
ENDMDL
MODEL 2
REMARK VINA RESULT:    -5.626      1.716      2.038
REMARK INTER + INTRA:          -6.905
REMARK INTER:                  -6.669
REMARK INTRA:                  -0.236
REMARK UNBOUND:                -0.292
REMARK SMILES O=c1c(O)c(-c2ccc(O)cc2)oc2cc(O)cc(O)c12
REMARK SMILES IDX 5 1 3 2 2 3 1 4 21 5 19 6 18 7 16 8 15 9 14 10 13 11 6 12
REMARK SMILES IDX 7 13 8 14 9 15 12 16 11 17 10 18 4 20 20 22 17 24
REMARK H PARENT 10 19 4 21 20 23 17 25
REMARK Flexibility Score: inf
ROOT
ATOM      1  C   UNL     1      14.429  55.892  34.751  1.00  0.00     0.180 A 
ATOM      2  C   UNL     1      13.258  56.221  34.042  1.00  0.00     0.208 A 
ATOM      3  C   UNL     1      13.193  57.455  33.375  1.00  0.00     0.238 A 
ATOM      4  O   UNL     1      12.153  57.757  32.728  1.00  0.00    -0.285 OA
ATOM      5  C   UNL     1      14.287  58.342  33.444  1.00  0.00     0.111 A 
ATOM      6  C   UNL     1      14.301  59.605  32.804  1.00  0.00     0.134 A 
ATOM      7  C   UNL     1      15.425  60.436  32.927  1.00  0.00     0.093 A 
ATOM      8  C   UNL     1      16.531  60.030  33.677  1.00  0.00     0.123 A 
ATOM      9  C   UNL     1      16.524  58.784  34.310  1.00  0.00     0.094 A 
ATOM     10  C   UNL     1      15.414  57.940  34.198  1.00  0.00     0.146 A 
ATOM     11  O   UNL     1      15.435  56.759  34.805  1.00  0.00    -0.452 OA
ENDROOT
BRANCH   1  12
ATOM     12  C   UNL     1      14.581  54.602  35.463  1.00  0.00     0.021 A 
ATOM     13  C   UNL     1      15.337  53.574  34.877  1.00  0.00     0.016 A 
ATOM     14  C   UNL     1      15.475  52.341  35.521  1.00  0.00     0.047 A 
ATOM     15  C   UNL     1      14.846  52.116  36.753  1.00  0.00     0.115 A 
ATOM     16  C   UNL     1      13.935  54.362  36.690  1.00  0.00     0.016 A 
ATOM     17  C   UNL     1      14.074  53.128  37.332  1.00  0.00     0.047 A 
BRANCH  15  18
ATOM     18  O   UNL     1      14.976  50.892  37.405  1.00  0.00    -0.508 OA
ATOM     19  H   UNL     1      14.171  50.405  37.782  1.00  0.00     0.293 HD
ENDBRANCH  15  18
ENDBRANCH   1  12
BRANCH   2  20
ATOM     20  O   UNL     1      12.169  55.346  34.031  1.00  0.00    -0.502 OA
ATOM     21  H   UNL     1      12.254  54.370  34.290  1.00  0.00     0.293 HD
ENDBRANCH   2  20
BRANCH   6  22
ATOM     22  O   UNL     1      13.211  60.041  32.049  1.00  0.00    -0.507 OA
ATOM     23  H   UNL     1      13.328  60.628  31.232  1.00  0.00     0.293 HD
ENDBRANCH   6  22
BRANCH   8  24
ATOM     24  O   UNL     1      17.634  60.874  33.784  1.00  0.00    -0.508 OA
ATOM     25  H   UNL     1      17.609  61.826  33.438  1.00  0.00     0.293 HD
ENDBRANCH   8  24
TORSDOF 5
ENDMDL
MODEL 3
REMARK VINA RESULT:    -5.224      2.484      3.387
REMARK INTER + INTRA:          -6.433
REMARK INTER:                  -6.138
REMARK INTRA:                  -0.295
REMARK UNBOUND:                -0.292
REMARK SMILES O=c1c(O)c(-c2ccc(O)cc2)oc2cc(O)cc(O)c12
REMARK SMILES IDX 5 1 3 2 2 3 1 4 21 5 19 6 18 7 16 8 15 9 14 10 13 11 6 12
REMARK SMILES IDX 7 13 8 14 9 15 12 16 11 17 10 18 4 20 20 22 17 24
REMARK H PARENT 10 19 4 21 20 23 17 25
REMARK Flexibility Score: inf
ROOT
ATOM      1  C   UNL     1      15.014  56.172  33.982  1.00  0.00     0.180 A 
ATOM      2  C   UNL     1      16.181  56.813  33.524  1.00  0.00     0.208 A 
ATOM      3  C   UNL     1      16.230  58.216  33.527  1.00  0.00     0.238 A 
ATOM      4  O   UNL     1      17.274  58.802  33.129  1.00  0.00    -0.285 OA
ATOM      5  C   UNL     1      15.109  58.951  33.967  1.00  0.00     0.111 A 
ATOM      6  C   UNL     1      15.075  60.366  33.997  1.00  0.00     0.134 A 
ATOM      7  C   UNL     1      13.918  61.025  34.439  1.00  0.00     0.093 A 
ATOM      8  C   UNL     1      12.798  60.298  34.849  1.00  0.00     0.123 A 
ATOM      9  C   UNL     1      12.826  58.901  34.822  1.00  0.00     0.094 A 
ATOM     10  C   UNL     1      13.970  58.225  34.386  1.00  0.00     0.146 A 
ATOM     11  O   UNL     1      13.972  56.897  34.375  1.00  0.00    -0.452 OA
ENDROOT
BRANCH   1  12
ATOM     12  C   UNL     1      14.894  54.696  34.027  1.00  0.00     0.021 A 
ATOM     13  C   UNL     1      14.383  54.010  32.913  1.00  0.00     0.016 A 
ATOM     14  C   UNL     1      14.239  52.619  32.942  1.00  0.00     0.047 A 
ATOM     15  C   UNL     1      14.590  51.899  34.092  1.00  0.00     0.115 A 
ATOM     16  C   UNL     1      15.224  53.968  35.185  1.00  0.00     0.016 A 
ATOM     17  C   UNL     1      15.079  52.578  35.212  1.00  0.00     0.047 A 
BRANCH  15  18
ATOM     18  O   UNL     1      14.452  50.514  34.133  1.00  0.00    -0.508 OA
ATOM     19  H   UNL     1      13.803  50.029  33.524  1.00  0.00     0.293 HD
ENDBRANCH  15  18
ENDBRANCH   1  12
BRANCH   2  20
ATOM     20  O   UNL     1      17.259  56.062  33.047  1.00  0.00    -0.502 OA
ATOM     21  H   UNL     1      18.195  56.443  32.974  1.00  0.00     0.293 HD
ENDBRANCH   2  20
BRANCH   6  22
ATOM     22  O   UNL     1      16.177  61.120  33.593  1.00  0.00    -0.507 OA
ATOM     23  H   UNL     1      16.524  61.896  34.145  1.00  0.00     0.293 HD
ENDBRANCH   6  22
BRANCH   8  24
ATOM     24  O   UNL     1      11.661  60.977  35.283  1.00  0.00    -0.508 OA
ATOM     25  H   UNL     1      10.927  60.505  35.798  1.00  0.00     0.293 HD
ENDBRANCH   8  24
TORSDOF 5
ENDMDL
MODEL 4
REMARK VINA RESULT:    -5.082      8.150     10.095
REMARK INTER + INTRA:          -6.266
REMARK INTER:                  -6.077
REMARK INTRA:                  -0.189
REMARK UNBOUND:                -0.292
REMARK SMILES O=c1c(O)c(-c2ccc(O)cc2)oc2cc(O)cc(O)c12
REMARK SMILES IDX 5 1 3 2 2 3 1 4 21 5 19 6 18 7 16 8 15 9 14 10 13 11 6 12
REMARK SMILES IDX 7 13 8 14 9 15 12 16 11 17 10 18 4 20 20 22 17 24
REMARK H PARENT 10 19 4 21 20 23 17 25
REMARK Flexibility Score: inf
ROOT
ATOM      1  C   UNL     1      14.115  47.118  32.903  1.00  0.00     0.180 A 
ATOM      2  C   UNL     1      14.355  48.503  32.814  1.00  0.00     0.208 A 
ATOM      3  C   UNL     1      15.149  48.987  31.762  1.00  0.00     0.238 A 
ATOM      4  O   UNL     1      15.362  50.226  31.664  1.00  0.00    -0.285 OA
ATOM      5  C   UNL     1      15.702  48.081  30.833  1.00  0.00     0.111 A 
ATOM      6  C   UNL     1      16.516  48.487  29.747  1.00  0.00     0.134 A 
ATOM      7  C   UNL     1      17.038  47.523  28.871  1.00  0.00     0.093 A 
ATOM      8  C   UNL     1      16.764  46.166  29.060  1.00  0.00     0.123 A 
ATOM      9  C   UNL     1      15.961  45.760  30.130  1.00  0.00     0.094 A 
ATOM     10  C   UNL     1      15.430  46.705  31.013  1.00  0.00     0.146 A 
ATOM     11  O   UNL     1      14.666  46.293  32.018  1.00  0.00    -0.452 OA
ENDROOT
BRANCH   1  12
ATOM     12  C   UNL     1      13.273  46.533  33.973  1.00  0.00     0.021 A 
ATOM     13  C   UNL     1      13.856  45.671  34.916  1.00  0.00     0.016 A 
ATOM     14  C   UNL     1      13.075  45.090  35.920  1.00  0.00     0.047 A 
ATOM     15  C   UNL     1      11.700  45.352  35.984  1.00  0.00     0.115 A 
ATOM     16  C   UNL     1      11.888  46.776  34.031  1.00  0.00     0.016 A 
ATOM     17  C   UNL     1      11.111  46.193  35.036  1.00  0.00     0.047 A 
BRANCH  15  18
ATOM     18  O   UNL     1      10.913  44.780  36.980  1.00  0.00    -0.508 OA
ATOM     19  H   UNL     1      10.577  43.826  36.906  1.00  0.00     0.293 HD
ENDBRANCH  15  18
ENDBRANCH   1  12
BRANCH   2  20
ATOM     20  O   UNL     1      13.836  49.374  33.775  1.00  0.00    -0.502 OA
ATOM     21  H   UNL     1      14.348  49.627  34.611  1.00  0.00     0.293 HD
ENDBRANCH   2  20
BRANCH   6  22
ATOM     22  O   UNL     1      16.809  49.834  29.532  1.00  0.00    -0.507 OA
ATOM     23  H   UNL     1      17.204  50.161  28.659  1.00  0.00     0.293 HD
ENDBRANCH   6  22
BRANCH   8  24
ATOM     24  O   UNL     1      17.295  45.230  28.176  1.00  0.00    -0.508 OA
ATOM     25  H   UNL     1      17.668  45.504  27.275  1.00  0.00     0.293 HD
ENDBRANCH   8  24
TORSDOF 5
ENDMDL
MODEL 5
REMARK VINA RESULT:    -4.984      2.508      6.357
REMARK INTER + INTRA:          -6.150
REMARK INTER:                  -5.870
REMARK INTRA:                  -0.280
REMARK UNBOUND:                -0.292
REMARK SMILES O=c1c(O)c(-c2ccc(O)cc2)oc2cc(O)cc(O)c12
REMARK SMILES IDX 5 1 3 2 2 3 1 4 21 5 19 6 18 7 16 8 15 9 14 10 13 11 6 12
REMARK SMILES IDX 7 13 8 14 9 15 12 16 11 17 10 18 4 20 20 22 17 24
REMARK H PARENT 10 19 4 21 20 23 17 25
REMARK Flexibility Score: inf
ROOT
ATOM      1  C   UNL     1      15.259  55.774  33.642  1.00  0.00     0.180 A 
ATOM      2  C   UNL     1      14.860  54.867  34.642  1.00  0.00     0.208 A 
ATOM      3  C   UNL     1      14.483  53.567  34.267  1.00  0.00     0.238 A 
ATOM      4  O   UNL     1      14.134  52.742  35.154  1.00  0.00    -0.285 OA
ATOM      5  C   UNL     1      14.491  53.206  32.903  1.00  0.00     0.111 A 
ATOM      6  C   UNL     1      14.120  51.920  32.442  1.00  0.00     0.134 A 
ATOM      7  C   UNL     1      14.145  51.640  31.067  1.00  0.00     0.093 A 
ATOM      8  C   UNL     1      14.531  52.619  30.148  1.00  0.00     0.123 A 
ATOM      9  C   UNL     1      14.898  53.891  30.598  1.00  0.00     0.094 A 
ATOM     10  C   UNL     1      14.881  54.189  31.965  1.00  0.00     0.146 A 
ATOM     11  O   UNL     1      15.240  55.403  32.366  1.00  0.00    -0.452 OA
ENDROOT
BRANCH   1  12
ATOM     12  C   UNL     1      15.689  57.156  33.960  1.00  0.00     0.021 A 
ATOM     13  C   UNL     1      14.723  58.166  34.095  1.00  0.00     0.016 A 
ATOM     14  C   UNL     1      15.108  59.482  34.373  1.00  0.00     0.047 A 
ATOM     15  C   UNL     1      16.466  59.805  34.504  1.00  0.00     0.115 A 
ATOM     16  C   UNL     1      17.051  57.492  34.073  1.00  0.00     0.016 A 
ATOM     17  C   UNL     1      17.433  58.808  34.350  1.00  0.00     0.047 A 
BRANCH  15  18
ATOM     18  O   UNL     1      16.861  61.111  34.781  1.00  0.00    -0.508 OA
ATOM     19  H   UNL     1      16.971  61.798  34.044  1.00  0.00     0.293 HD
ENDBRANCH  15  18
ENDBRANCH   1  12
BRANCH   2  20
ATOM     20  O   UNL     1      14.814  55.265  35.980  1.00  0.00    -0.502 OA
ATOM     21  H   UNL     1      14.191  55.992  36.309  1.00  0.00     0.293 HD
ENDBRANCH   2  20
BRANCH   6  22
ATOM     22  O   UNL     1      13.730  50.920  33.334  1.00  0.00    -0.507 OA
ATOM     23  H   UNL     1      14.105  49.981  33.281  1.00  0.00     0.293 HD
ENDBRANCH   6  22
BRANCH   8  24
ATOM     24  O   UNL     1      14.546  52.316  28.789  1.00  0.00    -0.508 OA
ATOM     25  H   UNL     1      15.413  52.263  28.267  1.00  0.00     0.293 HD
ENDBRANCH   8  24
TORSDOF 5
ENDMDL
MODEL 6
REMARK VINA RESULT:    -4.971      4.888      6.453
REMARK INTER + INTRA:          -6.136
REMARK INTER:                  -5.900
REMARK INTRA:                  -0.235
REMARK UNBOUND:                -0.292
REMARK SMILES O=c1c(O)c(-c2ccc(O)cc2)oc2cc(O)cc(O)c12
REMARK SMILES IDX 5 1 3 2 2 3 1 4 21 5 19 6 18 7 16 8 15 9 14 10 13 11 6 12
REMARK SMILES IDX 7 13 8 14 9 15 12 16 11 17 10 18 4 20 20 22 17 24
REMARK H PARENT 10 19 4 21 20 23 17 25
REMARK Flexibility Score: inf
ROOT
ATOM      1  C   UNL     1      14.546  50.511  33.112  1.00  0.00     0.180 A 
ATOM      2  C   UNL     1      14.264  51.440  32.092  1.00  0.00     0.208 A 
ATOM      3  C   UNL     1      14.186  52.804  32.419  1.00  0.00     0.238 A 
ATOM      4  O   UNL     1      13.945  53.647  31.512  1.00  0.00    -0.285 OA
ATOM      5  C   UNL     1      14.372  53.211  33.757  1.00  0.00     0.111 A 
ATOM      6  C   UNL     1      14.306  54.563  34.170  1.00  0.00     0.134 A 
ATOM      7  C   UNL     1      14.492  54.887  35.522  1.00  0.00     0.093 A 
ATOM      8  C   UNL     1      14.741  53.888  36.466  1.00  0.00     0.123 A 
ATOM      9  C   UNL     1      14.808  52.551  36.064  1.00  0.00     0.094 A 
ATOM     10  C   UNL     1      14.627  52.207  34.720  1.00  0.00     0.146 A 
ATOM     11  O   UNL     1      14.700  50.930  34.364  1.00  0.00    -0.452 OA
ENDROOT
BRANCH   1  12
ATOM     12  C   UNL     1      14.662  49.059  32.843  1.00  0.00     0.021 A 
ATOM     13  C   UNL     1      13.664  48.188  33.309  1.00  0.00     0.016 A 
ATOM     14  C   UNL     1      13.765  46.811  33.086  1.00  0.00     0.047 A 
ATOM     15  C   UNL     1      14.873  46.288  32.407  1.00  0.00     0.115 A 
ATOM     16  C   UNL     1      15.782  48.523  32.180  1.00  0.00     0.016 A 
ATOM     17  C   UNL     1      15.881  47.147  31.959  1.00  0.00     0.047 A 
BRANCH  15  18
ATOM     18  O   UNL     1      14.985  44.918  32.179  1.00  0.00    -0.508 OA
ATOM     19  H   UNL     1      15.584  44.333  32.750  1.00  0.00     0.293 HD
ENDBRANCH  15  18
ENDBRANCH   1  12
BRANCH   2  20
ATOM     20  O   UNL     1      14.035  51.006  30.784  1.00  0.00    -0.502 OA
ATOM     21  H   UNL     1      13.456  51.524  30.134  1.00  0.00     0.293 HD
ENDBRANCH   2  20
BRANCH   6  22
ATOM     22  O   UNL     1      14.058  55.584  33.252  1.00  0.00    -0.507 OA
ATOM     23  H   UNL     1      14.807  56.038  32.742  1.00  0.00     0.293 HD
ENDBRANCH   6  22
BRANCH   8  24
ATOM     24  O   UNL     1      14.922  54.237  37.802  1.00  0.00    -0.508 OA
ATOM     25  H   UNL     1      14.150  54.555  38.376  1.00  0.00     0.293 HD
ENDBRANCH   8  24
TORSDOF 5
ENDMDL
MODEL 7
REMARK VINA RESULT:    -4.958      5.691      7.557
REMARK INTER + INTRA:          -6.119
REMARK INTER:                  -5.822
REMARK INTRA:                  -0.297
REMARK UNBOUND:                -0.292
REMARK SMILES O=c1c(O)c(-c2ccc(O)cc2)oc2cc(O)cc(O)c12
REMARK SMILES IDX 5 1 3 2 2 3 1 4 21 5 19 6 18 7 16 8 15 9 14 10 13 11 6 12
REMARK SMILES IDX 7 13 8 14 9 15 12 16 11 17 10 18 4 20 20 22 17 24
REMARK H PARENT 10 19 4 21 20 23 17 25
REMARK Flexibility Score: inf
ROOT
ATOM      1  C   UNL     1      14.618  49.661  32.689  1.00  0.00     0.180 A 
ATOM      2  C   UNL     1      13.463  50.113  32.022  1.00  0.00     0.208 A 
ATOM      3  C   UNL     1      12.834  51.284  32.473  1.00  0.00     0.238 A 
ATOM      4  O   UNL     1      11.805  51.705  31.876  1.00  0.00    -0.285 OA
ATOM      5  C   UNL     1      13.356  51.970  33.590  1.00  0.00     0.111 A 
ATOM      6  C   UNL     1      12.779  53.153  34.109  1.00  0.00     0.134 A 
ATOM      7  C   UNL     1      13.352  53.772  35.231  1.00  0.00     0.093 A 
ATOM      8  C   UNL     1      14.485  53.231  35.841  1.00  0.00     0.123 A 
ATOM      9  C   UNL     1      15.059  52.062  35.332  1.00  0.00     0.094 A 
ATOM     10  C   UNL     1      14.504  51.431  34.214  1.00  0.00     0.146 A 
ATOM     11  O   UNL     1      15.072  50.325  33.747  1.00  0.00    -0.452 OA
ENDROOT
BRANCH   1  12
ATOM     12  C   UNL     1      15.349  48.446  32.262  1.00  0.00     0.021 A 
ATOM     13  C   UNL     1      15.099  47.225  32.912  1.00  0.00     0.016 A 
ATOM     14  C   UNL     1      15.794  46.070  32.540  1.00  0.00     0.047 A 
ATOM     15  C   UNL     1      16.757  46.125  31.524  1.00  0.00     0.115 A 
ATOM     16  C   UNL     1      16.332  48.496  31.257  1.00  0.00     0.016 A 
ATOM     17  C   UNL     1      17.026  47.340  30.888  1.00  0.00     0.047 A 
BRANCH  15  18
ATOM     18  O   UNL     1      17.455  44.981  31.145  1.00  0.00    -0.508 OA
ATOM     19  H   UNL     1      18.120  44.996  30.380  1.00  0.00     0.293 HD
ENDBRANCH  15  18
ENDBRANCH   1  12
BRANCH   2  20
ATOM     20  O   UNL     1      12.938  49.388  30.949  1.00  0.00    -0.502 OA
ATOM     21  H   UNL     1      13.357  48.527  30.619  1.00  0.00     0.293 HD
ENDBRANCH   2  20
BRANCH   6  22
ATOM     22  O   UNL     1      11.646  53.719  33.523  1.00  0.00    -0.507 OA
ATOM     23  H   UNL     1      11.522  54.722  33.460  1.00  0.00     0.293 HD
ENDBRANCH   6  22
BRANCH   8  24
ATOM     24  O   UNL     1      15.034  53.864  36.954  1.00  0.00    -0.508 OA
ATOM     25  H   UNL     1      15.473  53.338  37.701  1.00  0.00     0.293 HD
ENDBRANCH   8  24
TORSDOF 5
ENDMDL
MODEL 8
REMARK VINA RESULT:    -4.947      2.332      3.152
REMARK INTER + INTRA:          -6.106
REMARK INTER:                  -5.835
REMARK INTRA:                  -0.271
REMARK UNBOUND:                -0.292
REMARK SMILES O=c1c(O)c(-c2ccc(O)cc2)oc2cc(O)cc(O)c12
REMARK SMILES IDX 5 1 3 2 2 3 1 4 21 5 19 6 18 7 16 8 15 9 14 10 13 11 6 12
REMARK SMILES IDX 7 13 8 14 9 15 12 16 11 17 10 18 4 20 20 22 17 24
REMARK H PARENT 10 19 4 21 20 23 17 25
REMARK Flexibility Score: inf
ROOT
ATOM      1  C   UNL     1      14.236  55.820  34.268  1.00  0.00     0.180 A 
ATOM      2  C   UNL     1      13.003  56.414  34.597  1.00  0.00     0.208 A 
ATOM      3  C   UNL     1      12.922  57.814  34.668  1.00  0.00     0.238 A 
ATOM      4  O   UNL     1      11.821  58.359  34.951  1.00  0.00    -0.285 OA
ATOM      5  C   UNL     1      14.075  58.591  34.429  1.00  0.00     0.111 A 
ATOM      6  C   UNL     1      14.080  60.006  34.485  1.00  0.00     0.134 A 
ATOM      7  C   UNL     1      15.271  60.708  34.245  1.00  0.00     0.093 A 
ATOM      8  C   UNL     1      16.453  60.025  33.952  1.00  0.00     0.123 A 
ATOM      9  C   UNL     1      16.454  58.628  33.895  1.00  0.00     0.094 A 
ATOM     10  C   UNL     1      15.277  57.910  34.130  1.00  0.00     0.146 A 
ATOM     11  O   UNL     1      15.305  56.583  34.064  1.00  0.00    -0.452 OA
ENDROOT
BRANCH   1  12
ATOM     12  C   UNL     1      14.396  54.352  34.155  1.00  0.00     0.021 A 
ATOM     13  C   UNL     1      14.003  53.703  32.973  1.00  0.00     0.016 A 
ATOM     14  C   UNL     1      14.124  52.315  32.853  1.00  0.00     0.047 A 
ATOM     15  C   UNL     1      14.626  51.557  33.920  1.00  0.00     0.115 A 
ATOM     16  C   UNL     1      14.880  53.581  35.229  1.00  0.00     0.016 A 
ATOM     17  C   UNL     1      15.000  52.194  35.107  1.00  0.00     0.047 A 
BRANCH  15  18
ATOM     18  O   UNL     1      14.752  50.175  33.812  1.00  0.00    -0.508 OA
ATOM     19  H   UNL     1      13.942  49.577  33.688  1.00  0.00     0.293 HD
ENDBRANCH  15  18
ENDBRANCH   1  12
BRANCH   2  20
ATOM     20  O   UNL     1      11.888  55.620  34.877  1.00  0.00    -0.502 OA
ATOM     21  H   UNL     1      10.950  55.885  34.601  1.00  0.00     0.293 HD
ENDBRANCH   2  20
BRANCH   6  22
ATOM     22  O   UNL     1      12.915  60.718  34.776  1.00  0.00    -0.507 OA
ATOM     23  H   UNL     1      12.062  60.586  34.246  1.00  0.00     0.293 HD
ENDBRANCH   6  22
BRANCH   8  24
ATOM     24  O   UNL     1      17.622  60.745  33.718  1.00  0.00    -0.508 OA
ATOM     25  H   UNL     1      17.622  61.585  33.151  1.00  0.00     0.293 HD
ENDBRANCH   8  24
TORSDOF 5
ENDMDL
MODEL 9
REMARK VINA RESULT:    -4.928      1.914      3.941
REMARK INTER + INTRA:          -6.085
REMARK INTER:                  -5.818
REMARK INTRA:                  -0.267
REMARK UNBOUND:                -0.292
REMARK SMILES O=c1c(O)c(-c2ccc(O)cc2)oc2cc(O)cc(O)c12
REMARK SMILES IDX 5 1 3 2 2 3 1 4 21 5 19 6 18 7 16 8 15 9 14 10 13 11 6 12
REMARK SMILES IDX 7 13 8 14 9 15 12 16 11 17 10 18 4 20 20 22 17 24
REMARK H PARENT 10 19 4 21 20 23 17 25
REMARK Flexibility Score: inf
ROOT
ATOM      1  C   UNL     1      14.461  54.947  33.744  1.00  0.00     0.180 A 
ATOM      2  C   UNL     1      14.829  56.304  33.664  1.00  0.00     0.208 A 
ATOM      3  C   UNL     1      15.222  56.828  32.422  1.00  0.00     0.238 A 
ATOM      4  O   UNL     1      15.543  58.044  32.335  1.00  0.00    -0.285 OA
ATOM      5  C   UNL     1      15.259  55.985  31.291  1.00  0.00     0.111 A 
ATOM      6  C   UNL     1      15.647  56.433  30.006  1.00  0.00     0.134 A 
ATOM      7  C   UNL     1      15.668  55.531  28.931  1.00  0.00     0.093 A 
ATOM      8  C   UNL     1      15.310  54.194  29.118  1.00  0.00     0.123 A 
ATOM      9  C   UNL     1      14.926  53.746  30.385  1.00  0.00     0.094 A 
ATOM     10  C   UNL     1      14.897  54.630  31.468  1.00  0.00     0.146 A 
ATOM     11  O   UNL     1      14.523  54.180  32.661  1.00  0.00    -0.452 OA
ENDROOT
BRANCH   1  12
ATOM     12  C   UNL     1      14.018  54.326  35.014  1.00  0.00     0.021 A 
ATOM     13  C   UNL     1      14.896  53.481  35.714  1.00  0.00     0.016 A 
ATOM     14  C   UNL     1      14.490  52.866  36.902  1.00  0.00     0.047 A 
ATOM     15  C   UNL     1      13.196  53.077  37.398  1.00  0.00     0.115 A 
ATOM     16  C   UNL     1      12.714  54.516  35.507  1.00  0.00     0.016 A 
ATOM     17  C   UNL     1      12.310  53.900  36.696  1.00  0.00     0.047 A 
BRANCH  15  18
ATOM     18  O   UNL     1      12.781  52.471  38.581  1.00  0.00    -0.508 OA
ATOM     19  H   UNL     1      13.433  51.976  39.179  1.00  0.00     0.293 HD
ENDBRANCH  15  18
ENDBRANCH   1  12
BRANCH   2  20
ATOM     20  O   UNL     1      14.831  57.104  34.809  1.00  0.00    -0.502 OA
ATOM     21  H   UNL     1      15.425  56.911  35.606  1.00  0.00     0.293 HD
ENDBRANCH   2  20
BRANCH   6  22
ATOM     22  O   UNL     1      16.010  57.763  29.786  1.00  0.00    -0.507 OA
ATOM     23  H   UNL     1      15.654  58.291  28.999  1.00  0.00     0.293 HD
ENDBRANCH   6  22
BRANCH   8  24
ATOM     24  O   UNL     1      15.340  53.318  28.035  1.00  0.00    -0.508 OA
ATOM     25  H   UNL     1      15.534  53.644  27.095  1.00  0.00     0.293 HD
ENDBRANCH   8  24
TORSDOF 5
ENDMDL
