MODEL 1
REMARK VINA RESULT:    -7.155      0.000      0.000
REMARK INTER + INTRA:          -8.760
REMARK INTER:                  -8.619
REMARK INTRA:                  -0.140
REMARK UNBOUND:                -0.140
REMARK SMILES O=c1c(O)c(-c2ccc(O)c(O)c2)oc2cc(O)cc(O)c12
REMARK SMILES IDX 5 1 3 2 2 3 1 4 22 5 20 6 19 7 17 8 16 9 15 10 14 11 6 12
REMARK SMILES IDX 7 13 8 14 9 15 13 16 11 17 10 18 12 20 4 22 21 24 18 26
REMARK H PARENT 10 19 12 21 4 23 21 25 18 27
REMARK Flexibility Score: inf
ROOT
ATOM      1  C   UNL     1      45.891   8.387  19.455  1.00  0.00     0.180 A 
ATOM      2  C   UNL     1      45.563   9.459  18.607  1.00  0.00     0.208 A 
ATOM      3  C   UNL     1      45.733   9.309  17.222  1.00  0.00     0.238 A 
ATOM      4  O   UNL     1      45.489  10.291  16.473  1.00  0.00    -0.285 OA
ATOM      5  C   UNL     1      46.215   8.084  16.700  1.00  0.00     0.111 A 
ATOM      6  C   UNL     1      46.388   7.807  15.310  1.00  0.00     0.134 A 
ATOM      7  C   UNL     1      46.994   6.608  14.915  1.00  0.00     0.093 A 
ATOM      8  C   UNL     1      47.372   5.649  15.857  1.00  0.00     0.123 A 
ATOM      9  C   UNL     1      47.152   5.884  17.211  1.00  0.00     0.094 A 
ATOM     10  C   UNL     1      46.584   7.086  17.640  1.00  0.00     0.146 A 
ATOM     11  O   UNL     1      46.401   7.275  18.940  1.00  0.00    -0.452 OA
ENDROOT
BRANCH   1  12
ATOM     12  C   UNL     1      45.713   8.461  20.923  1.00  0.00     0.025 A 
ATOM     13  C   UNL     1      46.816   8.244  21.763  1.00  0.00     0.016 A 
ATOM     14  C   UNL     1      46.668   8.289  23.152  1.00  0.00     0.051 A 
ATOM     15  C   UNL     1      45.416   8.535  23.722  1.00  0.00     0.157 A 
ATOM     16  C   UNL     1      44.450   8.688  21.498  1.00  0.00     0.062 A 
ATOM     17  C   UNL     1      44.298   8.731  22.892  1.00  0.00     0.158 A 
BRANCH  15  18
ATOM     18  O   UNL     1      45.298   8.577  25.111  1.00  0.00    -0.504 OA
ATOM     19  H   UNL     1      45.681   9.335  25.661  1.00  0.00     0.293 HD
ENDBRANCH  15  18
BRANCH  17  20
ATOM     20  O   UNL     1      43.044   8.963  23.453  1.00  0.00    -0.504 OA
ATOM     21  H   UNL     1      42.192   8.699  22.974  1.00  0.00     0.293 HD
ENDBRANCH  17  20
ENDBRANCH   1  12
BRANCH   2  22
ATOM     22  O   UNL     1      45.109  10.667  19.145  1.00  0.00    -0.502 OA
ATOM     23  H   UNL     1      45.546  11.102  19.949  1.00  0.00     0.293 HD
ENDBRANCH   2  22
BRANCH   6  24
ATOM     24  O   UNL     1      45.962   8.658  14.286  1.00  0.00    -0.507 OA
ATOM     25  H   UNL     1      46.475   9.461  13.955  1.00  0.00     0.293 HD
ENDBRANCH   6  24
BRANCH   8  26
ATOM     26  O   UNL     1      47.960   4.451  15.454  1.00  0.00    -0.508 OA
ATOM     27  H   UNL     1      48.961   4.373  15.313  1.00  0.00     0.293 HD
ENDBRANCH   8  26
TORSDOF 6
ENDMDL
MODEL 2
REMARK VINA RESULT:    -7.083      1.812      2.138
REMARK INTER + INTRA:          -8.672
REMARK INTER:                  -8.425
REMARK INTRA:                  -0.248
REMARK UNBOUND:                -0.140
REMARK SMILES O=c1c(O)c(-c2ccc(O)c(O)c2)oc2cc(O)cc(O)c12
REMARK SMILES IDX 5 1 3 2 2 3 1 4 22 5 20 6 19 7 17 8 16 9 15 10 14 11 6 12
REMARK SMILES IDX 7 13 8 14 9 15 13 16 11 17 10 18 12 20 4 22 21 24 18 26
REMARK H PARENT 10 19 12 21 4 23 21 25 18 27
REMARK Flexibility Score: inf
ROOT
ATOM      1  C   UNL     1      44.963   9.247  20.784  1.00  0.00     0.180 A 
ATOM      2  C   UNL     1      43.993   9.814  19.938  1.00  0.00     0.208 A 
ATOM      3  C   UNL     1      43.911   9.378  18.607  1.00  0.00     0.238 A 
ATOM      4  O   UNL     1      43.076   9.928  17.841  1.00  0.00    -0.285 OA
ATOM      5  C   UNL     1      44.788   8.370  18.140  1.00  0.00     0.111 A 
ATOM      6  C   UNL     1      44.768   7.823  16.821  1.00  0.00     0.134 A 
ATOM      7  C   UNL     1      45.767   6.923  16.431  1.00  0.00     0.093 A 
ATOM      8  C   UNL     1      46.747   6.500  17.332  1.00  0.00     0.123 A 
ATOM      9  C   UNL     1      46.740   6.982  18.638  1.00  0.00     0.094 A 
ATOM     10  C   UNL     1      45.778   7.909  19.048  1.00  0.00     0.146 A 
ATOM     11  O   UNL     1      45.814   8.350  20.299  1.00  0.00    -0.452 OA
ENDROOT
BRANCH   1  12
ATOM     12  C   UNL     1      45.093   9.637  22.206  1.00  0.00     0.025 A 
ATOM     13  C   UNL     1      46.235  10.335  22.629  1.00  0.00     0.016 A 
ATOM     14  C   UNL     1      46.388  10.694  23.970  1.00  0.00     0.051 A 
ATOM     15  C   UNL     1      45.414  10.350  24.911  1.00  0.00     0.157 A 
ATOM     16  C   UNL     1      44.123   9.273  23.157  1.00  0.00     0.062 A 
ATOM     17  C   UNL     1      44.276   9.632  24.505  1.00  0.00     0.158 A 
BRANCH  15  18
ATOM     18  O   UNL     1      45.592  10.726  26.242  1.00  0.00    -0.504 OA
ATOM     19  H   UNL     1      46.059  11.585  26.501  1.00  0.00     0.293 HD
ENDBRANCH  15  18
BRANCH  17  20
ATOM     20  O   UNL     1      43.307   9.272  25.439  1.00  0.00    -0.504 OA
ATOM     21  H   UNL     1      43.375   8.414  25.971  1.00  0.00     0.293 HD
ENDBRANCH  17  20
ENDBRANCH   1  12
BRANCH   2  22
ATOM     22  O   UNL     1      43.151  10.824  20.413  1.00  0.00    -0.502 OA
ATOM     23  H   UNL     1      42.165  10.862  20.185  1.00  0.00     0.293 HD
ENDBRANCH   2  22
BRANCH   6  24
ATOM     24  O   UNL     1      43.780   8.109  15.874  1.00  0.00    -0.507 OA
ATOM     25  H   UNL     1      43.395   7.439  15.225  1.00  0.00     0.293 HD
ENDBRANCH   6  24
BRANCH   8  26
ATOM     26  O   UNL     1      47.728   5.592  16.940  1.00  0.00    -0.508 OA
ATOM     27  H   UNL     1      47.892   4.734  17.454  1.00  0.00     0.293 HD
ENDBRANCH   8  26
TORSDOF 6
ENDMDL
MODEL 3
REMARK VINA RESULT:    -6.874      1.292      2.900
REMARK INTER + INTRA:          -8.421
REMARK INTER:                  -8.213
REMARK INTRA:                  -0.208
REMARK UNBOUND:                -0.140
REMARK SMILES O=c1c(O)c(-c2ccc(O)c(O)c2)oc2cc(O)cc(O)c12
REMARK SMILES IDX 5 1 3 2 2 3 1 4 22 5 20 6 19 7 17 8 16 9 15 10 14 11 6 12
REMARK SMILES IDX 7 13 8 14 9 15 13 16 11 17 10 18 12 20 4 22 21 24 18 26
REMARK H PARENT 10 19 12 21 4 23 21 25 18 27
REMARK Flexibility Score: inf
ROOT
ATOM      1  C   UNL     1      46.039   8.243  19.925  1.00  0.00     0.180 A 
ATOM      2  C   UNL     1      46.502   6.995  19.474  1.00  0.00     0.208 A 
ATOM      3  C   UNL     1      46.733   6.809  18.102  1.00  0.00     0.238 A 
ATOM      4  O   UNL     1      47.095   5.672  17.699  1.00  0.00    -0.285 OA
ATOM      5  C   UNL     1      46.514   7.877  17.200  1.00  0.00     0.111 A 
ATOM      6  C   UNL     1      46.755   7.814  15.794  1.00  0.00     0.134 A 
ATOM      7  C   UNL     1      46.380   8.889  14.980  1.00  0.00     0.093 A 
ATOM      8  C   UNL     1      45.834  10.052  15.529  1.00  0.00     0.123 A 
ATOM      9  C   UNL     1      45.652  10.147  16.906  1.00  0.00     0.094 A 
ATOM     10  C   UNL     1      45.981   9.077  17.741  1.00  0.00     0.146 A 
ATOM     11  O   UNL     1      45.782   9.205  19.047  1.00  0.00    -0.452 OA
ENDROOT
BRANCH   1  12
ATOM     12  C   UNL     1      45.797   8.523  21.359  1.00  0.00     0.025 A 
ATOM     13  C   UNL     1      46.887   8.590  22.242  1.00  0.00     0.016 A 
ATOM     14  C   UNL     1      46.681   8.832  23.602  1.00  0.00     0.051 A 
ATOM     15  C   UNL     1      45.387   8.996  24.104  1.00  0.00     0.157 A 
ATOM     16  C   UNL     1      44.495   8.667  21.869  1.00  0.00     0.062 A 
ATOM     17  C   UNL     1      44.286   8.909  23.234  1.00  0.00     0.158 A 
BRANCH  15  18
ATOM     18  O   UNL     1      45.212   9.240  25.466  1.00  0.00    -0.504 OA
ATOM     19  H   UNL     1      45.395  10.146  25.879  1.00  0.00     0.293 HD
ENDBRANCH  15  18
BRANCH  17  20
ATOM     20  O   UNL     1      42.991   9.057  23.729  1.00  0.00    -0.504 OA
ATOM     21  H   UNL     1      42.818   9.322  24.691  1.00  0.00     0.293 HD
ENDBRANCH  17  20
ENDBRANCH   1  12
BRANCH   2  22
ATOM     22  O   UNL     1      46.690   5.946  20.380  1.00  0.00    -0.502 OA
ATOM     23  H   UNL     1      47.432   5.265  20.276  1.00  0.00     0.293 HD
ENDBRANCH   2  22
BRANCH   6  24
ATOM     24  O   UNL     1      47.378   6.736  15.157  1.00  0.00    -0.507 OA
ATOM     25  H   UNL     1      47.722   5.912  15.627  1.00  0.00     0.293 HD
ENDBRANCH   6  24
BRANCH   8  26
ATOM     26  O   UNL     1      45.478  11.125  14.713  1.00  0.00    -0.508 OA
ATOM     27  H   UNL     1      44.552  11.198  14.309  1.00  0.00     0.293 HD
ENDBRANCH   8  26
TORSDOF 6
ENDMDL
MODEL 4
REMARK VINA RESULT:    -6.479      1.985      2.440
REMARK INTER + INTRA:          -7.946
REMARK INTER:                  -8.167
REMARK INTRA:                   0.222
REMARK UNBOUND:                -0.140
REMARK SMILES O=c1c(O)c(-c2ccc(O)c(O)c2)oc2cc(O)cc(O)c12
REMARK SMILES IDX 5 1 3 2 2 3 1 4 22 5 20 6 19 7 17 8 16 9 15 10 14 11 6 12
REMARK SMILES IDX 7 13 8 14 9 15 13 16 11 17 10 18 12 20 4 22 21 24 18 26
REMARK H PARENT 10 19 12 21 4 23 21 25 18 27
REMARK Flexibility Score: inf
ROOT
ATOM      1  C   UNL     1      46.050   7.392  18.527  1.00  0.00     0.180 A 
ATOM      2  C   UNL     1      44.854   7.721  17.866  1.00  0.00     0.208 A 
ATOM      3  C   UNL     1      44.643   7.246  16.562  1.00  0.00     0.238 A 
ATOM      4  O   UNL     1      43.594   7.590  15.956  1.00  0.00    -0.285 OA
ATOM      5  C   UNL     1      45.623   6.436  15.941  1.00  0.00     0.111 A 
ATOM      6  C   UNL     1      45.497   5.866  14.638  1.00  0.00     0.134 A 
ATOM      7  C   UNL     1      46.584   5.189  14.072  1.00  0.00     0.093 A 
ATOM      8  C   UNL     1      47.769   5.004  14.788  1.00  0.00     0.123 A 
ATOM      9  C   UNL     1      47.880   5.504  16.083  1.00  0.00     0.094 A 
ATOM     10  C   UNL     1      46.827   6.216  16.661  1.00  0.00     0.146 A 
ATOM     11  O   UNL     1      46.978   6.684  17.893  1.00  0.00    -0.452 OA
ENDROOT
BRANCH   1  12
ATOM     12  C   UNL     1      46.332   7.834  19.912  1.00  0.00     0.025 A 
ATOM     13  C   UNL     1      45.945   9.120  20.319  1.00  0.00     0.016 A 
ATOM     14  C   UNL     1      46.219   9.566  21.614  1.00  0.00     0.051 A 
ATOM     15  C   UNL     1      46.896   8.741  22.517  1.00  0.00     0.157 A 
ATOM     16  C   UNL     1      47.031   7.013  20.815  1.00  0.00     0.062 A 
ATOM     17  C   UNL     1      47.309   7.458  22.116  1.00  0.00     0.158 A 
BRANCH  15  18
ATOM     18  O   UNL     1      47.153   9.211  23.805  1.00  0.00    -0.504 OA
ATOM     19  H   UNL     1      46.813   8.733  24.630  1.00  0.00     0.293 HD
ENDBRANCH  15  18
BRANCH  17  20
ATOM     20  O   UNL     1      47.996   6.636  23.006  1.00  0.00    -0.504 OA
ATOM     21  H   UNL     1      48.456   5.788  22.698  1.00  0.00     0.293 HD
ENDBRANCH  17  20
ENDBRANCH   1  12
BRANCH   2  22
ATOM     22  O   UNL     1      43.909   8.541  18.490  1.00  0.00    -0.502 OA
ATOM     23  H   UNL     1      44.038   8.904  19.427  1.00  0.00     0.293 HD
ENDBRANCH   2  22
BRANCH   6  24
ATOM     24  O   UNL     1      44.327   5.915  13.875  1.00  0.00    -0.507 OA
ATOM     25  H   UNL     1      43.430   5.564  14.176  1.00  0.00     0.293 HD
ENDBRANCH   6  24
BRANCH   8  26
ATOM     26  O   UNL     1      48.841   4.315  14.223  1.00  0.00    -0.508 OA
ATOM     27  H   UNL     1      49.104   4.446  13.253  1.00  0.00     0.293 HD
ENDBRANCH   8  26
TORSDOF 6
ENDMDL
MODEL 5
REMARK VINA RESULT:    -6.085      1.502      6.743
REMARK INTER + INTRA:          -7.470
REMARK INTER:                  -7.906
REMARK INTRA:                   0.436
REMARK UNBOUND:                -0.140
REMARK SMILES O=c1c(O)c(-c2ccc(O)c(O)c2)oc2cc(O)cc(O)c12
REMARK SMILES IDX 5 1 3 2 2 3 1 4 22 5 20 6 19 7 17 8 16 9 15 10 14 11 6 12
REMARK SMILES IDX 7 13 8 14 9 15 13 16 11 17 10 18 12 20 4 22 21 24 18 26
REMARK H PARENT 10 19 12 21 4 23 21 25 18 27
REMARK Flexibility Score: inf
ROOT
ATOM      1  C   UNL     1      45.438   8.093  18.303  1.00  0.00     0.180 A 
ATOM      2  C   UNL     1      44.300   8.904  18.144  1.00  0.00     0.208 A 
ATOM      3  C   UNL     1      43.787   9.586  19.258  1.00  0.00     0.238 A 
ATOM      4  O   UNL     1      42.737  10.266  19.120  1.00  0.00    -0.285 OA
ATOM      5  C   UNL     1      44.427   9.462  20.515  1.00  0.00     0.111 A 
ATOM      6  C   UNL     1      44.018  10.140  21.703  1.00  0.00     0.134 A 
ATOM      7  C   UNL     1      44.645   9.842  22.919  1.00  0.00     0.093 A 
ATOM      8  C   UNL     1      45.710   8.940  22.978  1.00  0.00     0.123 A 
ATOM      9  C   UNL     1      46.156   8.319  21.814  1.00  0.00     0.094 A 
ATOM     10  C   UNL     1      45.527   8.567  20.591  1.00  0.00     0.146 A 
ATOM     11  O   UNL     1      45.976   7.947  19.508  1.00  0.00    -0.452 OA
ENDROOT
BRANCH   1  12
ATOM     12  C   UNL     1      46.051   7.365  17.169  1.00  0.00     0.025 A 
ATOM     13  C   UNL     1      45.763   7.764  15.855  1.00  0.00     0.016 A 
ATOM     14  C   UNL     1      46.314   7.079  14.770  1.00  0.00     0.051 A 
ATOM     15  C   UNL     1      47.148   5.977  14.979  1.00  0.00     0.157 A 
ATOM     16  C   UNL     1      46.873   6.243  17.378  1.00  0.00     0.062 A 
ATOM     17  C   UNL     1      47.426   5.552  16.290  1.00  0.00     0.158 A 
BRANCH  15  18
ATOM     18  O   UNL     1      47.687   5.313  13.877  1.00  0.00    -0.504 OA
ATOM     19  H   UNL     1      47.653   5.704  12.944  1.00  0.00     0.293 HD
ENDBRANCH  15  18
BRANCH  17  20
ATOM     20  O   UNL     1      48.245   4.445  16.506  1.00  0.00    -0.504 OA
ATOM     21  H   UNL     1      47.909   3.501  16.363  1.00  0.00     0.293 HD
ENDBRANCH  17  20
ENDBRANCH   1  12
BRANCH   2  22
ATOM     22  O   UNL     1      43.671   8.994  16.898  1.00  0.00    -0.502 OA
ATOM     23  H   UNL     1      43.662   9.848  16.354  1.00  0.00     0.293 HD
ENDBRANCH   2  22
BRANCH   6  24
ATOM     24  O   UNL     1      43.027  11.125  21.737  1.00  0.00    -0.507 OA
ATOM     25  H   UNL     1      43.054  11.985  21.212  1.00  0.00     0.293 HD
ENDBRANCH   6  24
BRANCH   8  26
ATOM     26  O   UNL     1      46.340   8.661  24.189  1.00  0.00    -0.508 OA
ATOM     27  H   UNL     1      46.498   9.383  24.883  1.00  0.00     0.293 HD
ENDBRANCH   8  26
TORSDOF 6
ENDMDL
MODEL 6
REMARK VINA RESULT:    -5.954      1.899      2.268
REMARK INTER + INTRA:          -7.313
REMARK INTER:                  -7.028
REMARK INTRA:                  -0.285
REMARK UNBOUND:                -0.140
REMARK SMILES O=c1c(O)c(-c2ccc(O)c(O)c2)oc2cc(O)cc(O)c12
REMARK SMILES IDX 5 1 3 2 2 3 1 4 22 5 20 6 19 7 17 8 16 9 15 10 14 11 6 12
REMARK SMILES IDX 7 13 8 14 9 15 13 16 11 17 10 18 12 20 4 22 21 24 18 26
REMARK H PARENT 10 19 12 21 4 23 21 25 18 27
REMARK Flexibility Score: inf
ROOT
ATOM      1  C   UNL     1      45.184   9.164  18.934  1.00  0.00     0.180 A 
ATOM      2  C   UNL     1      45.980  10.105  18.259  1.00  0.00     0.208 A 
ATOM      3  C   UNL     1      46.153   9.981  16.871  1.00  0.00     0.238 A 
ATOM      4  O   UNL     1      46.912  10.795  16.282  1.00  0.00    -0.285 OA
ATOM      5  C   UNL     1      45.515   8.929  16.173  1.00  0.00     0.111 A 
ATOM      6  C   UNL     1      45.587   8.731  14.761  1.00  0.00     0.134 A 
ATOM      7  C   UNL     1      45.022   7.582  14.194  1.00  0.00     0.093 A 
ATOM      8  C   UNL     1      44.332   6.656  14.980  1.00  0.00     0.123 A 
ATOM      9  C   UNL     1      44.204   6.871  16.350  1.00  0.00     0.094 A 
ATOM     10  C   UNL     1      44.788   7.989  16.951  1.00  0.00     0.146 A 
ATOM     11  O   UNL     1      44.651   8.151  18.261  1.00  0.00    -0.452 OA
ENDROOT
BRANCH   1  12
ATOM     12  C   UNL     1      44.934   9.243  20.391  1.00  0.00     0.025 A 
ATOM     13  C   UNL     1      44.006  10.175  20.882  1.00  0.00     0.016 A 
ATOM     14  C   UNL     1      43.770  10.282  22.255  1.00  0.00     0.051 A 
ATOM     15  C   UNL     1      44.465   9.472  23.158  1.00  0.00     0.157 A 
ATOM     16  C   UNL     1      45.647   8.444  21.302  1.00  0.00     0.062 A 
ATOM     17  C   UNL     1      45.413   8.551  22.680  1.00  0.00     0.158 A 
BRANCH  15  18
ATOM     18  O   UNL     1      44.206   9.599  24.522  1.00  0.00    -0.504 OA
ATOM     19  H   UNL     1      44.361  10.465  25.022  1.00  0.00     0.293 HD
ENDBRANCH  15  18
BRANCH  17  20
ATOM     20  O   UNL     1      46.120   7.750  23.575  1.00  0.00    -0.504 OA
ATOM     21  H   UNL     1      46.498   8.123  24.437  1.00  0.00     0.293 HD
ENDBRANCH  17  20
ENDBRANCH   1  12
BRANCH   2  22
ATOM     22  O   UNL     1      46.620  11.124  18.971  1.00  0.00    -0.502 OA
ATOM     23  H   UNL     1      46.970  10.992  19.913  1.00  0.00     0.293 HD
ENDBRANCH   2  22
BRANCH   6  24
ATOM     24  O   UNL     1      46.174   9.640  13.875  1.00  0.00    -0.507 OA
ATOM     25  H   UNL     1      46.207   9.526  12.873  1.00  0.00     0.293 HD
ENDBRANCH   6  24
BRANCH   8  26
ATOM     26  O   UNL     1      43.759   5.523  14.406  1.00  0.00    -0.508 OA
ATOM     27  H   UNL     1      44.231   5.004  13.675  1.00  0.00     0.293 HD
ENDBRANCH   8  26
TORSDOF 6
ENDMDL
MODEL 7
REMARK VINA RESULT:    -4.959      2.038      6.509
REMARK INTER + INTRA:          -6.114
REMARK INTER:                  -6.443
REMARK INTRA:                   0.329
REMARK UNBOUND:                -0.140
REMARK SMILES O=c1c(O)c(-c2ccc(O)c(O)c2)oc2cc(O)cc(O)c12
REMARK SMILES IDX 5 1 3 2 2 3 1 4 22 5 20 6 19 7 17 8 16 9 15 10 14 11 6 12
REMARK SMILES IDX 7 13 8 14 9 15 13 16 11 17 10 18 12 20 4 22 21 24 18 26
REMARK H PARENT 10 19 12 21 4 23 21 25 18 27
REMARK Flexibility Score: inf
ROOT
ATOM      1  C   UNL     1      45.520   7.935  18.805  1.00  0.00     0.180 A 
ATOM      2  C   UNL     1      44.626   8.974  19.117  1.00  0.00     0.208 A 
ATOM      3  C   UNL     1      44.775   9.658  20.333  1.00  0.00     0.238 A 
ATOM      4  O   UNL     1      43.938  10.551  20.631  1.00  0.00    -0.285 OA
ATOM      5  C   UNL     1      45.824   9.307  21.216  1.00  0.00     0.111 A 
ATOM      6  C   UNL     1      46.094   9.960  22.456  1.00  0.00     0.134 A 
ATOM      7  C   UNL     1      47.077   9.444  23.309  1.00  0.00     0.093 A 
ATOM      8  C   UNL     1      47.845   8.339  22.937  1.00  0.00     0.123 A 
ATOM      9  C   UNL     1      47.631   7.732  21.702  1.00  0.00     0.094 A 
ATOM     10  C   UNL     1      46.632   8.200  20.845  1.00  0.00     0.146 A 
ATOM     11  O   UNL     1      46.454   7.586  19.682  1.00  0.00    -0.452 OA
ENDROOT
BRANCH   1  12
ATOM     12  C   UNL     1      45.443   7.185  17.530  1.00  0.00     0.025 A 
ATOM     13  C   UNL     1      46.610   6.626  16.987  1.00  0.00     0.016 A 
ATOM     14  C   UNL     1      46.565   5.932  15.776  1.00  0.00     0.051 A 
ATOM     15  C   UNL     1      45.359   5.800  15.081  1.00  0.00     0.157 A 
ATOM     16  C   UNL     1      44.235   7.069  16.820  1.00  0.00     0.062 A 
ATOM     17  C   UNL     1      44.187   6.375  15.602  1.00  0.00     0.158 A 
BRANCH  15  18
ATOM     18  O   UNL     1      45.343   5.099  13.875  1.00  0.00    -0.504 OA
ATOM     19  H   UNL     1      45.833   4.221  13.756  1.00  0.00     0.293 HD
ENDBRANCH  15  18
BRANCH  17  20
ATOM     20  O   UNL     1      42.984   6.259  14.908  1.00  0.00    -0.504 OA
ATOM     21  H   UNL     1      42.102   6.528  15.327  1.00  0.00     0.293 HD
ENDBRANCH  17  20
ENDBRANCH   1  12
BRANCH   2  22
ATOM     22  O   UNL     1      43.583   9.290  18.241  1.00  0.00    -0.502 OA
ATOM     23  H   UNL     1      42.828   9.914  18.497  1.00  0.00     0.293 HD
ENDBRANCH   2  22
BRANCH   6  24
ATOM     24  O   UNL     1      45.447  11.124  22.882  1.00  0.00    -0.507 OA
ATOM     25  H   UNL     1      45.691  11.648  23.708  1.00  0.00     0.293 HD
ENDBRANCH   6  24
BRANCH   8  26
ATOM     26  O   UNL     1      48.833   7.841  23.784  1.00  0.00    -0.508 OA
ATOM     27  H   UNL     1      49.747   8.275  23.845  1.00  0.00     0.293 HD
ENDBRANCH   8  26
TORSDOF 6
ENDMDL
MODEL 8
REMARK VINA RESULT:    -4.703      2.035      7.276
REMARK INTER + INTRA:          -5.806
REMARK INTER:                  -5.507
REMARK INTRA:                  -0.299
REMARK UNBOUND:                -0.140
REMARK SMILES O=c1c(O)c(-c2ccc(O)c(O)c2)oc2cc(O)cc(O)c12
REMARK SMILES IDX 5 1 3 2 2 3 1 4 22 5 20 6 19 7 17 8 16 9 15 10 14 11 6 12
REMARK SMILES IDX 7 13 8 14 9 15 13 16 11 17 10 18 12 20 4 22 21 24 18 26
REMARK H PARENT 10 19 12 21 4 23 21 25 18 27
REMARK Flexibility Score: inf
ROOT
ATOM      1  C   UNL     1      45.452   8.500  19.561  1.00  0.00     0.180 A 
ATOM      2  C   UNL     1      46.377   7.725  20.281  1.00  0.00     0.208 A 
ATOM      3  C   UNL     1      46.328   7.733  21.684  1.00  0.00     0.238 A 
ATOM      4  O   UNL     1      47.194   7.079  22.323  1.00  0.00    -0.285 OA
ATOM      5  C   UNL     1      45.343   8.502  22.349  1.00  0.00     0.111 A 
ATOM      6  C   UNL     1      45.174   8.552  23.766  1.00  0.00     0.134 A 
ATOM      7  C   UNL     1      44.252   9.448  24.320  1.00  0.00     0.093 A 
ATOM      8  C   UNL     1      43.447  10.248  23.506  1.00  0.00     0.123 A 
ATOM      9  C   UNL     1      43.562  10.162  22.121  1.00  0.00     0.094 A 
ATOM     10  C   UNL     1      44.498   9.305  21.538  1.00  0.00     0.146 A 
ATOM     11  O   UNL     1      44.583   9.262  20.215  1.00  0.00    -0.452 OA
ENDROOT
BRANCH   1  12
ATOM     12  C   UNL     1      45.426   8.523  18.080  1.00  0.00     0.025 A 
ATOM     13  C   UNL     1      46.306   9.369  17.388  1.00  0.00     0.016 A 
ATOM     14  C   UNL     1      46.284   9.422  15.992  1.00  0.00     0.051 A 
ATOM     15  C   UNL     1      45.376   8.644  15.268  1.00  0.00     0.157 A 
ATOM     16  C   UNL     1      44.499   7.757  17.352  1.00  0.00     0.062 A 
ATOM     17  C   UNL     1      44.474   7.810  15.950  1.00  0.00     0.158 A 
BRANCH  15  18
ATOM     18  O   UNL     1      45.380   8.715  13.875  1.00  0.00    -0.504 OA
ATOM     19  H   UNL     1      45.121   7.927  13.295  1.00  0.00     0.293 HD
ENDBRANCH  15  18
BRANCH  17  20
ATOM     20  O   UNL     1      43.556   7.042  15.236  1.00  0.00    -0.504 OA
ATOM     21  H   UNL     1      43.834   6.199  14.750  1.00  0.00     0.293 HD
ENDBRANCH  17  20
ENDBRANCH   1  12
BRANCH   2  22
ATOM     22  O   UNL     1      47.355   6.990  19.604  1.00  0.00    -0.502 OA
ATOM     23  H   UNL     1      47.829   7.343  18.781  1.00  0.00     0.293 HD
ENDBRANCH   2  22
BRANCH   6  24
ATOM     24  O   UNL     1      45.863   7.731  24.663  1.00  0.00    -0.507 OA
ATOM     25  H   UNL     1      45.434   7.022  25.239  1.00  0.00     0.293 HD
ENDBRANCH   6  24
BRANCH   8  26
ATOM     26  O   UNL     1      42.520  11.125  24.066  1.00  0.00    -0.508 OA
ATOM     27  H   UNL     1      41.833  10.810  24.742  1.00  0.00     0.293 HD
ENDBRANCH   8  26
TORSDOF 6
ENDMDL
