MODEL 1
REMARK VINA RESULT:    -3.203      0.000      0.000
REMARK INTER + INTRA:          -6.463
REMARK INTER:                  -5.170
REMARK INTRA:                  -1.293
REMARK UNBOUND:                -1.293
REMARK SMILES CCCCCCCCCCCCO
REMARK SMILES IDX 7 1 6 2 5 3 4 4 3 5 2 6 1 7 8 8 9 9 10 10 11 11 12 12 13 13
REMARK H PARENT 13 14
REMARK Flexibility Score: inf
ROOT
ATOM      1  C   UNL     1       7.748 -40.629  46.197  1.00  0.00     0.000 C 
ENDROOT
BRANCH   1   2
ATOM      2  C   UNL     1       8.768 -41.027  45.117  1.00  0.00    -0.000 C 
BRANCH   2   3
ATOM      3  C   UNL     1      10.015 -40.129  45.117  1.00  0.00    -0.000 C 
BRANCH   3   4
ATOM      4  C   UNL     1      10.752 -40.213  46.462  1.00  0.00    -0.000 C 
BRANCH   4   5
ATOM      5  C   UNL     1      11.067 -38.831  47.061  1.00  0.00    -0.000 C 
BRANCH   5   6
ATOM      6  C   UNL     1      10.370 -37.648  46.366  1.00  0.00    -0.003 C 
ATOM      7  C   UNL     1       9.691 -36.692  47.346  1.00  0.00     0.004 C 
ENDBRANCH   5   6
ENDBRANCH   4   5
ENDBRANCH   3   4
ENDBRANCH   2   3
ENDBRANCH   1   2
BRANCH   1   8
ATOM      8  C   UNL     1       7.081 -39.273  45.908  1.00  0.00     0.000 C 
BRANCH   8   9
ATOM      9  C   UNL     1       6.458 -38.643  47.166  1.00  0.00     0.000 C 
BRANCH   9  10
ATOM     10  C   UNL     1       7.145 -39.108  48.461  1.00  0.00     0.002 C 
BRANCH  10  11
ATOM     11  C   UNL     1       6.143 -39.624  49.507  1.00  0.00     0.028 C 
BRANCH  11  12
ATOM     12  C   UNL     1       6.112 -38.766  50.777  1.00  0.00     0.156 C 
BRANCH  12  13
ATOM     13  O   UNL     1       4.865 -38.138  50.906  1.00  0.00    -0.396 OA
ATOM     14  H   UNL     1       4.954 -37.478  51.642  1.00  0.00     0.210 HD
ENDBRANCH  12  13
ENDBRANCH  11  12
ENDBRANCH  10  11
ENDBRANCH   9  10
ENDBRANCH   8   9
ENDBRANCH   1   8
TORSDOF 11
ENDMDL
MODEL 2
REMARK VINA RESULT:    -3.198      2.387      4.013
REMARK INTER + INTRA:          -6.453
REMARK INTER:                  -5.100
REMARK INTRA:                  -1.354
REMARK UNBOUND:                -1.293
REMARK SMILES CCCCCCCCCCCCO
REMARK SMILES IDX 7 1 6 2 5 3 4 4 3 5 2 6 1 7 8 8 9 9 10 10 11 11 12 12 13 13
REMARK H PARENT 13 14
REMARK Flexibility Score: inf
ROOT
ATOM      1  C   UNL     1      10.884 -39.582  47.189  1.00  0.00     0.000 C 
ENDROOT
BRANCH   1   2
ATOM      2  C   UNL     1      11.663 -38.301  47.532  1.00  0.00    -0.000 C 
BRANCH   2   3
ATOM      3  C   UNL     1      11.110 -37.060  46.815  1.00  0.00    -0.000 C 
BRANCH   3   4
ATOM      4  C   UNL     1      10.125 -36.299  47.714  1.00  0.00    -0.000 C 
BRANCH   4   5
ATOM      5  C   UNL     1      10.490 -36.381  49.208  1.00  0.00    -0.000 C 
BRANCH   5   6
ATOM      6  C   UNL     1       9.322 -36.748  50.141  1.00  0.00    -0.003 C 
ATOM      7  C   UNL     1       9.021 -38.246  50.163  1.00  0.00     0.004 C 
ENDBRANCH   5   6
ENDBRANCH   4   5
ENDBRANCH   3   4
ENDBRANCH   2   3
ENDBRANCH   1   2
BRANCH   1   8
ATOM      8  C   UNL     1      10.276 -39.543  45.776  1.00  0.00     0.000 C 
BRANCH   8   9
ATOM      9  C   UNL     1       8.807 -39.999  45.755  1.00  0.00     0.000 C 
BRANCH   9  10
ATOM     10  C   UNL     1       7.919 -39.175  46.704  1.00  0.00     0.002 C 
BRANCH  10  11
ATOM     11  C   UNL     1       7.291 -37.954  46.012  1.00  0.00     0.028 C 
BRANCH  11  12
ATOM     12  C   UNL     1       5.855 -38.212  45.538  1.00  0.00     0.156 C 
BRANCH  12  13
ATOM     13  O   UNL     1       5.427 -37.167  44.708  1.00  0.00    -0.396 OA
ATOM     14  H   UNL     1       6.068 -37.125  43.950  1.00  0.00     0.210 HD
ENDBRANCH  12  13
ENDBRANCH  11  12
ENDBRANCH  10  11
ENDBRANCH   9  10
ENDBRANCH   8   9
ENDBRANCH   1   8
TORSDOF 11
ENDMDL
MODEL 3
REMARK VINA RESULT:    -3.191      2.300      3.123
REMARK INTER + INTRA:          -6.442
REMARK INTER:                  -5.023
REMARK INTRA:                  -1.419
REMARK UNBOUND:                -1.293
REMARK SMILES CCCCCCCCCCCCO
REMARK SMILES IDX 7 1 6 2 5 3 4 4 3 5 2 6 1 7 8 8 9 9 10 10 11 11 12 12 13 13
REMARK H PARENT 13 14
REMARK Flexibility Score: inf
ROOT
ATOM      1  C   UNL     1       9.697 -40.992  46.971  1.00  0.00     0.000 C 
ENDROOT
BRANCH   1   2
ATOM      2  C   UNL     1      10.583 -39.892  46.365  1.00  0.00    -0.000 C 
BRANCH   2   3
ATOM      3  C   UNL     1       9.881 -39.114  45.241  1.00  0.00    -0.000 C 
BRANCH   3   4
ATOM      4  C   UNL     1      10.013 -37.599  45.456  1.00  0.00    -0.000 C 
BRANCH   4   5
ATOM      5  C   UNL     1      10.604 -37.237  46.830  1.00  0.00    -0.000 C 
BRANCH   5   6
ATOM      6  C   UNL     1       9.705 -36.352  47.711  1.00  0.00    -0.003 C 
ATOM      7  C   UNL     1       9.193 -37.070  48.959  1.00  0.00     0.004 C 
ENDBRANCH   5   6
ENDBRANCH   4   5
ENDBRANCH   3   4
ENDBRANCH   2   3
ENDBRANCH   1   2
BRANCH   1   8
ATOM      8  C   UNL     1       8.768 -40.461  48.077  1.00  0.00     0.000 C 
BRANCH   8   9
ATOM      9  C   UNL     1       7.280 -40.577  47.703  1.00  0.00     0.000 C 
BRANCH   9  10
ATOM     10  C   UNL     1       6.629 -39.209  47.438  1.00  0.00     0.002 C 
BRANCH  10  11
ATOM     11  C   UNL     1       6.258 -39.008  45.960  1.00  0.00     0.028 C 
BRANCH  11  12
ATOM     12  C   UNL     1       6.445 -37.560  45.490  1.00  0.00     0.156 C 
BRANCH  12  13
ATOM     13  O   UNL     1       5.346 -37.158  44.719  1.00  0.00    -0.396 OA
ATOM     14  H   UNL     1       5.326 -37.750  43.922  1.00  0.00     0.210 HD
ENDBRANCH  12  13
ENDBRANCH  11  12
ENDBRANCH  10  11
ENDBRANCH   9  10
ENDBRANCH   8   9
ENDBRANCH   1   8
TORSDOF 11
ENDMDL
MODEL 4
REMARK VINA RESULT:    -3.149      3.384      5.316
REMARK INTER + INTRA:          -6.375
REMARK INTER:                  -5.871
REMARK INTRA:                  -0.505
REMARK UNBOUND:                -1.293
REMARK SMILES CCCCCCCCCCCCO
REMARK SMILES IDX 7 1 6 2 5 3 4 4 3 5 2 6 1 7 8 8 9 9 10 10 11 11 12 12 13 13
REMARK H PARENT 13 14
REMARK Flexibility Score: inf
ROOT
ATOM      1  C   UNL     1      10.651 -36.881  47.010  1.00  0.00     0.000 C 
ENDROOT
BRANCH   1   2
ATOM      2  C   UNL     1       9.747 -36.064  47.948  1.00  0.00    -0.000 C 
BRANCH   2   3
ATOM      3  C   UNL     1       9.835 -36.526  49.410  1.00  0.00    -0.000 C 
BRANCH   3   4
ATOM      4  C   UNL     1       9.713 -35.334  50.372  1.00  0.00    -0.000 C 
BRANCH   4   5
ATOM      5  C   UNL     1       8.881 -35.657  51.626  1.00  0.00    -0.000 C 
BRANCH   5   6
ATOM      6  C   UNL     1       8.094 -34.468  52.205  1.00  0.00    -0.003 C 
ATOM      7  C   UNL     1       8.970 -33.498  52.996  1.00  0.00     0.004 C 
ENDBRANCH   5   6
ENDBRANCH   4   5
ENDBRANCH   3   4
ENDBRANCH   2   3
ENDBRANCH   1   2
BRANCH   1   8
ATOM      8  C   UNL     1       9.874 -37.513  45.843  1.00  0.00     0.000 C 
BRANCH   8   9
ATOM      9  C   UNL     1       9.562 -39.001  46.080  1.00  0.00     0.000 C 
BRANCH   9  10
ATOM     10  C   UNL     1       8.053 -39.280  46.177  1.00  0.00     0.002 C 
BRANCH  10  11
ATOM     11  C   UNL     1       7.210 -37.997  46.093  1.00  0.00     0.028 C 
BRANCH  11  12
ATOM     12  C   UNL     1       5.806 -38.242  45.525  1.00  0.00     0.156 C 
BRANCH  12  13
ATOM     13  O   UNL     1       5.436 -37.186  44.682  1.00  0.00    -0.396 OA
ATOM     14  H   UNL     1       6.272 -36.844  44.270  1.00  0.00     0.210 HD
ENDBRANCH  12  13
ENDBRANCH  11  12
ENDBRANCH  10  11
ENDBRANCH   9  10
ENDBRANCH   8   9
ENDBRANCH   1   8
TORSDOF 11
ENDMDL
MODEL 5
REMARK VINA RESULT:    -3.096     16.040     18.017
REMARK INTER + INTRA:          -6.290
REMARK INTER:                  -4.733
REMARK INTRA:                  -1.557
REMARK UNBOUND:                -1.293
REMARK SMILES CCCCCCCCCCCCO
REMARK SMILES IDX 7 1 6 2 5 3 4 4 3 5 2 6 1 7 8 8 9 9 10 10 11 11 12 12 13 13
REMARK H PARENT 13 14
REMARK Flexibility Score: inf
ROOT
ATOM      1  C   UNL     1      15.411 -31.138  61.638  1.00  0.00     0.000 C 
ENDROOT
BRANCH   1   2
ATOM      2  C   UNL     1      14.142 -31.921  62.013  1.00  0.00    -0.000 C 
BRANCH   2   3
ATOM      3  C   UNL     1      14.424 -33.084  62.977  1.00  0.00    -0.000 C 
BRANCH   3   4
ATOM      4  C   UNL     1      14.016 -34.426  62.352  1.00  0.00    -0.000 C 
BRANCH   4   5
ATOM      5  C   UNL     1      13.925 -34.370  60.816  1.00  0.00    -0.000 C 
BRANCH   5   6
ATOM      6  C   UNL     1      15.206 -34.793  60.075  1.00  0.00    -0.003 C 
ATOM      7  C   UNL     1      15.617 -33.809  58.981  1.00  0.00     0.004 C 
ENDBRANCH   5   6
ENDBRANCH   4   5
ENDBRANCH   3   4
ENDBRANCH   2   3
ENDBRANCH   1   2
BRANCH   1   8
ATOM      8  C   UNL     1      16.638 -31.574  62.456  1.00  0.00     0.000 C 
BRANCH   8   9
ATOM      9  C   UNL     1      17.915 -31.662  61.603  1.00  0.00     0.000 C 
BRANCH   9  10
ATOM     10  C   UNL     1      18.349 -33.113  61.336  1.00  0.00     0.002 C 
BRANCH  10  11
ATOM     11  C   UNL     1      17.985 -34.060  62.491  1.00  0.00     0.028 C 
BRANCH  11  12
ATOM     12  C   UNL     1      18.456 -35.500  62.252  1.00  0.00     0.156 C 
BRANCH  12  13
ATOM     13  O   UNL     1      19.856 -35.559  62.269  1.00  0.00    -0.396 OA
ATOM     14  H   UNL     1      20.109 -36.081  63.074  1.00  0.00     0.210 HD
ENDBRANCH  12  13
ENDBRANCH  11  12
ENDBRANCH  10  11
ENDBRANCH   9  10
ENDBRANCH   8   9
ENDBRANCH   1   8
TORSDOF 11
ENDMDL
MODEL 6
REMARK VINA RESULT:    -3.074      1.092      2.402
REMARK INTER + INTRA:          -6.254
REMARK INTER:                  -5.030
REMARK INTRA:                  -1.223
REMARK UNBOUND:                -1.293
REMARK SMILES CCCCCCCCCCCCO
REMARK SMILES IDX 7 1 6 2 5 3 4 4 3 5 2 6 1 7 8 8 9 9 10 10 11 11 12 12 13 13
REMARK H PARENT 13 14
REMARK Flexibility Score: inf
ROOT
ATOM      1  C   UNL     1       6.202 -38.518  45.864  1.00  0.00     0.000 C 
ENDROOT
BRANCH   1   2
ATOM      2  C   UNL     1       7.294 -37.470  45.592  1.00  0.00    -0.000 C 
BRANCH   2   3
ATOM      3  C   UNL     1       8.420 -37.500  46.636  1.00  0.00    -0.000 C 
BRANCH   3   4
ATOM      4  C   UNL     1       9.794 -37.620  45.959  1.00  0.00    -0.000 C 
BRANCH   4   5
ATOM      5  C   UNL     1      10.731 -38.611  46.673  1.00  0.00    -0.000 C 
BRANCH   5   6
ATOM      6  C   UNL     1      10.474 -40.093  46.350  1.00  0.00    -0.003 C 
ATOM      7  C   UNL     1      10.188 -40.343  44.869  1.00  0.00     0.004 C 
ENDBRANCH   5   6
ENDBRANCH   4   5
ENDBRANCH   3   4
ENDBRANCH   2   3
ENDBRANCH   1   2
BRANCH   1   8
ATOM      8  C   UNL     1       6.783 -39.890  46.246  1.00  0.00     0.000 C 
BRANCH   8   9
ATOM      9  C   UNL     1       6.284 -40.381  47.616  1.00  0.00     0.000 C 
BRANCH   9  10
ATOM     10  C   UNL     1       7.347 -40.239  48.718  1.00  0.00     0.002 C 
BRANCH  10  11
ATOM     11  C   UNL     1       6.780 -39.624  50.008  1.00  0.00     0.028 C 
BRANCH  11  12
ATOM     12  C   UNL     1       5.532 -38.766  49.761  1.00  0.00     0.156 C 
BRANCH  12  13
ATOM     13  O   UNL     1       5.023 -38.293  50.978  1.00  0.00    -0.396 OA
ATOM     14  H   UNL     1       5.714 -38.480  51.667  1.00  0.00     0.210 HD
ENDBRANCH  12  13
ENDBRANCH  11  12
ENDBRANCH  10  11
ENDBRANCH   9  10
ENDBRANCH   8   9
ENDBRANCH   1   8
TORSDOF 11
ENDMDL
MODEL 7
REMARK VINA RESULT:    -3.014     15.478     17.205
REMARK INTER + INTRA:          -6.158
REMARK INTER:                  -4.571
REMARK INTRA:                  -1.586
REMARK UNBOUND:                -1.293
REMARK SMILES CCCCCCCCCCCCO
REMARK SMILES IDX 7 1 6 2 5 3 4 4 3 5 2 6 1 7 8 8 9 9 10 10 11 11 12 12 13 13
REMARK H PARENT 13 14
REMARK Flexibility Score: inf
ROOT
ATOM      1  C   UNL     1      16.675 -31.740  62.459  1.00  0.00     0.000 C 
ENDROOT
BRANCH   1   2
ATOM      2  C   UNL     1      17.941 -31.497  61.620  1.00  0.00    -0.000 C 
BRANCH   2   3
ATOM      3  C   UNL     1      18.664 -32.800  61.246  1.00  0.00    -0.000 C 
BRANCH   3   4
ATOM      4  C   UNL     1      17.947 -34.018  61.845  1.00  0.00    -0.000 C 
BRANCH   4   5
ATOM      5  C   UNL     1      17.458 -35.013  60.777  1.00  0.00    -0.000 C 
BRANCH   5   6
ATOM      6  C   UNL     1      17.199 -34.399  59.390  1.00  0.00    -0.003 C 
ATOM      7  C   UNL     1      15.743 -33.981  59.182  1.00  0.00     0.004 C 
ENDBRANCH   5   6
ENDBRANCH   4   5
ENDBRANCH   3   4
ENDBRANCH   2   3
ENDBRANCH   1   2
BRANCH   1   8
ATOM      8  C   UNL     1      15.391 -31.307  61.730  1.00  0.00     0.000 C 
BRANCH   8   9
ATOM      9  C   UNL     1      14.192 -32.212  62.061  1.00  0.00     0.000 C 
BRANCH   9  10
ATOM     10  C   UNL     1      14.561 -33.353  63.024  1.00  0.00     0.002 C 
BRANCH  10  11
ATOM     11  C   UNL     1      13.925 -34.693  62.622  1.00  0.00     0.028 C 
BRANCH  11  12
ATOM     12  C   UNL     1      12.865 -34.543  61.523  1.00  0.00     0.156 C 
BRANCH  12  13
ATOM     13  O   UNL     1      12.923 -35.635  60.646  1.00  0.00    -0.396 OA
ATOM     14  H   UNL     1      12.212 -36.267  60.931  1.00  0.00     0.210 HD
ENDBRANCH  12  13
ENDBRANCH  11  12
ENDBRANCH  10  11
ENDBRANCH   9  10
ENDBRANCH   8   9
ENDBRANCH   1   8
TORSDOF 11
ENDMDL
MODEL 8
REMARK VINA RESULT:    -2.956     15.354     17.032
REMARK INTER + INTRA:          -6.063
REMARK INTER:                  -4.557
REMARK INTRA:                  -1.506
REMARK UNBOUND:                -1.293
REMARK SMILES CCCCCCCCCCCCO
REMARK SMILES IDX 7 1 6 2 5 3 4 4 3 5 2 6 1 7 8 8 9 9 10 10 11 11 12 12 13 13
REMARK H PARENT 13 14
REMARK Flexibility Score: inf
ROOT
ATOM      1  C   UNL     1      17.781 -31.766  61.655  1.00  0.00     0.000 C 
ENDROOT
BRANCH   1   2
ATOM      2  C   UNL     1      18.332 -33.200  61.596  1.00  0.00    -0.000 C 
BRANCH   2   3
ATOM      3  C   UNL     1      19.030 -33.515  60.264  1.00  0.00    -0.000 C 
BRANCH   3   4
ATOM      4  C   UNL     1      18.137 -34.389  59.370  1.00  0.00    -0.000 C 
BRANCH   4   5
ATOM      5  C   UNL     1      16.908 -34.946  60.110  1.00  0.00    -0.000 C 
BRANCH   5   6
ATOM      6  C   UNL     1      15.582 -34.841  59.335  1.00  0.00    -0.003 C 
ATOM      7  C   UNL     1      15.379 -33.476  58.677  1.00  0.00     0.004 C 
ENDBRANCH   5   6
ENDBRANCH   4   5
ENDBRANCH   3   4
ENDBRANCH   2   3
ENDBRANCH   1   2
BRANCH   1   8
ATOM      8  C   UNL     1      16.517 -31.653  62.526  1.00  0.00     0.000 C 
BRANCH   8   9
ATOM      9  C   UNL     1      15.257 -31.344  61.700  1.00  0.00     0.000 C 
BRANCH   9  10
ATOM     10  C   UNL     1      14.100 -32.310  62.004  1.00  0.00     0.002 C 
BRANCH  10  11
ATOM     11  C   UNL     1      14.561 -33.558  62.775  1.00  0.00     0.028 C 
BRANCH  11  12
ATOM     12  C   UNL     1      13.680 -34.784  62.504  1.00  0.00     0.156 C 
BRANCH  12  13
ATOM     13  O   UNL     1      12.730 -34.487  61.517  1.00  0.00    -0.396 OA
ATOM     14  H   UNL     1      12.741 -33.501  61.400  1.00  0.00     0.210 HD
ENDBRANCH  12  13
ENDBRANCH  11  12
ENDBRANCH  10  11
ENDBRANCH   9  10
ENDBRANCH   8   9
ENDBRANCH   1   8
TORSDOF 11
ENDMDL
MODEL 9
REMARK VINA RESULT:    -2.936      2.607      4.324
REMARK INTER + INTRA:          -6.031
REMARK INTER:                  -4.818
REMARK INTRA:                  -1.213
REMARK UNBOUND:                -1.293
REMARK SMILES CCCCCCCCCCCCO
REMARK SMILES IDX 7 1 6 2 5 3 4 4 3 5 2 6 1 7 8 8 9 9 10 10 11 11 12 12 13 13
REMARK H PARENT 13 14
REMARK Flexibility Score: inf
ROOT
ATOM      1  C   UNL     1      10.226 -39.471  45.995  1.00  0.00     0.000 C 
ENDROOT
BRANCH   1   2
ATOM      2  C   UNL     1       9.573 -40.510  45.068  1.00  0.00    -0.000 C 
BRANCH   2   3
ATOM      3  C   UNL     1       8.189 -40.959  45.560  1.00  0.00    -0.000 C 
BRANCH   3   4
ATOM      4  C   UNL     1       7.933 -40.478  46.996  1.00  0.00    -0.000 C 
BRANCH   4   5
ATOM      5  C   UNL     1       6.681 -39.592  47.118  1.00  0.00    -0.000 C 
BRANCH   5   6
ATOM      6  C   UNL     1       6.079 -39.131  45.779  1.00  0.00    -0.003 C 
ATOM      7  C   UNL     1       6.254 -37.634  45.526  1.00  0.00     0.004 C 
ENDBRANCH   5   6
ENDBRANCH   4   5
ENDBRANCH   3   4
ENDBRANCH   2   3
ENDBRANCH   1   2
BRANCH   1   8
ATOM      8  C   UNL     1      10.021 -38.028  45.502  1.00  0.00     0.000 C 
BRANCH   8   9
ATOM      9  C   UNL     1      10.360 -36.984  46.579  1.00  0.00     0.000 C 
BRANCH   9  10
ATOM     10  C   UNL     1       9.327 -36.954  47.719  1.00  0.00     0.002 C 
BRANCH  10  11
ATOM     11  C   UNL     1       9.647 -35.884  48.776  1.00  0.00     0.028 C 
BRANCH  11  12
ATOM     12  C   UNL     1      10.931 -35.106  48.467  1.00  0.00     0.156 C 
BRANCH  12  13
ATOM     13  O   UNL     1      11.520 -34.654  49.655  1.00  0.00    -0.396 OA
ATOM     14  H   UNL     1      11.768 -35.463  50.175  1.00  0.00     0.210 HD
ENDBRANCH  12  13
ENDBRANCH  11  12
ENDBRANCH  10  11
ENDBRANCH   9  10
ENDBRANCH   8   9
ENDBRANCH   1   8
TORSDOF 11
ENDMDL
