MODEL 1
REMARK VINA RESULT:    -6.208      0.000      0.000
REMARK INTER + INTRA:          -6.667
REMARK INTER:                  -6.571
REMARK INTRA:                  -0.096
REMARK UNBOUND:                -0.096
REMARK SMILES C=C(C)[C@H]1CC=C(C)C(=O)C1
REMARK SMILES IDX 8 1 7 2 6 3 5 4 4 5 11 6 9 7 10 8 2 9 1 10 3 11
REMARK H PARENT
REMARK Flexibility Score: inf
ROOT
ATOM      1  C   UNL     1      20.070 199.551  15.597  1.00  0.00     0.048 C 
ATOM      2  C   UNL     1      19.821 201.032  15.515  1.00  0.00    -0.012 C 
ATOM      3  C   UNL     1      20.142 201.823  16.553  1.00  0.00    -0.019 C 
ATOM      4  C   UNL     1      19.897 203.308  16.530  1.00  0.00     0.036 C 
ATOM      5  C   UNL     1      20.045 203.873  15.105  1.00  0.00     0.025 C 
ATOM      6  C   UNL     1      19.123 203.115  14.132  1.00  0.00     0.089 C 
ATOM      7  C   UNL     1      19.340 201.632  14.244  1.00  0.00     0.158 C 
ATOM      8  O   UNL     1      19.073 200.896  13.256  1.00  0.00    -0.295 OA
ENDROOT
BRANCH   5   9
ATOM      9  C   UNL     1      19.791 205.374  15.066  1.00  0.00    -0.077 C 
ATOM     10  C   UNL     1      19.841 206.063  13.912  1.00  0.00     0.008 C 
ATOM     11  C   UNL     1      19.472 206.121  16.336  1.00  0.00     0.039 C 
ENDBRANCH   5   9
TORSDOF 1
ENDMDL
MODEL 2
REMARK VINA RESULT:    -5.664      2.121      4.486
REMARK INTER + INTRA:          -6.091
REMARK INTER:                  -6.001
REMARK INTRA:                  -0.090
REMARK UNBOUND:                -0.096
REMARK SMILES C=C(C)[C@H]1CC=C(C)C(=O)C1
REMARK SMILES IDX 8 1 7 2 6 3 5 4 4 5 11 6 9 7 10 8 2 9 1 10 3 11
REMARK H PARENT
REMARK Flexibility Score: inf
ROOT
ATOM      1  C   UNL     1      19.799 207.214  16.720  1.00  0.00     0.048 C 
ATOM      2  C   UNL     1      19.833 205.761  16.332  1.00  0.00    -0.012 C 
ATOM      3  C   UNL     1      18.836 204.944  16.713  1.00  0.00    -0.019 C 
ATOM      4  C   UNL     1      18.830 203.479  16.368  1.00  0.00     0.036 C 
ATOM      5  C   UNL     1      19.506 203.226  15.007  1.00  0.00     0.025 C 
ATOM      6  C   UNL     1      20.927 203.821  14.999  1.00  0.00     0.089 C 
ATOM      7  C   UNL     1      20.899 205.262  15.428  1.00  0.00     0.158 C 
ATOM      8  O   UNL     1      21.815 206.035  15.040  1.00  0.00    -0.295 OA
ENDROOT
BRANCH   5   9
ATOM      9  C   UNL     1      19.515 201.745  14.650  1.00  0.00    -0.077 C 
ATOM     10  C   UNL     1      19.253 201.326  13.400  1.00  0.00     0.008 C 
ATOM     11  C   UNL     1      19.824 200.715  15.706  1.00  0.00     0.039 C 
ENDBRANCH   5   9
TORSDOF 1
ENDMDL
MODEL 3
REMARK VINA RESULT:    -5.590      2.098      4.448
REMARK INTER + INTRA:          -6.013
REMARK INTER:                  -5.920
REMARK INTRA:                  -0.093
REMARK UNBOUND:                -0.096
REMARK SMILES C=C(C)[C@H]1CC=C(C)C(=O)C1
REMARK SMILES IDX 8 1 7 2 6 3 5 4 4 5 11 6 9 7 10 8 2 9 1 10 3 11
REMARK H PARENT
REMARK Flexibility Score: inf
ROOT
ATOM      1  C   UNL     1      21.243 206.360  16.234  1.00  0.00     0.048 C 
ATOM      2  C   UNL     1      20.789 205.013  15.742  1.00  0.00    -0.012 C 
ATOM      3  C   UNL     1      21.690 204.134  15.273  1.00  0.00    -0.019 C 
ATOM      4  C   UNL     1      21.287 202.779  14.751  1.00  0.00     0.036 C 
ATOM      5  C   UNL     1      20.058 202.238  15.505  1.00  0.00     0.025 C 
ATOM      6  C   UNL     1      18.902 203.254  15.442  1.00  0.00     0.089 C 
ATOM      7  C   UNL     1      19.367 204.612  15.892  1.00  0.00     0.158 C 
ATOM      8  O   UNL     1      18.526 205.422  16.366  1.00  0.00    -0.295 OA
ENDROOT
BRANCH   5   9
ATOM      9  C   UNL     1      19.633 200.872  14.981  1.00  0.00    -0.077 C 
ATOM     10  C   UNL     1      19.251 200.700  13.704  1.00  0.00     0.008 C 
ATOM     11  C   UNL     1      19.638 199.676  15.899  1.00  0.00     0.039 C 
ENDBRANCH   5   9
TORSDOF 1
ENDMDL
MODEL 4
REMARK VINA RESULT:    -5.446      1.325      4.580
REMARK INTER + INTRA:          -5.861
REMARK INTER:                  -5.768
REMARK INTRA:                  -0.093
REMARK UNBOUND:                -0.096
REMARK SMILES C=C(C)[C@H]1CC=C(C)C(=O)C1
REMARK SMILES IDX 8 1 7 2 6 3 5 4 4 5 11 6 9 7 10 8 2 9 1 10 3 11
REMARK H PARENT
REMARK Flexibility Score: inf
ROOT
ATOM      1  C   UNL     1      19.369 204.402  14.163  1.00  0.00     0.048 C 
ATOM      2  C   UNL     1      19.593 202.993  14.639  1.00  0.00    -0.012 C 
ATOM      3  C   UNL     1      19.924 202.765  15.922  1.00  0.00    -0.019 C 
ATOM      4  C   UNL     1      20.178 201.377  16.446  1.00  0.00     0.036 C 
ATOM      5  C   UNL     1      19.299 200.340  15.721  1.00  0.00     0.025 C 
ATOM      6  C   UNL     1      19.508 200.436  14.198  1.00  0.00     0.089 C 
ATOM      7  C   UNL     1      19.327 201.853  13.727  1.00  0.00     0.158 C 
ATOM      8  O   UNL     1      18.980 202.063  12.533  1.00  0.00    -0.295 OA
ENDROOT
BRANCH   5   9
ATOM      9  C   UNL     1      19.552 198.929  16.235  1.00  0.00    -0.077 C 
ATOM     10  C   UNL     1      20.671 198.258  15.914  1.00  0.00     0.008 C 
ATOM     11  C   UNL     1      18.538 198.256  17.125  1.00  0.00     0.039 C 
ENDBRANCH   5   9
TORSDOF 1
ENDMDL
MODEL 5
REMARK VINA RESULT:    -5.293      2.316      4.879
REMARK INTER + INTRA:          -5.698
REMARK INTER:                  -5.603
REMARK INTRA:                  -0.096
REMARK UNBOUND:                -0.096
REMARK SMILES C=C(C)[C@H]1CC=C(C)C(=O)C1
REMARK SMILES IDX 8 1 7 2 6 3 5 4 4 5 11 6 9 7 10 8 2 9 1 10 3 11
REMARK H PARENT
REMARK Flexibility Score: inf
ROOT
ATOM      1  C   UNL     1      20.176 207.363  13.001  1.00  0.00     0.048 C 
ATOM      2  C   UNL     1      20.095 206.092  13.801  1.00  0.00    -0.012 C 
ATOM      3  C   UNL     1      19.046 205.267  13.640  1.00  0.00    -0.019 C 
ATOM      4  C   UNL     1      18.906 203.991  14.428  1.00  0.00     0.036 C 
ATOM      5  C   UNL     1      20.284 203.375  14.736  1.00  0.00     0.025 C 
ATOM      6  C   UNL     1      21.183 204.404  15.446  1.00  0.00     0.089 C 
ATOM      7  C   UNL     1      21.230 205.691  14.670  1.00  0.00     0.158 C 
ATOM      8  O   UNL     1      22.231 206.446  14.794  1.00  0.00    -0.295 OA
ENDROOT
BRANCH   5   9
ATOM      9  C   UNL     1      20.158 202.088  15.541  1.00  0.00    -0.077 C 
ATOM     10  C   UNL     1      20.456 202.051  16.851  1.00  0.00     0.008 C 
ATOM     11  C   UNL     1      19.690 200.821  14.872  1.00  0.00     0.039 C 
ENDBRANCH   5   9
TORSDOF 1
ENDMDL
MODEL 6
REMARK VINA RESULT:    -5.260      1.616      2.420
REMARK INTER + INTRA:          -5.663
REMARK INTER:                  -5.566
REMARK INTRA:                  -0.097
REMARK UNBOUND:                -0.096
REMARK SMILES C=C(C)[C@H]1CC=C(C)C(=O)C1
REMARK SMILES IDX 8 1 7 2 6 3 5 4 4 5 11 6 9 7 10 8 2 9 1 10 3 11
REMARK H PARENT
REMARK Flexibility Score: inf
ROOT
ATOM      1  C   UNL     1      19.832 199.709  15.918  1.00  0.00     0.048 C 
ATOM      2  C   UNL     1      19.855 201.095  15.334  1.00  0.00    -0.012 C 
ATOM      3  C   UNL     1      19.287 201.326  14.139  1.00  0.00    -0.019 C 
ATOM      4  C   UNL     1      19.297 202.690  13.500  1.00  0.00     0.036 C 
ATOM      5  C   UNL     1      19.243 203.802  14.566  1.00  0.00     0.025 C 
ATOM      6  C   UNL     1      20.387 203.624  15.582  1.00  0.00     0.089 C 
ATOM      7  C   UNL     1      20.391 202.225  16.134  1.00  0.00     0.158 C 
ATOM      8  O   UNL     1      20.892 202.016  17.271  1.00  0.00    -0.295 OA
ENDROOT
BRANCH   5   9
ATOM      9  C   UNL     1      19.262 205.187  13.934  1.00  0.00    -0.077 C 
ATOM     10  C   UNL     1      19.954 206.199  14.487  1.00  0.00     0.008 C 
ATOM     11  C   UNL     1      18.497 205.449  12.662  1.00  0.00     0.039 C 
ENDBRANCH   5   9
TORSDOF 1
ENDMDL
MODEL 7
REMARK VINA RESULT:    -5.214      1.309      1.566
REMARK INTER + INTRA:          -5.615
REMARK INTER:                  -5.522
REMARK INTRA:                  -0.093
REMARK UNBOUND:                -0.096
REMARK SMILES C=C(C)[C@H]1CC=C(C)C(=O)C1
REMARK SMILES IDX 8 1 7 2 6 3 5 4 4 5 11 6 9 7 10 8 2 9 1 10 3 11
REMARK H PARENT
REMARK Flexibility Score: inf
ROOT
ATOM      1  C   UNL     1      20.007 200.362  16.001  1.00  0.00     0.048 C 
ATOM      2  C   UNL     1      20.153 201.825  15.686  1.00  0.00    -0.012 C 
ATOM      3  C   UNL     1      20.885 202.613  16.492  1.00  0.00    -0.019 C 
ATOM      4  C   UNL     1      21.049 204.087  16.233  1.00  0.00     0.036 C 
ATOM      5  C   UNL     1      21.039 204.390  14.723  1.00  0.00     0.025 C 
ATOM      6  C   UNL     1      19.763 203.822  14.073  1.00  0.00     0.089 C 
ATOM      7  C   UNL     1      19.593 202.369  14.423  1.00  0.00     0.158 C 
ATOM      8  O   UNL     1      18.936 201.624  13.647  1.00  0.00    -0.295 OA
ENDROOT
BRANCH   5   9
ATOM      9  C   UNL     1      21.194 205.880  14.447  1.00  0.00    -0.077 C 
ATOM     10  C   UNL     1      20.165 206.732  14.602  1.00  0.00     0.008 C 
ATOM     11  C   UNL     1      22.522 206.430  13.991  1.00  0.00     0.039 C 
ENDBRANCH   5   9
TORSDOF 1
ENDMDL
MODEL 8
REMARK VINA RESULT:    -5.127      2.124      2.826
REMARK INTER + INTRA:          -5.523
REMARK INTER:                  -5.426
REMARK INTRA:                  -0.097
REMARK UNBOUND:                -0.096
REMARK SMILES C=C(C)[C@H]1CC=C(C)C(=O)C1
REMARK SMILES IDX 8 1 7 2 6 3 5 4 4 5 11 6 9 7 10 8 2 9 1 10 3 11
REMARK H PARENT
REMARK Flexibility Score: inf
ROOT
ATOM      1  C   UNL     1      19.757 201.222  16.003  1.00  0.00     0.048 C 
ATOM      2  C   UNL     1      20.313 202.583  15.686  1.00  0.00    -0.012 C 
ATOM      3  C   UNL     1      21.380 202.698  14.877  1.00  0.00    -0.019 C 
ATOM      4  C   UNL     1      21.987 204.035  14.541  1.00  0.00     0.036 C 
ATOM      5  C   UNL     1      20.913 205.138  14.499  1.00  0.00     0.025 C 
ATOM      6  C   UNL     1      20.128 205.169  15.824  1.00  0.00     0.089 C 
ATOM      7  C   UNL     1      19.608 203.800  16.164  1.00  0.00     0.158 C 
ATOM      8  O   UNL     1      18.586 203.695  16.893  1.00  0.00    -0.295 OA
ENDROOT
BRANCH   5   9
ATOM      9  C   UNL     1      21.514 206.497  14.170  1.00  0.00    -0.077 C 
ATOM     10  C   UNL     1      20.784 207.623  14.248  1.00  0.00     0.008 C 
ATOM     11  C   UNL     1      22.958 206.603  13.748  1.00  0.00     0.039 C 
ENDBRANCH   5   9
TORSDOF 1
ENDMDL
MODEL 9
REMARK VINA RESULT:    -5.104      1.746      2.478
REMARK INTER + INTRA:          -5.498
REMARK INTER:                  -5.407
REMARK INTRA:                  -0.091
REMARK UNBOUND:                -0.096
REMARK SMILES C=C(C)[C@H]1CC=C(C)C(=O)C1
REMARK SMILES IDX 8 1 7 2 6 3 5 4 4 5 11 6 9 7 10 8 2 9 1 10 3 11
REMARK H PARENT
REMARK Flexibility Score: inf
ROOT
ATOM      1  C   UNL     1      20.130 201.216  16.020  1.00  0.00     0.048 C 
ATOM      2  C   UNL     1      20.045 202.702  15.805  1.00  0.00    -0.012 C 
ATOM      3  C   UNL     1      19.059 203.407  16.386  1.00  0.00    -0.019 C 
ATOM      4  C   UNL     1      18.917 204.893  16.189  1.00  0.00     0.036 C 
ATOM      5  C   UNL     1      20.293 205.563  16.015  1.00  0.00     0.025 C 
ATOM      6  C   UNL     1      21.071 204.895  14.866  1.00  0.00     0.089 C 
ATOM      7  C   UNL     1      21.119 203.404  15.058  1.00  0.00     0.158 C 
ATOM      8  O   UNL     1      22.065 202.750  14.542  1.00  0.00    -0.295 OA
ENDROOT
BRANCH   5   9
ATOM      9  C   UNL     1      20.164 207.066  15.806  1.00  0.00    -0.077 C 
ATOM     10  C   UNL     1      19.759 207.879  16.798  1.00  0.00     0.008 C 
ATOM     11  C   UNL     1      20.494 207.675  14.467  1.00  0.00     0.039 C 
ENDBRANCH   5   9
TORSDOF 1
ENDMDL
