MODEL 1
REMARK VINA RESULT:    -4.688      0.000      0.000
REMARK INTER + INTRA:          -5.296
REMARK INTER:                  -5.099
REMARK INTRA:                  -0.197
REMARK UNBOUND:                -0.197
REMARK SMILES Cc1ccc(C(C)C)c(O)c1
REMARK SMILES IDX 1 1 2 2 11 3 9 4 5 5 4 6 3 7 10 8 6 10 7 11 8 12
REMARK H PARENT 10 9
REMARK Flexibility Score: inf
ROOT
ATOM      1  C   UNL     1     -12.342   1.904   9.736  1.00  0.00     0.044 C 
ATOM      2  C   UNL     1     -11.899   2.936   8.741  1.00  0.00    -0.047 A 
ATOM      3  C   UNL     1     -11.821   2.617   7.379  1.00  0.00     0.049 A 
ATOM      4  C   UNL     1     -11.445   3.586   6.438  1.00  0.00     0.119 A 
ATOM      5  C   UNL     1     -11.150   4.903   6.858  1.00  0.00    -0.004 A 
ATOM      6  C   UNL     1     -11.252   5.217   8.227  1.00  0.00     0.008 A 
ATOM      7  C   UNL     1     -11.628   4.246   9.157  1.00  0.00     0.004 A 
ENDROOT
BRANCH   4   8
ATOM      8  O   UNL     1     -11.365   3.239   5.088  1.00  0.00    -0.508 OA
ATOM      9  H   UNL     1     -11.245   2.277   4.793  1.00  0.00     0.293 HD
ENDBRANCH   4   8
BRANCH   5  10
ATOM     10  C   UNL     1     -10.739   5.972   5.856  1.00  0.00     0.017 C 
ATOM     11  C   UNL     1     -11.809   7.066   5.747  1.00  0.00     0.012 C 
ATOM     12  C   UNL     1      -9.373   6.571   6.215  1.00  0.00     0.012 C 
ENDBRANCH   5  10
TORSDOF 2
ENDMDL
MODEL 2
REMARK VINA RESULT:    -4.591      1.618      2.348
REMARK INTER + INTRA:          -5.191
REMARK INTER:                  -4.994
REMARK INTRA:                  -0.197
REMARK UNBOUND:                -0.197
REMARK SMILES Cc1ccc(C(C)C)c(O)c1
REMARK SMILES IDX 1 1 2 2 11 3 9 4 5 5 4 6 3 7 10 8 6 10 7 11 8 12
REMARK H PARENT 10 9
REMARK Flexibility Score: inf
ROOT
ATOM      1  C   UNL     1     -12.481   1.489   9.803  1.00  0.00     0.044 C 
ATOM      2  C   UNL     1     -12.139   2.612   8.869  1.00  0.00    -0.047 A 
ATOM      3  C   UNL     1     -11.330   3.670   9.303  1.00  0.00     0.049 A 
ATOM      4  C   UNL     1     -10.974   4.705   8.426  1.00  0.00     0.119 A 
ATOM      5  C   UNL     1     -11.421   4.681   7.086  1.00  0.00    -0.004 A 
ATOM      6  C   UNL     1     -12.216   3.601   6.655  1.00  0.00     0.008 A 
ATOM      7  C   UNL     1     -12.565   2.575   7.536  1.00  0.00     0.004 A 
ENDROOT
BRANCH   4   8
ATOM      8  O   UNL     1     -10.176   5.753   8.887  1.00  0.00    -0.508 OA
ATOM      9  H   UNL     1      -9.494   6.205   8.289  1.00  0.00     0.293 HD
ENDBRANCH   4   8
BRANCH   5  10
ATOM     10  C   UNL     1     -11.048   5.792   6.115  1.00  0.00     0.017 C 
ATOM     11  C   UNL     1     -10.354   5.226   4.870  1.00  0.00     0.012 C 
ATOM     12  C   UNL     1     -12.277   6.626   5.730  1.00  0.00     0.012 C 
ENDBRANCH   5  10
TORSDOF 2
ENDMDL
MODEL 3
REMARK VINA RESULT:    -4.527      1.800      4.036
REMARK INTER + INTRA:          -5.121
REMARK INTER:                  -5.092
REMARK INTRA:                  -0.029
REMARK UNBOUND:                -0.197
REMARK SMILES Cc1ccc(C(C)C)c(O)c1
REMARK SMILES IDX 1 1 2 2 11 3 9 4 5 5 4 6 3 7 10 8 6 10 7 11 8 12
REMARK H PARENT 10 9
REMARK Flexibility Score: inf
ROOT
ATOM      1  C   UNL     1     -12.842   4.114   3.739  1.00  0.00     0.044 C 
ATOM      2  C   UNL     1     -12.441   4.019   5.181  1.00  0.00    -0.047 A 
ATOM      3  C   UNL     1     -11.413   4.828   5.684  1.00  0.00     0.049 A 
ATOM      4  C   UNL     1     -11.057   4.774   7.039  1.00  0.00     0.119 A 
ATOM      5  C   UNL     1     -11.744   3.904   7.916  1.00  0.00    -0.004 A 
ATOM      6  C   UNL     1     -12.789   3.111   7.404  1.00  0.00     0.008 A 
ATOM      7  C   UNL     1     -13.137   3.173   6.053  1.00  0.00     0.004 A 
ENDROOT
BRANCH   4   8
ATOM      8  O   UNL     1     -10.023   5.583   7.511  1.00  0.00    -0.508 OA
ATOM      9  H   UNL     1     -10.093   6.075   8.395  1.00  0.00     0.293 HD
ENDBRANCH   4   8
BRANCH   5  10
ATOM     10  C   UNL     1     -11.376   3.827   9.391  1.00  0.00     0.017 C 
ATOM     11  C   UNL     1     -11.766   5.117  10.125  1.00  0.00     0.012 C 
ATOM     12  C   UNL     1     -12.013   2.601  10.056  1.00  0.00     0.012 C 
ENDBRANCH   5  10
TORSDOF 2
ENDMDL
MODEL 4
REMARK VINA RESULT:    -4.477      2.014      3.946
REMARK INTER + INTRA:          -5.066
REMARK INTER:                  -4.909
REMARK INTRA:                  -0.157
REMARK UNBOUND:                -0.197
REMARK SMILES Cc1ccc(C(C)C)c(O)c1
REMARK SMILES IDX 1 1 2 2 11 3 9 4 5 5 4 6 3 7 10 8 6 10 7 11 8 12
REMARK H PARENT 10 9
REMARK Flexibility Score: inf
ROOT
ATOM      1  C   UNL     1     -14.213   4.857   3.368  1.00  0.00     0.044 C 
ATOM      2  C   UNL     1     -13.504   4.498   4.641  1.00  0.00    -0.047 A 
ATOM      3  C   UNL     1     -12.733   3.331   4.714  1.00  0.00     0.049 A 
ATOM      4  C   UNL     1     -12.036   3.006   5.887  1.00  0.00     0.119 A 
ATOM      5  C   UNL     1     -12.097   3.866   7.007  1.00  0.00    -0.004 A 
ATOM      6  C   UNL     1     -12.859   5.048   6.914  1.00  0.00     0.008 A 
ATOM      7  C   UNL     1     -13.549   5.363   5.742  1.00  0.00     0.004 A 
ENDROOT
BRANCH   4   8
ATOM      8  O   UNL     1     -11.284   1.832   5.938  1.00  0.00    -0.508 OA
ATOM      9  H   UNL     1     -10.567   1.629   5.250  1.00  0.00     0.293 HD
ENDBRANCH   4   8
BRANCH   5  10
ATOM     10  C   UNL     1     -11.350   3.536   8.291  1.00  0.00     0.017 C 
ATOM     11  C   UNL     1     -11.031   4.809   9.085  1.00  0.00     0.012 C 
ATOM     12  C   UNL     1     -12.136   2.536   9.147  1.00  0.00     0.012 C 
ENDBRANCH   5  10
TORSDOF 2
ENDMDL
MODEL 5
REMARK VINA RESULT:    -4.444      2.050      2.826
REMARK INTER + INTRA:          -5.030
REMARK INTER:                  -4.834
REMARK INTRA:                  -0.197
REMARK UNBOUND:                -0.197
REMARK SMILES Cc1ccc(C(C)C)c(O)c1
REMARK SMILES IDX 1 1 2 2 11 3 9 4 5 5 4 6 3 7 10 8 6 10 7 11 8 12
REMARK H PARENT 10 9
REMARK Flexibility Score: inf
ROOT
ATOM      1  C   UNL     1     -11.633   2.622   9.956  1.00  0.00     0.044 C 
ATOM      2  C   UNL     1     -12.027   3.313   8.685  1.00  0.00    -0.047 A 
ATOM      3  C   UNL     1     -11.445   4.540   8.338  1.00  0.00     0.049 A 
ATOM      4  C   UNL     1     -11.780   5.175   7.133  1.00  0.00     0.119 A 
ATOM      5  C   UNL     1     -12.704   4.573   6.249  1.00  0.00    -0.004 A 
ATOM      6  C   UNL     1     -13.266   3.330   6.599  1.00  0.00     0.008 A 
ATOM      7  C   UNL     1     -12.926   2.705   7.800  1.00  0.00     0.004 A 
ENDROOT
BRANCH   4   8
ATOM      8  O   UNL     1     -11.194   6.401   6.817  1.00  0.00    -0.508 OA
ATOM      9  H   UNL     1     -11.652   7.069   6.207  1.00  0.00     0.293 HD
ENDBRANCH   4   8
BRANCH   5  10
ATOM     10  C   UNL     1     -13.083   5.243   4.936  1.00  0.00     0.017 C 
ATOM     11  C   UNL     1     -13.340   4.201   3.840  1.00  0.00     0.012 C 
ATOM     12  C   UNL     1     -14.296   6.164   5.115  1.00  0.00     0.012 C 
ENDBRANCH   5  10
TORSDOF 2
ENDMDL
MODEL 6
REMARK VINA RESULT:    -4.261      1.635      4.495
REMARK INTER + INTRA:          -4.832
REMARK INTER:                  -4.633
REMARK INTRA:                  -0.199
REMARK UNBOUND:                -0.197
REMARK SMILES Cc1ccc(C(C)C)c(O)c1
REMARK SMILES IDX 1 1 2 2 11 3 9 4 5 5 4 6 3 7 10 8 6 10 7 11 8 12
REMARK H PARENT 10 9
REMARK Flexibility Score: inf
ROOT
ATOM      1  C   UNL     1      -9.184   8.370   5.214  1.00  0.00     0.044 C 
ATOM      2  C   UNL     1     -10.020   7.207   5.660  1.00  0.00    -0.047 A 
ATOM      3  C   UNL     1     -11.414   7.246   5.525  1.00  0.00     0.049 A 
ATOM      4  C   UNL     1     -12.200   6.148   5.904  1.00  0.00     0.119 A 
ATOM      5  C   UNL     1     -11.588   4.983   6.418  1.00  0.00    -0.004 A 
ATOM      6  C   UNL     1     -10.184   4.947   6.529  1.00  0.00     0.008 A 
ATOM      7  C   UNL     1      -9.409   6.045   6.148  1.00  0.00     0.004 A 
ENDROOT
BRANCH   4   8
ATOM      8  O   UNL     1     -13.588   6.218   5.770  1.00  0.00    -0.508 OA
ATOM      9  H   UNL     1     -14.206   6.102   6.565  1.00  0.00     0.293 HD
ENDBRANCH   4   8
BRANCH   5  10
ATOM     10  C   UNL     1     -12.419   3.779   6.836  1.00  0.00     0.017 C 
ATOM     11  C   UNL     1     -12.296   2.642   5.814  1.00  0.00     0.012 C 
ATOM     12  C   UNL     1     -12.033   3.302   8.241  1.00  0.00     0.012 C 
ENDBRANCH   5  10
TORSDOF 2
ENDMDL
MODEL 7
REMARK VINA RESULT:    -4.260      2.209      4.181
REMARK INTER + INTRA:          -4.830
REMARK INTER:                  -4.638
REMARK INTRA:                  -0.192
REMARK UNBOUND:                -0.197
REMARK SMILES Cc1ccc(C(C)C)c(O)c1
REMARK SMILES IDX 1 1 2 2 11 3 9 4 5 5 4 6 3 7 10 8 6 10 7 11 8 12
REMARK H PARENT 10 9
REMARK Flexibility Score: inf
ROOT
ATOM      1  C   UNL     1     -15.635   7.665   4.835  1.00  0.00     0.044 C 
ATOM      2  C   UNL     1     -14.441   6.808   5.138  1.00  0.00    -0.047 A 
ATOM      3  C   UNL     1     -14.278   5.572   4.498  1.00  0.00     0.049 A 
ATOM      4  C   UNL     1     -13.147   4.782   4.748  1.00  0.00     0.119 A 
ATOM      5  C   UNL     1     -12.151   5.234   5.643  1.00  0.00    -0.004 A 
ATOM      6  C   UNL     1     -12.316   6.487   6.264  1.00  0.00     0.008 A 
ATOM      7  C   UNL     1     -13.445   7.268   6.009  1.00  0.00     0.004 A 
ENDROOT
BRANCH   4   8
ATOM      8  O   UNL     1     -13.014   3.550   4.105  1.00  0.00    -0.508 OA
ATOM      9  H   UNL     1     -12.162   3.291   3.622  1.00  0.00     0.293 HD
ENDBRANCH   4   8
BRANCH   5  10
ATOM     10  C   UNL     1     -10.915   4.394   5.930  1.00  0.00     0.017 C 
ATOM     11  C   UNL     1      -9.697   5.284   6.208  1.00  0.00     0.012 C 
ATOM     12  C   UNL     1     -11.163   3.422   7.089  1.00  0.00     0.012 C 
ENDBRANCH   5  10
TORSDOF 2
ENDMDL
MODEL 8
REMARK VINA RESULT:    -4.184      1.157      4.197
REMARK INTER + INTRA:          -4.748
REMARK INTER:                  -4.636
REMARK INTRA:                  -0.112
REMARK UNBOUND:                -0.197
REMARK SMILES Cc1ccc(C(C)C)c(O)c1
REMARK SMILES IDX 1 1 2 2 11 3 9 4 5 5 4 6 3 7 10 8 6 10 7 11 8 12
REMARK H PARENT 10 9
REMARK Flexibility Score: inf
ROOT
ATOM      1  C   UNL     1      -8.950   7.703   5.179  1.00  0.00     0.044 C 
ATOM      2  C   UNL     1      -9.711   6.503   5.658  1.00  0.00    -0.047 A 
ATOM      3  C   UNL     1     -10.072   5.491   4.759  1.00  0.00     0.049 A 
ATOM      4  C   UNL     1     -10.751   4.347   5.204  1.00  0.00     0.119 A 
ATOM      5  C   UNL     1     -11.068   4.201   6.573  1.00  0.00    -0.004 A 
ATOM      6  C   UNL     1     -10.682   5.216   7.471  1.00  0.00     0.008 A 
ATOM      7  C   UNL     1     -10.005   6.350   7.019  1.00  0.00     0.004 A 
ENDROOT
BRANCH   4   8
ATOM      8  O   UNL     1     -11.108   3.359   4.286  1.00  0.00    -0.508 OA
ATOM      9  H   UNL     1     -10.770   2.407   4.370  1.00  0.00     0.293 HD
ENDBRANCH   4   8
BRANCH   5  10
ATOM     10  C   UNL     1     -11.805   2.970   7.081  1.00  0.00     0.017 C 
ATOM     11  C   UNL     1     -11.598   2.787   8.590  1.00  0.00     0.012 C 
ATOM     12  C   UNL     1     -13.297   3.035   6.733  1.00  0.00     0.012 C 
ENDBRANCH   5  10
TORSDOF 2
ENDMDL
MODEL 9
REMARK VINA RESULT:    -4.108      1.996      4.598
REMARK INTER + INTRA:          -4.665
REMARK INTER:                  -4.466
REMARK INTRA:                  -0.199
REMARK UNBOUND:                -0.197
REMARK SMILES Cc1ccc(C(C)C)c(O)c1
REMARK SMILES IDX 1 1 2 2 11 3 9 4 5 5 4 6 3 7 10 8 6 10 7 11 8 12
REMARK H PARENT 10 9
REMARK Flexibility Score: inf
ROOT
ATOM      1  C   UNL     1     -14.282   8.433   5.120  1.00  0.00     0.044 C 
ATOM      2  C   UNL     1     -13.567   7.154   5.441  1.00  0.00    -0.047 A 
ATOM      3  C   UNL     1     -12.283   7.183   6.003  1.00  0.00     0.049 A 
ATOM      4  C   UNL     1     -11.623   5.994   6.341  1.00  0.00     0.119 A 
ATOM      5  C   UNL     1     -12.255   4.748   6.128  1.00  0.00    -0.004 A 
ATOM      6  C   UNL     1     -13.553   4.732   5.582  1.00  0.00     0.008 A 
ATOM      7  C   UNL     1     -14.204   5.921   5.249  1.00  0.00     0.004 A 
ENDROOT
BRANCH   4   8
ATOM      8  O   UNL     1     -10.340   6.051   6.889  1.00  0.00    -0.508 OA
ATOM      9  H   UNL     1      -9.537   6.328   6.336  1.00  0.00     0.293 HD
ENDBRANCH   4   8
BRANCH   5  10
ATOM     10  C   UNL     1     -11.559   3.443   6.487  1.00  0.00     0.017 C 
ATOM     11  C   UNL     1     -11.914   3.004   7.913  1.00  0.00     0.012 C 
ATOM     12  C   UNL     1     -11.890   2.342   5.472  1.00  0.00     0.012 C 
ENDBRANCH   5  10
TORSDOF 2
ENDMDL
