MODEL 1
REMARK VINA RESULT:    -3.841      0.000      0.000
REMARK INTER + INTRA:         -13.248
REMARK INTER:                 -10.127
REMARK INTRA:                  -3.121
REMARK UNBOUND:                -3.121
REMARK SMILES CCCCCCCCCCCCCCCCCCCCCCCCCCCCCC(=O)[O-]
REMARK SMILES IDX 16 1 17 2 18 3 19 4 20 5 21 6 22 7 23 8 24 9 25 10 26 11
REMARK SMILES IDX 27 12 28 13 29 14 30 15 31 16 32 17 15 18 14 19 13 20 12 21
REMARK SMILES IDX 11 22 10 23 9 24 8 25 7 26 6 27 5 28 4 29 3 30 2 31 1 32
REMARK H PARENT
REMARK Flexibility Score: inf
ROOT
ATOM      1  C   UNL     1      21.249 -18.992 -18.240  1.00  0.00     0.000 C 
ENDROOT
BRANCH   1   2
ATOM      2  C   UNL     1      20.472 -20.037 -19.067  1.00  0.00     0.000 C 
BRANCH   2   3
ATOM      3  C   UNL     1      21.381 -21.161 -19.595  1.00  0.00     0.000 C 
BRANCH   3   4
ATOM      4  C   UNL     1      20.585 -22.248 -20.349  1.00  0.00     0.000 C 
BRANCH   4   5
ATOM      5  C   UNL     1      19.474 -22.897 -19.505  1.00  0.00     0.000 C 
BRANCH   5   6
ATOM      6  C   UNL     1      18.972 -24.221 -20.095  1.00  0.00     0.000 C 
BRANCH   6   7
ATOM      7  C   UNL     1      17.579 -24.571 -19.557  1.00  0.00     0.000 C 
BRANCH   7   8
ATOM      8  C   UNL     1      17.207 -23.677 -18.366  1.00  0.00     0.000 C 
BRANCH   8   9
ATOM      9  C   UNL     1      15.804 -23.969 -17.811  1.00  0.00     0.000 C 
BRANCH   9  10
ATOM     10  C   UNL     1      15.025 -22.702 -17.395  1.00  0.00     0.000 C 
BRANCH  10  11
ATOM     11  C   UNL     1      13.881 -22.377 -18.366  1.00  0.00     0.000 C 
BRANCH  11  12
ATOM     12  C   UNL     1      13.963 -23.247 -19.626  1.00  0.00     0.000 C 
BRANCH  12  13
ATOM     13  C   UNL     1      14.540 -22.451 -20.806  1.00  0.00     0.006 C 
BRANCH  13  14
ATOM     14  C   UNL     1      14.305 -20.942 -20.656  1.00  0.00     0.053 C 
BRANCH  14  15
ATOM     15  C   UNL     1      15.596 -20.186 -20.572  1.00  0.00     0.041 C 
ATOM     16  O   UNL     1      16.682 -20.802 -20.406  1.00  0.00    -0.550 OA
ATOM     17  O   UNL     1      15.602 -18.801 -20.695  1.00  0.00    -0.550 OA
ENDBRANCH  14  15
ENDBRANCH  13  14
ENDBRANCH  12  13
ENDBRANCH  11  12
ENDBRANCH  10  11
ENDBRANCH   9  10
ENDBRANCH   8   9
ENDBRANCH   7   8
ENDBRANCH   6   7
ENDBRANCH   5   6
ENDBRANCH   4   5
ENDBRANCH   3   4
ENDBRANCH   2   3
ENDBRANCH   1   2
BRANCH   1  18
ATOM     18  C   UNL     1      21.934 -19.579 -16.994  1.00  0.00     0.000 C 
BRANCH  18  19
ATOM     19  C   UNL     1      23.404 -19.144 -16.862  1.00  0.00     0.000 C 
BRANCH  19  20
ATOM     20  C   UNL     1      24.224 -19.470 -18.121  1.00  0.00     0.000 C 
BRANCH  20  21
ATOM     21  C   UNL     1      24.576 -18.210 -18.932  1.00  0.00     0.000 C 
BRANCH  21  22
ATOM     22  C   UNL     1      24.711 -16.960 -18.051  1.00  0.00     0.000 C 
BRANCH  22  23
ATOM     23  C   UNL     1      23.797 -15.809 -18.504  1.00  0.00     0.000 C 
BRANCH  23  24
ATOM     24  C   UNL     1      23.179 -15.042 -17.323  1.00  0.00    -0.000 C 
BRANCH  24  25
ATOM     25  C   UNL     1      22.243 -15.881 -16.430  1.00  0.00    -0.000 C 
BRANCH  25  26
ATOM     26  C   UNL     1      20.837 -15.266 -16.250  1.00  0.00    -0.000 C 
BRANCH  26  27
ATOM     27  C   UNL     1      19.725 -16.329 -16.297  1.00  0.00    -0.000 C 
BRANCH  27  28
ATOM     28  C   UNL     1      19.044 -16.538 -14.932  1.00  0.00    -0.000 C 
BRANCH  28  29
ATOM     29  C   UNL     1      17.907 -15.544 -14.633  1.00  0.00    -0.000 C 
BRANCH  29  30
ATOM     30  C   UNL     1      16.707 -15.715 -15.582  1.00  0.00    -0.000 C 
BRANCH  30  31
ATOM     31  C   UNL     1      16.674 -14.653 -16.692  1.00  0.00    -0.003 C 
ATOM     32  C   UNL     1      15.699 -14.998 -17.817  1.00  0.00     0.004 C 
ENDBRANCH  30  31
ENDBRANCH  29  30
ENDBRANCH  28  29
ENDBRANCH  27  28
ENDBRANCH  26  27
ENDBRANCH  25  26
ENDBRANCH  24  25
ENDBRANCH  23  24
ENDBRANCH  22  23
ENDBRANCH  21  22
ENDBRANCH  20  21
ENDBRANCH  19  20
ENDBRANCH  18  19
ENDBRANCH   1  18
TORSDOF 28
ENDMDL
MODEL 2
REMARK VINA RESULT:    -2.955      6.738     11.768
REMARK INTER + INTRA:         -10.913
REMARK INTER:                  -9.387
REMARK INTRA:                  -1.526
REMARK UNBOUND:                -3.121
REMARK SMILES CCCCCCCCCCCCCCCCCCCCCCCCCCCCCC(=O)[O-]
REMARK SMILES IDX 16 1 17 2 18 3 19 4 20 5 21 6 22 7 23 8 24 9 25 10 26 11
REMARK SMILES IDX 27 12 28 13 29 14 30 15 31 16 32 17 15 18 14 19 13 20 12 21
REMARK SMILES IDX 11 22 10 23 9 24 8 25 7 26 6 27 5 28 4 29 3 30 2 31 1 32
REMARK H PARENT
REMARK Flexibility Score: inf
ROOT
ATOM      1  C   UNL     1      14.016 -21.861 -14.837  1.00  0.00     0.000 C 
ENDROOT
BRANCH   1   2
ATOM      2  C   UNL     1      14.393 -22.021 -16.326  1.00  0.00     0.000 C 
BRANCH   2   3
ATOM      3  C   UNL     1      14.961 -23.416 -16.640  1.00  0.00     0.000 C 
BRANCH   3   4
ATOM      4  C   UNL     1      14.566 -23.902 -18.050  1.00  0.00     0.000 C 
BRANCH   4   5
ATOM      5  C   UNL     1      15.757 -24.400 -18.887  1.00  0.00     0.000 C 
BRANCH   5   6
ATOM      6  C   UNL     1      16.941 -23.424 -18.882  1.00  0.00     0.000 C 
BRANCH   6   7
ATOM      7  C   UNL     1      18.238 -24.128 -19.300  1.00  0.00     0.000 C 
BRANCH   7   8
ATOM      8  C   UNL     1      19.123 -23.199 -20.143  1.00  0.00     0.000 C 
BRANCH   8   9
ATOM      9  C   UNL     1      20.220 -22.504 -19.319  1.00  0.00     0.000 C 
BRANCH   9  10
ATOM     10  C   UNL     1      20.742 -21.200 -19.958  1.00  0.00     0.000 C 
BRANCH  10  11
ATOM     11  C   UNL     1      20.681 -20.011 -18.988  1.00  0.00     0.000 C 
BRANCH  11  12
ATOM     12  C   UNL     1      21.736 -20.145 -17.883  1.00  0.00     0.000 C 
BRANCH  12  13
ATOM     13  C   UNL     1      21.398 -19.240 -16.689  1.00  0.00     0.006 C 
BRANCH  13  14
ATOM     14  C   UNL     1      20.913 -17.854 -17.133  1.00  0.00     0.053 C 
BRANCH  14  15
ATOM     15  C   UNL     1      22.059 -16.929 -17.411  1.00  0.00     0.041 C 
ATOM     16  O   UNL     1      22.809 -17.128 -18.403  1.00  0.00    -0.550 OA
ATOM     17  O   UNL     1      22.288 -15.835 -16.584  1.00  0.00    -0.550 OA
ENDBRANCH  14  15
ENDBRANCH  13  14
ENDBRANCH  12  13
ENDBRANCH  11  12
ENDBRANCH  10  11
ENDBRANCH   9  10
ENDBRANCH   8   9
ENDBRANCH   7   8
ENDBRANCH   6   7
ENDBRANCH   5   6
ENDBRANCH   4   5
ENDBRANCH   3   4
ENDBRANCH   2   3
ENDBRANCH   1   2
BRANCH   1  18
ATOM     18  C   UNL     1      12.773 -20.984 -14.609  1.00  0.00     0.000 C 
BRANCH  18  19
ATOM     19  C   UNL     1      11.837 -20.949 -15.829  1.00  0.00     0.000 C 
BRANCH  19  20
ATOM     20  C   UNL     1      10.501 -20.252 -15.520  1.00  0.00     0.000 C 
BRANCH  20  21
ATOM     21  C   UNL     1       9.324 -20.876 -16.289  1.00  0.00     0.000 C 
BRANCH  21  22
ATOM     22  C   UNL     1       8.191 -21.338 -15.362  1.00  0.00     0.000 C 
BRANCH  22  23
ATOM     23  C   UNL     1       6.901 -20.521 -15.542  1.00  0.00     0.000 C 
BRANCH  23  24
ATOM     24  C   UNL     1       6.305 -20.051 -14.205  1.00  0.00    -0.000 C 
BRANCH  24  25
ATOM     25  C   UNL     1       5.049 -20.822 -13.753  1.00  0.00    -0.000 C 
BRANCH  25  26
ATOM     26  C   UNL     1       5.214 -21.542 -12.396  1.00  0.00    -0.000 C 
BRANCH  26  27
ATOM     27  C   UNL     1       5.858 -22.932 -12.548  1.00  0.00    -0.000 C 
BRANCH  27  28
ATOM     28  C   UNL     1       5.275 -23.968 -11.568  1.00  0.00    -0.000 C 
BRANCH  28  29
ATOM     29  C   UNL     1       6.090 -24.144 -10.274  1.00  0.00    -0.000 C 
BRANCH  29  30
ATOM     30  C   UNL     1       5.390 -23.534  -9.046  1.00  0.00    -0.000 C 
BRANCH  30  31
ATOM     31  C   UNL     1       6.361 -22.777  -8.127  1.00  0.00    -0.003 C 
ATOM     32  C   UNL     1       6.413 -21.279  -8.422  1.00  0.00     0.004 C 
ENDBRANCH  30  31
ENDBRANCH  29  30
ENDBRANCH  28  29
ENDBRANCH  27  28
ENDBRANCH  26  27
ENDBRANCH  25  26
ENDBRANCH  24  25
ENDBRANCH  23  24
ENDBRANCH  22  23
ENDBRANCH  21  22
ENDBRANCH  20  21
ENDBRANCH  19  20
ENDBRANCH  18  19
ENDBRANCH   1  18
TORSDOF 28
ENDMDL
MODEL 3
REMARK VINA RESULT:    -2.788      1.772      6.973
REMARK INTER + INTRA:         -10.474
REMARK INTER:                  -8.531
REMARK INTRA:                  -1.942
REMARK UNBOUND:                -3.121
REMARK SMILES CCCCCCCCCCCCCCCCCCCCCCCCCCCCCC(=O)[O-]
REMARK SMILES IDX 16 1 17 2 18 3 19 4 20 5 21 6 22 7 23 8 24 9 25 10 26 11
REMARK SMILES IDX 27 12 28 13 29 14 30 15 31 16 32 17 15 18 14 19 13 20 12 21
REMARK SMILES IDX 11 22 10 23 9 24 8 25 7 26 6 27 5 28 4 29 3 30 2 31 1 32
REMARK H PARENT
REMARK Flexibility Score: inf
ROOT
ATOM      1  C   UNL     1      23.285 -19.208 -18.502  1.00  0.00     0.000 C 
ENDROOT
BRANCH   1   2
ATOM      2  C   UNL     1      22.403 -19.599 -17.297  1.00  0.00     0.000 C 
BRANCH   2   3
ATOM      3  C   UNL     1      21.152 -18.712 -17.173  1.00  0.00     0.000 C 
BRANCH   3   4
ATOM      4  C   UNL     1      21.466 -17.223 -17.431  1.00  0.00     0.000 C 
BRANCH   4   5
ATOM      5  C   UNL     1      20.704 -16.262 -16.500  1.00  0.00     0.000 C 
BRANCH   5   6
ATOM      6  C   UNL     1      19.273 -16.728 -16.203  1.00  0.00     0.000 C 
BRANCH   6   7
ATOM      7  C   UNL     1      18.474 -15.631 -15.488  1.00  0.00     0.000 C 
BRANCH   7   8
ATOM      8  C   UNL     1      16.980 -15.728 -15.827  1.00  0.00     0.000 C 
BRANCH   8   9
ATOM      9  C   UNL     1      16.549 -14.745 -16.928  1.00  0.00     0.000 C 
BRANCH   9  10
ATOM     10  C   UNL     1      15.528 -15.338 -17.923  1.00  0.00     0.000 C 
BRANCH  10  11
ATOM     11  C   UNL     1      15.495 -14.568 -19.251  1.00  0.00     0.000 C 
BRANCH  11  12
ATOM     12  C   UNL     1      15.867 -15.481 -20.427  1.00  0.00     0.000 C 
BRANCH  12  13
ATOM     13  C   UNL     1      14.914 -16.682 -20.513  1.00  0.00     0.006 C 
BRANCH  13  14
ATOM     14  C   UNL     1      15.644 -17.972 -20.911  1.00  0.00     0.053 C 
BRANCH  14  15
ATOM     15  C   UNL     1      14.759 -19.174 -20.775  1.00  0.00     0.041 C 
ATOM     16  O   UNL     1      15.262 -20.313 -20.582  1.00  0.00    -0.550 OA
ATOM     17  O   UNL     1      13.378 -19.035 -20.843  1.00  0.00    -0.550 OA
ENDBRANCH  14  15
ENDBRANCH  13  14
ENDBRANCH  12  13
ENDBRANCH  11  12
ENDBRANCH  10  11
ENDBRANCH   9  10
ENDBRANCH   8   9
ENDBRANCH   7   8
ENDBRANCH   6   7
ENDBRANCH   5   6
ENDBRANCH   4   5
ENDBRANCH   3   4
ENDBRANCH   2   3
ENDBRANCH   1   2
BRANCH   1  18
ATOM     18  C   UNL     1      24.026 -20.399 -19.134  1.00  0.00     0.000 C 
BRANCH  18  19
ATOM     19  C   UNL     1      23.290 -20.976 -20.356  1.00  0.00     0.000 C 
BRANCH  19  20
ATOM     20  C   UNL     1      21.855 -21.414 -20.019  1.00  0.00     0.000 C 
BRANCH  20  21
ATOM     21  C   UNL     1      21.584 -22.879 -20.406  1.00  0.00     0.000 C 
BRANCH  21  22
ATOM     22  C   UNL     1      20.101 -23.259 -20.278  1.00  0.00     0.000 C 
BRANCH  22  23
ATOM     23  C   UNL     1      19.375 -22.464 -19.179  1.00  0.00     0.000 C 
BRANCH  23  24
ATOM     24  C   UNL     1      17.847 -22.626 -19.243  1.00  0.00    -0.000 C 
BRANCH  24  25
ATOM     25  C   UNL     1      17.310 -23.922 -18.602  1.00  0.00    -0.000 C 
BRANCH  25  26
ATOM     26  C   UNL     1      16.035 -24.471 -19.280  1.00  0.00    -0.000 C 
BRANCH  26  27
ATOM     27  C   UNL     1      14.759 -24.119 -18.496  1.00  0.00    -0.000 C 
BRANCH  27  28
ATOM     28  C   UNL     1      15.051 -23.690 -17.045  1.00  0.00    -0.000 C 
BRANCH  28  29
ATOM     29  C   UNL     1      14.627 -22.247 -16.714  1.00  0.00    -0.000 C 
BRANCH  29  30
ATOM     30  C   UNL     1      14.591 -21.974 -15.199  1.00  0.00    -0.000 C 
BRANCH  30  31
ATOM     31  C   UNL     1      13.211 -21.503 -14.716  1.00  0.00    -0.003 C 
ATOM     32  C   UNL     1      13.294 -20.383 -13.680  1.00  0.00     0.004 C 
ENDBRANCH  30  31
ENDBRANCH  29  30
ENDBRANCH  28  29
ENDBRANCH  27  28
ENDBRANCH  26  27
ENDBRANCH  25  26
ENDBRANCH  24  25
ENDBRANCH  23  24
ENDBRANCH  22  23
ENDBRANCH  21  22
ENDBRANCH  20  21
ENDBRANCH  19  20
ENDBRANCH  18  19
ENDBRANCH   1  18
TORSDOF 28
ENDMDL
MODEL 4
REMARK VINA RESULT:    -2.771      2.248      8.340
REMARK INTER + INTRA:         -10.428
REMARK INTER:                  -8.302
REMARK INTRA:                  -2.126
REMARK UNBOUND:                -3.121
REMARK SMILES CCCCCCCCCCCCCCCCCCCCCCCCCCCCCC(=O)[O-]
REMARK SMILES IDX 16 1 17 2 18 3 19 4 20 5 21 6 22 7 23 8 24 9 25 10 26 11
REMARK SMILES IDX 27 12 28 13 29 14 30 15 31 16 32 17 15 18 14 19 13 20 12 21
REMARK SMILES IDX 11 22 10 23 9 24 8 25 7 26 6 27 5 28 4 29 3 30 2 31 1 32
REMARK H PARENT
REMARK Flexibility Score: inf
ROOT
ATOM      1  C   UNL     1      18.593 -19.679 -20.399  1.00  0.00     0.000 C 
ENDROOT
BRANCH   1   2
ATOM      2  C   UNL     1      20.069 -19.300 -20.152  1.00  0.00     0.000 C 
BRANCH   2   3
ATOM      3  C   UNL     1      20.382 -19.109 -18.658  1.00  0.00     0.000 C 
BRANCH   3   4
ATOM      4  C   UNL     1      21.530 -20.024 -18.181  1.00  0.00     0.000 C 
BRANCH   4   5
ATOM      5  C   UNL     1      22.305 -19.463 -16.975  1.00  0.00     0.000 C 
BRANCH   5   6
ATOM      6  C   UNL     1      23.717 -18.988 -17.341  1.00  0.00     0.000 C 
BRANCH   6   7
ATOM      7  C   UNL     1      24.527 -18.647 -16.083  1.00  0.00     0.000 C 
BRANCH   7   8
ATOM      8  C   UNL     1      24.855 -17.148 -16.029  1.00  0.00     0.000 C 
BRANCH   8   9
ATOM      9  C   UNL     1      24.279 -16.364 -17.220  1.00  0.00     0.000 C 
BRANCH   9  10
ATOM     10  C   UNL     1      23.209 -15.326 -16.820  1.00  0.00     0.000 C 
BRANCH  10  11
ATOM     11  C   UNL     1      21.794 -15.758 -17.233  1.00  0.00     0.000 C 
BRANCH  11  12
ATOM     12  C   UNL     1      20.788 -15.504 -16.104  1.00  0.00     0.000 C 
BRANCH  12  13
ATOM     13  C   UNL     1      19.660 -16.546 -16.129  1.00  0.00     0.006 C 
BRANCH  13  14
ATOM     14  C   UNL     1      18.458 -16.117 -15.276  1.00  0.00     0.053 C 
BRANCH  14  15
ATOM     15  C   UNL     1      17.624 -15.086 -15.973  1.00  0.00     0.041 C 
ATOM     16  O   UNL     1      16.607 -15.432 -16.632  1.00  0.00    -0.550 OA
ATOM     17  O   UNL     1      17.958 -13.740 -15.881  1.00  0.00    -0.550 OA
ENDBRANCH  14  15
ENDBRANCH  13  14
ENDBRANCH  12  13
ENDBRANCH  11  12
ENDBRANCH  10  11
ENDBRANCH   9  10
ENDBRANCH   8   9
ENDBRANCH   7   8
ENDBRANCH   6   7
ENDBRANCH   5   6
ENDBRANCH   4   5
ENDBRANCH   3   4
ENDBRANCH   2   3
ENDBRANCH   1   2
BRANCH   1  18
ATOM     18  C   UNL     1      18.409 -21.094 -20.973  1.00  0.00     0.000 C 
BRANCH  18  19
ATOM     19  C   UNL     1      19.176 -22.164 -20.176  1.00  0.00     0.000 C 
BRANCH  19  20
ATOM     20  C   UNL     1      20.456 -22.622 -20.896  1.00  0.00     0.000 C 
BRANCH  20  21
ATOM     21  C   UNL     1      21.248 -23.657 -20.078  1.00  0.00     0.000 C 
BRANCH  21  22
ATOM     22  C   UNL     1      20.634 -25.062 -20.151  1.00  0.00     0.000 C 
BRANCH  22  23
ATOM     23  C   UNL     1      19.393 -25.125 -21.058  1.00  0.00     0.000 C 
BRANCH  23  24
ATOM     24  C   UNL     1      18.077 -25.125 -20.262  1.00  0.00    -0.000 C 
BRANCH  24  25
ATOM     25  C   UNL     1      16.803 -25.024 -21.125  1.00  0.00    -0.000 C 
BRANCH  25  26
ATOM     26  C   UNL     1      15.580 -24.462 -20.367  1.00  0.00    -0.000 C 
BRANCH  26  27
ATOM     27  C   UNL     1      15.897 -24.154 -18.892  1.00  0.00    -0.000 C 
BRANCH  27  28
ATOM     28  C   UNL     1      14.736 -23.448 -18.169  1.00  0.00    -0.000 C 
BRANCH  28  29
ATOM     29  C   UNL     1      15.094 -22.910 -16.771  1.00  0.00    -0.000 C 
BRANCH  29  30
ATOM     30  C   UNL     1      14.007 -21.982 -16.198  1.00  0.00    -0.000 C 
BRANCH  30  31
ATOM     31  C   UNL     1      14.136 -21.789 -14.679  1.00  0.00    -0.003 C 
ATOM     32  C   UNL     1      13.177 -20.732 -14.131  1.00  0.00     0.004 C 
ENDBRANCH  30  31
ENDBRANCH  29  30
ENDBRANCH  28  29
ENDBRANCH  27  28
ENDBRANCH  26  27
ENDBRANCH  25  26
ENDBRANCH  24  25
ENDBRANCH  23  24
ENDBRANCH  22  23
ENDBRANCH  21  22
ENDBRANCH  20  21
ENDBRANCH  19  20
ENDBRANCH  18  19
ENDBRANCH   1  18
TORSDOF 28
ENDMDL
MODEL 5
REMARK VINA RESULT:    -2.688      7.010     10.580
REMARK INTER + INTRA:         -10.208
REMARK INTER:                  -8.277
REMARK INTRA:                  -1.931
REMARK UNBOUND:                -3.121
REMARK SMILES CCCCCCCCCCCCCCCCCCCCCCCCCCCCCC(=O)[O-]
REMARK SMILES IDX 16 1 17 2 18 3 19 4 20 5 21 6 22 7 23 8 24 9 25 10 26 11
REMARK SMILES IDX 27 12 28 13 29 14 30 15 31 16 32 17 15 18 14 19 13 20 12 21
REMARK SMILES IDX 11 22 10 23 9 24 8 25 7 26 6 27 5 28 4 29 3 30 2 31 1 32
REMARK H PARENT
REMARK Flexibility Score: inf
ROOT
ATOM      1  C   UNL     1      14.276 -22.522 -15.411  1.00  0.00     0.000 C 
ENDROOT
BRANCH   1   2
ATOM      2  C   UNL     1      13.944 -21.140 -14.809  1.00  0.00     0.000 C 
BRANCH   2   3
ATOM      3  C   UNL     1      12.436 -20.951 -14.573  1.00  0.00     0.000 C 
BRANCH   3   4
ATOM      4  C   UNL     1      11.631 -20.980 -15.889  1.00  0.00     0.000 C 
BRANCH   4   5
ATOM      5  C   UNL     1      10.331 -20.158 -15.836  1.00  0.00     0.000 C 
BRANCH   5   6
ATOM      6  C   UNL     1       9.101 -21.006 -15.488  1.00  0.00     0.000 C 
BRANCH   6   7
ATOM      7  C   UNL     1       8.091 -21.013 -16.642  1.00  0.00     0.000 C 
BRANCH   7   8
ATOM      8  C   UNL     1       6.672 -20.726 -16.134  1.00  0.00     0.000 C 
BRANCH   8   9
ATOM      9  C   UNL     1       6.646 -19.769 -14.931  1.00  0.00     0.000 C 
BRANCH   9  10
ATOM     10  C   UNL     1       5.477 -20.028 -13.957  1.00  0.00     0.000 C 
BRANCH  10  11
ATOM     11  C   UNL     1       5.711 -21.268 -13.082  1.00  0.00     0.000 C 
BRANCH  11  12
ATOM     12  C   UNL     1       4.963 -21.153 -11.748  1.00  0.00     0.000 C 
BRANCH  12  13
ATOM     13  C   UNL     1       5.381 -22.273 -10.785  1.00  0.00     0.006 C 
BRANCH  13  14
ATOM     14  C   UNL     1       4.991 -21.962  -9.334  1.00  0.00     0.053 C 
BRANCH  14  15
ATOM     15  C   UNL     1       6.114 -22.251  -8.384  1.00  0.00     0.041 C 
ATOM     16  O   UNL     1       7.024 -21.399  -8.201  1.00  0.00    -0.550 OA
ATOM     17  O   UNL     1       6.147 -23.454  -7.688  1.00  0.00    -0.550 OA
ENDBRANCH  14  15
ENDBRANCH  13  14
ENDBRANCH  12  13
ENDBRANCH  11  12
ENDBRANCH  10  11
ENDBRANCH   9  10
ENDBRANCH   8   9
ENDBRANCH   7   8
ENDBRANCH   6   7
ENDBRANCH   5   6
ENDBRANCH   4   5
ENDBRANCH   3   4
ENDBRANCH   2   3
ENDBRANCH   1   2
BRANCH   1  18
ATOM     18  C   UNL     1      14.649 -22.471 -16.902  1.00  0.00     0.000 C 
BRANCH  18  19
ATOM     19  C   UNL     1      15.235 -23.797 -17.415  1.00  0.00     0.000 C 
BRANCH  19  20
ATOM     20  C   UNL     1      14.625 -24.223 -18.761  1.00  0.00     0.000 C 
BRANCH  20  21
ATOM     21  C   UNL     1      14.034 -23.034 -19.538  1.00  0.00     0.000 C 
BRANCH  21  22
ATOM     22  C   UNL     1      14.945 -22.563 -20.680  1.00  0.00     0.000 C 
BRANCH  22  23
ATOM     23  C   UNL     1      15.611 -21.206 -20.391  1.00  0.00     0.000 C 
BRANCH  23  24
ATOM     24  C   UNL     1      17.145 -21.268 -20.479  1.00  0.00    -0.000 C 
BRANCH  24  25
ATOM     25  C   UNL     1      17.782 -22.480 -19.770  1.00  0.00    -0.000 C 
BRANCH  25  26
ATOM     26  C   UNL     1      19.246 -22.746 -20.185  1.00  0.00    -0.000 C 
BRANCH  26  27
ATOM     27  C   UNL     1      20.249 -22.314 -19.100  1.00  0.00    -0.000 C 
BRANCH  27  28
ATOM     28  C   UNL     1      20.696 -20.848 -19.253  1.00  0.00    -0.000 C 
BRANCH  28  29
ATOM     29  C   UNL     1      21.049 -20.151 -17.926  1.00  0.00    -0.000 C 
BRANCH  29  30
ATOM     30  C   UNL     1      21.034 -18.616 -18.042  1.00  0.00    -0.000 C 
BRANCH  30  31
ATOM     31  C   UNL     1      22.383 -17.982 -17.671  1.00  0.00    -0.003 C 
ATOM     32  C   UNL     1      23.315 -18.949 -16.943  1.00  0.00     0.004 C 
ENDBRANCH  30  31
ENDBRANCH  29  30
ENDBRANCH  28  29
ENDBRANCH  27  28
ENDBRANCH  26  27
ENDBRANCH  25  26
ENDBRANCH  24  25
ENDBRANCH  23  24
ENDBRANCH  22  23
ENDBRANCH  21  22
ENDBRANCH  20  21
ENDBRANCH  19  20
ENDBRANCH  18  19
ENDBRANCH   1  18
TORSDOF 28
ENDMDL
MODEL 6
REMARK VINA RESULT:    -2.517      5.791     10.490
REMARK INTER + INTRA:          -9.758
REMARK INTER:                  -7.783
REMARK INTRA:                  -1.975
REMARK UNBOUND:                -3.121
REMARK SMILES CCCCCCCCCCCCCCCCCCCCCCCCCCCCCC(=O)[O-]
REMARK SMILES IDX 16 1 17 2 18 3 19 4 20 5 21 6 22 7 23 8 24 9 25 10 26 11
REMARK SMILES IDX 27 12 28 13 29 14 30 15 31 16 32 17 15 18 14 19 13 20 12 21
REMARK SMILES IDX 11 22 10 23 9 24 8 25 7 26 6 27 5 28 4 29 3 30 2 31 1 32
REMARK H PARENT
REMARK Flexibility Score: inf
ROOT
ATOM      1  C   UNL     1      14.319 -22.731 -15.511  1.00  0.00     0.000 C 
ENDROOT
BRANCH   1   2
ATOM      2  C   UNL     1      14.958 -22.640 -16.914  1.00  0.00     0.000 C 
BRANCH   2   3
ATOM      3  C   UNL     1      14.849 -23.961 -17.695  1.00  0.00     0.000 C 
BRANCH   3   4
ATOM      4  C   UNL     1      14.463 -23.734 -19.172  1.00  0.00     0.000 C 
BRANCH   4   5
ATOM      5  C   UNL     1      14.205 -22.258 -19.522  1.00  0.00     0.000 C 
BRANCH   5   6
ATOM      6  C   UNL     1      15.261 -21.675 -20.471  1.00  0.00     0.000 C 
BRANCH   6   7
ATOM      7  C   UNL     1      16.451 -22.630 -20.623  1.00  0.00     0.000 C 
BRANCH   7   8
ATOM      8  C   UNL     1      17.725 -22.023 -20.018  1.00  0.00     0.000 C 
BRANCH   8   9
ATOM      9  C   UNL     1      18.731 -23.086 -19.548  1.00  0.00     0.000 C 
BRANCH   9  10
ATOM     10  C   UNL     1      20.071 -22.497 -19.055  1.00  0.00     0.000 C 
BRANCH  10  11
ATOM     11  C   UNL     1      20.347 -21.106 -19.645  1.00  0.00     0.000 C 
BRANCH  11  12
ATOM     12  C   UNL     1      21.364 -20.337 -18.792  1.00  0.00     0.000 C 
BRANCH  12  13
ATOM     13  C   UNL     1      20.769 -19.015 -18.287  1.00  0.00     0.006 C 
BRANCH  13  14
ATOM     14  C   UNL     1      21.450 -18.528 -17.001  1.00  0.00     0.053 C 
BRANCH  14  15
ATOM     15  C   UNL     1      22.912 -18.277 -17.210  1.00  0.00     0.041 C 
ATOM     16  O   UNL     1      23.763 -18.812 -16.450  1.00  0.00    -0.550 OA
ATOM     17  O   UNL     1      23.338 -17.465 -18.255  1.00  0.00    -0.550 OA
ENDBRANCH  14  15
ENDBRANCH  13  14
ENDBRANCH  12  13
ENDBRANCH  11  12
ENDBRANCH  10  11
ENDBRANCH   9  10
ENDBRANCH   8   9
ENDBRANCH   7   8
ENDBRANCH   6   7
ENDBRANCH   5   6
ENDBRANCH   4   5
ENDBRANCH   3   4
ENDBRANCH   2   3
ENDBRANCH   1   2
BRANCH   1  18
ATOM     18  C   UNL     1      14.220 -21.376 -14.791  1.00  0.00     0.000 C 
BRANCH  18  19
ATOM     19  C   UNL     1      12.773 -21.000 -14.429  1.00  0.00     0.000 C 
BRANCH  19  20
ATOM     20  C   UNL     1      11.855 -20.956 -15.661  1.00  0.00     0.000 C 
BRANCH  20  21
ATOM     21  C   UNL     1      10.546 -20.193 -15.390  1.00  0.00     0.000 C 
BRANCH  21  22
ATOM     22  C   UNL     1       9.406 -20.626 -16.324  1.00  0.00     0.000 C 
BRANCH  22  23
ATOM     23  C   UNL     1       8.297 -21.400 -15.591  1.00  0.00     0.000 C 
BRANCH  23  24
ATOM     24  C   UNL     1       7.160 -20.487 -15.105  1.00  0.00    -0.000 C 
BRANCH  24  25
ATOM     25  C   UNL     1       6.150 -20.079 -16.196  1.00  0.00    -0.000 C 
BRANCH  25  26
ATOM     26  C   UNL     1       5.369 -18.786 -15.871  1.00  0.00    -0.000 C 
BRANCH  26  27
ATOM     27  C   UNL     1       6.302 -17.613 -15.520  1.00  0.00    -0.000 C 
BRANCH  27  28
ATOM     28  C   UNL     1       6.096 -16.395 -16.440  1.00  0.00    -0.000 C 
BRANCH  28  29
ATOM     29  C   UNL     1       5.314 -16.701 -17.730  1.00  0.00    -0.000 C 
BRANCH  29  30
ATOM     30  C   UNL     1       5.368 -15.542 -18.743  1.00  0.00    -0.000 C 
BRANCH  30  31
ATOM     31  C   UNL     1       6.534 -15.679 -19.736  1.00  0.00    -0.003 C 
ATOM     32  C   UNL     1       6.966 -14.340 -20.333  1.00  0.00     0.004 C 
ENDBRANCH  30  31
ENDBRANCH  29  30
ENDBRANCH  28  29
ENDBRANCH  27  28
ENDBRANCH  26  27
ENDBRANCH  25  26
ENDBRANCH  24  25
ENDBRANCH  23  24
ENDBRANCH  22  23
ENDBRANCH  21  22
ENDBRANCH  20  21
ENDBRANCH  19  20
ENDBRANCH  18  19
ENDBRANCH   1  18
TORSDOF 28
ENDMDL
MODEL 7
REMARK VINA RESULT:    -2.242      4.628      8.006
REMARK INTER + INTRA:          -9.032
REMARK INTER:                  -6.787
REMARK INTRA:                  -2.244
REMARK UNBOUND:                -3.121
REMARK SMILES CCCCCCCCCCCCCCCCCCCCCCCCCCCCCC(=O)[O-]
REMARK SMILES IDX 16 1 17 2 18 3 19 4 20 5 21 6 22 7 23 8 24 9 25 10 26 11
REMARK SMILES IDX 27 12 28 13 29 14 30 15 31 16 32 17 15 18 14 19 13 20 12 21
REMARK SMILES IDX 11 22 10 23 9 24 8 25 7 26 6 27 5 28 4 29 3 30 2 31 1 32
REMARK H PARENT
REMARK Flexibility Score: inf
ROOT
ATOM      1  C   UNL     1      14.032 -23.782 -19.091  1.00  0.00     0.000 C 
ENDROOT
BRANCH   1   2
ATOM      2  C   UNL     1      14.506 -22.530 -18.321  1.00  0.00     0.000 C 
BRANCH   2   3
ATOM      3  C   UNL     1      15.236 -22.887 -17.015  1.00  0.00     0.000 C 
BRANCH   3   4
ATOM      4  C   UNL     1      14.290 -22.873 -15.796  1.00  0.00     0.000 C 
BRANCH   4   5
ATOM      5  C   UNL     1      14.239 -21.517 -15.070  1.00  0.00     0.000 C 
BRANCH   5   6
ATOM      6  C   UNL     1      12.825 -21.137 -14.610  1.00  0.00     0.000 C 
BRANCH   6   7
ATOM      7  C   UNL     1      11.872 -21.014 -15.805  1.00  0.00     0.000 C 
BRANCH   7   8
ATOM      8  C   UNL     1      10.595 -20.257 -15.416  1.00  0.00     0.000 C 
BRANCH   8   9
ATOM      9  C   UNL     1       9.370 -20.679 -16.244  1.00  0.00     0.000 C 
BRANCH   9  10
ATOM     10  C   UNL     1       8.280 -21.395 -15.418  1.00  0.00     0.000 C 
BRANCH  10  11
ATOM     11  C   UNL     1       7.007 -20.547 -15.276  1.00  0.00     0.000 C 
BRANCH  11  12
ATOM     12  C   UNL     1       6.391 -20.242 -16.647  1.00  0.00     0.000 C 
BRANCH  12  13
ATOM     13  C   UNL     1       5.459 -21.376 -17.096  1.00  0.00     0.006 C 
BRANCH  13  14
ATOM     14  C   UNL     1       6.103 -22.263 -18.169  1.00  0.00     0.053 C 
BRANCH  14  15
ATOM     15  C   UNL     1       5.839 -21.743 -19.550  1.00  0.00     0.041 C 
ATOM     16  O   UNL     1       5.085 -22.378 -20.334  1.00  0.00    -0.550 OA
ATOM     17  O   UNL     1       6.411 -20.546 -19.965  1.00  0.00    -0.550 OA
ENDBRANCH  14  15
ENDBRANCH  13  14
ENDBRANCH  12  13
ENDBRANCH  11  12
ENDBRANCH  10  11
ENDBRANCH   9  10
ENDBRANCH   8   9
ENDBRANCH   7   8
ENDBRANCH   6   7
ENDBRANCH   5   6
ENDBRANCH   4   5
ENDBRANCH   3   4
ENDBRANCH   2   3
ENDBRANCH   1   2
BRANCH   1  18
ATOM     18  C   UNL     1      15.107 -24.875 -19.208  1.00  0.00     0.000 C 
BRANCH  18  19
ATOM     19  C   UNL     1      15.706 -24.971 -20.622  1.00  0.00     0.000 C 
BRANCH  19  20
ATOM     20  C   UNL     1      17.129 -24.392 -20.694  1.00  0.00     0.000 C 
BRANCH  20  21
ATOM     21  C   UNL     1      17.778 -24.262 -19.305  1.00  0.00     0.000 C 
BRANCH  21  22
ATOM     22  C   UNL     1      18.292 -22.842 -19.024  1.00  0.00     0.000 C 
BRANCH  22  23
ATOM     23  C   UNL     1      19.758 -22.644 -19.445  1.00  0.00     0.000 C 
BRANCH  23  24
ATOM     24  C   UNL     1      20.070 -21.191 -19.839  1.00  0.00    -0.000 C 
BRANCH  24  25
ATOM     25  C   UNL     1      21.282 -20.573 -19.114  1.00  0.00    -0.000 C 
BRANCH  25  26
ATOM     26  C   UNL     1      20.916 -19.409 -18.167  1.00  0.00    -0.000 C 
BRANCH  26  27
ATOM     27  C   UNL     1      21.705 -19.460 -16.846  1.00  0.00    -0.000 C 
BRANCH  27  28
ATOM     28  C   UNL     1      23.228 -19.376 -17.060  1.00  0.00    -0.000 C 
BRANCH  28  29
ATOM     29  C   UNL     1      23.875 -18.093 -16.504  1.00  0.00    -0.000 C 
BRANCH  29  30
ATOM     30  C   UNL     1      24.244 -17.090 -17.612  1.00  0.00    -0.000 C 
BRANCH  30  31
ATOM     31  C   UNL     1      23.045 -16.243 -18.066  1.00  0.00    -0.003 C 
ATOM     32  C   UNL     1      22.175 -15.772 -16.902  1.00  0.00     0.004 C 
ENDBRANCH  30  31
ENDBRANCH  29  30
ENDBRANCH  28  29
ENDBRANCH  27  28
ENDBRANCH  26  27
ENDBRANCH  25  26
ENDBRANCH  24  25
ENDBRANCH  23  24
ENDBRANCH  22  23
ENDBRANCH  21  22
ENDBRANCH  20  21
ENDBRANCH  19  20
ENDBRANCH  18  19
ENDBRANCH   1  18
TORSDOF 28
ENDMDL
MODEL 8
REMARK VINA RESULT:    -2.192      6.345     11.397
REMARK INTER + INTRA:          -8.900
REMARK INTER:                  -7.246
REMARK INTRA:                  -1.654
REMARK UNBOUND:                -3.121
REMARK SMILES CCCCCCCCCCCCCCCCCCCCCCCCCCCCCC(=O)[O-]
REMARK SMILES IDX 16 1 17 2 18 3 19 4 20 5 21 6 22 7 23 8 24 9 25 10 26 11
REMARK SMILES IDX 27 12 28 13 29 14 30 15 31 16 32 17 15 18 14 19 13 20 12 21
REMARK SMILES IDX 11 22 10 23 9 24 8 25 7 26 6 27 5 28 4 29 3 30 2 31 1 32
REMARK H PARENT
REMARK Flexibility Score: inf
ROOT
ATOM      1  C   UNL     1      14.684 -21.972 -16.160  1.00  0.00     0.000 C 
ENDROOT
BRANCH   1   2
ATOM      2  C   UNL     1      14.797 -23.271 -16.987  1.00  0.00     0.000 C 
BRANCH   2   3
ATOM      3  C   UNL     1      16.253 -23.605 -17.355  1.00  0.00     0.000 C 
BRANCH   3   4
ATOM      4  C   UNL     1      16.516 -23.473 -18.871  1.00  0.00     0.000 C 
BRANCH   4   5
ATOM      5  C   UNL     1      15.382 -22.766 -19.634  1.00  0.00     0.000 C 
BRANCH   5   6
ATOM      6  C   UNL     1      15.884 -21.964 -20.842  1.00  0.00     0.000 C 
BRANCH   6   7
ATOM      7  C   UNL     1      17.415 -21.865 -20.840  1.00  0.00     0.000 C 
BRANCH   7   8
ATOM      8  C   UNL     1      17.872 -20.400 -20.866  1.00  0.00     0.000 C 
BRANCH   8   9
ATOM      9  C   UNL     1      19.368 -20.231 -20.554  1.00  0.00     0.000 C 
BRANCH   9  10
ATOM     10  C   UNL     1      20.041 -21.518 -20.031  1.00  0.00     0.000 C 
BRANCH  10  11
ATOM     11  C   UNL     1      20.661 -21.327 -18.638  1.00  0.00     0.000 C 
BRANCH  11  12
ATOM     12  C   UNL     1      20.975 -19.849 -18.373  1.00  0.00     0.000 C 
BRANCH  12  13
ATOM     13  C   UNL     1      21.820 -19.687 -17.101  1.00  0.00     0.006 C 
BRANCH  13  14
ATOM     14  C   UNL     1      23.192 -19.064 -17.393  1.00  0.00     0.053 C 
BRANCH  14  15
ATOM     15  C   UNL     1      23.255 -17.633 -16.951  1.00  0.00     0.041 C 
ATOM     16  O   UNL     1      24.181 -17.245 -16.190  1.00  0.00    -0.550 OA
ATOM     17  O   UNL     1      22.303 -16.723 -17.395  1.00  0.00    -0.550 OA
ENDBRANCH  14  15
ENDBRANCH  13  14
ENDBRANCH  12  13
ENDBRANCH  11  12
ENDBRANCH  10  11
ENDBRANCH   9  10
ENDBRANCH   8   9
ENDBRANCH   7   8
ENDBRANCH   6   7
ENDBRANCH   5   6
ENDBRANCH   4   5
ENDBRANCH   3   4
ENDBRANCH   2   3
ENDBRANCH   1   2
BRANCH   1  18
ATOM     18  C   UNL     1      13.796 -22.114 -14.912  1.00  0.00     0.000 C 
BRANCH  18  19
ATOM     19  C   UNL     1      12.793 -20.957 -14.761  1.00  0.00     0.000 C 
BRANCH  19  20
ATOM     20  C   UNL     1      11.748 -20.941 -15.888  1.00  0.00     0.000 C 
BRANCH  20  21
ATOM     21  C   UNL     1      10.449 -20.229 -15.472  1.00  0.00     0.000 C 
BRANCH  21  22
ATOM     22  C   UNL     1       9.210 -20.799 -16.179  1.00  0.00     0.000 C 
BRANCH  22  23
ATOM     23  C   UNL     1       7.892 -20.252 -15.605  1.00  0.00     0.000 C 
BRANCH  23  24
ATOM     24  C   UNL     1       6.654 -20.924 -16.222  1.00  0.00    -0.000 C 
BRANCH  24  25
ATOM     25  C   UNL     1       5.350 -20.111 -16.096  1.00  0.00    -0.000 C 
BRANCH  25  26
ATOM     26  C   UNL     1       5.017 -19.687 -14.648  1.00  0.00    -0.000 C 
BRANCH  26  27
ATOM     27  C   UNL     1       5.040 -20.877 -13.671  1.00  0.00    -0.000 C 
BRANCH  27  28
ATOM     28  C   UNL     1       4.941 -20.438 -12.197  1.00  0.00    -0.000 C 
BRANCH  28  29
ATOM     29  C   UNL     1       4.921 -21.603 -11.190  1.00  0.00    -0.000 C 
BRANCH  29  30
ATOM     30  C   UNL     1       4.879 -22.979 -11.879  1.00  0.00    -0.000 C 
BRANCH  30  31
ATOM     31  C   UNL     1       5.970 -23.931 -11.365  1.00  0.00    -0.003 C 
ATOM     32  C   UNL     1       5.719 -24.407  -9.935  1.00  0.00     0.004 C 
ENDBRANCH  30  31
ENDBRANCH  29  30
ENDBRANCH  28  29
ENDBRANCH  27  28
ENDBRANCH  26  27
ENDBRANCH  25  26
ENDBRANCH  24  25
ENDBRANCH  23  24
ENDBRANCH  22  23
ENDBRANCH  21  22
ENDBRANCH  20  21
ENDBRANCH  19  20
ENDBRANCH  18  19
ENDBRANCH   1  18
TORSDOF 28
ENDMDL
MODEL 9
REMARK VINA RESULT:    -2.066      1.681      6.163
REMARK INTER + INTRA:          -8.568
REMARK INTER:                  -5.952
REMARK INTRA:                  -2.616
REMARK UNBOUND:                -3.121
REMARK SMILES CCCCCCCCCCCCCCCCCCCCCCCCCCCCCC(=O)[O-]
REMARK SMILES IDX 16 1 17 2 18 3 19 4 20 5 21 6 22 7 23 8 24 9 25 10 26 11
REMARK SMILES IDX 27 12 28 13 29 14 30 15 31 16 32 17 15 18 14 19 13 20 12 21
REMARK SMILES IDX 11 22 10 23 9 24 8 25 7 26 6 27 5 28 4 29 3 30 2 31 1 32
REMARK H PARENT
REMARK Flexibility Score: inf
ROOT
ATOM      1  C   UNL     1      19.644 -15.379 -15.938  1.00  0.00     0.000 C 
ENDROOT
BRANCH   1   2
ATOM      2  C   UNL     1      18.214 -15.940 -15.785  1.00  0.00     0.000 C 
BRANCH   2   3
ATOM      3  C   UNL     1      17.143 -14.963 -16.301  1.00  0.00     0.000 C 
BRANCH   3   4
ATOM      4  C   UNL     1      16.137 -15.649 -17.249  1.00  0.00     0.000 C 
BRANCH   4   5
ATOM      5  C   UNL     1      15.419 -14.673 -18.197  1.00  0.00     0.000 C 
BRANCH   5   6
ATOM      6  C   UNL     1      15.653 -14.998 -19.679  1.00  0.00     0.000 C 
BRANCH   6   7
ATOM      7  C   UNL     1      15.722 -16.513 -19.906  1.00  0.00     0.000 C 
BRANCH   7   8
ATOM      8  C   UNL     1      14.662 -16.966 -20.919  1.00  0.00     0.000 C 
BRANCH   8   9
ATOM      9  C   UNL     1      14.638 -18.490 -21.123  1.00  0.00     0.000 C 
BRANCH   9  10
ATOM     10  C   UNL     1      13.226 -19.107 -21.031  1.00  0.00     0.000 C 
BRANCH  10  11
ATOM     11  C   UNL     1      13.264 -20.640 -20.958  1.00  0.00     0.000 C 
BRANCH  11  12
ATOM     12  C   UNL     1      14.678 -21.143 -20.640  1.00  0.00     0.000 C 
BRANCH  12  13
ATOM     13  C   UNL     1      14.756 -21.691 -19.207  1.00  0.00     0.006 C 
BRANCH  13  14
ATOM     14  C   UNL     1      15.351 -23.105 -19.161  1.00  0.00     0.053 C 
BRANCH  14  15
ATOM     15  C   UNL     1      16.848 -23.074 -19.097  1.00  0.00     0.041 C 
ATOM     16  O   UNL     1      17.453 -23.626 -18.139  1.00  0.00    -0.550 OA
ATOM     17  O   UNL     1      17.577 -22.451 -20.104  1.00  0.00    -0.550 OA
ENDBRANCH  14  15
ENDBRANCH  13  14
ENDBRANCH  12  13
ENDBRANCH  11  12
ENDBRANCH  10  11
ENDBRANCH   9  10
ENDBRANCH   8   9
ENDBRANCH   7   8
ENDBRANCH   6   7
ENDBRANCH   5   6
ENDBRANCH   4   5
ENDBRANCH   3   4
ENDBRANCH   2   3
ENDBRANCH   1   2
BRANCH   1  18
ATOM     18  C   UNL     1      20.626 -16.368 -16.589  1.00  0.00     0.000 C 
BRANCH  18  19
ATOM     19  C   UNL     1      21.965 -15.712 -16.971  1.00  0.00     0.000 C 
BRANCH  19  20
ATOM     20  C   UNL     1      23.161 -16.374 -16.266  1.00  0.00     0.000 C 
BRANCH  20  21
ATOM     21  C   UNL     1      24.024 -17.204 -17.232  1.00  0.00     0.000 C 
BRANCH  21  22
ATOM     22  C   UNL     1      24.222 -16.513 -18.589  1.00  0.00     0.000 C 
BRANCH  22  23
ATOM     23  C   UNL     1      24.948 -17.403 -19.612  1.00  0.00     0.000 C 
BRANCH  23  24
ATOM     24  C   UNL     1      24.894 -18.895 -19.242  1.00  0.00    -0.000 C 
BRANCH  24  25
ATOM     25  C   UNL     1      24.417 -19.823 -20.377  1.00  0.00    -0.000 C 
BRANCH  25  26
ATOM     26  C   UNL     1      24.704 -21.319 -20.121  1.00  0.00    -0.000 C 
BRANCH  26  27
ATOM     27  C   UNL     1      23.647 -22.235 -20.763  1.00  0.00    -0.000 C 
BRANCH  27  28
ATOM     28  C   UNL     1      22.230 -21.631 -20.717  1.00  0.00    -0.000 C 
BRANCH  28  29
ATOM     29  C   UNL     1      21.267 -22.350 -19.755  1.00  0.00    -0.000 C 
BRANCH  29  30
ATOM     30  C   UNL     1      20.555 -21.379 -18.796  1.00  0.00    -0.000 C 
BRANCH  30  31
ATOM     31  C   UNL     1      21.368 -20.100 -18.540  1.00  0.00    -0.003 C 
ATOM     32  C   UNL     1      21.713 -19.900 -17.065  1.00  0.00     0.004 C 
ENDBRANCH  30  31
ENDBRANCH  29  30
ENDBRANCH  28  29
ENDBRANCH  27  28
ENDBRANCH  26  27
ENDBRANCH  25  26
ENDBRANCH  24  25
ENDBRANCH  23  24
ENDBRANCH  22  23
ENDBRANCH  21  22
ENDBRANCH  20  21
ENDBRANCH  19  20
ENDBRANCH  18  19
ENDBRANCH   1  18
TORSDOF 28
ENDMDL
