MODEL 1
REMARK VINA RESULT:    -4.134      0.000      0.000
REMARK INTER + INTRA:          -5.583
REMARK INTER:                  -5.221
REMARK INTRA:                  -0.362
REMARK UNBOUND:                -0.362
REMARK SMILES CC(C)=CCCC(C)=CCO
REMARK SMILES IDX 7 1 9 2 8 3 6 4 5 5 4 6 1 7 2 8 3 9 10 10 11 11
REMARK H PARENT 11 12
REMARK Flexibility Score: inf
ROOT
ATOM      1  C   UNL     1      35.624  43.104  39.183  1.00  0.00    -0.075 C 
ATOM      2  C   UNL     1      35.992  42.964  37.891  1.00  0.00    -0.000 C 
ATOM      3  C   UNL     1      35.623  44.453  39.860  1.00  0.00     0.039 C 
ENDROOT
BRANCH   1   4
ATOM      4  C   UNL     1      35.248  41.879  39.990  1.00  0.00     0.034 C 
BRANCH   4   5
ATOM      5  C   UNL     1      34.687  42.256  41.368  1.00  0.00     0.032 C 
BRANCH   5   6
ATOM      6  C   UNL     1      33.203  42.533  41.318  1.00  0.00    -0.028 C 
ATOM      7  C   UNL     1      31.107  43.733  41.767  1.00  0.00     0.039 C 
ATOM      8  C   UNL     1      32.591  43.556  41.955  1.00  0.00    -0.080 C 
ATOM      9  C   UNL     1      33.347  44.505  42.855  1.00  0.00     0.039 C 
ENDBRANCH   5   6
ENDBRANCH   4   5
ENDBRANCH   1   4
BRANCH   2  10
ATOM     10  C   UNL     1      36.406  44.121  37.020  1.00  0.00     0.183 C 
BRANCH  10  11
ATOM     11  O   UNL     1      35.634  44.152  35.851  1.00  0.00    -0.392 OA
ATOM     12  H   UNL     1      35.958  44.923  35.316  1.00  0.00     0.210 HD
ENDBRANCH  10  11
ENDBRANCH   2  10
TORSDOF 5
ENDMDL
MODEL 2
REMARK VINA RESULT:    -4.095      2.693      6.037
REMARK INTER + INTRA:          -5.535
REMARK INTER:                  -5.322
REMARK INTRA:                  -0.213
REMARK UNBOUND:                -0.362
REMARK SMILES CC(C)=CCCC(C)=CCO
REMARK SMILES IDX 7 1 9 2 8 3 6 4 5 5 4 6 1 7 2 8 3 9 10 10 11 11
REMARK H PARENT 11 12
REMARK Flexibility Score: inf
ROOT
ATOM      1  C   UNL     1      35.781  43.483  39.244  1.00  0.00    -0.075 C 
ATOM      2  C   UNL     1      35.467  44.570  39.983  1.00  0.00    -0.000 C 
ATOM      3  C   UNL     1      35.234  42.117  39.581  1.00  0.00     0.039 C 
ENDROOT
BRANCH   1   4
ATOM      4  C   UNL     1      36.740  43.623  38.081  1.00  0.00     0.034 C 
BRANCH   4   5
ATOM      5  C   UNL     1      35.998  43.722  36.741  1.00  0.00     0.032 C 
BRANCH   5   6
ATOM      6  C   UNL     1      36.664  44.693  35.795  1.00  0.00    -0.028 C 
ATOM      7  C   UNL     1      36.856  46.216  33.878  1.00  0.00     0.039 C 
ATOM      8  C   UNL     1      36.079  45.219  34.697  1.00  0.00    -0.080 C 
ATOM      9  C   UNL     1      34.687  44.824  34.264  1.00  0.00     0.039 C 
ENDBRANCH   5   6
ENDBRANCH   4   5
ENDBRANCH   1   4
BRANCH   2  10
ATOM     10  C   UNL     1      34.544  44.520  41.172  1.00  0.00     0.183 C 
BRANCH  10  11
ATOM     11  O   UNL     1      34.785  45.610  42.020  1.00  0.00    -0.392 OA
ATOM     12  H   UNL     1      33.964  46.169  42.005  1.00  0.00     0.210 HD
ENDBRANCH  10  11
ENDBRANCH   2  10
TORSDOF 5
ENDMDL
MODEL 3
REMARK VINA RESULT:    -3.969      2.471      5.289
REMARK INTER + INTRA:          -5.375
REMARK INTER:                  -5.126
REMARK INTRA:                  -0.249
REMARK UNBOUND:                -0.362
REMARK SMILES CC(C)=CCCC(C)=CCO
REMARK SMILES IDX 7 1 9 2 8 3 6 4 5 5 4 6 1 7 2 8 3 9 10 10 11 11
REMARK H PARENT 11 12
REMARK Flexibility Score: inf
ROOT
ATOM      1  C   UNL     1      33.560  43.986  41.641  1.00  0.00    -0.075 C 
ATOM      2  C   UNL     1      32.821  43.085  40.957  1.00  0.00    -0.000 C 
ATOM      3  C   UNL     1      33.078  44.573  42.945  1.00  0.00     0.039 C 
ENDROOT
BRANCH   1   4
ATOM      4  C   UNL     1      34.881  44.457  41.069  1.00  0.00     0.034 C 
BRANCH   4   5
ATOM      5  C   UNL     1      35.497  43.413  40.127  1.00  0.00     0.032 C 
BRANCH   5   6
ATOM      6  C   UNL     1      36.017  44.037  38.854  1.00  0.00    -0.028 C 
ATOM      7  C   UNL     1      36.700  44.139  36.497  1.00  0.00     0.039 C 
ATOM      8  C   UNL     1      36.225  43.366  37.700  1.00  0.00    -0.080 C 
ATOM      9  C   UNL     1      36.013  41.875  37.590  1.00  0.00     0.039 C 
ENDBRANCH   5   6
ENDBRANCH   4   5
ENDBRANCH   1   4
BRANCH   2  10
ATOM     10  C   UNL     1      31.485  42.580  41.436  1.00  0.00     0.183 C 
BRANCH  10  11
ATOM     11  O   UNL     1      30.480  43.510  41.140  1.00  0.00    -0.392 OA
ATOM     12  H   UNL     1      29.613  43.062  41.326  1.00  0.00     0.210 HD
ENDBRANCH  10  11
ENDBRANCH   2  10
TORSDOF 5
ENDMDL
MODEL 4
REMARK VINA RESULT:    -3.909     11.165     12.617
REMARK INTER + INTRA:          -5.299
REMARK INTER:                  -5.072
REMARK INTRA:                  -0.228
REMARK UNBOUND:                -0.362
REMARK SMILES CC(C)=CCCC(C)=CCO
REMARK SMILES IDX 7 1 9 2 8 3 6 4 5 5 4 6 1 7 2 8 3 9 10 10 11 11
REMARK H PARENT 11 12
REMARK Flexibility Score: inf
ROOT
ATOM      1  C   UNL     1      26.677  53.545  37.983  1.00  0.00    -0.075 C 
ATOM      2  C   UNL     1      27.800  52.820  38.184  1.00  0.00    -0.000 C 
ATOM      3  C   UNL     1      26.610  55.009  38.341  1.00  0.00     0.039 C 
ENDROOT
BRANCH   1   4
ATOM      4  C   UNL     1      25.440  52.867  37.431  1.00  0.00     0.034 C 
BRANCH   4   5
ATOM      5  C   UNL     1      25.554  51.338  37.495  1.00  0.00     0.032 C 
BRANCH   5   6
ATOM      6  C   UNL     1      24.381  50.655  36.832  1.00  0.00    -0.028 C 
ATOM      7  C   UNL     1      23.153  48.853  35.701  1.00  0.00     0.039 C 
ATOM      8  C   UNL     1      24.421  49.422  36.282  1.00  0.00    -0.080 C 
ATOM      9  C   UNL     1      25.696  48.614  36.219  1.00  0.00     0.039 C 
ENDBRANCH   5   6
ENDBRANCH   4   5
ENDBRANCH   1   4
BRANCH   2  10
ATOM     10  C   UNL     1      29.067  53.403  38.753  1.00  0.00     0.183 C 
BRANCH  10  11
ATOM     11  O   UNL     1      29.944  52.379  39.137  1.00  0.00    -0.392 OA
ATOM     12  H   UNL     1      29.802  51.630  38.500  1.00  0.00     0.210 HD
ENDBRANCH  10  11
ENDBRANCH   2  10
TORSDOF 5
ENDMDL
MODEL 5
REMARK VINA RESULT:    -3.856     12.339     13.350
REMARK INTER + INTRA:          -5.233
REMARK INTER:                  -5.028
REMARK INTRA:                  -0.204
REMARK UNBOUND:                -0.362
REMARK SMILES CC(C)=CCCC(C)=CCO
REMARK SMILES IDX 7 1 9 2 8 3 6 4 5 5 4 6 1 7 2 8 3 9 10 10 11 11
REMARK H PARENT 11 12
REMARK Flexibility Score: inf
ROOT
ATOM      1  C   UNL     1      25.538  52.173  37.341  1.00  0.00    -0.075 C 
ATOM      2  C   UNL     1      26.643  52.736  37.878  1.00  0.00    -0.000 C 
ATOM      3  C   UNL     1      24.369  53.012  36.886  1.00  0.00     0.039 C 
ENDROOT
BRANCH   1   4
ATOM      4  C   UNL     1      25.446  50.666  37.233  1.00  0.00     0.034 C 
BRANCH   4   5
ATOM      5  C   UNL     1      24.097  50.219  36.652  1.00  0.00     0.032 C 
BRANCH   5   6
ATOM      6  C   UNL     1      24.206  48.908  35.910  1.00  0.00    -0.028 C 
ATOM      7  C   UNL     1      23.444  46.985  34.587  1.00  0.00     0.039 C 
ATOM      8  C   UNL     1      23.167  48.260  35.339  1.00  0.00    -0.080 C 
ATOM      9  C   UNL     1      21.749  48.767  35.450  1.00  0.00     0.039 C 
ENDBRANCH   5   6
ENDBRANCH   4   5
ENDBRANCH   1   4
BRANCH   2  10
ATOM     10  C   UNL     1      26.811  54.224  38.049  1.00  0.00     0.183 C 
BRANCH  10  11
ATOM     11  O   UNL     1      28.006  54.503  38.725  1.00  0.00    -0.392 OA
ATOM     12  H   UNL     1      28.292  55.409  38.435  1.00  0.00     0.210 HD
ENDBRANCH  10  11
ENDBRANCH   2  10
TORSDOF 5
ENDMDL
MODEL 6
REMARK VINA RESULT:    -3.741     11.368     12.946
REMARK INTER + INTRA:          -5.087
REMARK INTER:                  -4.845
REMARK INTRA:                  -0.243
REMARK UNBOUND:                -0.362
REMARK SMILES CC(C)=CCCC(C)=CCO
REMARK SMILES IDX 7 1 9 2 8 3 6 4 5 5 4 6 1 7 2 8 3 9 10 10 11 11
REMARK H PARENT 11 12
REMARK Flexibility Score: inf
ROOT
ATOM      1  C   UNL     1      25.306  52.198  37.417  1.00  0.00    -0.075 C 
ATOM      2  C   UNL     1      26.127  51.138  37.257  1.00  0.00    -0.000 C 
ATOM      3  C   UNL     1      23.870  52.159  36.956  1.00  0.00     0.039 C 
ENDROOT
BRANCH   1   4
ATOM      4  C   UNL     1      25.846  53.475  38.028  1.00  0.00     0.034 C 
BRANCH   4   5
ATOM      5  C   UNL     1      27.342  53.656  37.737  1.00  0.00     0.032 C 
BRANCH   5   6
ATOM      6  C   UNL     1      27.923  54.839  38.474  1.00  0.00    -0.028 C 
ATOM      7  C   UNL     1      29.612  56.142  39.692  1.00  0.00     0.039 C 
ATOM      8  C   UNL     1      29.153  54.868  39.033  1.00  0.00    -0.080 C 
ATOM      9  C   UNL     1      30.062  53.662  39.028  1.00  0.00     0.039 C 
ENDBRANCH   5   6
ENDBRANCH   4   5
ENDBRANCH   1   4
BRANCH   2  10
ATOM     10  C   UNL     1      25.685  49.839  36.635  1.00  0.00     0.183 C 
BRANCH  10  11
ATOM     11  O   UNL     1      26.776  49.187  36.043  1.00  0.00    -0.392 OA
ATOM     12  H   UNL     1      26.421  48.359  35.625  1.00  0.00     0.210 HD
ENDBRANCH  10  11
ENDBRANCH   2  10
TORSDOF 5
ENDMDL
MODEL 7
REMARK VINA RESULT:    -3.733      3.122      6.674
REMARK INTER + INTRA:          -5.077
REMARK INTER:                  -4.806
REMARK INTRA:                  -0.270
REMARK UNBOUND:                -0.362
REMARK SMILES CC(C)=CCCC(C)=CCO
REMARK SMILES IDX 7 1 9 2 8 3 6 4 5 5 4 6 1 7 2 8 3 9 10 10 11 11
REMARK H PARENT 11 12
REMARK Flexibility Score: inf
ROOT
ATOM      1  C   UNL     1      36.435  43.428  37.268  1.00  0.00    -0.075 C 
ATOM      2  C   UNL     1      36.182  44.120  38.400  1.00  0.00    -0.000 C 
ATOM      3  C   UNL     1      36.364  41.921  37.234  1.00  0.00     0.039 C 
ENDROOT
BRANCH   1   4
ATOM      4  C   UNL     1      36.845  44.171  36.014  1.00  0.00     0.034 C 
BRANCH   4   5
ATOM      5  C   UNL     1      35.649  44.863  35.346  1.00  0.00     0.032 C 
BRANCH   5   6
ATOM      6  C   UNL     1      35.990  45.377  33.967  1.00  0.00    -0.028 C 
ATOM      7  C   UNL     1      36.508  47.039  32.234  1.00  0.00     0.039 C 
ATOM      8  C   UNL     1      36.111  46.683  33.643  1.00  0.00    -0.080 C 
ATOM      9  C   UNL     1      35.845  47.785  34.642  1.00  0.00     0.039 C 
ENDBRANCH   5   6
ENDBRANCH   4   5
ENDBRANCH   1   4
BRANCH   2  10
ATOM     10  C   UNL     1      35.794  43.464  39.699  1.00  0.00     0.183 C 
BRANCH  10  11
ATOM     11  O   UNL     1      34.398  43.430  39.829  1.00  0.00    -0.392 OA
ATOM     12  H   UNL     1      34.029  43.936  39.058  1.00  0.00     0.210 HD
ENDBRANCH  10  11
ENDBRANCH   2  10
TORSDOF 5
ENDMDL
MODEL 8
REMARK VINA RESULT:    -3.696     11.729     13.239
REMARK INTER + INTRA:          -5.030
REMARK INTER:                  -4.836
REMARK INTRA:                  -0.194
REMARK UNBOUND:                -0.362
REMARK SMILES CC(C)=CCCC(C)=CCO
REMARK SMILES IDX 7 1 9 2 8 3 6 4 5 5 4 6 1 7 2 8 3 9 10 10 11 11
REMARK H PARENT 11 12
REMARK Flexibility Score: inf
ROOT
ATOM      1  C   UNL     1      24.466  50.081  36.587  1.00  0.00    -0.075 C 
ATOM      2  C   UNL     1      23.246  49.726  36.128  1.00  0.00    -0.000 C 
ATOM      3  C   UNL     1      25.654  49.158  36.461  1.00  0.00     0.039 C 
ENDROOT
BRANCH   1   4
ATOM      4  C   UNL     1      24.643  51.412  37.287  1.00  0.00     0.034 C 
BRANCH   4   5
ATOM      5  C   UNL     1      26.107  51.872  37.273  1.00  0.00     0.032 C 
BRANCH   5   6
ATOM      6  C   UNL     1      26.248  53.324  37.664  1.00  0.00    -0.028 C 
ATOM      7  C   UNL     1      27.356  55.340  38.525  1.00  0.00     0.039 C 
ATOM      8  C   UNL     1      27.346  53.861  38.240  1.00  0.00    -0.080 C 
ATOM      9  C   UNL     1      28.544  53.022  38.617  1.00  0.00     0.039 C 
ENDBRANCH   5   6
ENDBRANCH   4   5
ENDBRANCH   1   4
BRANCH   2  10
ATOM     10  C   UNL     1      22.972  48.412  35.444  1.00  0.00     0.183 C 
BRANCH  10  11
ATOM     11  O   UNL     1      21.864  48.529  34.593  1.00  0.00    -0.392 OA
ATOM     12  H   UNL     1      21.125  48.906  35.139  1.00  0.00     0.210 HD
ENDBRANCH  10  11
ENDBRANCH   2  10
TORSDOF 5
ENDMDL
MODEL 9
REMARK VINA RESULT:    -3.437      3.757      5.899
REMARK INTER + INTRA:          -4.703
REMARK INTER:                  -4.477
REMARK INTRA:                  -0.226
REMARK UNBOUND:                -0.362
REMARK SMILES CC(C)=CCCC(C)=CCO
REMARK SMILES IDX 7 1 9 2 8 3 6 4 5 5 4 6 1 7 2 8 3 9 10 10 11 11
REMARK H PARENT 11 12
REMARK Flexibility Score: inf
ROOT
ATOM      1  C   UNL     1      35.888  46.483  34.200  1.00  0.00    -0.075 C 
ATOM      2  C   UNL     1      36.456  46.378  32.979  1.00  0.00    -0.000 C 
ATOM      3  C   UNL     1      35.659  47.826  34.850  1.00  0.00     0.039 C 
ENDROOT
BRANCH   1   4
ATOM      4  C   UNL     1      35.513  45.227  34.960  1.00  0.00     0.034 C 
BRANCH   4   5
ATOM      5  C   UNL     1      36.654  44.753  35.871  1.00  0.00     0.032 C 
BRANCH   5   6
ATOM      6  C   UNL     1      36.338  43.432  36.532  1.00  0.00    -0.028 C 
ATOM      7  C   UNL     1      35.789  41.891  38.365  1.00  0.00     0.039 C 
ATOM      8  C   UNL     1      36.149  43.264  37.860  1.00  0.00    -0.080 C 
ATOM      9  C   UNL     1      36.305  44.402  38.841  1.00  0.00     0.039 C 
ENDBRANCH   5   6
ENDBRANCH   4   5
ENDBRANCH   1   4
BRANCH   2  10
ATOM     10  C   UNL     1      36.884  47.570  32.164  1.00  0.00     0.183 C 
BRANCH  10  11
ATOM     11  O   UNL     1      37.125  47.190  30.836  1.00  0.00    -0.392 OA
ATOM     12  H   UNL     1      37.469  46.259  30.865  1.00  0.00     0.210 HD
ENDBRANCH  10  11
ENDBRANCH   2  10
TORSDOF 5
ENDMDL
