MODEL 1
REMARK VINA RESULT:    -4.064      0.000      0.000
REMARK INTER + INTRA:          -4.712
REMARK INTER:                  -4.658
REMARK INTRA:                  -0.054
REMARK UNBOUND:                -0.054
REMARK SMILES CC(C)[C@@H]([NH3+])C(=O)[O-]
REMARK SMILES IDX 4 1 5 2 6 6 7 7 8 8 2 9 1 10 3 11
REMARK H PARENT 5 3 5 4 5 5
REMARK Flexibility Score: inf
ROOT
ATOM      1  C   UNL     1     185.349 207.433  93.389  1.00  0.00     0.230 C 
ENDROOT
BRANCH   1   2
ATOM      2  N   UNL     1     184.585 206.277  92.895  1.00  0.00    -0.350 N 
ATOM      3  H   UNL     1     185.064 205.876  92.056  1.00  0.00     0.345 HD
ATOM      4  H   UNL     1     183.613 206.548  92.625  1.00  0.00     0.345 HD
ATOM      5  H   UNL     1     184.544 205.535  93.630  1.00  0.00     0.345 HD
ENDBRANCH   1   2
BRANCH   1   6
ATOM      6  C   UNL     1     184.810 208.717  92.802  1.00  0.00     0.099 C 
ATOM      7  O   UNL     1     185.532 209.748  92.774  1.00  0.00    -0.544 OA
ATOM      8  O   UNL     1     183.509 208.782  92.316  1.00  0.00    -0.544 OA
ENDBRANCH   1   6
BRANCH   1   9
ATOM      9  C   UNL     1     185.408 207.462  94.946  1.00  0.00     0.047 C 
ATOM     10  C   UNL     1     186.567 206.639  95.535  1.00  0.00     0.014 C 
ATOM     11  C   UNL     1     184.076 207.010  95.564  1.00  0.00     0.014 C 
ENDBRANCH   1   9
TORSDOF 3
ENDMDL
MODEL 2
REMARK VINA RESULT:    -4.055      1.600      2.212
REMARK INTER + INTRA:          -4.701
REMARK INTER:                  -4.641
REMARK INTRA:                  -0.060
REMARK UNBOUND:                -0.054
REMARK SMILES CC(C)[C@@H]([NH3+])C(=O)[O-]
REMARK SMILES IDX 4 1 5 2 6 6 7 7 8 8 2 9 1 10 3 11
REMARK H PARENT 5 3 5 4 5 5
REMARK Flexibility Score: inf
ROOT
ATOM      1  C   UNL     1     185.101 207.907  94.387  1.00  0.00     0.230 C 
ENDROOT
BRANCH   1   2
ATOM      2  N   UNL     1     186.266 208.798  94.266  1.00  0.00    -0.350 N 
ATOM      3  H   UNL     1     186.754 208.860  95.190  1.00  0.00     0.345 HD
ATOM      4  H   UNL     1     185.983 209.760  93.975  1.00  0.00     0.345 HD
ATOM      5  H   UNL     1     186.942 208.411  93.568  1.00  0.00     0.345 HD
ENDBRANCH   1   2
BRANCH   1   6
ATOM      6  C   UNL     1     184.370 207.807  93.068  1.00  0.00     0.099 C 
ATOM      7  O   UNL     1     184.168 206.679  92.546  1.00  0.00    -0.544 OA
ATOM      8  O   UNL     1     183.942 208.951  92.407  1.00  0.00    -0.544 OA
ENDBRANCH   1   6
BRANCH   1   9
ATOM      9  C   UNL     1     185.498 206.514  94.962  1.00  0.00     0.047 C 
ATOM     10  C   UNL     1     184.587 206.036  96.106  1.00  0.00     0.014 C 
ATOM     11  C   UNL     1     186.965 206.496  95.417  1.00  0.00     0.014 C 
ENDBRANCH   1   9
TORSDOF 3
ENDMDL
MODEL 3
REMARK VINA RESULT:    -3.931      2.346      3.362
REMARK INTER + INTRA:          -4.559
REMARK INTER:                  -4.502
REMARK INTRA:                  -0.057
REMARK UNBOUND:                -0.054
REMARK SMILES CC(C)[C@@H]([NH3+])C(=O)[O-]
REMARK SMILES IDX 4 1 5 2 6 6 7 7 8 8 2 9 1 10 3 11
REMARK H PARENT 5 3 5 4 5 5
REMARK Flexibility Score: inf
ROOT
ATOM      1  C   UNL     1     184.533 207.289  93.908  1.00  0.00     0.230 C 
ENDROOT
BRANCH   1   2
ATOM      2  N   UNL     1     184.740 206.131  93.026  1.00  0.00    -0.350 N 
ATOM      3  H   UNL     1     185.633 205.650  93.285  1.00  0.00     0.345 HD
ATOM      4  H   UNL     1     184.796 206.419  92.024  1.00  0.00     0.345 HD
ATOM      5  H   UNL     1     183.958 205.446  93.144  1.00  0.00     0.345 HD
ENDBRANCH   1   2
BRANCH   1   6
ATOM      6  C   UNL     1     184.912 206.949  95.331  1.00  0.00     0.099 C 
ATOM      7  O   UNL     1     185.327 207.852  96.104  1.00  0.00    -0.544 OA
ATOM      8  O   UNL     1     184.834 205.640  95.790  1.00  0.00    -0.544 OA
ENDBRANCH   1   6
BRANCH   1   9
ATOM      9  C   UNL     1     185.269 208.556  93.376  1.00  0.00     0.047 C 
ATOM     10  C   UNL     1     184.446 209.368  92.361  1.00  0.00     0.014 C 
ATOM     11  C   UNL     1     186.636 208.197  92.776  1.00  0.00     0.014 C 
ENDBRANCH   1   9
TORSDOF 3
ENDMDL
MODEL 4
REMARK VINA RESULT:    -3.927      2.829      3.438
REMARK INTER + INTRA:          -4.554
REMARK INTER:                  -4.532
REMARK INTRA:                  -0.022
REMARK UNBOUND:                -0.054
REMARK SMILES CC(C)[C@@H]([NH3+])C(=O)[O-]
REMARK SMILES IDX 4 1 5 2 6 6 7 7 8 8 2 9 1 10 3 11
REMARK H PARENT 5 3 5 4 5 5
REMARK Flexibility Score: inf
ROOT
ATOM      1  C   UNL     1     186.433 207.915  93.955  1.00  0.00     0.230 C 
ENDROOT
BRANCH   1   2
ATOM      2  N   UNL     1     186.311 209.379  93.887  1.00  0.00    -0.350 N 
ATOM      3  H   UNL     1     186.399 209.690  92.891  1.00  0.00     0.345 HD
ATOM      4  H   UNL     1     187.054 209.851  94.449  1.00  0.00     0.345 HD
ATOM      5  H   UNL     1     185.372 209.677  94.238  1.00  0.00     0.345 HD
ENDBRANCH   1   2
BRANCH   1   6
ATOM      6  C   UNL     1     187.160 207.499  95.213  1.00  0.00     0.099 C 
ATOM      7  O   UNL     1     187.369 208.341  96.125  1.00  0.00    -0.544 OA
ATOM      8  O   UNL     1     187.628 206.200  95.363  1.00  0.00    -0.544 OA
ENDBRANCH   1   6
BRANCH   1   9
ATOM      9  C   UNL     1     185.049 207.214  93.800  1.00  0.00     0.047 C 
ATOM     10  C   UNL     1     184.133 207.879  92.758  1.00  0.00     0.014 C 
ATOM     11  C   UNL     1     184.322 207.112  95.149  1.00  0.00     0.014 C 
ENDBRANCH   1   9
TORSDOF 3
ENDMDL
MODEL 5
REMARK VINA RESULT:    -3.898      3.135      3.877
REMARK INTER + INTRA:          -4.521
REMARK INTER:                  -4.465
REMARK INTRA:                  -0.056
REMARK UNBOUND:                -0.054
REMARK SMILES CC(C)[C@@H]([NH3+])C(=O)[O-]
REMARK SMILES IDX 4 1 5 2 6 6 7 7 8 8 2 9 1 10 3 11
REMARK H PARENT 5 3 5 4 5 5
REMARK Flexibility Score: inf
ROOT
ATOM      1  C   UNL     1     186.473 208.206  94.732  1.00  0.00     0.230 C 
ENDROOT
BRANCH   1   2
ATOM      2  N   UNL     1     185.334 208.039  95.647  1.00  0.00    -0.350 N 
ATOM      3  H   UNL     1     185.436 207.138  96.170  1.00  0.00     0.345 HD
ATOM      4  H   UNL     1     184.427 208.020  95.129  1.00  0.00     0.345 HD
ATOM      5  H   UNL     1     185.316 208.818  96.345  1.00  0.00     0.345 HD
ENDBRANCH   1   2
BRANCH   1   6
ATOM      6  C   UNL     1     187.681 207.457  95.243  1.00  0.00     0.099 C 
ATOM      7  O   UNL     1     187.654 206.201  95.324  1.00  0.00    -0.544 OA
ATOM      8  O   UNL     1     188.817 208.143  95.655  1.00  0.00    -0.544 OA
ENDBRANCH   1   6
BRANCH   1   9
ATOM      9  C   UNL     1     186.099 207.818  93.270  1.00  0.00     0.047 C 
ATOM     10  C   UNL     1     186.958 208.522  92.205  1.00  0.00     0.014 C 
ATOM     11  C   UNL     1     184.609 208.066  92.990  1.00  0.00     0.014 C 
ENDBRANCH   1   9
TORSDOF 3
ENDMDL
MODEL 6
REMARK VINA RESULT:    -3.886      2.345      3.177
REMARK INTER + INTRA:          -4.507
REMARK INTER:                  -4.455
REMARK INTRA:                  -0.052
REMARK UNBOUND:                -0.054
REMARK SMILES CC(C)[C@@H]([NH3+])C(=O)[O-]
REMARK SMILES IDX 4 1 5 2 6 6 7 7 8 8 2 9 1 10 3 11
REMARK H PARENT 5 3 5 4 5 5
REMARK Flexibility Score: inf
ROOT
ATOM      1  C   UNL     1     186.091 207.778  93.886  1.00  0.00     0.230 C 
ENDROOT
BRANCH   1   2
ATOM      2  N   UNL     1     186.298 208.634  95.064  1.00  0.00    -0.350 N 
ATOM      3  H   UNL     1     185.608 209.421  95.048  1.00  0.00     0.345 HD
ATOM      4  H   UNL     1     187.261 209.037  95.079  1.00  0.00     0.345 HD
ATOM      5  H   UNL     1     186.141 208.084  95.939  1.00  0.00     0.345 HD
ENDBRANCH   1   2
BRANCH   1   6
ATOM      6  C   UNL     1     184.694 207.202  93.885  1.00  0.00     0.099 C 
ATOM      7  O   UNL     1     184.017 207.194  94.946  1.00  0.00    -0.544 OA
ATOM      8  O   UNL     1     184.156 206.653  92.728  1.00  0.00    -0.544 OA
ENDBRANCH   1   6
BRANCH   1   9
ATOM      9  C   UNL     1     186.434 208.527  92.562  1.00  0.00     0.047 C 
ATOM     10  C   UNL     1     187.930 208.853  92.407  1.00  0.00     0.014 C 
ATOM     11  C   UNL     1     185.599 209.807  92.413  1.00  0.00     0.014 C 
ENDBRANCH   1   9
TORSDOF 3
ENDMDL
MODEL 7
REMARK VINA RESULT:    -3.811     17.784     18.189
REMARK INTER + INTRA:          -4.421
REMARK INTER:                  -4.518
REMARK INTRA:                   0.097
REMARK UNBOUND:                -0.054
REMARK SMILES CC(C)[C@@H]([NH3+])C(=O)[O-]
REMARK SMILES IDX 4 1 5 2 6 6 7 7 8 8 2 9 1 10 3 11
REMARK H PARENT 5 3 5 4 5 5
REMARK Flexibility Score: inf
ROOT
ATOM      1  C   UNL     1     190.440 194.739  82.901  1.00  0.00     0.230 C 
ENDROOT
BRANCH   1   2
ATOM      2  N   UNL     1     189.612 195.870  83.345  1.00  0.00    -0.350 N 
ATOM      3  H   UNL     1     189.764 196.686  82.707  1.00  0.00     0.345 HD
ATOM      4  H   UNL     1     189.852 196.161  84.319  1.00  0.00     0.345 HD
ATOM      5  H   UNL     1     188.599 195.611  83.304  1.00  0.00     0.345 HD
ENDBRANCH   1   2
BRANCH   1   6
ATOM      6  C   UNL     1     191.805 195.218  82.463  1.00  0.00     0.099 C 
ATOM      7  O   UNL     1     192.310 196.244  82.991  1.00  0.00    -0.544 OA
ATOM      8  O   UNL     1     192.500 194.554  81.460  1.00  0.00    -0.544 OA
ENDBRANCH   1   6
BRANCH   1   9
ATOM      9  C   UNL     1     190.514 193.619  83.983  1.00  0.00     0.047 C 
ATOM     10  C   UNL     1     191.951 193.245  84.387  1.00  0.00     0.014 C 
ATOM     11  C   UNL     1     189.750 192.363  83.539  1.00  0.00     0.014 C 
ENDBRANCH   1   9
TORSDOF 3
ENDMDL
MODEL 8
REMARK VINA RESULT:    -3.793      1.963      2.443
REMARK INTER + INTRA:          -4.401
REMARK INTER:                  -4.352
REMARK INTRA:                  -0.049
REMARK UNBOUND:                -0.054
REMARK SMILES CC(C)[C@@H]([NH3+])C(=O)[O-]
REMARK SMILES IDX 4 1 5 2 6 6 7 7 8 8 2 9 1 10 3 11
REMARK H PARENT 5 3 5 4 5 5
REMARK Flexibility Score: inf
ROOT
ATOM      1  C   UNL     1     186.359 207.862  94.879  1.00  0.00     0.230 C 
ENDROOT
BRANCH   1   2
ATOM      2  N   UNL     1     187.291 206.774  95.209  1.00  0.00    -0.350 N 
ATOM      3  H   UNL     1     187.875 207.053  96.031  1.00  0.00     0.345 HD
ATOM      4  H   UNL     1     187.927 206.560  94.408  1.00  0.00     0.345 HD
ATOM      5  H   UNL     1     186.759 205.912  95.467  1.00  0.00     0.345 HD
ENDBRANCH   1   2
BRANCH   1   6
ATOM      6  C   UNL     1     186.826 208.610  93.652  1.00  0.00     0.099 C 
ATOM      7  O   UNL     1     187.848 208.220  93.029  1.00  0.00    -0.544 OA
ATOM      8  O   UNL     1     186.155 209.747  93.217  1.00  0.00    -0.544 OA
ENDBRANCH   1   6
BRANCH   1   9
ATOM      9  C   UNL     1     184.894 207.345  94.747  1.00  0.00     0.047 C 
ATOM     10  C   UNL     1     184.464 206.409  95.889  1.00  0.00     0.014 C 
ATOM     11  C   UNL     1     184.664 206.659  93.392  1.00  0.00     0.014 C 
ENDBRANCH   1   9
TORSDOF 3
ENDMDL
MODEL 9
REMARK VINA RESULT:    -3.787     17.878     18.448
REMARK INTER + INTRA:          -4.395
REMARK INTER:                  -4.400
REMARK INTRA:                   0.005
REMARK UNBOUND:                -0.054
REMARK SMILES CC(C)[C@@H]([NH3+])C(=O)[O-]
REMARK SMILES IDX 4 1 5 2 6 6 7 7 8 8 2 9 1 10 3 11
REMARK H PARENT 5 3 5 4 5 5
REMARK Flexibility Score: inf
ROOT
ATOM      1  C   UNL     1     191.417 193.582  83.453  1.00  0.00     0.230 C 
ENDROOT
BRANCH   1   2
ATOM      2  N   UNL     1     192.477 193.619  84.472  1.00  0.00    -0.350 N 
ATOM      3  H   UNL     1     193.297 193.057  84.143  1.00  0.00     0.345 HD
ATOM      4  H   UNL     1     192.147 193.224  85.381  1.00  0.00     0.345 HD
ATOM      5  H   UNL     1     192.798 194.603  84.620  1.00  0.00     0.345 HD
ENDBRANCH   1   2
BRANCH   1   6
ATOM      6  C   UNL     1     190.057 193.721  84.095  1.00  0.00     0.099 C 
ATOM      7  O   UNL     1     189.728 192.960  85.042  1.00  0.00    -0.544 OA
ATOM      8  O   UNL     1     189.148 194.664  83.630  1.00  0.00    -0.544 OA
ENDBRANCH   1   6
BRANCH   1   9
ATOM      9  C   UNL     1     191.663 194.634  82.329  1.00  0.00     0.047 C 
ATOM     10  C   UNL     1     192.619 194.147  81.226  1.00  0.00     0.014 C 
ATOM     11  C   UNL     1     192.164 195.964  82.909  1.00  0.00     0.014 C 
ENDBRANCH   1   9
TORSDOF 3
ENDMDL
