MODEL 1
REMARK VINA RESULT:    -4.413      0.000      0.000
REMARK INTER + INTRA:          -9.105
REMARK INTER:                  -8.282
REMARK INTRA:                  -0.823
REMARK UNBOUND:                -0.823
REMARK SMILES O=C([O-])CCCCCCCCCCCCCCC(=O)[O-]
REMARK SMILES IDX 10 1 9 2 8 3 7 4 6 5 5 6 4 7 2 8 1 9 3 10 11 11 12 12 13 13
REMARK SMILES IDX 14 14 15 15 16 16 17 17 18 18 19 19 20 20
REMARK H PARENT
REMARK Flexibility Score: inf
ROOT
ATOM      1  C   UNL     1      21.937 -20.260 -18.392  1.00  0.00     0.000 C 
ENDROOT
BRANCH   1   2
ATOM      2  C   UNL     1      21.677 -19.458 -17.100  1.00  0.00     0.000 C 
BRANCH   2   3
ATOM      3  C   UNL     1      22.539 -18.185 -17.019  1.00  0.00     0.000 C 
BRANCH   3   4
ATOM      4  C   UNL     1      21.685 -16.899 -17.004  1.00  0.00     0.000 C 
BRANCH   4   5
ATOM      5  C   UNL     1      20.221 -17.128 -16.582  1.00  0.00     0.000 C 
BRANCH   5   6
ATOM      6  C   UNL     1      19.488 -15.870 -16.085  1.00  0.00     0.006 C 
BRANCH   6   7
ATOM      7  C   UNL     1      18.121 -16.186 -15.464  1.00  0.00     0.053 C 
BRANCH   7   8
ATOM      8  C   UNL     1      17.141 -15.101 -15.783  1.00  0.00     0.041 C 
ATOM      9  O   UNL     1      17.093 -14.062 -15.074  1.00  0.00    -0.550 OA
ATOM     10  O   UNL     1      16.318 -15.215 -16.896  1.00  0.00    -0.550 OA
ENDBRANCH   7   8
ENDBRANCH   6   7
ENDBRANCH   5   6
ENDBRANCH   4   5
ENDBRANCH   3   4
ENDBRANCH   2   3
ENDBRANCH   1   2
BRANCH   1  11
ATOM     11  C   UNL     1      20.782 -21.201 -18.775  1.00  0.00     0.000 C 
BRANCH  11  12
ATOM     12  C   UNL     1      19.858 -20.604 -19.849  1.00  0.00     0.000 C 
BRANCH  12  13
ATOM     13  C   UNL     1      18.866 -21.634 -20.414  1.00  0.00     0.000 C 
BRANCH  13  14
ATOM     14  C   UNL     1      18.376 -22.627 -19.350  1.00  0.00     0.000 C 
BRANCH  14  15
ATOM     15  C   UNL     1      17.539 -23.747 -19.987  1.00  0.00     0.000 C 
BRANCH  15  16
ATOM     16  C   UNL     1      16.533 -24.374 -19.005  1.00  0.00     0.006 C 
BRANCH  16  17
ATOM     17  C   UNL     1      16.417 -23.638 -17.660  1.00  0.00     0.053 C 
BRANCH  17  18
ATOM     18  C   UNL     1      15.095 -22.953 -17.505  1.00  0.00     0.041 C 
ATOM     19  O   UNL     1      14.383 -22.715 -18.517  1.00  0.00    -0.550 OA
ATOM     20  O   UNL     1      14.663 -22.548 -16.249  1.00  0.00    -0.550 OA
ENDBRANCH  17  18
ENDBRANCH  16  17
ENDBRANCH  15  16
ENDBRANCH  14  15
ENDBRANCH  13  14
ENDBRANCH  12  13
ENDBRANCH  11  12
ENDBRANCH   1  11
TORSDOF 15
ENDMDL
MODEL 2
REMARK VINA RESULT:    -4.352      1.046      7.502
REMARK INTER + INTRA:          -8.992
REMARK INTER:                  -8.241
REMARK INTRA:                  -0.751
REMARK UNBOUND:                -0.823
REMARK SMILES O=C([O-])CCCCCCCCCCCCCCC(=O)[O-]
REMARK SMILES IDX 10 1 9 2 8 3 7 4 6 5 5 6 4 7 2 8 1 9 3 10 11 11 12 12 13 13
REMARK SMILES IDX 14 14 15 15 16 16 17 17 18 18 19 19 20 20
REMARK H PARENT
REMARK Flexibility Score: inf
ROOT
ATOM      1  C   UNL     1      20.413 -20.147 -19.185  1.00  0.00     0.000 C 
ENDROOT
BRANCH   1   2
ATOM      2  C   UNL     1      19.683 -21.281 -19.936  1.00  0.00     0.000 C 
BRANCH   2   3
ATOM      3  C   UNL     1      19.867 -22.647 -19.253  1.00  0.00     0.000 C 
BRANCH   3   4
ATOM      4  C   UNL     1      18.709 -23.620 -19.566  1.00  0.00     0.000 C 
BRANCH   4   5
ATOM      5  C   UNL     1      17.604 -23.640 -18.492  1.00  0.00     0.000 C 
BRANCH   5   6
ATOM      6  C   UNL     1      16.242 -24.165 -18.977  1.00  0.00     0.006 C 
BRANCH   6   7
ATOM      7  C   UNL     1      15.070 -23.636 -18.142  1.00  0.00     0.053 C 
BRANCH   7   8
ATOM      8  C   UNL     1      13.950 -23.200 -19.033  1.00  0.00     0.041 C 
ATOM      9  O   UNL     1      13.709 -21.975 -19.195  1.00  0.00    -0.550 OA
ATOM     10  O   UNL     1      13.206 -24.146 -19.728  1.00  0.00    -0.550 OA
ENDBRANCH   7   8
ENDBRANCH   6   7
ENDBRANCH   5   6
ENDBRANCH   4   5
ENDBRANCH   3   4
ENDBRANCH   2   3
ENDBRANCH   1   2
BRANCH   1  11
ATOM     11  C   UNL     1      21.328 -20.650 -18.055  1.00  0.00     0.000 C 
BRANCH  11  12
ATOM     12  C   UNL     1      21.925 -19.506 -17.218  1.00  0.00     0.000 C 
BRANCH  12  13
ATOM     13  C   UNL     1      21.922 -18.163 -17.964  1.00  0.00     0.000 C 
BRANCH  13  14
ATOM     14  C   UNL     1      21.568 -16.980 -17.050  1.00  0.00     0.000 C 
BRANCH  14  15
ATOM     15  C   UNL     1      20.207 -17.199 -16.371  1.00  0.00     0.000 C 
BRANCH  15  16
ATOM     16  C   UNL     1      19.433 -15.887 -16.146  1.00  0.00     0.006 C 
BRANCH  16  17
ATOM     17  C   UNL     1      18.094 -16.059 -15.410  1.00  0.00     0.053 C 
BRANCH  17  18
ATOM     18  C   UNL     1      17.097 -15.013 -15.803  1.00  0.00     0.041 C 
ATOM     19  O   UNL     1      16.936 -13.991 -15.086  1.00  0.00    -0.550 OA
ATOM     20  O   UNL     1      16.323 -15.183 -16.943  1.00  0.00    -0.550 OA
ENDBRANCH  17  18
ENDBRANCH  16  17
ENDBRANCH  15  16
ENDBRANCH  14  15
ENDBRANCH  13  14
ENDBRANCH  12  13
ENDBRANCH  11  12
ENDBRANCH   1  11
TORSDOF 15
ENDMDL
MODEL 3
REMARK VINA RESULT:    -4.278      3.040      7.302
REMARK INTER + INTRA:          -8.853
REMARK INTER:                  -7.470
REMARK INTRA:                  -1.382
REMARK UNBOUND:                -0.823
REMARK SMILES O=C([O-])CCCCCCCCCCCCCCC(=O)[O-]
REMARK SMILES IDX 10 1 9 2 8 3 7 4 6 5 5 6 4 7 2 8 1 9 3 10 11 11 12 12 13 13
REMARK SMILES IDX 14 14 15 15 16 16 17 17 18 18 19 19 20 20
REMARK H PARENT
REMARK Flexibility Score: inf
ROOT
ATOM      1  C   UNL     1      17.812 -24.056 -19.890  1.00  0.00     0.000 C 
ENDROOT
BRANCH   1   2
ATOM      2  C   UNL     1      16.541 -24.484 -19.125  1.00  0.00     0.000 C 
BRANCH   2   3
ATOM      3  C   UNL     1      16.410 -23.773 -17.767  1.00  0.00     0.000 C 
BRANCH   3   4
ATOM      4  C   UNL     1      15.188 -22.830 -17.715  1.00  0.00     0.000 C 
BRANCH   4   5
ATOM      5  C   UNL     1      14.198 -23.029 -18.878  1.00  0.00     0.000 C 
BRANCH   5   6
ATOM      6  C   UNL     1      13.918 -21.765 -19.710  1.00  0.00     0.006 C 
BRANCH   6   7
ATOM      7  C   UNL     1      15.190 -21.156 -20.312  1.00  0.00     0.053 C 
BRANCH   7   8
ATOM      8  C   UNL     1      14.980 -19.705 -20.613  1.00  0.00     0.041 C 
ATOM      9  O   UNL     1      15.968 -18.937 -20.746  1.00  0.00    -0.550 OA
ATOM     10  O   UNL     1      13.694 -19.213 -20.800  1.00  0.00    -0.550 OA
ENDBRANCH   7   8
ENDBRANCH   6   7
ENDBRANCH   5   6
ENDBRANCH   4   5
ENDBRANCH   3   4
ENDBRANCH   2   3
ENDBRANCH   1   2
BRANCH   1  11
ATOM     11  C   UNL     1      18.465 -22.781 -19.331  1.00  0.00     0.000 C 
BRANCH  11  12
ATOM     12  C   UNL     1      18.829 -21.766 -20.428  1.00  0.00     0.000 C 
BRANCH  12  13
ATOM     13  C   UNL     1      19.891 -20.754 -19.969  1.00  0.00     0.000 C 
BRANCH  13  14
ATOM     14  C   UNL     1      20.636 -21.213 -18.707  1.00  0.00     0.000 C 
BRANCH  14  15
ATOM     15  C   UNL     1      21.725 -20.202 -18.315  1.00  0.00     0.000 C 
BRANCH  15  16
ATOM     16  C   UNL     1      21.427 -19.489 -16.983  1.00  0.00     0.006 C 
BRANCH  16  17
ATOM     17  C   UNL     1      21.282 -17.962 -17.101  1.00  0.00     0.053 C 
BRANCH  17  18
ATOM     18  C   UNL     1      22.599 -17.288 -17.336  1.00  0.00     0.041 C 
ATOM     19  O   UNL     1      23.550 -17.460 -16.529  1.00  0.00    -0.550 OA
ATOM     20  O   UNL     1      22.765 -16.445 -18.427  1.00  0.00    -0.550 OA
ENDBRANCH  17  18
ENDBRANCH  16  17
ENDBRANCH  15  16
ENDBRANCH  14  15
ENDBRANCH  13  14
ENDBRANCH  12  13
ENDBRANCH  11  12
ENDBRANCH   1  11
TORSDOF 15
ENDMDL
MODEL 4
REMARK VINA RESULT:    -4.198      0.878      7.298
REMARK INTER + INTRA:          -8.702
REMARK INTER:                  -7.847
REMARK INTRA:                  -0.855
REMARK UNBOUND:                -0.823
REMARK SMILES O=C([O-])CCCCCCCCCCCCCCC(=O)[O-]
REMARK SMILES IDX 10 1 9 2 8 3 7 4 6 5 5 6 4 7 2 8 1 9 3 10 11 11 12 12 13 13
REMARK SMILES IDX 14 14 15 15 16 16 17 17 18 18 19 19 20 20
REMARK H PARENT
REMARK Flexibility Score: inf
ROOT
ATOM      1  C   UNL     1      21.000 -19.450 -18.331  1.00  0.00     0.000 C 
ENDROOT
BRANCH   1   2
ATOM      2  C   UNL     1      21.193 -20.628 -19.309  1.00  0.00     0.000 C 
BRANCH   2   3
ATOM      3  C   UNL     1      20.523 -21.919 -18.807  1.00  0.00     0.000 C 
BRANCH   3   4
ATOM      4  C   UNL     1      19.172 -22.188 -19.506  1.00  0.00     0.000 C 
BRANCH   4   5
ATOM      5  C   UNL     1      18.383 -23.366 -18.904  1.00  0.00     0.000 C 
BRANCH   5   6
ATOM      6  C   UNL     1      16.853 -23.212 -18.956  1.00  0.00     0.006 C 
BRANCH   6   7
ATOM      7  C   UNL     1      16.162 -23.713 -17.682  1.00  0.00     0.053 C 
BRANCH   7   8
ATOM      8  C   UNL     1      14.947 -22.890 -17.390  1.00  0.00     0.041 C 
ATOM      9  O   UNL     1      14.668 -22.571 -16.204  1.00  0.00    -0.550 OA
ATOM     10  O   UNL     1      14.154 -22.429 -18.433  1.00  0.00    -0.550 OA
ENDBRANCH   7   8
ENDBRANCH   6   7
ENDBRANCH   5   6
ENDBRANCH   4   5
ENDBRANCH   3   4
ENDBRANCH   2   3
ENDBRANCH   1   2
BRANCH   1  11
ATOM     11  C   UNL     1      22.022 -19.431 -17.181  1.00  0.00     0.000 C 
BRANCH  11  12
ATOM     12  C   UNL     1      23.217 -18.504 -17.461  1.00  0.00     0.000 C 
BRANCH  12  13
ATOM     13  C   UNL     1      23.126 -17.175 -16.695  1.00  0.00     0.000 C 
BRANCH  13  14
ATOM     14  C   UNL     1      22.138 -16.190 -17.338  1.00  0.00     0.000 C 
BRANCH  14  15
ATOM     15  C   UNL     1      21.111 -15.692 -16.310  1.00  0.00     0.000 C 
BRANCH  15  16
ATOM     16  C   UNL     1      19.814 -16.523 -16.311  1.00  0.00     0.006 C 
BRANCH  16  17
ATOM     17  C   UNL     1      18.744 -16.028 -15.323  1.00  0.00     0.053 C 
BRANCH  17  18
ATOM     18  C   UNL     1      17.816 -15.034 -15.949  1.00  0.00     0.041 C 
ATOM     19  O   UNL     1      18.065 -13.802 -15.874  1.00  0.00    -0.550 OA
ATOM     20  O   UNL     1      16.660 -15.465 -16.586  1.00  0.00    -0.550 OA
ENDBRANCH  17  18
ENDBRANCH  16  17
ENDBRANCH  15  16
ENDBRANCH  14  15
ENDBRANCH  13  14
ENDBRANCH  12  13
ENDBRANCH  11  12
ENDBRANCH   1  11
TORSDOF 15
ENDMDL
MODEL 5
REMARK VINA RESULT:    -4.161      2.646      3.174
REMARK INTER + INTRA:          -8.632
REMARK INTER:                  -7.359
REMARK INTRA:                  -1.274
REMARK UNBOUND:                -0.823
REMARK SMILES O=C([O-])CCCCCCCCCCCCCCC(=O)[O-]
REMARK SMILES IDX 10 1 9 2 8 3 7 4 6 5 5 6 4 7 2 8 1 9 3 10 11 11 12 12 13 13
REMARK SMILES IDX 14 14 15 15 16 16 17 17 18 18 19 19 20 20
REMARK H PARENT
REMARK Flexibility Score: inf
ROOT
ATOM      1  C   UNL     1      20.996 -18.898 -18.450  1.00  0.00     0.000 C 
ENDROOT
BRANCH   1   2
ATOM      2  C   UNL     1      21.507 -19.464 -17.107  1.00  0.00     0.000 C 
BRANCH   2   3
ATOM      3  C   UNL     1      23.008 -19.200 -16.896  1.00  0.00     0.000 C 
BRANCH   3   4
ATOM      4  C   UNL     1      23.766 -19.022 -18.231  1.00  0.00     0.000 C 
BRANCH   4   5
ATOM      5  C   UNL     1      24.659 -17.768 -18.277  1.00  0.00     0.000 C 
BRANCH   5   6
ATOM      6  C   UNL     1      23.900 -16.440 -18.445  1.00  0.00     0.006 C 
BRANCH   6   7
ATOM      7  C   UNL     1      23.916 -15.582 -17.174  1.00  0.00     0.053 C 
BRANCH   7   8
ATOM      8  C   UNL     1      22.543 -15.068 -16.875  1.00  0.00     0.041 C 
ATOM      9  O   UNL     1      22.323 -13.829 -16.844  1.00  0.00    -0.550 OA
ATOM     10  O   UNL     1      21.494 -15.959 -16.684  1.00  0.00    -0.550 OA
ENDBRANCH   7   8
ENDBRANCH   6   7
ENDBRANCH   5   6
ENDBRANCH   4   5
ENDBRANCH   3   4
ENDBRANCH   2   3
ENDBRANCH   1   2
BRANCH   1  11
ATOM     11  C   UNL     1      20.237 -19.929 -19.302  1.00  0.00     0.000 C 
BRANCH  11  12
ATOM     12  C   UNL     1      21.057 -21.201 -19.571  1.00  0.00     0.000 C 
BRANCH  12  13
ATOM     13  C   UNL     1      20.390 -22.466 -19.008  1.00  0.00     0.000 C 
BRANCH  13  14
ATOM     14  C   UNL     1      18.888 -22.532 -19.324  1.00  0.00     0.000 C 
BRANCH  14  15
ATOM     15  C   UNL     1      18.456 -23.972 -19.641  1.00  0.00     0.000 C 
BRANCH  15  16
ATOM     16  C   UNL     1      17.017 -24.277 -19.187  1.00  0.00     0.006 C 
BRANCH  16  17
ATOM     17  C   UNL     1      16.699 -23.839 -17.748  1.00  0.00     0.053 C 
BRANCH  17  18
ATOM     18  C   UNL     1      15.236 -23.593 -17.544  1.00  0.00     0.041 C 
ATOM     19  O   UNL     1      14.389 -24.201 -18.250  1.00  0.00    -0.550 OA
ATOM     20  O   UNL     1      14.810 -22.669 -16.599  1.00  0.00    -0.550 OA
ENDBRANCH  17  18
ENDBRANCH  16  17
ENDBRANCH  15  16
ENDBRANCH  14  15
ENDBRANCH  13  14
ENDBRANCH  12  13
ENDBRANCH  11  12
ENDBRANCH   1  11
TORSDOF 15
ENDMDL
MODEL 6
REMARK VINA RESULT:    -4.109      3.043      4.734
REMARK INTER + INTRA:          -8.536
REMARK INTER:                  -7.102
REMARK INTRA:                  -1.434
REMARK UNBOUND:                -0.823
REMARK SMILES O=C([O-])CCCCCCCCCCCCCCC(=O)[O-]
REMARK SMILES IDX 10 1 9 2 8 3 7 4 6 5 5 6 4 7 2 8 1 9 3 10 11 11 12 12 13 13
REMARK SMILES IDX 14 14 15 15 16 16 17 17 18 18 19 19 20 20
REMARK H PARENT
REMARK Flexibility Score: inf
ROOT
ATOM      1  C   UNL     1      18.276 -22.511 -19.418  1.00  0.00     0.000 C 
ENDROOT
BRANCH   1   2
ATOM      2  C   UNL     1      18.634 -21.520 -20.546  1.00  0.00     0.000 C 
BRANCH   2   3
ATOM      3  C   UNL     1      19.976 -20.810 -20.294  1.00  0.00     0.000 C 
BRANCH   3   4
ATOM      4  C   UNL     1      20.608 -21.212 -18.944  1.00  0.00     0.000 C 
BRANCH   4   5
ATOM      5  C   UNL     1      21.565 -20.152 -18.365  1.00  0.00     0.000 C 
BRANCH   5   6
ATOM      6  C   UNL     1      20.984 -18.730 -18.290  1.00  0.00     0.006 C 
BRANCH   6   7
ATOM      7  C   UNL     1      21.427 -17.972 -17.033  1.00  0.00     0.053 C 
BRANCH   7   8
ATOM      8  C   UNL     1      22.645 -17.151 -17.322  1.00  0.00     0.041 C 
ATOM      9  O   UNL     1      23.550 -17.033 -16.455  1.00  0.00    -0.550 OA
ATOM     10  O   UNL     1      22.804 -16.559 -18.569  1.00  0.00    -0.550 OA
ENDBRANCH   7   8
ENDBRANCH   6   7
ENDBRANCH   5   6
ENDBRANCH   4   5
ENDBRANCH   3   4
ENDBRANCH   2   3
ENDBRANCH   1   2
BRANCH   1  11
ATOM     11  C   UNL     1      18.027 -23.945 -19.917  1.00  0.00     0.000 C 
BRANCH  11  12
ATOM     12  C   UNL     1      16.874 -24.642 -19.175  1.00  0.00     0.000 C 
BRANCH  12  13
ATOM     13  C   UNL     1      16.528 -23.958 -17.844  1.00  0.00     0.000 C 
BRANCH  13  14
ATOM     14  C   UNL     1      15.013 -23.841 -17.616  1.00  0.00     0.000 C 
BRANCH  14  15
ATOM     15  C   UNL     1      14.486 -22.488 -18.117  1.00  0.00     0.000 C 
BRANCH  15  16
ATOM     16  C   UNL     1      13.951 -22.551 -19.559  1.00  0.00     0.006 C 
BRANCH  16  17
ATOM     17  C   UNL     1      14.776 -21.744 -20.576  1.00  0.00     0.053 C 
BRANCH  17  18
ATOM     18  C   UNL     1      14.502 -20.275 -20.485  1.00  0.00     0.041 C 
ATOM     19  O   UNL     1      15.456 -19.454 -20.461  1.00  0.00    -0.550 OA
ATOM     20  O   UNL     1      13.195 -19.815 -20.391  1.00  0.00    -0.550 OA
ENDBRANCH  17  18
ENDBRANCH  16  17
ENDBRANCH  15  16
ENDBRANCH  14  15
ENDBRANCH  13  14
ENDBRANCH  12  13
ENDBRANCH  11  12
ENDBRANCH   1  11
TORSDOF 15
ENDMDL
MODEL 7
REMARK VINA RESULT:    -4.091      0.878      1.505
REMARK INTER + INTRA:          -8.501
REMARK INTER:                  -7.744
REMARK INTRA:                  -0.758
REMARK UNBOUND:                -0.823
REMARK SMILES O=C([O-])CCCCCCCCCCCCCCC(=O)[O-]
REMARK SMILES IDX 10 1 9 2 8 3 7 4 6 5 5 6 4 7 2 8 1 9 3 10 11 11 12 12 13 13
REMARK SMILES IDX 14 14 15 15 16 16 17 17 18 18 19 19 20 20
REMARK H PARENT
REMARK Flexibility Score: inf
ROOT
ATOM      1  C   UNL     1      22.798 -19.033 -16.936  1.00  0.00     0.000 C 
ENDROOT
BRANCH   1   2
ATOM      2  C   UNL     1      23.076 -18.194 -18.202  1.00  0.00     0.000 C 
BRANCH   2   3
ATOM      3  C   UNL     1      22.546 -16.755 -18.076  1.00  0.00     0.000 C 
BRANCH   3   4
ATOM      4  C   UNL     1      21.868 -16.497 -16.713  1.00  0.00     0.000 C 
BRANCH   4   5
ATOM      5  C   UNL     1      20.342 -16.713 -16.725  1.00  0.00     0.000 C 
BRANCH   5   6
ATOM      6  C   UNL     1      19.538 -15.682 -15.916  1.00  0.00     0.006 C 
BRANCH   6   7
ATOM      7  C   UNL     1      18.139 -16.183 -15.537  1.00  0.00     0.053 C 
BRANCH   7   8
ATOM      8  C   UNL     1      17.114 -15.130 -15.816  1.00  0.00     0.041 C 
ATOM      9  O   UNL     1      17.006 -14.133 -15.055  1.00  0.00    -0.550 OA
ATOM     10  O   UNL     1      16.313 -15.222 -16.948  1.00  0.00    -0.550 OA
ENDBRANCH   7   8
ENDBRANCH   6   7
ENDBRANCH   5   6
ENDBRANCH   4   5
ENDBRANCH   3   4
ENDBRANCH   2   3
ENDBRANCH   1   2
BRANCH   1  11
ATOM     11  C   UNL     1      21.734 -20.125 -17.144  1.00  0.00     0.000 C 
BRANCH  11  12
ATOM     12  C   UNL     1      21.001 -19.995 -18.490  1.00  0.00     0.000 C 
BRANCH  12  13
ATOM     13  C   UNL     1      21.196 -21.225 -19.390  1.00  0.00     0.000 C 
BRANCH  13  14
ATOM     14  C   UNL     1      20.254 -22.381 -19.022  1.00  0.00     0.000 C 
BRANCH  14  15
ATOM     15  C   UNL     1      18.825 -22.102 -19.512  1.00  0.00     0.000 C 
BRANCH  15  16
ATOM     16  C   UNL     1      17.948 -23.367 -19.551  1.00  0.00     0.006 C 
BRANCH  16  17
ATOM     17  C   UNL     1      17.236 -23.686 -18.226  1.00  0.00     0.053 C 
BRANCH  17  18
ATOM     18  C   UNL     1      15.826 -23.182 -18.209  1.00  0.00     0.041 C 
ATOM     19  O   UNL     1      15.456 -22.311 -19.040  1.00  0.00    -0.550 OA
ATOM     20  O   UNL     1      14.931 -23.649 -17.256  1.00  0.00    -0.550 OA
ENDBRANCH  17  18
ENDBRANCH  16  17
ENDBRANCH  15  16
ENDBRANCH  14  15
ENDBRANCH  13  14
ENDBRANCH  12  13
ENDBRANCH  11  12
ENDBRANCH   1  11
TORSDOF 15
ENDMDL
MODEL 8
REMARK VINA RESULT:    -4.077      2.879      8.239
REMARK INTER + INTRA:          -8.475
REMARK INTER:                  -7.487
REMARK INTRA:                  -0.987
REMARK UNBOUND:                -0.823
REMARK SMILES O=C([O-])CCCCCCCCCCCCCCC(=O)[O-]
REMARK SMILES IDX 10 1 9 2 8 3 7 4 6 5 5 6 4 7 2 8 1 9 3 10 11 11 12 12 13 13
REMARK SMILES IDX 14 14 15 15 16 16 17 17 18 18 19 19 20 20
REMARK H PARENT
REMARK Flexibility Score: inf
ROOT
ATOM      1  C   UNL     1      20.447 -21.757 -18.728  1.00  0.00     0.000 C 
ENDROOT
BRANCH   1   2
ATOM      2  C   UNL     1      19.331 -22.142 -19.723  1.00  0.00     0.000 C 
BRANCH   2   3
ATOM      3  C   UNL     1      19.215 -23.665 -19.909  1.00  0.00     0.000 C 
BRANCH   3   4
ATOM      4  C   UNL     1      17.925 -24.236 -19.281  1.00  0.00     0.000 C 
BRANCH   4   5
ATOM      5  C   UNL     1      17.176 -23.236 -18.380  1.00  0.00     0.000 C 
BRANCH   5   6
ATOM      6  C   UNL     1      16.011 -23.839 -17.576  1.00  0.00     0.006 C 
BRANCH   6   7
ATOM      7  C   UNL     1      14.728 -23.004 -17.672  1.00  0.00     0.053 C 
BRANCH   7   8
ATOM      8  C   UNL     1      14.073 -23.207 -19.002  1.00  0.00     0.041 C 
ATOM      9  O   UNL     1      14.130 -22.306 -19.880  1.00  0.00    -0.550 OA
ATOM     10  O   UNL     1      13.447 -24.413 -19.292  1.00  0.00    -0.550 OA
ENDBRANCH   7   8
ENDBRANCH   6   7
ENDBRANCH   5   6
ENDBRANCH   4   5
ENDBRANCH   3   4
ENDBRANCH   2   3
ENDBRANCH   1   2
BRANCH   1  11
ATOM     11  C   UNL     1      21.228 -20.496 -19.138  1.00  0.00     0.000 C 
BRANCH  11  12
ATOM     12  C   UNL     1      20.741 -19.231 -18.414  1.00  0.00     0.000 C 
BRANCH  12  13
ATOM     13  C   UNL     1      21.336 -19.090 -17.004  1.00  0.00     0.000 C 
BRANCH  13  14
ATOM     14  C   UNL     1      22.820 -19.479 -16.948  1.00  0.00     0.000 C 
BRANCH  14  15
ATOM     15  C   UNL     1      23.702 -18.247 -16.695  1.00  0.00     0.000 C 
BRANCH  15  16
ATOM     16  C   UNL     1      24.144 -17.550 -17.995  1.00  0.00     0.006 C 
BRANCH  16  17
ATOM     17  C   UNL     1      23.238 -16.386 -18.430  1.00  0.00     0.053 C 
BRANCH  17  18
ATOM     18  C   UNL     1      23.072 -15.367 -17.346  1.00  0.00     0.041 C 
ATOM     19  O   UNL     1      23.998 -14.549 -17.101  1.00  0.00    -0.550 OA
ATOM     20  O   UNL     1      21.911 -15.341 -16.586  1.00  0.00    -0.550 OA
ENDBRANCH  17  18
ENDBRANCH  16  17
ENDBRANCH  15  16
ENDBRANCH  14  15
ENDBRANCH  13  14
ENDBRANCH  12  13
ENDBRANCH  11  12
ENDBRANCH   1  11
TORSDOF 15
ENDMDL
MODEL 9
REMARK VINA RESULT:    -3.942      2.681      3.345
REMARK INTER + INTRA:          -8.222
REMARK INTER:                  -7.136
REMARK INTRA:                  -1.086
REMARK UNBOUND:                -0.823
REMARK SMILES O=C([O-])CCCCCCCCCCCCCCC(=O)[O-]
REMARK SMILES IDX 10 1 9 2 8 3 7 4 6 5 5 6 4 7 2 8 1 9 3 10 11 11 12 12 13 13
REMARK SMILES IDX 14 14 15 15 16 16 17 17 18 18 19 19 20 20
REMARK H PARENT
REMARK Flexibility Score: inf
ROOT
ATOM      1  C   UNL     1      21.177 -20.741 -19.090  1.00  0.00     0.000 C 
ENDROOT
BRANCH   1   2
ATOM      2  C   UNL     1      20.934 -19.765 -17.919  1.00  0.00     0.000 C 
BRANCH   2   3
ATOM      3  C   UNL     1      22.141 -19.682 -16.968  1.00  0.00     0.000 C 
BRANCH   3   4
ATOM      4  C   UNL     1      23.359 -18.994 -17.624  1.00  0.00     0.000 C 
BRANCH   4   5
ATOM      5  C   UNL     1      24.371 -18.424 -16.613  1.00  0.00     0.000 C 
BRANCH   5   6
ATOM      6  C   UNL     1      24.225 -16.918 -16.332  1.00  0.00     0.006 C 
BRANCH   6   7
ATOM      7  C   UNL     1      23.504 -16.170 -17.460  1.00  0.00     0.053 C 
BRANCH   7   8
ATOM      8  C   UNL     1      22.249 -15.537 -16.947  1.00  0.00     0.041 C 
ATOM      9  O   UNL     1      21.242 -16.245 -16.689  1.00  0.00    -0.550 OA
ATOM     10  O   UNL     1      22.211 -14.170 -16.703  1.00  0.00    -0.550 OA
ENDBRANCH   7   8
ENDBRANCH   6   7
ENDBRANCH   5   6
ENDBRANCH   4   5
ENDBRANCH   3   4
ENDBRANCH   2   3
ENDBRANCH   1   2
BRANCH   1  11
ATOM     11  C   UNL     1      20.536 -22.123 -18.881  1.00  0.00     0.000 C 
BRANCH  11  12
ATOM     12  C   UNL     1      19.106 -22.208 -19.439  1.00  0.00     0.000 C 
BRANCH  12  13
ATOM     13  C   UNL     1      18.825 -23.545 -20.142  1.00  0.00     0.000 C 
BRANCH  13  14
ATOM     14  C   UNL     1      17.797 -24.404 -19.389  1.00  0.00     0.000 C 
BRANCH  14  15
ATOM     15  C   UNL     1      17.251 -23.657 -18.162  1.00  0.00     0.000 C 
BRANCH  15  16
ATOM     16  C   UNL     1      15.714 -23.672 -18.089  1.00  0.00     0.006 C 
BRANCH  16  17
ATOM     17  C   UNL     1      15.012 -23.437 -19.437  1.00  0.00     0.053 C 
BRANCH  17  18
ATOM     18  C   UNL     1      14.799 -21.981 -19.715  1.00  0.00     0.041 C 
ATOM     19  O   UNL     1      15.755 -21.268 -20.118  1.00  0.00    -0.550 OA
ATOM     20  O   UNL     1      13.554 -21.406 -19.497  1.00  0.00    -0.550 OA
ENDBRANCH  17  18
ENDBRANCH  16  17
ENDBRANCH  15  16
ENDBRANCH  14  15
ENDBRANCH  13  14
ENDBRANCH  12  13
ENDBRANCH  11  12
ENDBRANCH   1  11
TORSDOF 15
ENDMDL
