MODEL 1
REMARK VINA RESULT:    -4.651      0.000      0.000
REMARK INTER + INTRA:          -6.970
REMARK INTER:                  -6.690
REMARK INTRA:                  -0.280
REMARK UNBOUND:                -0.280
REMARK SMILES CCCCCCCCCO
REMARK SMILES IDX 6 1 5 2 4 3 3 4 2 5 1 6 7 7 8 8 9 9 10 10
REMARK H PARENT 10 11
REMARK Flexibility Score: inf
ROOT
ATOM      1  C   UNL     1       3.781   2.235  11.146  1.00  0.00     0.000 C 
ENDROOT
BRANCH   1   2
ATOM      2  C   UNL     1       4.967   3.000  11.746  1.00  0.00     0.000 C 
BRANCH   2   3
ATOM      3  C   UNL     1       4.489   4.237  12.524  1.00  0.00    -0.000 C 
BRANCH   3   4
ATOM      4  C   UNL     1       5.665   5.076  13.065  1.00  0.00    -0.000 C 
BRANCH   4   5
ATOM      5  C   UNL     1       6.059   4.724  14.510  1.00  0.00    -0.003 C 
ATOM      6  C   UNL     1       6.810   5.850  15.217  1.00  0.00     0.004 C 
ENDBRANCH   4   5
ENDBRANCH   3   4
ENDBRANCH   2   3
ENDBRANCH   1   2
BRANCH   1   7
ATOM      7  C   UNL     1       2.467   2.631  11.829  1.00  0.00     0.002 C 
BRANCH   7   8
ATOM      8  C   UNL     1       1.620   1.393  12.155  1.00  0.00     0.028 C 
BRANCH   8   9
ATOM      9  C   UNL     1       2.432   0.103  12.027  1.00  0.00     0.156 C 
BRANCH   9  10
ATOM     10  O   UNL     1       1.817  -0.927  12.752  1.00  0.00    -0.396 OA
ATOM     11  H   UNL     1       1.822  -0.636  13.701  1.00  0.00     0.210 HD
ENDBRANCH   9  10
ENDBRANCH   8   9
ENDBRANCH   7   8
ENDBRANCH   1   7
TORSDOF 8
ENDMDL
MODEL 2
REMARK VINA RESULT:    -4.554      3.046      5.838
REMARK INTER + INTRA:          -6.830
REMARK INTER:                  -6.532
REMARK INTRA:                  -0.298
REMARK UNBOUND:                -0.280
REMARK SMILES CCCCCCCCCO
REMARK SMILES IDX 6 1 5 2 4 3 3 4 2 5 1 6 7 7 8 8 9 9 10 10
REMARK H PARENT 10 11
REMARK Flexibility Score: inf
ROOT
ATOM      1  C   UNL     1       4.573   4.293  12.506  1.00  0.00     0.000 C 
ENDROOT
BRANCH   1   2
ATOM      2  C   UNL     1       4.995   3.002  11.795  1.00  0.00     0.000 C 
BRANCH   2   3
ATOM      3  C   UNL     1       3.795   2.337  11.102  1.00  0.00    -0.000 C 
BRANCH   3   4
ATOM      4  C   UNL     1       2.464   2.637  11.823  1.00  0.00    -0.000 C 
BRANCH   4   5
ATOM      5  C   UNL     1       1.638   1.379  12.140  1.00  0.00    -0.003 C 
ATOM      6  C   UNL     1       2.478   0.103  12.169  1.00  0.00     0.004 C 
ENDBRANCH   4   5
ENDBRANCH   3   4
ENDBRANCH   2   3
ENDBRANCH   1   2
BRANCH   1   7
ATOM      7  C   UNL     1       5.797   5.099  12.957  1.00  0.00     0.002 C 
BRANCH   7   8
ATOM      8  C   UNL     1       6.050   4.921  14.460  1.00  0.00     0.028 C 
BRANCH   8   9
ATOM      9  C   UNL     1       6.970   6.010  15.013  1.00  0.00     0.156 C 
BRANCH   9  10
ATOM     10  O   UNL     1       6.424   7.276  14.762  1.00  0.00    -0.396 OA
ATOM     11  H   UNL     1       5.477   7.123  14.512  1.00  0.00     0.210 HD
ENDBRANCH   9  10
ENDBRANCH   8   9
ENDBRANCH   7   8
ENDBRANCH   1   7
TORSDOF 8
ENDMDL
MODEL 3
REMARK VINA RESULT:    -4.539      3.353      6.169
REMARK INTER + INTRA:          -6.809
REMARK INTER:                  -6.597
REMARK INTRA:                  -0.212
REMARK UNBOUND:                -0.280
REMARK SMILES CCCCCCCCCO
REMARK SMILES IDX 6 1 5 2 4 3 3 4 2 5 1 6 7 7 8 8 9 9 10 10
REMARK H PARENT 10 11
REMARK Flexibility Score: inf
ROOT
ATOM      1  C   UNL     1       5.708   4.857  12.899  1.00  0.00     0.000 C 
ENDROOT
BRANCH   1   2
ATOM      2  C   UNL     1       4.365   4.246  12.485  1.00  0.00     0.000 C 
BRANCH   2   3
ATOM      3  C   UNL     1       4.570   2.916  11.742  1.00  0.00    -0.000 C 
BRANCH   3   4
ATOM      4  C   UNL     1       3.277   2.425  11.056  1.00  0.00    -0.000 C 
BRANCH   4   5
ATOM      5  C   UNL     1       2.265   1.797  12.030  1.00  0.00    -0.003 C 
ATOM      6  C   UNL     1       2.363   0.274  12.095  1.00  0.00     0.004 C 
ENDBRANCH   4   5
ENDBRANCH   3   4
ENDBRANCH   2   3
ENDBRANCH   1   2
BRANCH   1   7
ATOM      7  C   UNL     1       6.005   4.588  14.378  1.00  0.00     0.002 C 
BRANCH   7   8
ATOM      8  C   UNL     1       6.548   5.846  15.069  1.00  0.00     0.028 C 
BRANCH   8   9
ATOM      9  C   UNL     1       7.096   6.856  14.058  1.00  0.00     0.156 C 
BRANCH   9  10
ATOM     10  O   UNL     1       6.672   8.149  14.390  1.00  0.00    -0.396 OA
ATOM     11  H   UNL     1       7.359   8.515  15.005  1.00  0.00     0.210 HD
ENDBRANCH   9  10
ENDBRANCH   8   9
ENDBRANCH   7   8
ENDBRANCH   1   7
TORSDOF 8
ENDMDL
MODEL 4
REMARK VINA RESULT:    -4.430      1.582      1.804
REMARK INTER + INTRA:          -6.652
REMARK INTER:                  -6.414
REMARK INTRA:                  -0.237
REMARK UNBOUND:                -0.280
REMARK SMILES CCCCCCCCCO
REMARK SMILES IDX 6 1 5 2 4 3 3 4 2 5 1 6 7 7 8 8 9 9 10 10
REMARK H PARENT 10 11
REMARK Flexibility Score: inf
ROOT
ATOM      1  C   UNL     1       3.634   2.726  11.904  1.00  0.00     0.000 C 
ENDROOT
BRANCH   1   2
ATOM      2  C   UNL     1       4.620   3.267  10.862  1.00  0.00     0.000 C 
BRANCH   2   3
ATOM      3  C   UNL     1       5.603   4.263  11.497  1.00  0.00    -0.000 C 
BRANCH   3   4
ATOM      4  C   UNL     1       5.075   4.834  12.831  1.00  0.00    -0.000 C 
BRANCH   4   5
ATOM      5  C   UNL     1       6.135   5.612  13.629  1.00  0.00    -0.003 C 
ATOM      6  C   UNL     1       6.331   5.075  15.045  1.00  0.00     0.004 C 
ENDBRANCH   4   5
ENDBRANCH   3   4
ENDBRANCH   2   3
ENDBRANCH   1   2
BRANCH   1   7
ATOM      7  C   UNL     1       2.756   1.619  11.309  1.00  0.00     0.002 C 
BRANCH   7   8
ATOM      8  C   UNL     1       1.548   1.330  12.211  1.00  0.00     0.028 C 
BRANCH   8   9
ATOM      9  C   UNL     1       0.301   2.085  11.747  1.00  0.00     0.156 C 
BRANCH   9  10
ATOM     10  O   UNL     1      -0.627   2.174  12.794  1.00  0.00    -0.396 OA
ATOM     11  H   UNL     1      -0.546   1.328  13.305  1.00  0.00     0.210 HD
ENDBRANCH   9  10
ENDBRANCH   8   9
ENDBRANCH   7   8
ENDBRANCH   1   7
TORSDOF 8
ENDMDL
MODEL 5
REMARK VINA RESULT:    -4.154      3.885      6.293
REMARK INTER + INTRA:          -6.255
REMARK INTER:                  -5.929
REMARK INTRA:                  -0.326
REMARK UNBOUND:                -0.280
REMARK SMILES CCCCCCCCCO
REMARK SMILES IDX 6 1 5 2 4 3 3 4 2 5 1 6 7 7 8 8 9 9 10 10
REMARK H PARENT 10 11
REMARK Flexibility Score: inf
ROOT
ATOM      1  C   UNL     1       6.215   4.568  14.413  1.00  0.00     0.000 C 
ENDROOT
BRANCH   1   2
ATOM      2  C   UNL     1       5.242   4.967  13.299  1.00  0.00     0.000 C 
BRANCH   2   3
ATOM      3  C   UNL     1       5.888   4.795  11.914  1.00  0.00    -0.000 C 
BRANCH   3   4
ATOM      4  C   UNL     1       5.098   3.818  11.019  1.00  0.00    -0.000 C 
BRANCH   4   5
ATOM      5  C   UNL     1       4.686   2.522  11.739  1.00  0.00    -0.003 C 
ATOM      6  C   UNL     1       5.878   1.659  12.147  1.00  0.00     0.004 C 
ENDBRANCH   4   5
ENDBRANCH   3   4
ENDBRANCH   2   3
ENDBRANCH   1   2
BRANCH   1   7
ATOM      7  C   UNL     1       6.446   5.729  15.387  1.00  0.00     0.002 C 
BRANCH   7   8
ATOM      8  C   UNL     1       7.834   6.352  15.182  1.00  0.00     0.028 C 
BRANCH   8   9
ATOM      9  C   UNL     1       7.843   7.346  14.019  1.00  0.00     0.156 C 
BRANCH   9  10
ATOM     10  O   UNL     1       7.161   8.517  14.380  1.00  0.00    -0.396 OA
ATOM     11  H   UNL     1       6.268   8.458  13.952  1.00  0.00     0.210 HD
ENDBRANCH   9  10
ENDBRANCH   8   9
ENDBRANCH   7   8
ENDBRANCH   1   7
TORSDOF 8
ENDMDL
MODEL 6
REMARK VINA RESULT:    -4.069      1.914      2.960
REMARK INTER + INTRA:          -6.133
REMARK INTER:                  -5.803
REMARK INTRA:                  -0.330
REMARK UNBOUND:                -0.280
REMARK SMILES CCCCCCCCCO
REMARK SMILES IDX 6 1 5 2 4 3 3 4 2 5 1 6 7 7 8 8 9 9 10 10
REMARK H PARENT 10 11
REMARK Flexibility Score: inf
ROOT
ATOM      1  C   UNL     1       5.243   4.778  12.506  1.00  0.00     0.000 C 
ENDROOT
BRANCH   1   2
ATOM      2  C   UNL     1       5.754   4.078  13.771  1.00  0.00     0.000 C 
BRANCH   2   3
ATOM      3  C   UNL     1       6.454   5.075  14.708  1.00  0.00    -0.000 C 
BRANCH   3   4
ATOM      4  C   UNL     1       6.703   6.438  14.029  1.00  0.00    -0.000 C 
BRANCH   4   5
ATOM      5  C   UNL     1       7.560   7.398  14.873  1.00  0.00    -0.003 C 
ATOM      6  C   UNL     1       7.962   6.811  16.224  1.00  0.00     0.004 C 
ENDBRANCH   4   5
ENDBRANCH   3   4
ENDBRANCH   2   3
ENDBRANCH   1   2
BRANCH   1   7
ATOM      7  C   UNL     1       5.250   3.823  11.307  1.00  0.00     0.002 C 
BRANCH   7   8
ATOM      8  C   UNL     1       4.452   2.548  11.612  1.00  0.00     0.028 C 
BRANCH   8   9
ATOM      9  C   UNL     1       3.120   2.520  10.861  1.00  0.00     0.156 C 
BRANCH   9  10
ATOM     10  O   UNL     1       2.140   3.207  11.590  1.00  0.00    -0.396 OA
ATOM     11  H   UNL     1       2.452   4.146  11.653  1.00  0.00     0.210 HD
ENDBRANCH   9  10
ENDBRANCH   8   9
ENDBRANCH   7   8
ENDBRANCH   1   7
TORSDOF 8
ENDMDL
MODEL 7
REMARK VINA RESULT:    -4.035      3.423      5.870
REMARK INTER + INTRA:          -6.084
REMARK INTER:                  -5.932
REMARK INTRA:                  -0.152
REMARK UNBOUND:                -0.280
REMARK SMILES CCCCCCCCCO
REMARK SMILES IDX 6 1 5 2 4 3 3 4 2 5 1 6 7 7 8 8 9 9 10 10
REMARK H PARENT 10 11
REMARK Flexibility Score: inf
ROOT
ATOM      1  C   UNL     1       6.969   6.577  14.645  1.00  0.00     0.000 C 
ENDROOT
BRANCH   1   2
ATOM      2  C   UNL     1       8.351   6.500  15.303  1.00  0.00     0.000 C 
BRANCH   2   3
ATOM      3  C   UNL     1       8.255   6.740  16.818  1.00  0.00    -0.000 C 
BRANCH   3   4
ATOM      4  C   UNL     1       9.634   6.674  17.508  1.00  0.00    -0.000 C 
BRANCH   4   5
ATOM      5  C   UNL     1       9.664   7.354  18.888  1.00  0.00    -0.003 C 
ATOM      6  C   UNL     1       9.341   6.397  20.034  1.00  0.00     0.004 C 
ENDBRANCH   4   5
ENDBRANCH   3   4
ENDBRANCH   2   3
ENDBRANCH   1   2
BRANCH   1   7
ATOM      7  C   UNL     1       6.356   5.181  14.483  1.00  0.00     0.002 C 
BRANCH   7   8
ATOM      8  C   UNL     1       5.431   5.124  13.260  1.00  0.00     0.028 C 
BRANCH   8   9
ATOM      9  C   UNL     1       5.610   3.824  12.475  1.00  0.00     0.156 C 
BRANCH   9  10
ATOM     10  O   UNL     1       6.592   3.026  13.079  1.00  0.00    -0.396 OA
ATOM     11  H   UNL     1       7.151   3.641  13.620  1.00  0.00     0.210 HD
ENDBRANCH   9  10
ENDBRANCH   8   9
ENDBRANCH   7   8
ENDBRANCH   1   7
TORSDOF 8
ENDMDL
MODEL 8
REMARK VINA RESULT:    -4.034      4.129      7.093
REMARK INTER + INTRA:          -6.082
REMARK INTER:                  -5.847
REMARK INTRA:                  -0.235
REMARK UNBOUND:                -0.280
REMARK SMILES CCCCCCCCCO
REMARK SMILES IDX 6 1 5 2 4 3 3 4 2 5 1 6 7 7 8 8 9 9 10 10
REMARK H PARENT 10 11
REMARK Flexibility Score: inf
ROOT
ATOM      1  C   UNL     1       6.716   6.383  13.999  1.00  0.00     0.000 C 
ENDROOT
BRANCH   1   2
ATOM      2  C   UNL     1       6.212   5.093  14.656  1.00  0.00     0.000 C 
BRANCH   2   3
ATOM      3  C   UNL     1       5.875   4.030  13.598  1.00  0.00    -0.000 C 
BRANCH   3   4
ATOM      4  C   UNL     1       4.938   4.576  12.501  1.00  0.00    -0.000 C 
BRANCH   4   5
ATOM      5  C   UNL     1       4.541   3.524  11.451  1.00  0.00    -0.003 C 
ATOM      6  C   UNL     1       3.253   2.783  11.805  1.00  0.00     0.004 C 
ENDBRANCH   4   5
ENDBRANCH   3   4
ENDBRANCH   2   3
ENDBRANCH   1   2
BRANCH   1   7
ATOM      7  C   UNL     1       7.934   6.943  14.744  1.00  0.00     0.002 C 
BRANCH   7   8
ATOM      8  C   UNL     1       7.695   6.953  16.260  1.00  0.00     0.028 C 
BRANCH   8   9
ATOM      9  C   UNL     1       8.976   6.649  17.037  1.00  0.00     0.156 C 
BRANCH   9  10
ATOM     10  O   UNL     1       9.021   7.413  18.212  1.00  0.00    -0.396 OA
ATOM     11  H   UNL     1       8.674   6.828  18.934  1.00  0.00     0.210 HD
ENDBRANCH   9  10
ENDBRANCH   8   9
ENDBRANCH   7   8
ENDBRANCH   1   7
TORSDOF 8
ENDMDL
MODEL 9
REMARK VINA RESULT:    -3.970      5.210      8.115
REMARK INTER + INTRA:          -5.991
REMARK INTER:                  -5.799
REMARK INTRA:                  -0.192
REMARK UNBOUND:                -0.280
REMARK SMILES CCCCCCCCCO
REMARK SMILES IDX 6 1 5 2 4 3 3 4 2 5 1 6 7 7 8 8 9 9 10 10
REMARK H PARENT 10 11
REMARK Flexibility Score: inf
ROOT
ATOM      1  C   UNL     1       8.629   6.634  15.509  1.00  0.00     0.000 C 
ENDROOT
BRANCH   1   2
ATOM      2  C   UNL     1       7.654   7.503  14.707  1.00  0.00     0.000 C 
BRANCH   2   3
ATOM      3  C   UNL     1       6.712   6.635  13.857  1.00  0.00    -0.000 C 
BRANCH   3   4
ATOM      4  C   UNL     1       6.420   5.272  14.518  1.00  0.00    -0.000 C 
BRANCH   4   5
ATOM      5  C   UNL     1       5.666   4.293  13.602  1.00  0.00    -0.003 C 
ATOM      6  C   UNL     1       5.601   4.762  12.150  1.00  0.00     0.004 C 
ENDBRANCH   4   5
ENDBRANCH   3   4
ENDBRANCH   2   3
ENDBRANCH   1   2
BRANCH   1   7
ATOM      7  C   UNL     1       8.357   6.745  17.014  1.00  0.00     0.002 C 
BRANCH   7   8
ATOM      8  C   UNL     1       9.668   6.758  17.812  1.00  0.00     0.028 C 
BRANCH   8   9
ATOM      9  C   UNL     1       9.414   6.793  19.320  1.00  0.00     0.156 C 
BRANCH   9  10
ATOM     10  O   UNL     1       9.010   8.077  19.711  1.00  0.00    -0.396 OA
ATOM     11  H   UNL     1       9.823   8.527  20.058  1.00  0.00     0.210 HD
ENDBRANCH   9  10
ENDBRANCH   8   9
ENDBRANCH   7   8
ENDBRANCH   1   7
TORSDOF 8
ENDMDL
