MODEL 1
REMARK VINA RESULT:    -5.733      0.000      0.000
REMARK INTER + INTRA:          -7.031
REMARK INTER:                  -6.738
REMARK INTRA:                  -0.293
REMARK UNBOUND:                -0.293
REMARK SMILES O=c1cc(-c2ccc(O)c(O)c2)oc2cc(O)cc(O)c12
REMARK SMILES IDX 4 1 3 2 2 3 1 4 21 5 19 6 18 7 16 8 15 9 14 10 13 11 5 12
REMARK SMILES IDX 6 13 7 14 8 15 12 16 10 17 9 18 11 20 20 22 17 24
REMARK H PARENT 9 19 11 21 20 23 17 25
REMARK Flexibility Score: inf
ROOT
ATOM      1  C   UNL     1     217.863 219.810 220.359  1.00  0.00     0.138 A 
ATOM      2  C   UNL     1     217.247 221.070 220.376  1.00  0.00     0.100 A 
ATOM      3  C   UNL     1     215.861 221.161 220.245  1.00  0.00     0.197 A 
ATOM      4  O   UNL     1     215.330 222.299 220.327  1.00  0.00    -0.289 OA
ATOM      5  C   UNL     1     215.092 219.986 220.065  1.00  0.00     0.107 A 
ATOM      6  C   UNL     1     213.678 219.962 219.880  1.00  0.00     0.134 A 
ATOM      7  C   UNL     1     213.010 218.732 219.827  1.00  0.00     0.093 A 
ATOM      8  C   UNL     1     213.713 217.526 219.892  1.00  0.00     0.123 A 
ATOM      9  C   UNL     1     215.101 217.541 220.018  1.00  0.00     0.094 A 
ATOM     10  C   UNL     1     215.791 218.751 220.108  1.00  0.00     0.146 A 
ATOM     11  O   UNL     1     217.113 218.720 220.243  1.00  0.00    -0.456 OA
ENDROOT
BRANCH   1  12
ATOM     12  C   UNL     1     219.334 219.656 220.493  1.00  0.00     0.021 A 
ATOM     13  C   UNL     1     219.975 218.426 220.246  1.00  0.00     0.016 A 
ATOM     14  C   UNL     1     221.359 218.307 220.390  1.00  0.00     0.051 A 
ATOM     15  C   UNL     1     222.127 219.408 220.791  1.00  0.00     0.157 A 
ATOM     16  C   UNL     1     220.110 220.752 220.909  1.00  0.00     0.062 A 
ATOM     17  C   UNL     1     221.497 220.635 221.054  1.00  0.00     0.158 A 
BRANCH  15  18
ATOM     18  O   UNL     1     223.508 219.285 220.933  1.00  0.00    -0.504 OA
ATOM     19  H   UNL     1     224.150 219.880 220.423  1.00  0.00     0.293 HD
ENDBRANCH  15  18
BRANCH  17  20
ATOM     20  O   UNL     1     222.233 221.749 221.458  1.00  0.00    -0.504 OA
ATOM     21  H   UNL     1     222.717 222.344 220.797  1.00  0.00     0.293 HD
ENDBRANCH  17  20
ENDBRANCH   1  12
BRANCH   6  22
ATOM     22  O   UNL     1     212.891 221.107 219.718  1.00  0.00    -0.507 OA
ATOM     23  H   UNL     1     212.448 221.613 220.469  1.00  0.00     0.293 HD
ENDBRANCH   6  22
BRANCH   8  24
ATOM     24  O   UNL     1     213.043 216.308 219.824  1.00  0.00    -0.508 OA
ATOM     25  H   UNL     1     212.551 216.019 218.986  1.00  0.00     0.293 HD
ENDBRANCH   8  24
TORSDOF 5
ENDMDL
MODEL 2
REMARK VINA RESULT:    -5.700      3.819      8.807
REMARK INTER + INTRA:          -6.993
REMARK INTER:                  -6.700
REMARK INTRA:                  -0.293
REMARK UNBOUND:                -0.293
REMARK SMILES O=c1cc(-c2ccc(O)c(O)c2)oc2cc(O)cc(O)c12
REMARK SMILES IDX 4 1 3 2 2 3 1 4 21 5 19 6 18 7 16 8 15 9 14 10 13 11 5 12
REMARK SMILES IDX 6 13 7 14 8 15 12 16 10 17 9 18 11 20 20 22 17 24
REMARK H PARENT 9 19 11 21 20 23 17 25
REMARK Flexibility Score: inf
ROOT
ATOM      1  C   UNL     1     216.497 214.557 220.412  1.00  0.00     0.138 A 
ATOM      2  C   UNL     1     217.135 213.308 220.403  1.00  0.00     0.100 A 
ATOM      3  C   UNL     1     218.522 213.244 220.265  1.00  0.00     0.197 A 
ATOM      4  O   UNL     1     219.073 212.114 220.323  1.00  0.00    -0.289 OA
ATOM      5  C   UNL     1     219.269 214.436 220.102  1.00  0.00     0.107 A 
ATOM      6  C   UNL     1     220.682 214.489 219.912  1.00  0.00     0.134 A 
ATOM      7  C   UNL     1     221.328 215.731 219.879  1.00  0.00     0.093 A 
ATOM      8  C   UNL     1     220.604 216.922 219.969  1.00  0.00     0.123 A 
ATOM      9  C   UNL     1     219.217 216.881 220.101  1.00  0.00     0.094 A 
ATOM     10  C   UNL     1     218.549 215.657 220.171  1.00  0.00     0.146 A 
ATOM     11  O   UNL     1     217.228 215.662 220.312  1.00  0.00    -0.456 OA
ENDROOT
BRANCH   1  12
ATOM     12  C   UNL     1     215.024 214.683 220.555  1.00  0.00     0.021 A 
ATOM     13  C   UNL     1     214.362 215.906 220.338  1.00  0.00     0.016 A 
ATOM     14  C   UNL     1     212.976 215.998 220.490  1.00  0.00     0.051 A 
ATOM     15  C   UNL     1     212.229 214.875 220.870  1.00  0.00     0.157 A 
ATOM     16  C   UNL     1     214.269 213.564 220.950  1.00  0.00     0.062 A 
ATOM     17  C   UNL     1     212.881 213.653 221.102  1.00  0.00     0.158 A 
BRANCH  15  18
ATOM     18  O   UNL     1     210.847 214.971 221.019  1.00  0.00    -0.504 OA
ATOM     19  H   UNL     1     210.429 215.526 221.758  1.00  0.00     0.293 HD
ENDBRANCH  15  18
BRANCH  17  20
ATOM     20  O   UNL     1     212.166 212.518 221.485  1.00  0.00    -0.504 OA
ATOM     21  H   UNL     1     211.184 212.402 221.268  1.00  0.00     0.293 HD
ENDBRANCH  17  20
ENDBRANCH   1  12
BRANCH   6  22
ATOM     22  O   UNL     1     221.488 213.361 219.726  1.00  0.00    -0.507 OA
ATOM     23  H   UNL     1     221.145 212.429 219.551  1.00  0.00     0.293 HD
ENDBRANCH   6  22
BRANCH   8  24
ATOM     24  O   UNL     1     221.252 218.153 219.920  1.00  0.00    -0.508 OA
ATOM     25  H   UNL     1     220.863 218.938 219.411  1.00  0.00     0.293 HD
ENDBRANCH   8  24
TORSDOF 5
ENDMDL
MODEL 3
REMARK VINA RESULT:    -5.630      2.822      6.960
REMARK INTER + INTRA:          -6.911
REMARK INTER:                  -6.605
REMARK INTRA:                  -0.306
REMARK UNBOUND:                -0.293
REMARK SMILES O=c1cc(-c2ccc(O)c(O)c2)oc2cc(O)cc(O)c12
REMARK SMILES IDX 4 1 3 2 2 3 1 4 21 5 19 6 18 7 16 8 15 9 14 10 13 11 5 12
REMARK SMILES IDX 6 13 7 14 8 15 12 16 10 17 9 18 11 20 20 22 17 24
REMARK H PARENT 9 19 11 21 20 23 17 25
REMARK Flexibility Score: inf
ROOT
ATOM      1  C   UNL     1     213.766 218.187 220.919  1.00  0.00     0.138 A 
ATOM      2  C   UNL     1     212.940 219.290 221.178  1.00  0.00     0.100 A 
ATOM      3  C   UNL     1     213.447 220.581 221.027  1.00  0.00     0.197 A 
ATOM      4  O   UNL     1     212.666 221.552 221.207  1.00  0.00    -0.289 OA
ATOM      5  C   UNL     1     214.798 220.767 220.644  1.00  0.00     0.107 A 
ATOM      6  C   UNL     1     215.433 222.036 220.499  1.00  0.00     0.134 A 
ATOM      7  C   UNL     1     216.741 222.100 220.003  1.00  0.00     0.093 A 
ATOM      8  C   UNL     1     217.456 220.937 219.704  1.00  0.00     0.123 A 
ATOM      9  C   UNL     1     216.862 219.691 219.894  1.00  0.00     0.094 A 
ATOM     10  C   UNL     1     215.547 219.597 220.355  1.00  0.00     0.146 A 
ATOM     11  O   UNL     1     215.013 218.390 220.508  1.00  0.00    -0.456 OA
ENDROOT
BRANCH   1  12
ATOM     12  C   UNL     1     213.278 216.792 221.064  1.00  0.00     0.021 A 
ATOM     13  C   UNL     1     212.301 216.446 222.018  1.00  0.00     0.016 A 
ATOM     14  C   UNL     1     211.869 215.123 222.140  1.00  0.00     0.051 A 
ATOM     15  C   UNL     1     212.407 214.123 221.320  1.00  0.00     0.157 A 
ATOM     16  C   UNL     1     213.824 215.780 220.256  1.00  0.00     0.062 A 
ATOM     17  C   UNL     1     213.392 214.454 220.375  1.00  0.00     0.158 A 
BRANCH  15  18
ATOM     18  O   UNL     1     211.971 212.805 221.445  1.00  0.00    -0.504 OA
ATOM     19  H   UNL     1     211.317 212.528 222.167  1.00  0.00     0.293 HD
ENDBRANCH  15  18
BRANCH  17  20
ATOM     20  O   UNL     1     213.951 213.481 219.547  1.00  0.00    -0.504 OA
ATOM     21  H   UNL     1     214.244 213.685 218.599  1.00  0.00     0.293 HD
ENDBRANCH  17  20
ENDBRANCH   1  12
BRANCH   6  22
ATOM     22  O   UNL     1     214.839 223.253 220.849  1.00  0.00    -0.507 OA
ATOM     23  H   UNL     1     214.725 224.039 220.228  1.00  0.00     0.293 HD
ENDBRANCH   6  22
BRANCH   8  24
ATOM     24  O   UNL     1     218.762 221.009 219.225  1.00  0.00    -0.508 OA
ATOM     25  H   UNL     1     219.221 221.899 219.069  1.00  0.00     0.293 HD
ENDBRANCH   8  24
TORSDOF 5
ENDMDL
MODEL 4
REMARK VINA RESULT:    -5.626      1.716      6.816
REMARK INTER + INTRA:          -6.905
REMARK INTER:                  -6.616
REMARK INTRA:                  -0.289
REMARK UNBOUND:                -0.293
REMARK SMILES O=c1cc(-c2ccc(O)c(O)c2)oc2cc(O)cc(O)c12
REMARK SMILES IDX 4 1 3 2 2 3 1 4 21 5 19 6 18 7 16 8 15 9 14 10 13 11 5 12
REMARK SMILES IDX 6 13 7 14 8 15 12 16 10 17 9 18 11 20 20 22 17 24
REMARK H PARENT 9 19 11 21 20 23 17 25
REMARK Flexibility Score: inf
ROOT
ATOM      1  C   UNL     1     216.458 220.223 220.208  1.00  0.00     0.138 A 
ATOM      2  C   UNL     1     217.039 221.480 219.988  1.00  0.00     0.100 A 
ATOM      3  C   UNL     1     218.427 221.594 219.908  1.00  0.00     0.197 A 
ATOM      4  O   UNL     1     218.916 222.724 219.649  1.00  0.00    -0.289 OA
ATOM      5  C   UNL     1     219.239 220.447 220.080  1.00  0.00     0.107 A 
ATOM      6  C   UNL     1     220.665 220.451 220.059  1.00  0.00     0.134 A 
ATOM      7  C   UNL     1     221.360 219.237 220.124  1.00  0.00     0.093 A 
ATOM      8  C   UNL     1     220.680 218.025 220.270  1.00  0.00     0.123 A 
ATOM      9  C   UNL     1     219.289 218.016 220.346  1.00  0.00     0.094 A 
ATOM     10  C   UNL     1     218.567 219.208 220.250  1.00  0.00     0.146 A 
ATOM     11  O   UNL     1     217.241 219.154 220.311  1.00  0.00    -0.456 OA
ENDROOT
BRANCH   1  12
ATOM     12  C   UNL     1     214.987 220.044 220.302  1.00  0.00     0.021 A 
ATOM     13  C   UNL     1     214.371 218.811 220.014  1.00  0.00     0.016 A 
ATOM     14  C   UNL     1     212.983 218.675 220.102  1.00  0.00     0.051 A 
ATOM     15  C   UNL     1     212.186 219.767 220.469  1.00  0.00     0.157 A 
ATOM     16  C   UNL     1     214.179 221.139 220.656  1.00  0.00     0.062 A 
ATOM     17  C   UNL     1     212.788 221.005 220.745  1.00  0.00     0.158 A 
BRANCH  15  18
ATOM     18  O   UNL     1     210.803 219.626 220.556  1.00  0.00    -0.504 OA
ATOM     19  H   UNL     1     210.254 219.280 219.777  1.00  0.00     0.293 HD
ENDBRANCH  15  18
BRANCH  17  20
ATOM     20  O   UNL     1     212.023 222.112 221.110  1.00  0.00    -0.504 OA
ATOM     21  H   UNL     1     211.473 222.130 221.960  1.00  0.00     0.293 HD
ENDBRANCH  17  20
ENDBRANCH   1  12
BRANCH   6  22
ATOM     22  O   UNL     1     221.443 221.613 220.001  1.00  0.00    -0.507 OA
ATOM     23  H   UNL     1     222.387 221.658 219.652  1.00  0.00     0.293 HD
ENDBRANCH   6  22
BRANCH   8  24
ATOM     24  O   UNL     1     221.380 216.824 220.350  1.00  0.00    -0.508 OA
ATOM     25  H   UNL     1     221.802 216.512 221.217  1.00  0.00     0.293 HD
ENDBRANCH   8  24
TORSDOF 5
ENDMDL
MODEL 5
REMARK VINA RESULT:    -5.622      4.053      6.038
REMARK INTER + INTRA:          -6.901
REMARK INTER:                  -6.595
REMARK INTRA:                  -0.306
REMARK UNBOUND:                -0.293
REMARK SMILES O=c1cc(-c2ccc(O)c(O)c2)oc2cc(O)cc(O)c12
REMARK SMILES IDX 4 1 3 2 2 3 1 4 21 5 19 6 18 7 16 8 15 9 14 10 13 11 5 12
REMARK SMILES IDX 6 13 7 14 8 15 12 16 10 17 9 18 11 20 20 22 17 24
REMARK H PARENT 9 19 11 21 20 23 17 25
REMARK Flexibility Score: inf
ROOT
ATOM      1  C   UNL     1     220.601 216.196 220.899  1.00  0.00     0.138 A 
ATOM      2  C   UNL     1     221.403 215.073 221.149  1.00  0.00     0.100 A 
ATOM      3  C   UNL     1     220.865 213.794 220.996  1.00  0.00     0.197 A 
ATOM      4  O   UNL     1     221.626 212.806 221.167  1.00  0.00    -0.289 OA
ATOM      5  C   UNL     1     219.509 213.641 220.621  1.00  0.00     0.107 A 
ATOM      6  C   UNL     1     218.843 212.387 220.475  1.00  0.00     0.134 A 
ATOM      7  C   UNL     1     217.531 212.355 219.988  1.00  0.00     0.093 A 
ATOM      8  C   UNL     1     216.841 213.535 219.698  1.00  0.00     0.123 A 
ATOM      9  C   UNL     1     217.464 214.766 219.889  1.00  0.00     0.094 A 
ATOM     10  C   UNL     1     218.784 214.829 220.342  1.00  0.00     0.146 A 
ATOM     11  O   UNL     1     219.346 216.023 220.496  1.00  0.00    -0.456 OA
ENDROOT
BRANCH   1  12
ATOM     12  C   UNL     1     221.121 217.579 221.046  1.00  0.00     0.021 A 
ATOM     13  C   UNL     1     222.103 217.902 222.003  1.00  0.00     0.016 A 
ATOM     14  C   UNL     1     222.566 219.214 222.127  1.00  0.00     0.051 A 
ATOM     15  C   UNL     1     222.054 220.227 221.306  1.00  0.00     0.157 A 
ATOM     16  C   UNL     1     220.601 218.604 220.237  1.00  0.00     0.062 A 
ATOM     17  C   UNL     1     221.065 219.919 220.358  1.00  0.00     0.158 A 
BRANCH  15  18
ATOM     18  O   UNL     1     222.521 221.534 221.432  1.00  0.00    -0.504 OA
ATOM     19  H   UNL     1     222.369 222.224 220.706  1.00  0.00     0.293 HD
ENDBRANCH  15  18
BRANCH  17  20
ATOM     20  O   UNL     1     220.531 220.905 219.529  1.00  0.00    -0.504 OA
ATOM     21  H   UNL     1     220.806 220.999 218.558  1.00  0.00     0.293 HD
ENDBRANCH  17  20
ENDBRANCH   1  12
BRANCH   6  22
ATOM     22  O   UNL     1     219.413 211.156 220.817  1.00  0.00    -0.507 OA
ATOM     23  H   UNL     1     220.013 210.999 221.611  1.00  0.00     0.293 HD
ENDBRANCH   6  22
BRANCH   8  24
ATOM     24  O   UNL     1     215.531 213.494 219.227  1.00  0.00    -0.508 OA
ATOM     25  H   UNL     1     214.846 214.187 219.505  1.00  0.00     0.293 HD
ENDBRANCH   8  24
TORSDOF 5
ENDMDL
MODEL 6
REMARK VINA RESULT:    -5.576      3.856      5.558
REMARK INTER + INTRA:          -6.847
REMARK INTER:                  -6.584
REMARK INTRA:                  -0.263
REMARK UNBOUND:                -0.293
REMARK SMILES O=c1cc(-c2ccc(O)c(O)c2)oc2cc(O)cc(O)c12
REMARK SMILES IDX 4 1 3 2 2 3 1 4 21 5 19 6 18 7 16 8 15 9 14 10 13 11 5 12
REMARK SMILES IDX 6 13 7 14 8 15 12 16 10 17 9 18 11 20 20 22 17 24
REMARK H PARENT 9 19 11 21 20 23 17 25
REMARK Flexibility Score: inf
ROOT
ATOM      1  C   UNL     1     220.595 218.378 220.473  1.00  0.00     0.138 A 
ATOM      2  C   UNL     1     221.725 217.593 220.202  1.00  0.00     0.100 A 
ATOM      3  C   UNL     1     221.580 216.218 220.016  1.00  0.00     0.197 A 
ATOM      4  O   UNL     1     222.602 215.548 219.713  1.00  0.00    -0.289 OA
ATOM      5  C   UNL     1     220.301 215.622 220.134  1.00  0.00     0.107 A 
ATOM      6  C   UNL     1     220.041 214.225 220.005  1.00  0.00     0.134 A 
ATOM      7  C   UNL     1     218.719 213.764 220.025  1.00  0.00     0.093 A 
ATOM      8  C   UNL     1     217.652 214.644 220.230  1.00  0.00     0.123 A 
ATOM      9  C   UNL     1     217.901 216.003 220.411  1.00  0.00     0.094 A 
ATOM     10  C   UNL     1     219.206 216.497 220.362  1.00  0.00     0.146 A 
ATOM     11  O   UNL     1     219.398 217.801 220.524  1.00  0.00    -0.456 OA
ENDROOT
BRANCH   1  12
ATOM     12  C   UNL     1     220.691 219.845 220.680  1.00  0.00     0.021 A 
ATOM     13  C   UNL     1     220.425 220.758 219.641  1.00  0.00     0.016 A 
ATOM     14  C   UNL     1     220.534 222.133 219.862  1.00  0.00     0.051 A 
ATOM     15  C   UNL     1     220.918 222.621 221.117  1.00  0.00     0.157 A 
ATOM     16  C   UNL     1     221.090 220.343 221.933  1.00  0.00     0.062 A 
ATOM     17  C   UNL     1     221.199 221.720 222.157  1.00  0.00     0.158 A 
BRANCH  15  18
ATOM     18  O   UNL     1     221.024 223.994 221.333  1.00  0.00    -0.504 OA
ATOM     19  H   UNL     1     221.858 224.406 221.735  1.00  0.00     0.293 HD
ENDBRANCH  15  18
BRANCH  17  20
ATOM     20  O   UNL     1     221.587 222.174 223.417  1.00  0.00    -0.504 OA
ATOM     21  H   UNL     1     222.449 221.872 223.856  1.00  0.00     0.293 HD
ENDBRANCH  17  20
ENDBRANCH   1  12
BRANCH   6  22
ATOM     22  O   UNL     1     221.039 213.252 219.881  1.00  0.00    -0.507 OA
ATOM     23  H   UNL     1     221.418 212.923 219.007  1.00  0.00     0.293 HD
ENDBRANCH   6  22
BRANCH   8  24
ATOM     24  O   UNL     1     216.342 214.175 220.264  1.00  0.00    -0.508 OA
ATOM     25  H   UNL     1     215.691 214.362 219.509  1.00  0.00     0.293 HD
ENDBRANCH   8  24
TORSDOF 5
ENDMDL
MODEL 7
REMARK VINA RESULT:    -5.571      1.735      6.811
REMARK INTER + INTRA:          -6.841
REMARK INTER:                  -6.546
REMARK INTRA:                  -0.295
REMARK UNBOUND:                -0.293
REMARK SMILES O=c1cc(-c2ccc(O)c(O)c2)oc2cc(O)cc(O)c12
REMARK SMILES IDX 4 1 3 2 2 3 1 4 21 5 19 6 18 7 16 8 15 9 14 10 13 11 5 12
REMARK SMILES IDX 6 13 7 14 8 15 12 16 10 17 9 18 11 20 20 22 17 24
REMARK H PARENT 9 19 11 21 20 23 17 25
REMARK Flexibility Score: inf
ROOT
ATOM      1  C   UNL     1     218.140 220.550 220.804  1.00  0.00     0.138 A 
ATOM      2  C   UNL     1     219.025 221.537 221.259  1.00  0.00     0.100 A 
ATOM      3  C   UNL     1     220.395 221.272 221.294  1.00  0.00     0.197 A 
ATOM      4  O   UNL     1     221.171 222.197 221.647  1.00  0.00    -0.289 OA
ATOM      5  C   UNL     1     220.875 219.999 220.901  1.00  0.00     0.107 A 
ATOM      6  C   UNL     1     222.245 219.603 220.934  1.00  0.00     0.134 A 
ATOM      7  C   UNL     1     222.617 218.358 220.411  1.00  0.00     0.093 A 
ATOM      8  C   UNL     1     221.659 217.471 219.912  1.00  0.00     0.123 A 
ATOM      9  C   UNL     1     220.312 217.828 219.925  1.00  0.00     0.094 A 
ATOM     10  C   UNL     1     219.915 219.077 220.409  1.00  0.00     0.146 A 
ATOM     11  O   UNL     1     218.622 219.383 220.389  1.00  0.00    -0.456 OA
ENDROOT
BRANCH   1  12
ATOM     12  C   UNL     1     216.674 220.779 220.746  1.00  0.00     0.021 A 
ATOM     13  C   UNL     1     215.789 219.795 220.266  1.00  0.00     0.016 A 
ATOM     14  C   UNL     1     214.415 220.042 220.214  1.00  0.00     0.051 A 
ATOM     15  C   UNL     1     213.900 221.276 220.631  1.00  0.00     0.157 A 
ATOM     16  C   UNL     1     216.151 222.021 221.149  1.00  0.00     0.062 A 
ATOM     17  C   UNL     1     214.775 222.270 221.099  1.00  0.00     0.158 A 
BRANCH  15  18
ATOM     18  O   UNL     1     212.529 221.517 220.578  1.00  0.00    -0.504 OA
ATOM     19  H   UNL     1     212.159 222.441 220.388  1.00  0.00     0.293 HD
ENDBRANCH  15  18
BRANCH  17  20
ATOM     20  O   UNL     1     214.295 223.511 221.518  1.00  0.00    -0.504 OA
ATOM     21  H   UNL     1     214.491 223.881 222.440  1.00  0.00     0.293 HD
ENDBRANCH  17  20
ENDBRANCH   1  12
BRANCH   6  22
ATOM     22  O   UNL     1     223.270 220.378 221.488  1.00  0.00    -0.507 OA
ATOM     23  H   UNL     1     224.103 220.667 221.000  1.00  0.00     0.293 HD
ENDBRANCH   6  22
BRANCH   8  24
ATOM     24  O   UNL     1     222.035 216.229 219.408  1.00  0.00    -0.508 OA
ATOM     25  H   UNL     1     222.806 216.132 218.758  1.00  0.00     0.293 HD
ENDBRANCH   8  24
TORSDOF 5
ENDMDL
MODEL 8
REMARK VINA RESULT:    -5.566      4.757      6.519
REMARK INTER + INTRA:          -6.835
REMARK INTER:                  -6.540
REMARK INTRA:                  -0.295
REMARK UNBOUND:                -0.293
REMARK SMILES O=c1cc(-c2ccc(O)c(O)c2)oc2cc(O)cc(O)c12
REMARK SMILES IDX 4 1 3 2 2 3 1 4 21 5 19 6 18 7 16 8 15 9 14 10 13 11 5 12
REMARK SMILES IDX 6 13 7 14 8 15 12 16 10 17 9 18 11 20 20 22 17 24
REMARK H PARENT 9 19 11 21 20 23 17 25
REMARK Flexibility Score: inf
ROOT
ATOM      1  C   UNL     1     216.216 213.826 220.809  1.00  0.00     0.138 A 
ATOM      2  C   UNL     1     215.337 212.836 221.270  1.00  0.00     0.100 A 
ATOM      3  C   UNL     1     213.967 213.097 221.313  1.00  0.00     0.197 A 
ATOM      4  O   UNL     1     213.196 212.169 221.672  1.00  0.00    -0.289 OA
ATOM      5  C   UNL     1     213.480 214.368 220.923  1.00  0.00     0.107 A 
ATOM      6  C   UNL     1     212.108 214.759 220.965  1.00  0.00     0.134 A 
ATOM      7  C   UNL     1     211.730 216.003 220.445  1.00  0.00     0.093 A 
ATOM      8  C   UNL     1     212.681 216.893 219.939  1.00  0.00     0.123 A 
ATOM      9  C   UNL     1     214.029 216.541 219.944  1.00  0.00     0.094 A 
ATOM     10  C   UNL     1     214.434 215.294 220.425  1.00  0.00     0.146 A 
ATOM     11  O   UNL     1     215.727 214.991 220.397  1.00  0.00    -0.456 OA
ENDROOT
BRANCH   1  12
ATOM     12  C   UNL     1     217.683 213.602 220.742  1.00  0.00     0.021 A 
ATOM     13  C   UNL     1     218.559 214.583 220.241  1.00  0.00     0.016 A 
ATOM     14  C   UNL     1     219.934 214.341 220.180  1.00  0.00     0.051 A 
ATOM     15  C   UNL     1     220.457 213.115 220.610  1.00  0.00     0.157 A 
ATOM     16  C   UNL     1     218.214 212.369 221.158  1.00  0.00     0.062 A 
ATOM     17  C   UNL     1     219.591 212.124 221.099  1.00  0.00     0.158 A 
BRANCH  15  18
ATOM     18  O   UNL     1     221.829 212.879 220.548  1.00  0.00    -0.504 OA
ATOM     19  H   UNL     1     222.498 213.639 220.517  1.00  0.00     0.293 HD
ENDBRANCH  15  18
BRANCH  17  20
ATOM     20  O   UNL     1     220.079 210.891 221.531  1.00  0.00    -0.504 OA
ATOM     21  H   UNL     1     219.650 210.016 221.256  1.00  0.00     0.293 HD
ENDBRANCH  17  20
ENDBRANCH   1  12
BRANCH   6  22
ATOM     22  O   UNL     1     211.090 213.981 221.526  1.00  0.00    -0.507 OA
ATOM     23  H   UNL     1     210.684 213.166 221.095  1.00  0.00     0.293 HD
ENDBRANCH   6  22
BRANCH   8  24
ATOM     24  O   UNL     1     212.297 218.134 219.438  1.00  0.00    -0.508 OA
ATOM     25  H   UNL     1     212.786 218.567 218.663  1.00  0.00     0.293 HD
ENDBRANCH   8  24
TORSDOF 5
ENDMDL
MODEL 9
REMARK VINA RESULT:    -5.561      4.027      5.999
REMARK INTER + INTRA:          -6.830
REMARK INTER:                  -6.541
REMARK INTRA:                  -0.288
REMARK UNBOUND:                -0.293
REMARK SMILES O=c1cc(-c2ccc(O)c(O)c2)oc2cc(O)cc(O)c12
REMARK SMILES IDX 4 1 3 2 2 3 1 4 21 5 19 6 18 7 16 8 15 9 14 10 13 11 5 12
REMARK SMILES IDX 6 13 7 14 8 15 12 16 10 17 9 18 11 20 20 22 17 24
REMARK H PARENT 9 19 11 21 20 23 17 25
REMARK Flexibility Score: inf
ROOT
ATOM      1  C   UNL     1     217.901 214.153 220.208  1.00  0.00     0.138 A 
ATOM      2  C   UNL     1     217.281 212.917 219.974  1.00  0.00     0.100 A 
ATOM      3  C   UNL     1     215.889 212.848 219.897  1.00  0.00     0.197 A 
ATOM      4  O   UNL     1     215.364 211.738 219.625  1.00  0.00    -0.289 OA
ATOM      5  C   UNL     1     215.115 214.018 220.086  1.00  0.00     0.107 A 
ATOM      6  C   UNL     1     213.689 214.059 220.069  1.00  0.00     0.134 A 
ATOM      7  C   UNL     1     213.033 215.294 220.153  1.00  0.00     0.093 A 
ATOM      8  C   UNL     1     213.751 216.482 220.312  1.00  0.00     0.123 A 
ATOM      9  C   UNL     1     215.142 216.446 220.384  1.00  0.00     0.094 A 
ATOM     10  C   UNL     1     215.826 215.233 220.270  1.00  0.00     0.146 A 
ATOM     11  O   UNL     1     217.153 215.244 220.328  1.00  0.00    -0.456 OA
ENDROOT
BRANCH   1  12
ATOM     12  C   UNL     1     219.378 214.283 220.301  1.00  0.00     0.021 A 
ATOM     13  C   UNL     1     220.034 215.492 220.001  1.00  0.00     0.016 A 
ATOM     14  C   UNL     1     221.426 215.583 220.087  1.00  0.00     0.051 A 
ATOM     15  C   UNL     1     222.186 214.469 220.464  1.00  0.00     0.157 A 
ATOM     16  C   UNL     1     220.150 213.165 220.664  1.00  0.00     0.062 A 
ATOM     17  C   UNL     1     221.544 213.254 220.751  1.00  0.00     0.158 A 
BRANCH  15  18
ATOM     18  O   UNL     1     223.574 214.565 220.549  1.00  0.00    -0.504 OA
ATOM     19  H   UNL     1     224.103 215.175 219.936  1.00  0.00     0.293 HD
ENDBRANCH  15  18
BRANCH  17  20
ATOM     20  O   UNL     1     222.273 212.125 221.125  1.00  0.00    -0.504 OA
ATOM     21  H   UNL     1     221.825 211.285 221.469  1.00  0.00     0.293 HD
ENDBRANCH  17  20
ENDBRANCH   1  12
BRANCH   6  22
ATOM     22  O   UNL     1     212.875 212.924 219.999  1.00  0.00    -0.507 OA
ATOM     23  H   UNL     1     212.870 212.264 219.237  1.00  0.00     0.293 HD
ENDBRANCH   6  22
BRANCH   8  24
ATOM     24  O   UNL     1     213.091 217.704 220.409  1.00  0.00    -0.508 OA
ATOM     25  H   UNL     1     212.234 217.803 220.942  1.00  0.00     0.293 HD
ENDBRANCH   8  24
TORSDOF 5
ENDMDL
