MODEL 1
REMARK VINA RESULT:    -2.712      0.000      0.000
REMARK INTER + INTRA:          -6.583
REMARK INTER:                  -4.931
REMARK INTRA:                  -1.652
REMARK UNBOUND:                -1.652
REMARK SMILES CCCCCCCCCCCCCCCC(=O)[O-]
REMARK SMILES IDX 9 1 10 2 11 3 12 4 13 5 14 6 15 7 16 8 17 9 18 10 8 11 7 12
REMARK SMILES IDX 6 13 5 14 4 15 3 16 2 17 1 18
REMARK H PARENT
REMARK Flexibility Score: inf
ROOT
ATOM      1  C   UNL     1      27.896  16.471   3.199  1.00  0.00     0.000 C 
ENDROOT
BRANCH   1   2
ATOM      2  C   UNL     1      29.346  16.016   2.934  1.00  0.00     0.000 C 
BRANCH   2   3
ATOM      3  C   UNL     1      29.515  14.516   2.631  1.00  0.00     0.000 C 
BRANCH   3   4
ATOM      4  C   UNL     1      30.719  14.224   1.720  1.00  0.00     0.000 C 
BRANCH   4   5
ATOM      5  C   UNL     1      30.590  14.890   0.340  1.00  0.00     0.000 C 
BRANCH   5   6
ATOM      6  C   UNL     1      31.801  15.769  -0.009  1.00  0.00     0.006 C 
BRANCH   6   7
ATOM      7  C   UNL     1      31.399  16.901  -0.959  1.00  0.00     0.053 C 
BRANCH   7   8
ATOM      8  C   UNL     1      32.574  17.351  -1.767  1.00  0.00     0.041 C 
ATOM      9  O   UNL     1      33.312  18.282  -1.350  1.00  0.00    -0.550 OA
ATOM     10  O   UNL     1      32.828  16.775  -3.006  1.00  0.00    -0.550 OA
ENDBRANCH   7   8
ENDBRANCH   6   7
ENDBRANCH   5   6
ENDBRANCH   4   5
ENDBRANCH   3   4
ENDBRANCH   2   3
ENDBRANCH   1   2
BRANCH   1  11
ATOM     11  C   UNL     1      27.578  17.918   2.774  1.00  0.00     0.000 C 
BRANCH  11  12
ATOM     12  C   UNL     1      26.286  18.088   1.951  1.00  0.00    -0.000 C 
BRANCH  12  13
ATOM     13  C   UNL     1      26.468  18.021   0.423  1.00  0.00    -0.000 C 
BRANCH  13  14
ATOM     14  C   UNL     1      27.862  17.520   0.008  1.00  0.00    -0.000 C 
BRANCH  14  15
ATOM     15  C   UNL     1      27.844  16.080  -0.536  1.00  0.00    -0.000 C 
BRANCH  15  16
ATOM     16  C   UNL     1      26.709  15.189  -0.001  1.00  0.00    -0.000 C 
BRANCH  16  17
ATOM     17  C   UNL     1      27.105  13.708   0.101  1.00  0.00    -0.003 C 
ATOM     18  C   UNL     1      27.153  13.056  -1.277  1.00  0.00     0.004 C 
ENDBRANCH  16  17
ENDBRANCH  15  16
ENDBRANCH  14  15
ENDBRANCH  13  14
ENDBRANCH  12  13
ENDBRANCH  11  12
ENDBRANCH   1  11
TORSDOF 14
ENDMDL
MODEL 2
REMARK VINA RESULT:    -2.706      0.822      1.817
REMARK INTER + INTRA:          -6.572
REMARK INTER:                  -4.685
REMARK INTRA:                  -1.887
REMARK UNBOUND:                -1.652
REMARK SMILES CCCCCCCCCCCCCCCC(=O)[O-]
REMARK SMILES IDX 9 1 10 2 11 3 12 4 13 5 14 6 15 7 16 8 17 9 18 10 8 11 7 12
REMARK SMILES IDX 6 13 5 14 4 15 3 16 2 17 1 18
REMARK H PARENT
REMARK Flexibility Score: inf
ROOT
ATOM      1  C   UNL     1      27.792  16.984   2.891  1.00  0.00     0.000 C 
ENDROOT
BRANCH   1   2
ATOM      2  C   UNL     1      29.184  16.375   2.623  1.00  0.00     0.000 C 
BRANCH   2   3
ATOM      3  C   UNL     1      29.239  14.837   2.639  1.00  0.00     0.000 C 
BRANCH   3   4
ATOM      4  C   UNL     1      30.446  14.275   1.869  1.00  0.00     0.000 C 
BRANCH   4   5
ATOM      5  C   UNL     1      30.486  14.750   0.407  1.00  0.00     0.000 C 
BRANCH   5   6
ATOM      6  C   UNL     1      31.689  15.659   0.112  1.00  0.00     0.006 C 
BRANCH   6   7
ATOM      7  C   UNL     1      31.274  16.850  -0.757  1.00  0.00     0.053 C 
BRANCH   7   8
ATOM      8  C   UNL     1      32.408  17.283  -1.630  1.00  0.00     0.041 C 
ATOM      9  O   UNL     1      32.605  16.722  -2.740  1.00  0.00    -0.550 OA
ATOM     10  O   UNL     1      33.281  18.273  -1.195  1.00  0.00    -0.550 OA
ENDBRANCH   7   8
ENDBRANCH   6   7
ENDBRANCH   5   6
ENDBRANCH   4   5
ENDBRANCH   3   4
ENDBRANCH   2   3
ENDBRANCH   1   2
BRANCH   1  11
ATOM     11  C   UNL     1      27.046  17.482   1.638  1.00  0.00     0.000 C 
BRANCH  11  12
ATOM     12  C   UNL     1      27.834  17.364   0.319  1.00  0.00    -0.000 C 
BRANCH  12  13
ATOM     13  C   UNL     1      27.404  16.206  -0.601  1.00  0.00    -0.000 C 
BRANCH  13  14
ATOM     14  C   UNL     1      26.608  15.117   0.140  1.00  0.00    -0.000 C 
BRANCH  14  15
ATOM     15  C   UNL     1      27.070  13.692  -0.212  1.00  0.00    -0.000 C 
BRANCH  15  16
ATOM     16  C   UNL     1      27.288  13.424  -1.712  1.00  0.00    -0.000 C 
BRANCH  16  17
ATOM     17  C   UNL     1      27.371  11.927  -2.048  1.00  0.00    -0.003 C 
ATOM     18  C   UNL     1      27.672  11.712  -3.529  1.00  0.00     0.004 C 
ENDBRANCH  16  17
ENDBRANCH  15  16
ENDBRANCH  14  15
ENDBRANCH  13  14
ENDBRANCH  12  13
ENDBRANCH  11  12
ENDBRANCH   1  11
TORSDOF 14
ENDMDL
MODEL 3
REMARK VINA RESULT:    -2.666      2.638      5.508
REMARK INTER + INTRA:          -6.500
REMARK INTER:                  -5.107
REMARK INTRA:                  -1.393
REMARK UNBOUND:                -1.652
REMARK SMILES CCCCCCCCCCCCCCCC(=O)[O-]
REMARK SMILES IDX 9 1 10 2 11 3 12 4 13 5 14 6 15 7 16 8 17 9 18 10 8 11 7 12
REMARK SMILES IDX 6 13 5 14 4 15 3 16 2 17 1 18
REMARK H PARENT
REMARK Flexibility Score: inf
ROOT
ATOM      1  C   UNL     1      29.261  16.150   2.734  1.00  0.00     0.000 C 
ENDROOT
BRANCH   1   2
ATOM      2  C   UNL     1      27.843  16.597   3.144  1.00  0.00     0.000 C 
BRANCH   2   3
ATOM      3  C   UNL     1      27.375  17.930   2.533  1.00  0.00     0.000 C 
BRANCH   3   4
ATOM      4  C   UNL     1      26.696  17.754   1.165  1.00  0.00     0.000 C 
BRANCH   4   5
ATOM      5  C   UNL     1      27.709  17.579   0.021  1.00  0.00     0.000 C 
BRANCH   5   6
ATOM      6  C   UNL     1      27.840  16.118  -0.437  1.00  0.00     0.006 C 
BRANCH   6   7
ATOM      7  C   UNL     1      26.608  15.305  -0.029  1.00  0.00     0.053 C 
BRANCH   7   8
ATOM      8  C   UNL     1      26.954  13.856   0.100  1.00  0.00     0.041 C 
ATOM      9  O   UNL     1      27.344  13.205  -0.905  1.00  0.00    -0.550 OA
ATOM     10  O   UNL     1      26.799  13.209   1.320  1.00  0.00    -0.550 OA
ENDBRANCH   7   8
ENDBRANCH   6   7
ENDBRANCH   5   6
ENDBRANCH   4   5
ENDBRANCH   3   4
ENDBRANCH   2   3
ENDBRANCH   1   2
BRANCH   1  11
ATOM     11  C   UNL     1      29.475  14.625   2.682  1.00  0.00     0.000 C 
BRANCH  11  12
ATOM     12  C   UNL     1      30.694  14.164   1.859  1.00  0.00    -0.000 C 
BRANCH  12  13
ATOM     13  C   UNL     1      30.715  14.639   0.394  1.00  0.00    -0.000 C 
BRANCH  13  14
ATOM     14  C   UNL     1      31.895  15.577   0.086  1.00  0.00    -0.000 C 
BRANCH  14  15
ATOM     15  C   UNL     1      31.484  16.803  -0.750  1.00  0.00    -0.000 C 
BRANCH  15  16
ATOM     16  C   UNL     1      32.519  17.262  -1.794  1.00  0.00    -0.000 C 
BRANCH  16  17
ATOM     17  C   UNL     1      32.185  16.788  -3.217  1.00  0.00    -0.003 C 
ATOM     18  C   UNL     1      33.434  16.763  -4.094  1.00  0.00     0.004 C 
ENDBRANCH  16  17
ENDBRANCH  15  16
ENDBRANCH  14  15
ENDBRANCH  13  14
ENDBRANCH  12  13
ENDBRANCH  11  12
ENDBRANCH   1  11
TORSDOF 14
ENDMDL
MODEL 4
REMARK VINA RESULT:    -2.537      2.747      5.436
REMARK INTER + INTRA:          -6.265
REMARK INTER:                  -4.832
REMARK INTRA:                  -1.432
REMARK UNBOUND:                -1.652
REMARK SMILES CCCCCCCCCCCCCCCC(=O)[O-]
REMARK SMILES IDX 9 1 10 2 11 3 12 4 13 5 14 6 15 7 16 8 17 9 18 10 8 11 7 12
REMARK SMILES IDX 6 13 5 14 4 15 3 16 2 17 1 18
REMARK H PARENT
REMARK Flexibility Score: inf
ROOT
ATOM      1  C   UNL     1      28.736  14.682   2.620  1.00  0.00     0.000 C 
ENDROOT
BRANCH   1   2
ATOM      2  C   UNL     1      27.803  13.497   2.297  1.00  0.00     0.000 C 
BRANCH   2   3
ATOM      3  C   UNL     1      26.825  13.732   1.133  1.00  0.00     0.000 C 
BRANCH   3   4
ATOM      4  C   UNL     1      27.532  13.838  -0.229  1.00  0.00     0.000 C 
BRANCH   4   5
ATOM      5  C   UNL     1      27.651  15.290  -0.721  1.00  0.00     0.000 C 
BRANCH   5   6
ATOM      6  C   UNL     1      26.684  16.242   0.000  1.00  0.00     0.006 C 
BRANCH   6   7
ATOM      7  C   UNL     1      27.395  17.536   0.410  1.00  0.00     0.053 C 
BRANCH   7   8
ATOM      8  C   UNL     1      26.939  17.979   1.763  1.00  0.00     0.041 C 
ATOM      9  O   UNL     1      27.586  17.647   2.791  1.00  0.00    -0.550 OA
ATOM     10  O   UNL     1      25.769  18.717   1.896  1.00  0.00    -0.550 OA
ENDBRANCH   7   8
ENDBRANCH   6   7
ENDBRANCH   5   6
ENDBRANCH   4   5
ENDBRANCH   3   4
ENDBRANCH   2   3
ENDBRANCH   1   2
BRANCH   1  11
ATOM     11  C   UNL     1      30.242  14.356   2.584  1.00  0.00     0.000 C 
BRANCH  11  12
ATOM     12  C   UNL     1      30.787  13.939   1.204  1.00  0.00    -0.000 C 
BRANCH  12  13
ATOM     13  C   UNL     1      31.563  15.033   0.446  1.00  0.00    -0.000 C 
BRANCH  13  14
ATOM     14  C   UNL     1      30.701  16.267   0.130  1.00  0.00    -0.000 C 
BRANCH  14  15
ATOM     15  C   UNL     1      31.126  16.979  -1.167  1.00  0.00    -0.000 C 
BRANCH  15  16
ATOM     16  C   UNL     1      32.622  17.327  -1.266  1.00  0.00    -0.000 C 
BRANCH  16  17
ATOM     17  C   UNL     1      33.038  17.793  -2.670  1.00  0.00    -0.003 C 
ATOM     18  C   UNL     1      32.930  16.655  -3.681  1.00  0.00     0.004 C 
ENDBRANCH  16  17
ENDBRANCH  15  16
ENDBRANCH  14  15
ENDBRANCH  13  14
ENDBRANCH  12  13
ENDBRANCH  11  12
ENDBRANCH   1  11
TORSDOF 14
ENDMDL
MODEL 5
REMARK VINA RESULT:    -2.507      0.750      2.838
REMARK INTER + INTRA:          -6.210
REMARK INTER:                  -4.216
REMARK INTRA:                  -1.994
REMARK UNBOUND:                -1.652
REMARK SMILES CCCCCCCCCCCCCCCC(=O)[O-]
REMARK SMILES IDX 9 1 10 2 11 3 12 4 13 5 14 6 15 7 16 8 17 9 18 10 8 11 7 12
REMARK SMILES IDX 6 13 5 14 4 15 3 16 2 17 1 18
REMARK H PARENT
REMARK Flexibility Score: inf
ROOT
ATOM      1  C   UNL     1      27.695  14.241   2.542  1.00  0.00     0.000 C 
ENDROOT
BRANCH   1   2
ATOM      2  C   UNL     1      29.198  13.937   2.712  1.00  0.00     0.000 C 
BRANCH   2   3
ATOM      3  C   UNL     1      30.147  14.898   1.973  1.00  0.00     0.000 C 
BRANCH   3   4
ATOM      4  C   UNL     1      30.975  14.198   0.883  1.00  0.00     0.000 C 
BRANCH   4   5
ATOM      5  C   UNL     1      31.859  15.178   0.093  1.00  0.00     0.000 C 
BRANCH   5   6
ATOM      6  C   UNL     1      31.296  16.607   0.080  1.00  0.00     0.006 C 
BRANCH   6   7
ATOM      7  C   UNL     1      31.171  17.133  -1.353  1.00  0.00     0.053 C 
BRANCH   7   8
ATOM      8  C   UNL     1      32.524  17.331  -1.959  1.00  0.00     0.041 C 
ATOM      9  O   UNL     1      33.357  18.101  -1.414  1.00  0.00    -0.550 OA
ATOM     10  O   UNL     1      32.849  16.702  -3.155  1.00  0.00    -0.550 OA
ENDBRANCH   7   8
ENDBRANCH   6   7
ENDBRANCH   5   6
ENDBRANCH   4   5
ENDBRANCH   3   4
ENDBRANCH   2   3
ENDBRANCH   1   2
BRANCH   1  11
ATOM     11  C   UNL     1      26.958  13.343   1.530  1.00  0.00     0.000 C 
BRANCH  11  12
ATOM     12  C   UNL     1      27.200  13.694   0.049  1.00  0.00    -0.000 C 
BRANCH  12  13
ATOM     13  C   UNL     1      26.696  15.082  -0.388  1.00  0.00    -0.000 C 
BRANCH  13  14
ATOM     14  C   UNL     1      27.838  16.044  -0.759  1.00  0.00    -0.000 C 
BRANCH  14  15
ATOM     15  C   UNL     1      27.967  17.227   0.217  1.00  0.00    -0.000 C 
BRANCH  15  16
ATOM     16  C   UNL     1      26.637  17.868   0.653  1.00  0.00    -0.000 C 
BRANCH  16  17
ATOM     17  C   UNL     1      26.564  18.128   2.165  1.00  0.00    -0.003 C 
ATOM     18  C   UNL     1      27.784  17.555   2.881  1.00  0.00     0.004 C 
ENDBRANCH  16  17
ENDBRANCH  15  16
ENDBRANCH  14  15
ENDBRANCH  13  14
ENDBRANCH  12  13
ENDBRANCH  11  12
ENDBRANCH   1  11
TORSDOF 14
ENDMDL
MODEL 6
REMARK VINA RESULT:    -2.382     15.473     17.889
REMARK INTER + INTRA:          -5.985
REMARK INTER:                  -4.177
REMARK INTRA:                  -1.807
REMARK UNBOUND:                -1.652
REMARK SMILES CCCCCCCCCCCCCCCC(=O)[O-]
REMARK SMILES IDX 9 1 10 2 11 3 12 4 13 5 14 6 15 7 16 8 17 9 18 10 8 11 7 12
REMARK SMILES IDX 6 13 5 14 4 15 3 16 2 17 1 18
REMARK H PARENT
REMARK Flexibility Score: inf
ROOT
ATOM      1  C   UNL     1      22.461  20.095  13.301  1.00  0.00     0.000 C 
ENDROOT
BRANCH   1   2
ATOM      2  C   UNL     1      23.034  21.507  13.545  1.00  0.00     0.000 C 
BRANCH   2   3
ATOM      3  C   UNL     1      22.069  22.666  13.239  1.00  0.00     0.000 C 
BRANCH   3   4
ATOM      4  C   UNL     1      22.556  24.012  13.800  1.00  0.00     0.000 C 
BRANCH   4   5
ATOM      5  C   UNL     1      22.593  24.032  15.338  1.00  0.00     0.000 C 
BRANCH   5   6
ATOM      6  C   UNL     1      23.890  24.640  15.892  1.00  0.00     0.006 C 
BRANCH   6   7
ATOM      7  C   UNL     1      25.012  23.597  15.927  1.00  0.00     0.053 C 
BRANCH   7   8
ATOM      8  C   UNL     1      26.217  24.098  15.198  1.00  0.00     0.041 C 
ATOM      9  O   UNL     1      27.355  24.030  15.732  1.00  0.00    -0.550 OA
ATOM     10  O   UNL     1      26.078  24.688  13.948  1.00  0.00    -0.550 OA
ENDBRANCH   7   8
ENDBRANCH   6   7
ENDBRANCH   5   6
ENDBRANCH   4   5
ENDBRANCH   3   4
ENDBRANCH   2   3
ENDBRANCH   1   2
BRANCH   1  11
ATOM     11  C   UNL     1      21.750  19.462  14.513  1.00  0.00     0.000 C 
BRANCH  11  12
ATOM     12  C   UNL     1      21.506  20.416  15.699  1.00  0.00    -0.000 C 
BRANCH  12  13
ATOM     13  C   UNL     1      20.034  20.570  16.125  1.00  0.00    -0.000 C 
BRANCH  13  14
ATOM     14  C   UNL     1      19.188  21.333  15.091  1.00  0.00    -0.000 C 
BRANCH  14  15
ATOM     15  C   UNL     1      18.364  22.474  15.714  1.00  0.00    -0.000 C 
BRANCH  15  16
ATOM     16  C   UNL     1      19.013  23.868  15.644  1.00  0.00    -0.000 C 
BRANCH  16  17
ATOM     17  C   UNL     1      18.804  24.559  14.289  1.00  0.00    -0.003 C 
ATOM     18  C   UNL     1      17.335  24.530  13.877  1.00  0.00     0.004 C 
ENDBRANCH  16  17
ENDBRANCH  15  16
ENDBRANCH  14  15
ENDBRANCH  13  14
ENDBRANCH  12  13
ENDBRANCH  11  12
ENDBRANCH   1  11
TORSDOF 14
ENDMDL
MODEL 7
REMARK VINA RESULT:    -2.262      3.115      6.341
REMARK INTER + INTRA:          -5.765
REMARK INTER:                  -4.562
REMARK INTRA:                  -1.203
REMARK UNBOUND:                -1.652
REMARK SMILES CCCCCCCCCCCCCCCC(=O)[O-]
REMARK SMILES IDX 9 1 10 2 11 3 12 4 13 5 14 6 15 7 16 8 17 9 18 10 8 11 7 12
REMARK SMILES IDX 6 13 5 14 4 15 3 16 2 17 1 18
REMARK H PARENT
REMARK Flexibility Score: inf
ROOT
ATOM      1  C   UNL     1      30.609  14.238   1.470  1.00  0.00     0.000 C 
ENDROOT
BRANCH   1   2
ATOM      2  C   UNL     1      29.427  15.029   2.068  1.00  0.00     0.000 C 
BRANCH   2   3
ATOM      3  C   UNL     1      28.120  14.231   2.227  1.00  0.00     0.000 C 
BRANCH   3   4
ATOM      4  C   UNL     1      27.424  13.951   0.885  1.00  0.00     0.000 C 
BRANCH   4   5
ATOM      5  C   UNL     1      27.689  15.050  -0.158  1.00  0.00     0.000 C 
BRANCH   5   6
ATOM      6  C   UNL     1      26.679  16.205  -0.072  1.00  0.00     0.006 C 
BRANCH   6   7
ATOM      7  C   UNL     1      27.373  17.509   0.333  1.00  0.00     0.053 C 
BRANCH   7   8
ATOM      8  C   UNL     1      26.874  17.979   1.661  1.00  0.00     0.041 C 
ATOM      9  O   UNL     1      25.830  18.679   1.735  1.00  0.00    -0.550 OA
ATOM     10  O   UNL     1      27.589  17.687   2.816  1.00  0.00    -0.550 OA
ENDBRANCH   7   8
ENDBRANCH   6   7
ENDBRANCH   5   6
ENDBRANCH   4   5
ENDBRANCH   3   4
ENDBRANCH   2   3
ENDBRANCH   1   2
BRANCH   1  11
ATOM     11  C   UNL     1      31.415  14.986   0.390  1.00  0.00     0.000 C 
BRANCH  11  12
ATOM     12  C   UNL     1      30.967  16.438   0.129  1.00  0.00    -0.000 C 
BRANCH  12  13
ATOM     13  C   UNL     1      31.179  16.942  -1.310  1.00  0.00    -0.000 C 
BRANCH  13  14
ATOM     14  C   UNL     1      32.657  17.216  -1.637  1.00  0.00    -0.000 C 
BRANCH  14  15
ATOM     15  C   UNL     1      33.202  18.475  -0.937  1.00  0.00    -0.000 C 
BRANCH  15  16
ATOM     16  C   UNL     1      34.572  18.965  -1.441  1.00  0.00    -0.000 C 
BRANCH  16  17
ATOM     17  C   UNL     1      35.306  19.845  -0.419  1.00  0.00    -0.003 C 
ATOM     18  C   UNL     1      36.808  19.870  -0.693  1.00  0.00     0.004 C 
ENDBRANCH  16  17
ENDBRANCH  15  16
ENDBRANCH  14  15
ENDBRANCH  13  14
ENDBRANCH  12  13
ENDBRANCH  11  12
ENDBRANCH   1  11
TORSDOF 14
ENDMDL
MODEL 8
REMARK VINA RESULT:    -2.096      0.990      2.788
REMARK INTER + INTRA:          -5.465
REMARK INTER:                  -3.700
REMARK INTRA:                  -1.765
REMARK UNBOUND:                -1.652
REMARK SMILES CCCCCCCCCCCCCCCC(=O)[O-]
REMARK SMILES IDX 9 1 10 2 11 3 12 4 13 5 14 6 15 7 16 8 17 9 18 10 8 11 7 12
REMARK SMILES IDX 6 13 5 14 4 15 3 16 2 17 1 18
REMARK H PARENT
REMARK Flexibility Score: inf
ROOT
ATOM      1  C   UNL     1      27.477  17.907   2.620  1.00  0.00     0.000 C 
ENDROOT
BRANCH   1   2
ATOM      2  C   UNL     1      26.514  17.850   1.416  1.00  0.00     0.000 C 
BRANCH   2   3
ATOM      3  C   UNL     1      27.098  17.215   0.141  1.00  0.00     0.000 C 
BRANCH   3   4
ATOM      4  C   UNL     1      28.493  17.757  -0.211  1.00  0.00     0.000 C 
BRANCH   4   5
ATOM      5  C   UNL     1      29.451  16.654  -0.693  1.00  0.00     0.000 C 
BRANCH   5   6
ATOM      6  C   UNL     1      30.894  16.869  -0.210  1.00  0.00     0.006 C 
BRANCH   6   7
ATOM      7  C   UNL     1      31.890  16.162  -1.133  1.00  0.00     0.053 C 
BRANCH   7   8
ATOM      8  C   UNL     1      32.665  17.160  -1.932  1.00  0.00     0.041 C 
ATOM      9  O   UNL     1      33.038  18.241  -1.407  1.00  0.00    -0.550 OA
ATOM     10  O   UNL     1      32.931  16.920  -3.275  1.00  0.00    -0.550 OA
ENDBRANCH   7   8
ENDBRANCH   6   7
ENDBRANCH   5   6
ENDBRANCH   4   5
ENDBRANCH   3   4
ENDBRANCH   2   3
ENDBRANCH   1   2
BRANCH   1  11
ATOM     11  C   UNL     1      27.855  16.538   3.218  1.00  0.00     0.000 C 
BRANCH  11  12
ATOM     12  C   UNL     1      29.248  16.013   2.817  1.00  0.00    -0.000 C 
BRANCH  12  13
ATOM     13  C   UNL     1      29.265  14.601   2.202  1.00  0.00    -0.000 C 
BRANCH  13  14
ATOM     14  C   UNL     1      27.972  13.814   2.475  1.00  0.00    -0.000 C 
BRANCH  14  15
ATOM     15  C   UNL     1      27.051  13.724   1.244  1.00  0.00    -0.000 C 
BRANCH  15  16
ATOM     16  C   UNL     1      27.767  13.784  -0.117  1.00  0.00    -0.000 C 
BRANCH  16  17
ATOM     17  C   UNL     1      26.855  13.400  -1.292  1.00  0.00    -0.003 C 
ATOM     18  C   UNL     1      27.441  12.235  -2.085  1.00  0.00     0.004 C 
ENDBRANCH  16  17
ENDBRANCH  15  16
ENDBRANCH  14  15
ENDBRANCH  13  14
ENDBRANCH  12  13
ENDBRANCH  11  12
ENDBRANCH   1  11
TORSDOF 14
ENDMDL
MODEL 9
REMARK VINA RESULT:    -1.668     16.168     18.419
REMARK INTER + INTRA:          -4.686
REMARK INTER:                  -3.403
REMARK INTRA:                  -1.283
REMARK UNBOUND:                -1.652
REMARK SMILES CCCCCCCCCCCCCCCC(=O)[O-]
REMARK SMILES IDX 9 1 10 2 11 3 12 4 13 5 14 6 15 7 16 8 17 9 18 10 8 11 7 12
REMARK SMILES IDX 6 13 5 14 4 15 3 16 2 17 1 18
REMARK H PARENT
REMARK Flexibility Score: inf
ROOT
ATOM      1  C   UNL     1      22.219  20.882  13.617  1.00  0.00     0.000 C 
ENDROOT
BRANCH   1   2
ATOM      2  C   UNL     1      23.615  21.260  14.155  1.00  0.00     0.000 C 
BRANCH   2   3
ATOM      3  C   UNL     1      23.703  21.430  15.682  1.00  0.00     0.000 C 
BRANCH   3   4
ATOM      4  C   UNL     1      23.626  22.900  16.125  1.00  0.00     0.000 C 
BRANCH   4   5
ATOM      5  C   UNL     1      24.589  23.805  15.338  1.00  0.00     0.000 C 
BRANCH   5   6
ATOM      6  C   UNL     1      23.897  25.050  14.762  1.00  0.00     0.006 C 
BRANCH   6   7
ATOM      7  C   UNL     1      23.084  24.695  13.513  1.00  0.00     0.053 C 
BRANCH   7   8
ATOM      8  C   UNL     1      21.623  24.663  13.829  1.00  0.00     0.041 C 
ATOM      9  O   UNL     1      20.795  24.277  12.963  1.00  0.00    -0.550 OA
ATOM     10  O   UNL     1      21.169  25.107  15.065  1.00  0.00    -0.550 OA
ENDBRANCH   7   8
ENDBRANCH   6   7
ENDBRANCH   5   6
ENDBRANCH   4   5
ENDBRANCH   3   4
ENDBRANCH   2   3
ENDBRANCH   1   2
BRANCH   1  11
ATOM     11  C   UNL     1      21.217  20.399  14.684  1.00  0.00     0.000 C 
BRANCH  11  12
ATOM     12  C   UNL     1      20.388  21.514  15.353  1.00  0.00    -0.000 C 
BRANCH  12  13
ATOM     13  C   UNL     1      18.998  21.086  15.857  1.00  0.00    -0.000 C 
BRANCH  13  14
ATOM     14  C   UNL     1      17.879  21.366  14.839  1.00  0.00    -0.000 C 
BRANCH  14  15
ATOM     15  C   UNL     1      17.006  22.574  15.224  1.00  0.00    -0.000 C 
BRANCH  15  16
ATOM     16  C   UNL     1      17.768  23.774  15.814  1.00  0.00    -0.000 C 
BRANCH  16  17
ATOM     17  C   UNL     1      17.326  25.118  15.215  1.00  0.00    -0.003 C 
ATOM     18  C   UNL     1      17.365  25.079  13.689  1.00  0.00     0.004 C 
ENDBRANCH  16  17
ENDBRANCH  15  16
ENDBRANCH  14  15
ENDBRANCH  13  14
ENDBRANCH  12  13
ENDBRANCH  11  12
ENDBRANCH   1  11
TORSDOF 14
ENDMDL
