MODEL 1
REMARK VINA RESULT:    63.038      0.000      0.000
REMARK INTER + INTRA:          88.418
REMARK INTER:                  88.834
REMARK INTRA:                  -0.416
REMARK UNBOUND:                -0.416
REMARK SMILES C[C@H](CO)CCC(=O)[C@@H](C)[C@@H]1C(=O)C[C@@H]2[C@H]3CC=C4C[C@H](O)CC[C@]4(C)[C@@H]3CC[C@@]21C
REMARK SMILES IDX 6 1 5 2 2 3 1 4 3 5 4 6 7 8 8 9 9 10 10 11 11 12 12 13 30 14
REMARK SMILES IDX 13 15 14 16 15 17 29 18 31 19 16 20 28 21 27 22 17 23 25 24
REMARK SMILES IDX 18 25 19 26 24 27 26 28 20 29 23 30 21 31 22 32
REMARK H PARENT 4 7 22 33
REMARK Flexibility Score: inf
ROOT
ATOM      1  C   UNL     1      87.929  19.966 110.405  1.00  0.00     0.076 C 
ENDROOT
BRANCH   1   2
ATOM      2  C   UNL     1      88.264  21.403 110.844  1.00  0.00     0.013 C 
BRANCH   2   3
ATOM      3  C   UNL     1      89.151  21.501 112.110  1.00  0.00     0.012 C 
ATOM      4  C   UNL     1      89.904  22.839 112.107  1.00  0.00     0.010 C 
BRANCH   3   5
ATOM      5  C   UNL     1      90.145  20.322 112.206  1.00  0.00     0.159 C 
BRANCH   5   6
ATOM      6  O   UNL     1      91.008  20.476 113.301  1.00  0.00    -0.396 OA
ATOM      7  H   UNL     1      91.096  19.582 113.722  1.00  0.00     0.210 HD
ENDBRANCH   5   6
ENDBRANCH   3   5
ENDBRANCH   2   3
ENDBRANCH   1   2
BRANCH   1   8
ATOM      8  C   UNL     1      86.717  19.878 109.500  1.00  0.00     0.136 C 
ATOM      9  O   UNL     1      86.310  20.909 108.986  1.00  0.00    -0.299 OA
BRANCH   8  10
ATOM     10  C   UNL     1      86.014  18.572 109.144  1.00  0.00     0.064 C 
ATOM     11  C   UNL     1      84.629  18.570 109.822  1.00  0.00     0.017 C 
BRANCH  10  12
ATOM     12  C   UNL     1      85.952  18.284 107.602  1.00  0.00     0.072 C 
ATOM     13  C   UNL     1      84.709  18.852 107.003  1.00  0.00     0.137 C 
ATOM     14  C   UNL     1      85.871  16.773 107.151  1.00  0.00    -0.019 C 
ATOM     15  O   UNL     1      84.573  20.041 106.757  1.00  0.00    -0.299 OA
ATOM     16  C   UNL     1      83.676  17.858 106.649  1.00  0.00     0.080 C 
ATOM     17  C   UNL     1      84.356  16.487 106.819  1.00  0.00     0.007 C 
ATOM     18  C   UNL     1      86.437  15.744 108.186  1.00  0.00     0.008 C 
ATOM     19  C   UNL     1      86.691  16.639 105.836  1.00  0.00     0.012 C 
ATOM     20  C   UNL     1      83.666  15.587 107.883  1.00  0.00     0.001 C 
ATOM     21  C   UNL     1      85.939  14.323 107.919  1.00  0.00     0.005 C 
ATOM     22  C   UNL     1      84.387  14.212 107.996  1.00  0.00     0.003 C 
ATOM     23  C   UNL     1      82.191  15.287 107.550  1.00  0.00     0.031 C 
ATOM     24  C   UNL     1      83.830  13.373 109.213  1.00  0.00    -0.008 C 
ATOM     25  C   UNL     1      81.584  14.402 108.603  1.00  0.00    -0.027 C 
ATOM     26  C   UNL     1      82.302  13.523 109.340  1.00  0.00    -0.065 C 
ATOM     27  C   UNL     1      84.450  13.837 110.571  1.00  0.00     0.014 C 
ATOM     28  C   UNL     1      84.163  11.880 108.955  1.00  0.00     0.016 C 
ATOM     29  C   UNL     1      81.630  12.856 110.522  1.00  0.00     0.063 C 
ATOM     30  C   UNL     1      83.788  13.192 111.808  1.00  0.00     0.033 C 
ATOM     31  C   UNL     1      82.258  13.371 111.823  1.00  0.00     0.118 C 
BRANCH  31  32
ATOM     32  O   UNL     1      81.928  14.726 111.998  1.00  0.00    -0.393 OA
ATOM     33  H   UNL     1      82.582  15.251 111.464  1.00  0.00     0.210 HD
ENDBRANCH  31  32
ENDBRANCH  10  12
ENDBRANCH   8  10
ENDBRANCH   1   8
TORSDOF 8
ENDMDL
MODEL 2
REMARK VINA RESULT:    63.433      4.591      7.858
REMARK INTER + INTRA:          88.975
REMARK INTER:                  88.621
REMARK INTRA:                   0.354
REMARK UNBOUND:                -0.416
REMARK SMILES C[C@H](CO)CCC(=O)[C@@H](C)[C@@H]1C(=O)C[C@@H]2[C@H]3CC=C4C[C@H](O)CC[C@]4(C)[C@@H]3CC[C@@]21C
REMARK SMILES IDX 6 1 5 2 2 3 1 4 3 5 4 6 7 8 8 9 9 10 10 11 11 12 12 13 30 14
REMARK SMILES IDX 13 15 14 16 15 17 29 18 31 19 16 20 28 21 27 22 17 23 25 24
REMARK SMILES IDX 18 25 19 26 24 27 26 28 20 29 23 30 21 31 22 32
REMARK H PARENT 4 7 22 33
REMARK Flexibility Score: inf
ROOT
ATOM      1  C   UNL     1      88.056  14.283 102.415  1.00  0.00     0.076 C 
ENDROOT
BRANCH   1   2
ATOM      2  C   UNL     1      87.491  14.756 101.064  1.00  0.00     0.013 C 
BRANCH   2   3
ATOM      3  C   UNL     1      87.468  16.293 100.876  1.00  0.00     0.012 C 
ATOM      4  C   UNL     1      88.300  16.957 101.984  1.00  0.00     0.010 C 
BRANCH   3   5
ATOM      5  C   UNL     1      86.027  16.849 100.876  1.00  0.00     0.159 C 
BRANCH   5   6
ATOM      6  O   UNL     1      86.014  18.221 101.168  1.00  0.00    -0.396 OA
ATOM      7  H   UNL     1      86.214  18.307 102.136  1.00  0.00     0.210 HD
ENDBRANCH   5   6
ENDBRANCH   3   5
ENDBRANCH   2   3
ENDBRANCH   1   2
BRANCH   1   8
ATOM      8  C   UNL     1      88.081  12.776 102.564  1.00  0.00     0.136 C 
ATOM      9  O   UNL     1      88.173  12.100 101.550  1.00  0.00    -0.299 OA
BRANCH   8  10
ATOM     10  C   UNL     1      88.062  12.053 103.908  1.00  0.00     0.064 C 
ATOM     11  C   UNL     1      88.056  10.535 103.639  1.00  0.00     0.017 C 
BRANCH  10  12
ATOM     12  C   UNL     1      89.201  12.507 104.889  1.00  0.00     0.072 C 
ATOM     13  C   UNL     1      89.419  11.490 105.959  1.00  0.00     0.137 C 
ATOM     14  C   UNL     1      88.949  13.818 105.732  1.00  0.00    -0.019 C 
ATOM     15  O   UNL     1      90.035  10.451 105.772  1.00  0.00    -0.299 OA
ATOM     16  C   UNL     1      88.908  11.866 107.292  1.00  0.00     0.080 C 
ATOM     17  C   UNL     1      88.504  13.346 107.169  1.00  0.00     0.007 C 
ATOM     18  C   UNL     1      87.917  14.816 105.108  1.00  0.00     0.008 C 
ATOM     19  C   UNL     1      90.314  14.552 105.863  1.00  0.00     0.012 C 
ATOM     20  C   UNL     1      86.993  13.595 107.443  1.00  0.00     0.001 C 
ATOM     21  C   UNL     1      87.381  15.812 106.138  1.00  0.00     0.005 C 
ATOM     22  C   UNL     1      86.650  15.108 107.320  1.00  0.00     0.003 C 
ATOM     23  C   UNL     1      86.558  13.155 108.854  1.00  0.00     0.031 C 
ATOM     24  C   UNL     1      85.091  15.349 107.388  1.00  0.00    -0.008 C 
ATOM     25  C   UNL     1      85.096  13.435 109.065  1.00  0.00    -0.027 C 
ATOM     26  C   UNL     1      84.430  14.429 108.433  1.00  0.00    -0.065 C 
ATOM     27  C   UNL     1      84.397  15.057 106.017  1.00  0.00     0.014 C 
ATOM     28  C   UNL     1      84.852  16.824 107.804  1.00  0.00     0.016 C 
ATOM     29  C   UNL     1      82.921  14.470 108.546  1.00  0.00     0.063 C 
ATOM     30  C   UNL     1      82.855  15.076 106.085  1.00  0.00     0.033 C 
ATOM     31  C   UNL     1      82.297  14.148 107.181  1.00  0.00     0.118 C 
BRANCH  31  32
ATOM     32  O   UNL     1      82.551  12.804 106.856  1.00  0.00    -0.393 OA
ATOM     33  H   UNL     1      82.604  12.307 107.715  1.00  0.00     0.210 HD
ENDBRANCH  31  32
ENDBRANCH  10  12
ENDBRANCH   8  10
ENDBRANCH   1   8
TORSDOF 8
ENDMDL
MODEL 3
REMARK VINA RESULT:    63.871      2.041      9.006
REMARK INTER + INTRA:          89.592
REMARK INTER:                  90.022
REMARK INTRA:                  -0.430
REMARK UNBOUND:                -0.416
REMARK SMILES C[C@H](CO)CCC(=O)[C@@H](C)[C@@H]1C(=O)C[C@@H]2[C@H]3CC=C4C[C@H](O)CC[C@]4(C)[C@@H]3CC[C@@]21C
REMARK SMILES IDX 6 1 5 2 2 3 1 4 3 5 4 6 7 8 8 9 9 10 10 11 11 12 12 13 30 14
REMARK SMILES IDX 13 15 14 16 15 17 29 18 31 19 16 20 28 21 27 22 17 23 25 24
REMARK SMILES IDX 18 25 19 26 24 27 26 28 20 29 23 30 21 31 22 32
REMARK H PARENT 4 7 22 33
REMARK Flexibility Score: inf
ROOT
ATOM      1  C   UNL     1      85.298  17.334 108.949  1.00  0.00     0.076 C 
ENDROOT
BRANCH   1   2
ATOM      2  C   UNL     1      84.664  16.661 107.719  1.00  0.00     0.013 C 
BRANCH   2   3
ATOM      3  C   UNL     1      84.437  15.135 107.862  1.00  0.00     0.012 C 
ATOM      4  C   UNL     1      83.354  14.683 106.872  1.00  0.00     0.010 C 
BRANCH   3   5
ATOM      5  C   UNL     1      84.046  14.748 109.306  1.00  0.00     0.159 C 
BRANCH   5   6
ATOM      6  O   UNL     1      84.701  13.576 109.710  1.00  0.00    -0.396 OA
ATOM      7  H   UNL     1      85.204  13.245 108.921  1.00  0.00     0.210 HD
ENDBRANCH   5   6
ENDBRANCH   3   5
ENDBRANCH   2   3
ENDBRANCH   1   2
BRANCH   1   8
ATOM      8  C   UNL     1      85.825  18.727 108.671  1.00  0.00     0.136 C 
ATOM      9  O   UNL     1      85.375  19.329 107.707  1.00  0.00    -0.299 OA
BRANCH   8  10
ATOM     10  C   UNL     1      86.837  19.447 109.558  1.00  0.00     0.064 C 
ATOM     11  C   UNL     1      88.174  19.528 108.795  1.00  0.00     0.017 C 
BRANCH  10  12
ATOM     12  C   UNL     1      86.338  20.837 110.091  1.00  0.00     0.072 C 
ATOM     13  C   UNL     1      86.718  21.934 109.153  1.00  0.00     0.137 C 
ATOM     14  C   UNL     1      86.947  21.349 111.455  1.00  0.00    -0.019 C 
ATOM     15  O   UNL     1      86.120  22.153 108.110  1.00  0.00    -0.299 OA
ATOM     16  C   UNL     1      87.822  22.797 109.616  1.00  0.00     0.080 C 
ATOM     17  C   UNL     1      88.070  22.390 111.080  1.00  0.00     0.007 C 
ATOM     18  C   UNL     1      87.496  20.225 112.396  1.00  0.00     0.008 C 
ATOM     19  C   UNL     1      85.816  22.104 112.210  1.00  0.00     0.012 C 
ATOM     20  C   UNL     1      89.505  21.845 111.331  1.00  0.00     0.001 C 
ATOM     21  C   UNL     1      88.452  20.774 113.456  1.00  0.00     0.005 C 
ATOM     22  C   UNL     1      89.699  21.467 112.829  1.00  0.00     0.003 C 
ATOM     23  C   UNL     1      90.604  22.868 110.987  1.00  0.00     0.031 C 
ATOM     24  C   UNL     1      91.071  20.721 113.057  1.00  0.00    -0.008 C 
ATOM     25  C   UNL     1      91.965  22.291 111.265  1.00  0.00    -0.027 C 
ATOM     26  C   UNL     1      92.193  21.346 112.205  1.00  0.00    -0.065 C 
ATOM     27  C   UNL     1      90.984  19.210 112.663  1.00  0.00     0.014 C 
ATOM     28  C   UNL     1      91.449  20.862 114.556  1.00  0.00     0.016 C 
ATOM     29  C   UNL     1      93.551  20.676 112.239  1.00  0.00     0.063 C 
ATOM     30  C   UNL     1      92.348  18.487 112.671  1.00  0.00     0.033 C 
ATOM     31  C   UNL     1      93.408  19.208 111.816  1.00  0.00     0.118 C 
BRANCH  31  32
ATOM     32  O   UNL     1      93.060  19.145 110.455  1.00  0.00    -0.393 OA
ATOM     33  H   UNL     1      92.113  19.437 110.388  1.00  0.00     0.210 HD
ENDBRANCH  31  32
ENDBRANCH  10  12
ENDBRANCH   8  10
ENDBRANCH   1   8
TORSDOF 8
ENDMDL
