MODEL 1
REMARK VINA RESULT:    -4.826      0.000      0.000
REMARK INTER + INTRA:         -10.651
REMARK INTER:                  -8.776
REMARK INTRA:                  -1.875
REMARK UNBOUND:                -1.875
REMARK SMILES CCCCCCCCCCCCCCCC(=O)[O-]
REMARK SMILES IDX 9 1 10 2 11 3 12 4 13 5 14 6 15 7 16 8 17 9 18 10 8 11 7 12
REMARK SMILES IDX 6 13 5 14 4 15 3 16 2 17 1 18
REMARK H PARENT
REMARK Flexibility Score: inf
ROOT
ATOM      1  C   UNL     1      41.859  61.101   8.072  1.00  0.00     0.000 C 
ENDROOT
BRANCH   1   2
ATOM      2  C   UNL     1      40.382  61.125   8.480  1.00  0.00     0.000 C 
BRANCH   2   3
ATOM      3  C   UNL     1      39.643  62.291   7.807  1.00  0.00     0.000 C 
BRANCH   3   4
ATOM      4  C   UNL     1      40.140  63.658   8.306  1.00  0.00     0.000 C 
BRANCH   4   5
ATOM      5  C   UNL     1      39.059  64.757   8.229  1.00  0.00     0.000 C 
BRANCH   5   6
ATOM      6  C   UNL     1      38.791  65.267   6.801  1.00  0.00     0.006 C 
BRANCH   6   7
ATOM      7  C   UNL     1      37.456  66.022   6.647  1.00  0.00     0.053 C 
BRANCH   7   8
ATOM      8  C   UNL     1      37.503  67.077   5.582  1.00  0.00     0.041 C 
ATOM      9  O   UNL     1      36.874  68.158   5.728  1.00  0.00    -0.550 OA
ATOM     10  O   UNL     1      38.196  66.843   4.401  1.00  0.00    -0.550 OA
ENDBRANCH   7   8
ENDBRANCH   6   7
ENDBRANCH   5   6
ENDBRANCH   4   5
ENDBRANCH   3   4
ENDBRANCH   2   3
ENDBRANCH   1   2
BRANCH   1  11
ATOM     11  C   UNL     1      42.324  59.671   7.772  1.00  0.00     0.000 C 
BRANCH  11  12
ATOM     12  C   UNL     1      41.166  58.818   7.234  1.00  0.00    -0.000 C 
BRANCH  12  13
ATOM     13  C   UNL     1      41.196  58.658   5.702  1.00  0.00    -0.000 C 
BRANCH  13  14
ATOM     14  C   UNL     1      40.570  59.823   4.914  1.00  0.00    -0.000 C 
BRANCH  14  15
ATOM     15  C   UNL     1      41.616  60.780   4.323  1.00  0.00    -0.000 C 
BRANCH  15  16
ATOM     16  C   UNL     1      40.952  62.058   3.790  1.00  0.00    -0.000 C 
BRANCH  16  17
ATOM     17  C   UNL     1      41.188  63.271   4.705  1.00  0.00    -0.003 C 
ATOM     18  C   UNL     1      42.628  63.358   5.211  1.00  0.00     0.004 C 
ENDBRANCH  16  17
ENDBRANCH  15  16
ENDBRANCH  14  15
ENDBRANCH  13  14
ENDBRANCH  12  13
ENDBRANCH  11  12
ENDBRANCH   1  11
TORSDOF 14
ENDMDL
MODEL 2
REMARK VINA RESULT:    -4.736     13.283     14.842
REMARK INTER + INTRA:         -10.488
REMARK INTER:                  -8.489
REMARK INTRA:                  -1.999
REMARK UNBOUND:                -1.875
REMARK SMILES CCCCCCCCCCCCCCCC(=O)[O-]
REMARK SMILES IDX 9 1 10 2 11 3 12 4 13 5 14 6 15 7 16 8 17 9 18 10 8 11 7 12
REMARK SMILES IDX 6 13 5 14 4 15 3 16 2 17 1 18
REMARK H PARENT
REMARK Flexibility Score: inf
ROOT
ATOM      1  C   UNL     1      28.335  58.189  -0.328  1.00  0.00     0.000 C 
ENDROOT
BRANCH   1   2
ATOM      2  C   UNL     1      27.968  56.710  -0.497  1.00  0.00     0.000 C 
BRANCH   2   3
ATOM      3  C   UNL     1      27.548  56.410  -1.944  1.00  0.00     0.000 C 
BRANCH   3   4
ATOM      4  C   UNL     1      28.656  56.755  -2.953  1.00  0.00     0.000 C 
BRANCH   4   5
ATOM      5  C   UNL     1      28.512  55.992  -4.288  1.00  0.00     0.000 C 
BRANCH   5   6
ATOM      6  C   UNL     1      29.242  56.660  -5.468  1.00  0.00     0.006 C 
BRANCH   6   7
ATOM      7  C   UNL     1      30.451  57.518  -5.049  1.00  0.00     0.053 C 
BRANCH   7   8
ATOM      8  C   UNL     1      30.661  58.705  -5.942  1.00  0.00     0.041 C 
ATOM      9  O   UNL     1      31.510  59.585  -5.643  1.00  0.00    -0.550 OA
ATOM     10  O   UNL     1      29.876  58.869  -7.076  1.00  0.00    -0.550 OA
ENDBRANCH   7   8
ENDBRANCH   6   7
ENDBRANCH   5   6
ENDBRANCH   4   5
ENDBRANCH   3   4
ENDBRANCH   2   3
ENDBRANCH   1   2
BRANCH   1  11
ATOM     11  C   UNL     1      28.651  58.513   1.137  1.00  0.00     0.000 C 
BRANCH  11  12
ATOM     12  C   UNL     1      29.594  57.462   1.742  1.00  0.00    -0.000 C 
BRANCH  12  13
ATOM     13  C   UNL     1      31.079  57.858   1.646  1.00  0.00    -0.000 C 
BRANCH  13  14
ATOM     14  C   UNL     1      31.801  57.374   0.376  1.00  0.00    -0.000 C 
BRANCH  14  15
ATOM     15  C   UNL     1      32.419  58.521  -0.438  1.00  0.00    -0.000 C 
BRANCH  15  16
ATOM     16  C   UNL     1      31.822  58.575  -1.852  1.00  0.00    -0.000 C 
BRANCH  16  17
ATOM     17  C   UNL     1      31.100  59.902  -2.138  1.00  0.00    -0.003 C 
ATOM     18  C   UNL     1      30.902  60.749  -0.882  1.00  0.00     0.004 C 
ENDBRANCH  16  17
ENDBRANCH  15  16
ENDBRANCH  14  15
ENDBRANCH  13  14
ENDBRANCH  12  13
ENDBRANCH  11  12
ENDBRANCH   1  11
TORSDOF 14
ENDMDL
MODEL 3
REMARK VINA RESULT:    -4.626     14.123     15.756
REMARK INTER + INTRA:         -10.287
REMARK INTER:                  -8.519
REMARK INTRA:                  -1.768
REMARK UNBOUND:                -1.875
REMARK SMILES CCCCCCCCCCCCCCCC(=O)[O-]
REMARK SMILES IDX 9 1 10 2 11 3 12 4 13 5 14 6 15 7 16 8 17 9 18 10 8 11 7 12
REMARK SMILES IDX 6 13 5 14 4 15 3 16 2 17 1 18
REMARK H PARENT
REMARK Flexibility Score: inf
ROOT
ATOM      1  C   UNL     1      28.055  56.542  -1.632  1.00  0.00     0.000 C 
ENDROOT
BRANCH   1   2
ATOM      2  C   UNL     1      28.332  58.049  -1.589  1.00  0.00     0.000 C 
BRANCH   2   3
ATOM      3  C   UNL     1      29.812  58.329  -1.288  1.00  0.00     0.000 C 
BRANCH   3   4
ATOM      4  C   UNL     1      30.342  59.544  -2.067  1.00  0.00     0.000 C 
BRANCH   4   5
ATOM      5  C   UNL     1      31.416  59.168  -3.112  1.00  0.00     0.000 C 
BRANCH   5   6
ATOM      6  C   UNL     1      30.873  59.053  -4.548  1.00  0.00     0.006 C 
BRANCH   6   7
ATOM      7  C   UNL     1      30.937  57.627  -5.128  1.00  0.00     0.053 C 
BRANCH   7   8
ATOM      8  C   UNL     1      29.634  57.181  -5.721  1.00  0.00     0.041 C 
ATOM      9  O   UNL     1      29.250  57.637  -6.831  1.00  0.00    -0.550 OA
ATOM     10  O   UNL     1      28.814  56.304  -5.022  1.00  0.00    -0.550 OA
ENDBRANCH   7   8
ENDBRANCH   6   7
ENDBRANCH   5   6
ENDBRANCH   4   5
ENDBRANCH   3   4
ENDBRANCH   2   3
ENDBRANCH   1   2
BRANCH   1  11
ATOM     11  C   UNL     1      26.687  56.216  -1.023  1.00  0.00     0.000 C 
BRANCH  11  12
ATOM     12  C   UNL     1      26.036  57.474  -0.427  1.00  0.00    -0.000 C 
BRANCH  12  13
ATOM     13  C   UNL     1      25.876  57.402   1.103  1.00  0.00    -0.000 C 
BRANCH  13  14
ATOM     14  C   UNL     1      26.330  58.661   1.864  1.00  0.00    -0.000 C 
BRANCH  14  15
ATOM     15  C   UNL     1      27.857  58.759   2.005  1.00  0.00    -0.000 C 
BRANCH  15  16
ATOM     16  C   UNL     1      28.335  58.080   3.296  1.00  0.00    -0.000 C 
BRANCH  16  17
ATOM     17  C   UNL     1      29.464  57.066   3.047  1.00  0.00    -0.003 C 
ATOM     18  C   UNL     1      29.224  56.208   1.806  1.00  0.00     0.004 C 
ENDBRANCH  16  17
ENDBRANCH  15  16
ENDBRANCH  14  15
ENDBRANCH  13  14
ENDBRANCH  12  13
ENDBRANCH  11  12
ENDBRANCH   1  11
TORSDOF 14
ENDMDL
MODEL 4
REMARK VINA RESULT:    -4.618      2.791      5.069
REMARK INTER + INTRA:         -10.273
REMARK INTER:                  -8.354
REMARK INTRA:                  -1.919
REMARK UNBOUND:                -1.875
REMARK SMILES CCCCCCCCCCCCCCCC(=O)[O-]
REMARK SMILES IDX 9 1 10 2 11 3 12 4 13 5 14 6 15 7 16 8 17 9 18 10 8 11 7 12
REMARK SMILES IDX 6 13 5 14 4 15 3 16 2 17 1 18
REMARK H PARENT
REMARK Flexibility Score: inf
ROOT
ATOM      1  C   UNL     1      40.745  61.379   5.854  1.00  0.00     0.000 C 
ENDROOT
BRANCH   1   2
ATOM      2  C   UNL     1      41.291  62.429   4.879  1.00  0.00     0.000 C 
BRANCH   2   3
ATOM      3  C   UNL     1      42.800  62.633   5.079  1.00  0.00     0.000 C 
BRANCH   3   4
ATOM      4  C   UNL     1      43.202  64.115   4.985  1.00  0.00     0.000 C 
BRANCH   4   5
ATOM      5  C   UNL     1      42.302  65.038   5.835  1.00  0.00     0.000 C 
BRANCH   5   6
ATOM      6  C   UNL     1      42.970  66.368   6.228  1.00  0.00     0.006 C 
BRANCH   6   7
ATOM      7  C   UNL     1      44.367  66.572   5.611  1.00  0.00     0.053 C 
BRANCH   7   8
ATOM      8  C   UNL     1      44.365  67.549   4.474  1.00  0.00     0.041 C 
ATOM      9  O   UNL     1      43.485  68.447   4.408  1.00  0.00    -0.550 OA
ATOM     10  O   UNL     1      45.301  67.433   3.454  1.00  0.00    -0.550 OA
ENDBRANCH   7   8
ENDBRANCH   6   7
ENDBRANCH   5   6
ENDBRANCH   4   5
ENDBRANCH   3   4
ENDBRANCH   2   3
ENDBRANCH   1   2
BRANCH   1  11
ATOM     11  C   UNL     1      41.742  61.108   6.986  1.00  0.00     0.000 C 
BRANCH  11  12
ATOM     12  C   UNL     1      41.065  61.240   8.359  1.00  0.00    -0.000 C 
BRANCH  12  13
ATOM     13  C   UNL     1      39.922  62.273   8.370  1.00  0.00    -0.000 C 
BRANCH  13  14
ATOM     14  C   UNL     1      40.352  63.715   8.692  1.00  0.00    -0.000 C 
BRANCH  14  15
ATOM     15  C   UNL     1      39.304  64.761   8.280  1.00  0.00    -0.000 C 
BRANCH  15  16
ATOM     16  C   UNL     1      38.830  64.525   6.839  1.00  0.00    -0.000 C 
BRANCH  16  17
ATOM     17  C   UNL     1      38.657  65.835   6.053  1.00  0.00    -0.003 C 
ATOM     18  C   UNL     1      37.308  66.505   6.311  1.00  0.00     0.004 C 
ENDBRANCH  16  17
ENDBRANCH  15  16
ENDBRANCH  14  15
ENDBRANCH  13  14
ENDBRANCH  12  13
ENDBRANCH  11  12
ENDBRANCH   1  11
TORSDOF 14
ENDMDL
MODEL 5
REMARK VINA RESULT:    -4.520      2.095      4.484
REMARK INTER + INTRA:         -10.094
REMARK INTER:                  -7.328
REMARK INTRA:                  -2.766
REMARK UNBOUND:                -1.875
REMARK SMILES CCCCCCCCCCCCCCCC(=O)[O-]
REMARK SMILES IDX 9 1 10 2 11 3 12 4 13 5 14 6 15 7 16 8 17 9 18 10 8 11 7 12
REMARK SMILES IDX 6 13 5 14 4 15 3 16 2 17 1 18
REMARK H PARENT
REMARK Flexibility Score: inf
ROOT
ATOM      1  C   UNL     1      41.241  61.215   4.178  1.00  0.00     0.000 C 
ENDROOT
BRANCH   1   2
ATOM      2  C   UNL     1      42.228  60.151   4.672  1.00  0.00     0.000 C 
BRANCH   2   3
ATOM      3  C   UNL     1      42.519  60.324   6.170  1.00  0.00     0.000 C 
BRANCH   3   4
ATOM      4  C   UNL     1      41.848  61.581   6.750  1.00  0.00     0.000 C 
BRANCH   4   5
ATOM      5  C   UNL     1      41.278  61.360   8.167  1.00  0.00     0.000 C 
BRANCH   5   6
ATOM      6  C   UNL     1      39.887  61.984   8.383  1.00  0.00     0.006 C 
BRANCH   6   7
ATOM      7  C   UNL     1      39.414  62.872   7.216  1.00  0.00     0.053 C 
BRANCH   7   8
ATOM      8  C   UNL     1      39.559  64.337   7.503  1.00  0.00     0.041 C 
ATOM      9  O   UNL     1      38.641  65.141   7.192  1.00  0.00    -0.550 OA
ATOM     10  O   UNL     1      40.735  64.823   8.061  1.00  0.00    -0.550 OA
ENDBRANCH   7   8
ENDBRANCH   6   7
ENDBRANCH   5   6
ENDBRANCH   4   5
ENDBRANCH   3   4
ENDBRANCH   2   3
ENDBRANCH   1   2
BRANCH   1  11
ATOM     11  C   UNL     1      40.103  60.578   3.372  1.00  0.00     0.000 C 
BRANCH  11  12
ATOM     12  C   UNL     1      39.486  59.395   4.134  1.00  0.00    -0.000 C 
BRANCH  12  13
ATOM     13  C   UNL     1      38.302  59.807   5.030  1.00  0.00    -0.000 C 
BRANCH  13  14
ATOM     14  C   UNL     1      38.404  59.347   6.495  1.00  0.00    -0.000 C 
BRANCH  14  15
ATOM     15  C   UNL     1      39.524  58.320   6.726  1.00  0.00    -0.000 C 
BRANCH  15  16
ATOM     16  C   UNL     1      39.679  58.003   8.220  1.00  0.00    -0.000 C 
BRANCH  16  17
ATOM     17  C   UNL     1      41.127  57.656   8.603  1.00  0.00    -0.003 C 
ATOM     18  C   UNL     1      41.849  56.858   7.518  1.00  0.00     0.004 C 
ENDBRANCH  16  17
ENDBRANCH  15  16
ENDBRANCH  14  15
ENDBRANCH  13  14
ENDBRANCH  12  13
ENDBRANCH  11  12
ENDBRANCH   1  11
TORSDOF 14
ENDMDL
MODEL 6
REMARK VINA RESULT:    -4.502      2.986      5.703
REMARK INTER + INTRA:         -10.063
REMARK INTER:                  -7.769
REMARK INTRA:                  -2.294
REMARK UNBOUND:                -1.875
REMARK SMILES CCCCCCCCCCCCCCCC(=O)[O-]
REMARK SMILES IDX 9 1 10 2 11 3 12 4 13 5 14 6 15 7 16 8 17 9 18 10 8 11 7 12
REMARK SMILES IDX 6 13 5 14 4 15 3 16 2 17 1 18
REMARK H PARENT
REMARK Flexibility Score: inf
ROOT
ATOM      1  C   UNL     1      39.811  62.192   7.965  1.00  0.00     0.000 C 
ENDROOT
BRANCH   1   2
ATOM      2  C   UNL     1      40.423  60.859   8.414  1.00  0.00     0.000 C 
BRANCH   2   3
ATOM      3  C   UNL     1      41.873  60.728   7.927  1.00  0.00     0.000 C 
BRANCH   3   4
ATOM      4  C   UNL     1      42.303  59.259   7.775  1.00  0.00     0.000 C 
BRANCH   4   5
ATOM      5  C   UNL     1      41.131  58.268   7.943  1.00  0.00     0.000 C 
BRANCH   5   6
ATOM      6  C   UNL     1      40.789  57.487   6.661  1.00  0.00     0.006 C 
BRANCH   6   7
ATOM      7  C   UNL     1      40.183  58.356   5.543  1.00  0.00     0.053 C 
BRANCH   7   8
ATOM      8  C   UNL     1      38.734  58.670   5.770  1.00  0.00     0.041 C 
ATOM      9  O   UNL     1      38.319  59.856   5.687  1.00  0.00    -0.550 OA
ATOM     10  O   UNL     1      37.851  57.660   6.131  1.00  0.00    -0.550 OA
ENDBRANCH   7   8
ENDBRANCH   6   7
ENDBRANCH   5   6
ENDBRANCH   4   5
ENDBRANCH   3   4
ENDBRANCH   2   3
ENDBRANCH   1   2
BRANCH   1  11
ATOM     11  C   UNL     1      40.357  63.356   8.800  1.00  0.00     0.000 C 
BRANCH  11  12
ATOM     12  C   UNL     1      41.078  64.380   7.911  1.00  0.00    -0.000 C 
BRANCH  12  13
ATOM     13  C   UNL     1      40.245  64.809   6.688  1.00  0.00    -0.000 C 
BRANCH  13  14
ATOM     14  C   UNL     1      40.840  64.414   5.325  1.00  0.00    -0.000 C 
BRANCH  14  15
ATOM     15  C   UNL     1      42.244  63.800   5.437  1.00  0.00    -0.000 C 
BRANCH  15  16
ATOM     16  C   UNL     1      42.319  62.460   4.690  1.00  0.00    -0.000 C 
BRANCH  16  17
ATOM     17  C   UNL     1      40.932  61.845   4.441  1.00  0.00    -0.003 C 
ATOM     18  C   UNL     1      40.737  61.394   2.994  1.00  0.00     0.004 C 
ENDBRANCH  16  17
ENDBRANCH  15  16
ENDBRANCH  14  15
ENDBRANCH  13  14
ENDBRANCH  12  13
ENDBRANCH  11  12
ENDBRANCH   1  11
TORSDOF 14
ENDMDL
MODEL 7
REMARK VINA RESULT:    -4.477      2.591      4.267
REMARK INTER + INTRA:         -10.016
REMARK INTER:                  -7.643
REMARK INTRA:                  -2.373
REMARK UNBOUND:                -1.875
REMARK SMILES CCCCCCCCCCCCCCCC(=O)[O-]
REMARK SMILES IDX 9 1 10 2 11 3 12 4 13 5 14 6 15 7 16 8 17 9 18 10 8 11 7 12
REMARK SMILES IDX 6 13 5 14 4 15 3 16 2 17 1 18
REMARK H PARENT
REMARK Flexibility Score: inf
ROOT
ATOM      1  C   UNL     1      41.611  56.865   7.856  1.00  0.00     0.000 C 
ENDROOT
BRANCH   1   2
ATOM      2  C   UNL     1      41.517  58.287   8.421  1.00  0.00     0.000 C 
BRANCH   2   3
ATOM      3  C   UNL     1      42.362  59.265   7.593  1.00  0.00     0.000 C 
BRANCH   3   4
ATOM      4  C   UNL     1      41.596  60.558   7.264  1.00  0.00     0.000 C 
BRANCH   4   5
ATOM      5  C   UNL     1      40.764  61.084   8.453  1.00  0.00     0.000 C 
BRANCH   5   6
ATOM      6  C   UNL     1      39.566  61.956   8.037  1.00  0.00     0.006 C 
BRANCH   6   7
ATOM      7  C   UNL     1      39.632  63.402   8.565  1.00  0.00     0.053 C 
BRANCH   7   8
ATOM      8  C   UNL     1      40.326  64.337   7.619  1.00  0.00     0.041 C 
ATOM      9  O   UNL     1      41.577  64.476   7.664  1.00  0.00    -0.550 OA
ATOM     10  O   UNL     1      39.585  65.099   6.726  1.00  0.00    -0.550 OA
ENDBRANCH   7   8
ENDBRANCH   6   7
ENDBRANCH   5   6
ENDBRANCH   4   5
ENDBRANCH   3   4
ENDBRANCH   2   3
ENDBRANCH   1   2
BRANCH   1  11
ATOM     11  C   UNL     1      42.753  56.751   6.839  1.00  0.00     0.000 C 
BRANCH  11  12
ATOM     12  C   UNL     1      42.459  55.658   5.801  1.00  0.00    -0.000 C 
BRANCH  12  13
ATOM     13  C   UNL     1      41.069  55.802   5.153  1.00  0.00    -0.000 C 
BRANCH  13  14
ATOM     14  C   UNL     1      40.957  56.914   4.094  1.00  0.00    -0.000 C 
BRANCH  14  15
ATOM     15  C   UNL     1      40.197  58.150   4.598  1.00  0.00    -0.000 C 
BRANCH  15  16
ATOM     16  C   UNL     1      38.952  57.741   5.399  1.00  0.00    -0.000 C 
BRANCH  16  17
ATOM     17  C   UNL     1      38.394  58.893   6.250  1.00  0.00    -0.003 C 
ATOM     18  C   UNL     1      37.945  58.438   7.638  1.00  0.00     0.004 C 
ENDBRANCH  16  17
ENDBRANCH  15  16
ENDBRANCH  14  15
ENDBRANCH  13  14
ENDBRANCH  12  13
ENDBRANCH  11  12
ENDBRANCH   1  11
TORSDOF 14
ENDMDL
MODEL 8
REMARK VINA RESULT:    -4.476      4.385      6.463
REMARK INTER + INTRA:         -10.015
REMARK INTER:                  -7.771
REMARK INTRA:                  -2.244
REMARK UNBOUND:                -1.875
REMARK SMILES CCCCCCCCCCCCCCCC(=O)[O-]
REMARK SMILES IDX 9 1 10 2 11 3 12 4 13 5 14 6 15 7 16 8 17 9 18 10 8 11 7 12
REMARK SMILES IDX 6 13 5 14 4 15 3 16 2 17 1 18
REMARK H PARENT
REMARK Flexibility Score: inf
ROOT
ATOM      1  C   UNL     1      42.067  60.503   6.265  1.00  0.00     0.000 C 
ENDROOT
BRANCH   1   2
ATOM      2  C   UNL     1      42.024  60.483   7.797  1.00  0.00     0.000 C 
BRANCH   2   3
ATOM      3  C   UNL     1      40.604  60.193   8.304  1.00  0.00     0.000 C 
BRANCH   3   4
ATOM      4  C   UNL     1      39.529  60.595   7.279  1.00  0.00     0.000 C 
BRANCH   4   5
ATOM      5  C   UNL     1      38.663  59.403   6.817  1.00  0.00     0.000 C 
BRANCH   5   6
ATOM      6  C   UNL     1      39.266  58.027   7.155  1.00  0.00     0.006 C 
BRANCH   6   7
ATOM      7  C   UNL     1      40.052  57.388   5.994  1.00  0.00     0.053 C 
BRANCH   7   8
ATOM      8  C   UNL     1      41.275  56.652   6.454  1.00  0.00     0.041 C 
ATOM      9  O   UNL     1      41.755  56.867   7.599  1.00  0.00    -0.550 OA
ATOM     10  O   UNL     1      41.921  55.772   5.596  1.00  0.00    -0.550 OA
ENDBRANCH   7   8
ENDBRANCH   6   7
ENDBRANCH   5   6
ENDBRANCH   4   5
ENDBRANCH   3   4
ENDBRANCH   2   3
ENDBRANCH   1   2
BRANCH   1  11
ATOM     11  C   UNL     1      43.349  61.175   5.759  1.00  0.00     0.000 C 
BRANCH  11  12
ATOM     12  C   UNL     1      43.027  62.469   4.996  1.00  0.00    -0.000 C 
BRANCH  12  13
ATOM     13  C   UNL     1      41.516  62.704   4.820  1.00  0.00    -0.000 C 
BRANCH  13  14
ATOM     14  C   UNL     1      40.972  63.975   5.497  1.00  0.00    -0.000 C 
BRANCH  14  15
ATOM     15  C   UNL     1      42.027  64.704   6.342  1.00  0.00    -0.000 C 
BRANCH  15  16
ATOM     16  C   UNL     1      41.480  65.035   7.739  1.00  0.00    -0.000 C 
BRANCH  16  17
ATOM     17  C   UNL     1      41.032  63.781   8.508  1.00  0.00    -0.003 C 
ATOM     18  C   UNL     1      39.560  63.833   8.916  1.00  0.00     0.004 C 
ENDBRANCH  16  17
ENDBRANCH  15  16
ENDBRANCH  14  15
ENDBRANCH  13  14
ENDBRANCH  12  13
ENDBRANCH  11  12
ENDBRANCH   1  11
TORSDOF 14
ENDMDL
MODEL 9
REMARK VINA RESULT:    -4.465      1.980      4.282
REMARK INTER + INTRA:          -9.995
REMARK INTER:                  -7.829
REMARK INTRA:                  -2.166
REMARK UNBOUND:                -1.875
REMARK SMILES CCCCCCCCCCCCCCCC(=O)[O-]
REMARK SMILES IDX 9 1 10 2 11 3 12 4 13 5 14 6 15 7 16 8 17 9 18 10 8 11 7 12
REMARK SMILES IDX 6 13 5 14 4 15 3 16 2 17 1 18
REMARK H PARENT
REMARK Flexibility Score: inf
ROOT
ATOM      1  C   UNL     1      39.476  59.575   4.400  1.00  0.00     0.000 C 
ENDROOT
BRANCH   1   2
ATOM      2  C   UNL     1      40.701  60.342   4.913  1.00  0.00     0.000 C 
BRANCH   2   3
ATOM      3  C   UNL     1      40.280  61.507   5.820  1.00  0.00     0.000 C 
BRANCH   3   4
ATOM      4  C   UNL     1      41.412  61.945   6.764  1.00  0.00     0.000 C 
BRANCH   4   5
ATOM      5  C   UNL     1      40.920  62.241   8.198  1.00  0.00     0.000 C 
BRANCH   5   6
ATOM      6  C   UNL     1      40.780  63.742   8.509  1.00  0.00     0.006 C 
BRANCH   6   7
ATOM      7  C   UNL     1      39.334  64.267   8.419  1.00  0.00     0.053 C 
BRANCH   7   8
ATOM      8  C   UNL     1      39.077  65.056   7.170  1.00  0.00     0.041 C 
ATOM      9  O   UNL     1      39.969  65.156   6.285  1.00  0.00    -0.550 OA
ATOM     10  O   UNL     1      37.874  65.731   7.008  1.00  0.00    -0.550 OA
ENDBRANCH   7   8
ENDBRANCH   6   7
ENDBRANCH   5   6
ENDBRANCH   4   5
ENDBRANCH   3   4
ENDBRANCH   2   3
ENDBRANCH   1   2
BRANCH   1  11
ATOM     11  C   UNL     1      39.395  58.181   5.034  1.00  0.00     0.000 C 
BRANCH  11  12
ATOM     12  C   UNL     1      38.216  58.091   6.015  1.00  0.00    -0.000 C 
BRANCH  12  13
ATOM     13  C   UNL     1      38.523  58.725   7.385  1.00  0.00    -0.000 C 
BRANCH  13  14
ATOM     14  C   UNL     1      39.535  57.951   8.248  1.00  0.00    -0.000 C 
BRANCH  14  15
ATOM     15  C   UNL     1      40.861  58.703   8.440  1.00  0.00    -0.000 C 
BRANCH  15  16
ATOM     16  C   UNL     1      41.994  58.027   7.652  1.00  0.00    -0.000 C 
BRANCH  16  17
ATOM     17  C   UNL     1      41.795  56.509   7.517  1.00  0.00    -0.003 C 
ATOM     18  C   UNL     1      42.244  55.973   6.159  1.00  0.00     0.004 C 
ENDBRANCH  16  17
ENDBRANCH  15  16
ENDBRANCH  14  15
ENDBRANCH  13  14
ENDBRANCH  12  13
ENDBRANCH  11  12
ENDBRANCH   1  11
TORSDOF 14
ENDMDL
