MODEL 1
REMARK VINA RESULT:    -5.963      0.000      0.000
REMARK INTER + INTRA:          -6.137
REMARK INTER:                  -6.137
REMARK INTRA:                   0.000
REMARK UNBOUND:                 0.000
REMARK SMILES Oc1ccc2[nH]ccc2c1
REMARK SMILES IDX 3 1 4 2 5 3 9 4 8 5 7 6 6 7 10 8 2 9 1 11
REMARK H PARENT 6 10 1 12
REMARK Flexibility Score: inf
ROOT
ATOM      1  C   UNL     1      12.745  14.711  26.589  1.00  0.00     0.048 A 
ATOM      2  C   UNL     1      14.145  14.693  26.442  1.00  0.00     0.030 A 
ATOM      3  C   UNL     1      14.697  13.737  25.591  1.00  0.00     0.046 A 
ATOM      4  C   UNL     1      13.917  12.839  24.914  1.00  0.00     0.003 A 
ATOM      5  C   UNL     1      14.757  12.042  24.169  1.00  0.00     0.028 A 
ATOM      6  C   UNL     1      16.039  12.511  24.440  1.00  0.00     0.083 A 
ATOM      7  N   UNL     1      15.997  13.547  25.310  1.00  0.00    -0.361 N 
ATOM      8  C   UNL     1      12.529  12.830  25.036  1.00  0.00     0.056 A 
ATOM      9  C   UNL     1      11.937  13.784  25.890  1.00  0.00     0.116 A 
ATOM     10  H   UNL     1      16.811  14.085  25.684  1.00  0.00     0.166 HD
ENDROOT
BRANCH   9  11
ATOM     11  O   UNL     1      10.554  13.824  26.053  1.00  0.00    -0.508 OA
ATOM     12  H   UNL     1      10.123  13.651  26.953  1.00  0.00     0.293 HD
ENDBRANCH   9  11
TORSDOF 1
ENDMDL
MODEL 2
REMARK VINA RESULT:    -5.821     11.354     12.255
REMARK INTER + INTRA:          -5.992
REMARK INTER:                  -5.992
REMARK INTRA:                   0.000
REMARK UNBOUND:                 0.000
REMARK SMILES Oc1ccc2[nH]ccc2c1
REMARK SMILES IDX 3 1 4 2 5 3 9 4 8 5 7 6 6 7 10 8 2 9 1 11
REMARK H PARENT 6 10 1 12
REMARK Flexibility Score: inf
ROOT
ATOM      1  C   UNL     1      11.719  11.454  15.883  1.00  0.00     0.048 A 
ATOM      2  C   UNL     1      11.080  12.477  15.158  1.00  0.00     0.030 A 
ATOM      3  C   UNL     1      10.968  12.325  13.777  1.00  0.00     0.046 A 
ATOM      4  C   UNL     1      11.460  11.222  13.133  1.00  0.00     0.003 A 
ATOM      5  C   UNL     1      11.193  11.375  11.790  1.00  0.00     0.028 A 
ATOM      6  C   UNL     1      10.535  12.597  11.688  1.00  0.00     0.083 A 
ATOM      7  N   UNL     1      10.401  13.173  12.904  1.00  0.00    -0.361 N 
ATOM      8  C   UNL     1      12.098  10.190  13.820  1.00  0.00     0.056 A 
ATOM      9  C   UNL     1      12.228  10.313  15.219  1.00  0.00     0.116 A 
ATOM     10  H   UNL     1       9.948  14.090  13.117  1.00  0.00     0.166 HD
ENDROOT
BRANCH   9  11
ATOM     11  O   UNL     1      12.856   9.314  15.960  1.00  0.00    -0.508 OA
ATOM     12  H   UNL     1      13.397   9.533  16.788  1.00  0.00     0.293 HD
ENDBRANCH   9  11
TORSDOF 1
ENDMDL
MODEL 3
REMARK VINA RESULT:    -5.804      2.766      4.346
REMARK INTER + INTRA:          -5.974
REMARK INTER:                  -5.974
REMARK INTRA:                   0.000
REMARK UNBOUND:                 0.000
REMARK SMILES Oc1ccc2[nH]ccc2c1
REMARK SMILES IDX 3 1 4 2 5 3 9 4 8 5 7 6 6 7 10 8 2 9 1 11
REMARK H PARENT 6 10 1 12
REMARK Flexibility Score: inf
ROOT
ATOM      1  C   UNL     1      13.163  12.703  25.425  1.00  0.00     0.048 A 
ATOM      2  C   UNL     1      12.233  12.716  24.369  1.00  0.00     0.030 A 
ATOM      3  C   UNL     1      11.076  13.476  24.530  1.00  0.00     0.046 A 
ATOM      4  C   UNL     1      10.837  14.190  25.673  1.00  0.00     0.003 A 
ATOM      5  C   UNL     1       9.624  14.823  25.518  1.00  0.00     0.028 A 
ATOM      6  C   UNL     1       9.177  14.449  24.254  1.00  0.00     0.083 A 
ATOM      7  N   UNL     1      10.068  13.626  23.655  1.00  0.00    -0.361 N 
ATOM      8  C   UNL     1      11.736  14.199  26.738  1.00  0.00     0.056 A 
ATOM      9  C   UNL     1      12.918  13.440  26.608  1.00  0.00     0.116 A 
ATOM     10  H   UNL     1       9.985  13.196  22.706  1.00  0.00     0.166 HD
ENDROOT
BRANCH   9  11
ATOM     11  O   UNL     1      13.855  13.410  27.638  1.00  0.00    -0.508 OA
ATOM     12  H   UNL     1      13.603  13.111  28.572  1.00  0.00     0.293 HD
ENDBRANCH   9  11
TORSDOF 1
ENDMDL
MODEL 4
REMARK VINA RESULT:    -5.641      2.196      3.437
REMARK INTER + INTRA:          -5.806
REMARK INTER:                  -5.806
REMARK INTRA:                   0.000
REMARK UNBOUND:                 0.000
REMARK SMILES Oc1ccc2[nH]ccc2c1
REMARK SMILES IDX 3 1 4 2 5 3 9 4 8 5 7 6 6 7 10 8 2 9 1 11
REMARK H PARENT 6 10 1 12
REMARK Flexibility Score: inf
ROOT
ATOM      1  C   UNL     1      15.849  13.099  24.204  1.00  0.00     0.048 A 
ATOM      2  C   UNL     1      15.729  14.071  25.216  1.00  0.00     0.030 A 
ATOM      3  C   UNL     1      14.535  14.119  25.933  1.00  0.00     0.046 A 
ATOM      4  C   UNL     1      13.504  13.258  25.674  1.00  0.00     0.003 A 
ATOM      5  C   UNL     1      12.482  13.564  26.544  1.00  0.00     0.028 A 
ATOM      6  C   UNL     1      12.960  14.625  27.307  1.00  0.00     0.083 A 
ATOM      7  N   UNL     1      14.214  14.960  26.930  1.00  0.00    -0.361 N 
ATOM      8  C   UNL     1      13.589  12.284  24.680  1.00  0.00     0.056 A 
ATOM      9  C   UNL     1      14.784  12.207  23.935  1.00  0.00     0.116 A 
ATOM     10  H   UNL     1      14.809  15.719  27.333  1.00  0.00     0.166 HD
ENDROOT
BRANCH   9  11
ATOM     11  O   UNL     1      14.928  11.255  22.928  1.00  0.00    -0.508 OA
ATOM     12  H   UNL     1      14.141  10.959  22.365  1.00  0.00     0.293 HD
ENDBRANCH   9  11
TORSDOF 1
ENDMDL
MODEL 5
REMARK VINA RESULT:    -5.609     12.246     13.106
REMARK INTER + INTRA:          -5.773
REMARK INTER:                  -5.773
REMARK INTRA:                   0.000
REMARK UNBOUND:                 0.000
REMARK SMILES Oc1ccc2[nH]ccc2c1
REMARK SMILES IDX 3 1 4 2 5 3 9 4 8 5 7 6 6 7 10 8 2 9 1 11
REMARK H PARENT 6 10 1 12
REMARK Flexibility Score: inf
ROOT
ATOM      1  C   UNL     1      11.360  10.653  14.264  1.00  0.00     0.048 A 
ATOM      2  C   UNL     1      11.442  12.013  14.617  1.00  0.00     0.030 A 
ATOM      3  C   UNL     1      11.140  12.958  13.638  1.00  0.00     0.046 A 
ATOM      4  C   UNL     1      10.776  12.592  12.371  1.00  0.00     0.003 A 
ATOM      5  C   UNL     1      10.549  13.746  11.656  1.00  0.00     0.028 A 
ATOM      6  C   UNL     1      10.795  14.783  12.552  1.00  0.00     0.083 A 
ATOM      7  N   UNL     1      11.155  14.296  13.762  1.00  0.00    -0.361 N 
ATOM      8  C   UNL     1      10.685  11.254  11.988  1.00  0.00     0.056 A 
ATOM      9  C   UNL     1      10.983  10.271  12.955  1.00  0.00     0.116 A 
ATOM     10  H   UNL     1      11.396  14.850  14.614  1.00  0.00     0.166 HD
ENDROOT
BRANCH   9  11
ATOM     11  O   UNL     1      10.910   8.918  12.631  1.00  0.00    -0.508 OA
ATOM     12  H   UNL     1      10.998   8.200  13.340  1.00  0.00     0.293 HD
ENDBRANCH   9  11
TORSDOF 1
ENDMDL
MODEL 6
REMARK VINA RESULT:    -5.505      2.626      4.081
REMARK INTER + INTRA:          -5.666
REMARK INTER:                  -5.666
REMARK INTRA:                   0.000
REMARK UNBOUND:                 0.000
REMARK SMILES Oc1ccc2[nH]ccc2c1
REMARK SMILES IDX 3 1 4 2 5 3 9 4 8 5 7 6 6 7 10 8 2 9 1 11
REMARK H PARENT 6 10 1 12
REMARK Flexibility Score: inf
ROOT
ATOM      1  C   UNL     1      15.374  12.285  24.191  1.00  0.00     0.048 A 
ATOM      2  C   UNL     1      14.002  12.019  24.359  1.00  0.00     0.030 A 
ATOM      3  C   UNL     1      13.261  12.895  25.149  1.00  0.00     0.046 A 
ATOM      4  C   UNL     1      13.834  13.984  25.749  1.00  0.00     0.003 A 
ATOM      5  C   UNL     1      12.845  14.637  26.450  1.00  0.00     0.028 A 
ATOM      6  C   UNL     1      11.691  13.890  26.232  1.00  0.00     0.083 A 
ATOM      7  N   UNL     1      11.951  12.827  25.437  1.00  0.00    -0.361 N 
ATOM      8  C   UNL     1      15.189  14.277  25.603  1.00  0.00     0.056 A 
ATOM      9  C   UNL     1      15.969  13.409  24.810  1.00  0.00     0.116 A 
ATOM     10  H   UNL     1      11.269  12.103  25.116  1.00  0.00     0.166 HD
ENDROOT
BRANCH   9  11
ATOM     11  O   UNL     1      17.329  13.651  24.628  1.00  0.00    -0.508 OA
ATOM     12  H   UNL     1      17.661  14.519  24.226  1.00  0.00     0.293 HD
ENDBRANCH   9  11
TORSDOF 1
ENDMDL
MODEL 7
REMARK VINA RESULT:    -5.494     11.718     12.681
REMARK INTER + INTRA:          -5.655
REMARK INTER:                  -5.655
REMARK INTRA:                   0.000
REMARK UNBOUND:                 0.000
REMARK SMILES Oc1ccc2[nH]ccc2c1
REMARK SMILES IDX 3 1 4 2 5 3 9 4 8 5 7 6 6 7 10 8 2 9 1 11
REMARK H PARENT 6 10 1 12
REMARK Flexibility Score: inf
ROOT
ATOM      1  C   UNL     1      10.091  11.341  11.934  1.00  0.00     0.048 A 
ATOM      2  C   UNL     1      10.733  10.135  12.272  1.00  0.00     0.030 A 
ATOM      3  C   UNL     1      11.515  10.115  13.426  1.00  0.00     0.046 A 
ATOM      4  C   UNL     1      11.664  11.224  14.213  1.00  0.00     0.003 A 
ATOM      5  C   UNL     1      12.488  10.878  15.262  1.00  0.00     0.028 A 
ATOM      6  C   UNL     1      12.805   9.540  15.048  1.00  0.00     0.083 A 
ATOM      7  N   UNL     1      12.208   9.079  13.926  1.00  0.00    -0.361 N 
ATOM      8  C   UNL     1      11.042  12.434  13.908  1.00  0.00     0.056 A 
ATOM      9  C   UNL     1      10.243  12.489  12.747  1.00  0.00     0.116 A 
ATOM     10  H   UNL     1      12.276   8.113  13.531  1.00  0.00     0.166 HD
ENDROOT
BRANCH   9  11
ATOM     11  O   UNL     1       9.597  13.670  12.390  1.00  0.00    -0.508 OA
ATOM     12  H   UNL     1      10.042  14.355  11.792  1.00  0.00     0.293 HD
ENDBRANCH   9  11
TORSDOF 1
ENDMDL
MODEL 8
REMARK VINA RESULT:    -5.350     11.903     12.867
REMARK INTER + INTRA:          -5.507
REMARK INTER:                  -5.507
REMARK INTRA:                   0.000
REMARK UNBOUND:                 0.000
REMARK SMILES Oc1ccc2[nH]ccc2c1
REMARK SMILES IDX 3 1 4 2 5 3 9 4 8 5 7 6 6 7 10 8 2 9 1 11
REMARK H PARENT 6 10 1 12
REMARK Flexibility Score: inf
ROOT
ATOM      1  C   UNL     1      11.862  10.147  14.524  1.00  0.00     0.048 A 
ATOM      2  C   UNL     1      11.757  10.035  13.125  1.00  0.00     0.030 A 
ATOM      3  C   UNL     1      11.298  11.144  12.416  1.00  0.00     0.046 A 
ATOM      4  C   UNL     1      10.957  12.310  13.046  1.00  0.00     0.003 A 
ATOM      5  C   UNL     1      10.548  13.198  12.076  1.00  0.00     0.028 A 
ATOM      6  C   UNL     1      10.666  12.504  10.875  1.00  0.00     0.083 A 
ATOM      7  N   UNL     1      11.125  11.250  11.088  1.00  0.00    -0.361 N 
ATOM      8  C   UNL     1      11.049  12.455  14.429  1.00  0.00     0.056 A 
ATOM      9  C   UNL     1      11.509  11.352  15.177  1.00  0.00     0.116 A 
ATOM     10  H   UNL     1      11.305  10.517  10.366  1.00  0.00     0.166 HD
ENDROOT
BRANCH   9  11
ATOM     11  O   UNL     1      11.623  11.437  16.563  1.00  0.00    -0.508 OA
ATOM     12  H   UNL     1      11.020  12.044  17.106  1.00  0.00     0.293 HD
ENDBRANCH   9  11
TORSDOF 1
ENDMDL
MODEL 9
REMARK VINA RESULT:    -5.233     11.733     12.599
REMARK INTER + INTRA:          -5.386
REMARK INTER:                  -5.386
REMARK INTRA:                   0.000
REMARK UNBOUND:                 0.000
REMARK SMILES Oc1ccc2[nH]ccc2c1
REMARK SMILES IDX 3 1 4 2 5 3 9 4 8 5 7 6 6 7 10 8 2 9 1 11
REMARK H PARENT 6 10 1 12
REMARK Flexibility Score: inf
ROOT
ATOM      1  C   UNL     1      10.342  12.611  12.810  1.00  0.00     0.048 A 
ATOM      2  C   UNL     1      11.141  12.616  13.968  1.00  0.00     0.030 A 
ATOM      3  C   UNL     1      11.812  11.440  14.301  1.00  0.00     0.046 A 
ATOM      4  C   UNL     1      11.705  10.310  13.536  1.00  0.00     0.003 A 
ATOM      5  C   UNL     1      12.479   9.337  14.128  1.00  0.00     0.028 A 
ATOM      6  C   UNL     1      13.029   9.944  15.253  1.00  0.00     0.083 A 
ATOM      7  N   UNL     1      12.618  11.229  15.354  1.00  0.00    -0.361 N 
ATOM      8  C   UNL     1      10.923  10.271  12.383  1.00  0.00     0.056 A 
ATOM      9  C   UNL     1      10.231  11.444  12.017  1.00  0.00     0.116 A 
ATOM     10  H   UNL     1      12.877  11.914  16.100  1.00  0.00     0.166 HD
ENDROOT
BRANCH   9  11
ATOM     11  O   UNL     1       9.433  11.467  10.875  1.00  0.00    -0.508 OA
ATOM     12  H   UNL     1       9.593  10.825  10.108  1.00  0.00     0.293 HD
ENDBRANCH   9  11
TORSDOF 1
ENDMDL
