MODEL 1
REMARK VINA RESULT:    -4.057      0.000      0.000
REMARK INTER + INTRA:          -5.213
REMARK INTER:                  -5.006
REMARK INTRA:                  -0.207
REMARK UNBOUND:                -0.207
REMARK SMILES CCCCCC(=O)[O-]
REMARK SMILES IDX 4 1 5 2 6 3 7 4 8 5 3 6 2 7 1 8
REMARK H PARENT
REMARK Flexibility Score: inf
ROOT
ATOM      1  C   UNL     1      14.707  -0.006  26.281  1.00  0.00     0.006 C 
ENDROOT
BRANCH   1   2
ATOM      2  C   UNL     1      13.344  -0.688  26.080  1.00  0.00     0.053 C 
BRANCH   2   3
ATOM      3  C   UNL     1      12.277   0.291  25.697  1.00  0.00     0.041 C 
ATOM      4  O   UNL     1      12.513   1.183  24.840  1.00  0.00    -0.550 OA
ATOM      5  O   UNL     1      11.033   0.239  26.311  1.00  0.00    -0.550 OA
ENDBRANCH   2   3
ENDBRANCH   1   2
BRANCH   1   6
ATOM      6  C   UNL     1      14.805   0.847  27.560  1.00  0.00     0.000 C 
BRANCH   6   7
ATOM      7  C   UNL     1      14.537   0.038  28.836  1.00  0.00    -0.003 C 
ATOM      8  C   UNL     1      13.416   0.666  29.659  1.00  0.00     0.004 C 
ENDBRANCH   6   7
ENDBRANCH   1   6
TORSDOF 4
ENDMDL
MODEL 2
REMARK VINA RESULT:    -4.023      2.696      3.803
REMARK INTER + INTRA:          -5.171
REMARK INTER:                  -4.941
REMARK INTRA:                  -0.230
REMARK UNBOUND:                -0.207
REMARK SMILES CCCCCC(=O)[O-]
REMARK SMILES IDX 4 1 5 2 6 3 7 4 8 5 3 6 2 7 1 8
REMARK H PARENT
REMARK Flexibility Score: inf
ROOT
ATOM      1  C   UNL     1      13.305  -0.159  26.726  1.00  0.00     0.006 C 
ENDROOT
BRANCH   1   2
ATOM      2  C   UNL     1      14.245   0.717  27.570  1.00  0.00     0.053 C 
BRANCH   2   3
ATOM      3  C   UNL     1      14.113   0.432  29.035  1.00  0.00     0.041 C 
ATOM      4  O   UNL     1      13.246   1.033  29.722  1.00  0.00    -0.550 OA
ATOM      5  O   UNL     1      14.971  -0.472  29.648  1.00  0.00    -0.550 OA
ENDBRANCH   2   3
ENDBRANCH   1   2
BRANCH   1   6
ATOM      6  C   UNL     1      13.923  -1.492  26.267  1.00  0.00     0.000 C 
BRANCH   6   7
ATOM      7  C   UNL     1      15.454  -1.434  26.166  1.00  0.00    -0.003 C 
ATOM      8  C   UNL     1      16.102  -2.523  27.017  1.00  0.00     0.004 C 
ENDBRANCH   6   7
ENDBRANCH   1   6
TORSDOF 4
ENDMDL
MODEL 3
REMARK VINA RESULT:    -4.017      2.364      3.711
REMARK INTER + INTRA:          -5.163
REMARK INTER:                  -4.926
REMARK INTRA:                  -0.237
REMARK UNBOUND:                -0.207
REMARK SMILES CCCCCC(=O)[O-]
REMARK SMILES IDX 4 1 5 2 6 3 7 4 8 5 3 6 2 7 1 8
REMARK H PARENT
REMARK Flexibility Score: inf
ROOT
ATOM      1  C   UNL     1      14.869   0.144  26.497  1.00  0.00     0.006 C 
ENDROOT
BRANCH   1   2
ATOM      2  C   UNL     1      14.725   1.062  27.722  1.00  0.00     0.053 C 
BRANCH   2   3
ATOM      3  C   UNL     1      14.308   0.305  28.945  1.00  0.00     0.041 C 
ATOM      4  O   UNL     1      13.302   0.674  29.606  1.00  0.00    -0.550 OA
ATOM      5  O   UNL     1      15.049  -0.789  29.373  1.00  0.00    -0.550 OA
ENDBRANCH   2   3
ENDBRANCH   1   2
BRANCH   1   6
ATOM      6  C   UNL     1      13.579  -0.603  26.111  1.00  0.00     0.000 C 
BRANCH   6   7
ATOM      7  C   UNL     1      12.521   0.320  25.490  1.00  0.00    -0.003 C 
ATOM      8  C   UNL     1      11.209   0.250  26.266  1.00  0.00     0.004 C 
ENDBRANCH   6   7
ENDBRANCH   1   6
TORSDOF 4
ENDMDL
MODEL 4
REMARK VINA RESULT:    -4.016      2.900      3.101
REMARK INTER + INTRA:          -5.163
REMARK INTER:                  -4.928
REMARK INTRA:                  -0.234
REMARK UNBOUND:                -0.207
REMARK SMILES CCCCCC(=O)[O-]
REMARK SMILES IDX 4 1 5 2 6 3 7 4 8 5 3 6 2 7 1 8
REMARK H PARENT
REMARK Flexibility Score: inf
ROOT
ATOM      1  C   UNL     1      14.804   0.426  26.375  1.00  0.00     0.006 C 
ENDROOT
BRANCH   1   2
ATOM      2  C   UNL     1      14.304  -1.028  26.376  1.00  0.00     0.053 C 
BRANCH   2   3
ATOM      3  C   UNL     1      15.343  -1.979  26.882  1.00  0.00     0.041 C 
ATOM      4  O   UNL     1      16.217  -2.439  26.100  1.00  0.00    -0.550 OA
ATOM      5  O   UNL     1      15.328  -2.385  28.210  1.00  0.00    -0.550 OA
ENDBRANCH   2   3
ENDBRANCH   1   2
BRANCH   1   6
ATOM      6  C   UNL     1      14.710   1.129  27.742  1.00  0.00     0.000 C 
BRANCH   6   7
ATOM      7  C   UNL     1      13.451   0.734  28.528  1.00  0.00    -0.003 C 
ATOM      8  C   UNL     1      13.809   0.246  29.929  1.00  0.00     0.004 C 
ENDBRANCH   6   7
ENDBRANCH   1   6
TORSDOF 4
ENDMDL
MODEL 5
REMARK VINA RESULT:    -4.010      1.150      2.600
REMARK INTER + INTRA:          -5.155
REMARK INTER:                  -4.931
REMARK INTRA:                  -0.224
REMARK UNBOUND:                -0.207
REMARK SMILES CCCCCC(=O)[O-]
REMARK SMILES IDX 4 1 5 2 6 3 7 4 8 5 3 6 2 7 1 8
REMARK H PARENT
REMARK Flexibility Score: inf
ROOT
ATOM      1  C   UNL     1      13.688   0.400  27.645  1.00  0.00     0.006 C 
ENDROOT
BRANCH   1   2
ATOM      2  C   UNL     1      13.068  -0.450  26.525  1.00  0.00     0.053 C 
BRANCH   2   3
ATOM      3  C   UNL     1      11.954   0.267  25.827  1.00  0.00     0.041 C 
ATOM      4  O   UNL     1      10.787   0.240  26.300  1.00  0.00    -0.550 OA
ATOM      5  O   UNL     1      12.197   0.938  24.635  1.00  0.00    -0.550 OA
ENDBRANCH   2   3
ENDBRANCH   1   2
BRANCH   1   6
ATOM      6  C   UNL     1      14.769   1.388  27.166  1.00  0.00     0.000 C 
BRANCH   6   7
ATOM      7  C   UNL     1      15.560   0.864  25.960  1.00  0.00    -0.003 C 
ATOM      8  C   UNL     1      15.544   1.871  24.813  1.00  0.00     0.004 C 
ENDBRANCH   6   7
ENDBRANCH   1   6
TORSDOF 4
ENDMDL
MODEL 6
REMARK VINA RESULT:    -4.006      2.104      3.121
REMARK INTER + INTRA:          -5.149
REMARK INTER:                  -4.940
REMARK INTRA:                  -0.209
REMARK UNBOUND:                -0.207
REMARK SMILES CCCCCC(=O)[O-]
REMARK SMILES IDX 4 1 5 2 6 3 7 4 8 5 3 6 2 7 1 8
REMARK H PARENT
REMARK Flexibility Score: inf
ROOT
ATOM      1  C   UNL     1      14.873  -0.628  26.285  1.00  0.00     0.006 C 
ENDROOT
BRANCH   1   2
ATOM      2  C   UNL     1      15.057   0.868  26.586  1.00  0.00     0.053 C 
BRANCH   2   3
ATOM      3  C   UNL     1      15.118   1.689  25.335  1.00  0.00     0.041 C 
ATOM      4  O   UNL     1      16.226   1.923  24.784  1.00  0.00    -0.550 OA
ATOM      5  O   UNL     1      13.956   2.225  24.797  1.00  0.00    -0.550 OA
ENDBRANCH   2   3
ENDBRANCH   1   2
BRANCH   1   6
ATOM      6  C   UNL     1      13.403  -1.084  26.218  1.00  0.00     0.000 C 
BRANCH   6   7
ATOM      7  C   UNL     1      12.455  -0.148  26.981  1.00  0.00    -0.003 C 
ATOM      8  C   UNL     1      11.319   0.333  26.082  1.00  0.00     0.004 C 
ENDBRANCH   6   7
ENDBRANCH   1   6
TORSDOF 4
ENDMDL
MODEL 7
REMARK VINA RESULT:    -3.996      2.578      3.165
REMARK INTER + INTRA:          -5.138
REMARK INTER:                  -4.948
REMARK INTRA:                  -0.190
REMARK UNBOUND:                -0.207
REMARK SMILES CCCCCC(=O)[O-]
REMARK SMILES IDX 4 1 5 2 6 3 7 4 8 5 3 6 2 7 1 8
REMARK H PARENT
REMARK Flexibility Score: inf
ROOT
ATOM      1  C   UNL     1      12.972  -0.191  26.505  1.00  0.00     0.006 C 
ENDROOT
BRANCH   1   2
ATOM      2  C   UNL     1      13.227   0.922  25.476  1.00  0.00     0.053 C 
BRANCH   2   3
ATOM      3  C   UNL     1      14.599   1.507  25.609  1.00  0.00     0.041 C 
ATOM      4  O   UNL     1      15.295   1.732  24.584  1.00  0.00    -0.550 OA
ATOM      5  O   UNL     1      15.123   1.772  26.868  1.00  0.00    -0.550 OA
ENDBRANCH   2   3
ENDBRANCH   1   2
BRANCH   1   6
ATOM      6  C   UNL     1      13.742  -1.496  26.230  1.00  0.00     0.000 C 
BRANCH   6   7
ATOM      7  C   UNL     1      14.865  -1.749  27.245  1.00  0.00    -0.003 C 
ATOM      8  C   UNL     1      16.133  -2.237  26.550  1.00  0.00     0.004 C 
ENDBRANCH   6   7
ENDBRANCH   1   6
TORSDOF 4
ENDMDL
MODEL 8
REMARK VINA RESULT:    -3.995      2.996      3.904
REMARK INTER + INTRA:          -5.136
REMARK INTER:                  -4.975
REMARK INTRA:                  -0.161
REMARK UNBOUND:                -0.207
REMARK SMILES CCCCCC(=O)[O-]
REMARK SMILES IDX 4 1 5 2 6 3 7 4 8 5 3 6 2 7 1 8
REMARK H PARENT
REMARK Flexibility Score: inf
ROOT
ATOM      1  C   UNL     1      13.154  -0.184  26.566  1.00  0.00     0.006 C 
ENDROOT
BRANCH   1   2
ATOM      2  C   UNL     1      13.873  -1.514  26.289  1.00  0.00     0.053 C 
BRANCH   2   3
ATOM      3  C   UNL     1      15.064  -1.704  27.177  1.00  0.00     0.041 C 
ATOM      4  O   UNL     1      15.049  -1.271  28.359  1.00  0.00    -0.550 OA
ATOM      5  O   UNL     1      16.204  -2.330  26.688  1.00  0.00    -0.550 OA
ENDBRANCH   2   3
ENDBRANCH   1   2
BRANCH   1   6
ATOM      6  C   UNL     1      13.516   0.948  25.587  1.00  0.00     0.000 C 
BRANCH   6   7
ATOM      7  C   UNL     1      14.766   1.728  26.016  1.00  0.00    -0.003 C 
ATOM      8  C   UNL     1      15.788   1.793  24.884  1.00  0.00     0.004 C 
ENDBRANCH   6   7
ENDBRANCH   1   6
TORSDOF 4
ENDMDL
MODEL 9
REMARK VINA RESULT:    -3.970      2.734      3.789
REMARK INTER + INTRA:          -5.106
REMARK INTER:                  -4.959
REMARK INTRA:                  -0.147
REMARK UNBOUND:                -0.207
REMARK SMILES CCCCCC(=O)[O-]
REMARK SMILES IDX 4 1 5 2 6 3 7 4 8 5 3 6 2 7 1 8
REMARK H PARENT
REMARK Flexibility Score: inf
ROOT
ATOM      1  C   UNL     1      14.049   0.482  27.977  1.00  0.00     0.006 C 
ENDROOT
BRANCH   1   2
ATOM      2  C   UNL     1      14.785  -0.822  28.326  1.00  0.00     0.053 C 
BRANCH   2   3
ATOM      3  C   UNL     1      15.045  -1.661  27.113  1.00  0.00     0.041 C 
ATOM      4  O   UNL     1      14.135  -1.843  26.261  1.00  0.00    -0.550 OA
ATOM      5  O   UNL     1      16.280  -2.270  26.940  1.00  0.00    -0.550 OA
ENDBRANCH   2   3
ENDBRANCH   1   2
BRANCH   1   6
ATOM      6  C   UNL     1      14.901   1.502  27.198  1.00  0.00     0.000 C 
BRANCH   6   7
ATOM      7  C   UNL     1      14.492   1.614  25.723  1.00  0.00    -0.003 C 
ATOM      8  C   UNL     1      15.712   1.819  24.829  1.00  0.00     0.004 C 
ENDBRANCH   6   7
ENDBRANCH   1   6
TORSDOF 4
ENDMDL
