MODEL 1
REMARK VINA RESULT:    -5.324      0.000      0.000
REMARK INTER + INTRA:          -7.658
REMARK INTER:                  -8.125
REMARK INTRA:                   0.467
REMARK UNBOUND:                 0.467
REMARK SMILES CC1=CCC[C@@H](C)C(=O)C[C@@H](C(C)C)C(=O)C1
REMARK SMILES IDX 8 1 9 2 6 3 7 4 5 5 4 6 3 7 2 8 1 9 10 11 11 12 15 13 16 14
REMARK SMILES IDX 17 15 12 17 13 18 14 19
REMARK H PARENT
REMARK Flexibility Score: 70.00
ROOT
ATOM      1  C   UNL     1       4.861  14.325  30.514  1.00  0.00     0.136 C 
ATOM      2  O   UNL     1       5.757  15.101  30.217  1.00  0.00    -0.299 OA
ENDROOT
BRANCH   1   3
ATOM      3  C   UNL     1       4.327  14.309  31.936  1.00  0.00     0.053 C 
ATOM      4  C   UNL     1       5.082  15.326  32.805  1.00  0.00     0.016 C 
BRANCH   3   5
ATOM      5  C   UNL     1       4.420  12.893  32.542  1.00  0.00     0.015 C 
BRANCH   5   6
ATOM      6  C   UNL     1       3.475  11.904  31.829  1.00  0.00     0.028 C 
BRANCH   6   7
ATOM      7  C   UNL     1       2.018  12.232  32.028  1.00  0.00    -0.028 C 
ATOM      8  C   UNL     1       1.141  12.506  31.033  1.00  0.00    -0.070 CG0
ATOM      9  C   UNL     1      -0.260  12.906  31.423  1.00  0.00     0.039 C 
ATOM     10  G   UNL     1       1.490  12.391  29.555  1.00  0.00     0.000 G0
ENDBRANCH   6   7
ENDBRANCH   5   6
ENDBRANCH   3   5
ENDBRANCH   1   3
BRANCH   1  11
ATOM     11  C   UNL     1       4.265  13.431  29.448  1.00  0.00     0.087 C 
BRANCH  11  12
ATOM     12  C   UNL     1       3.220  14.112  28.516  1.00  0.00     0.066 C 
BRANCH  12  13
ATOM     13  C   UNL     1       1.797  13.699  28.879  1.00  0.00     0.140 C 
ATOM     14  O   UNL     1       0.871  14.430  28.554  1.00  0.00    -0.299 OA
BRANCH  13  15
ATOM     15  C   UNL     1       1.492  12.381  29.562  1.00  0.00     0.106 CG0
ATOM     16  G   UNL     1       1.151  12.519  31.039  1.00  0.00     0.000 G0
ENDBRANCH  13  15
ENDBRANCH  12  13
BRANCH  12  17
ATOM     17  C   UNL     1       3.501  13.984  26.982  1.00  0.00    -0.006 C 
ATOM     18  C   UNL     1       4.885  14.560  26.629  1.00  0.00     0.008 C 
ATOM     19  C   UNL     1       3.436  12.526  26.492  1.00  0.00     0.008 C 
ENDBRANCH  12  17
ENDBRANCH  11  12
ENDBRANCH   1  11
TORSDOF 1
ENDMDL
MODEL 2
REMARK VINA RESULT:    -5.074      1.730      4.750
REMARK INTER + INTRA:          -7.275
REMARK INTER:                  -7.475
REMARK INTRA:                   0.199
REMARK UNBOUND:                 0.467
REMARK SMILES CC1=CCC[C@@H](C)C(=O)C[C@@H](C(C)C)C(=O)C1
REMARK SMILES IDX 8 1 9 2 6 3 7 4 5 5 4 6 3 7 2 8 1 9 10 11 11 12 15 13 16 14
REMARK SMILES IDX 17 15 12 17 13 18 14 19
REMARK H PARENT
REMARK Flexibility Score: 70.00
ROOT
ATOM      1  C   UNL     1       2.398  12.285  31.713  1.00  0.00     0.136 C 
ATOM      2  O   UNL     1       2.088  11.111  31.570  1.00  0.00    -0.299 OA
ENDROOT
BRANCH   1   3
ATOM      3  C   UNL     1       1.320  13.354  31.649  1.00  0.00     0.053 C 
ATOM      4  C   UNL     1      -0.027  12.789  32.119  1.00  0.00     0.016 C 
BRANCH   3   5
ATOM      5  C   UNL     1       1.206  13.934  30.223  1.00  0.00     0.015 C 
BRANCH   5   6
ATOM      6  C   UNL     1       1.542  12.878  29.149  1.00  0.00     0.028 C 
BRANCH   6   7
ATOM      7  C   UNL     1       2.368  13.430  28.017  1.00  0.00    -0.028 C 
ATOM      8  C   UNL     1       3.712  13.596  28.045  1.00  0.00    -0.070 CG0
ATOM      9  C   UNL     1       4.364  14.252  26.853  1.00  0.00     0.039 C 
ATOM     10  G   UNL     1       4.590  13.120  29.195  1.00  0.00     0.000 G0
ENDBRANCH   6   7
ENDBRANCH   5   6
ENDBRANCH   3   5
ENDBRANCH   1   3
BRANCH   1  11
ATOM     11  C   UNL     1       3.838  12.646  32.001  1.00  0.00     0.087 C 
BRANCH  11  12
ATOM     12  C   UNL     1       4.244  14.105  31.640  1.00  0.00     0.066 C 
BRANCH  12  13
ATOM     13  C   UNL     1       4.852  14.186  30.244  1.00  0.00     0.140 C 
ATOM     14  O   UNL     1       5.618  15.104  29.988  1.00  0.00    -0.299 OA
BRANCH  13  15
ATOM     15  C   UNL     1       4.594  13.125  29.193  1.00  0.00     0.106 CG0
ATOM     16  G   UNL     1       3.716  13.600  28.044  1.00  0.00     0.000 G0
ENDBRANCH  13  15
ENDBRANCH  12  13
BRANCH  12  17
ATOM     17  C   UNL     1       5.114  14.846  32.710  1.00  0.00    -0.006 C 
ATOM     18  C   UNL     1       4.366  16.069  33.272  1.00  0.00     0.008 C 
ATOM     19  C   UNL     1       5.510  13.931  33.882  1.00  0.00     0.008 C 
ENDBRANCH  12  17
ENDBRANCH  11  12
ENDBRANCH   1  11
TORSDOF 1
ENDMDL
MODEL 3
REMARK VINA RESULT:    -4.884      2.119      3.630
REMARK INTER + INTRA:          -6.987
REMARK INTER:                  -7.186
REMARK INTRA:                   0.199
REMARK UNBOUND:                 0.467
REMARK SMILES CC1=CCC[C@@H](C)C(=O)C[C@@H](C(C)C)C(=O)C1
REMARK SMILES IDX 8 1 9 2 6 3 7 4 5 5 4 6 3 7 2 8 1 9 10 11 11 12 15 13 16 14
REMARK SMILES IDX 17 15 12 17 13 18 14 19
REMARK H PARENT
REMARK Flexibility Score: 70.00
ROOT
ATOM      1  C   UNL     1       0.952  13.208  29.616  1.00  0.00     0.136 C 
ATOM      2  O   UNL     1      -0.156  13.251  29.102  1.00  0.00    -0.299 OA
ENDROOT
BRANCH   1   3
ATOM      3  C   UNL     1       1.074  12.931  31.104  1.00  0.00     0.053 C 
ATOM      4  C   UNL     1      -0.315  12.852  31.752  1.00  0.00     0.016 C 
BRANCH   3   5
ATOM      5  C   UNL     1       1.942  14.006  31.793  1.00  0.00     0.015 C 
BRANCH   5   6
ATOM      6  C   UNL     1       3.444  13.664  31.715  1.00  0.00     0.028 C 
BRANCH   6   7
ATOM      7  C   UNL     1       3.764  12.287  32.233  1.00  0.00    -0.028 C 
ATOM      8  C   UNL     1       4.126  11.232  31.463  1.00  0.00    -0.070 CG0
ATOM      9  C   UNL     1       4.318   9.899  32.144  1.00  0.00     0.039 C 
ATOM     10  G   UNL     1       4.384  11.339  29.966  1.00  0.00     0.000 G0
ENDBRANCH   6   7
ENDBRANCH   5   6
ENDBRANCH   3   5
ENDBRANCH   1   3
BRANCH   1  11
ATOM     11  C   UNL     1       2.182  13.379  28.751  1.00  0.00     0.087 C 
BRANCH  11  12
ATOM     12  C   UNL     1       2.694  12.084  28.057  1.00  0.00     0.066 C 
BRANCH  12  13
ATOM     13  C   UNL     1       3.193  11.064  29.075  1.00  0.00     0.140 C 
ATOM     14  O   UNL     1       2.632   9.980  29.146  1.00  0.00    -0.299 OA
BRANCH  13  15
ATOM     15  C   UNL     1       4.405  11.327  29.947  1.00  0.00     0.106 CG0
ATOM     16  G   UNL     1       4.117  11.242  31.439  1.00  0.00     0.000 G0
ENDBRANCH  13  15
ENDBRANCH  12  13
BRANCH  12  17
ATOM     17  C   UNL     1       3.714  12.303  26.889  1.00  0.00    -0.006 C 
ATOM     18  C   UNL     1       3.156  11.750  25.564  1.00  0.00     0.008 C 
ATOM     19  C   UNL     1       4.069  13.788  26.691  1.00  0.00     0.008 C 
ENDBRANCH  12  17
ENDBRANCH  11  12
ENDBRANCH   1  11
TORSDOF 1
ENDMDL
MODEL 4
REMARK VINA RESULT:    -4.540      1.776      2.781
REMARK INTER + INTRA:          -6.461
REMARK INTER:                  -6.887
REMARK INTRA:                   0.426
REMARK UNBOUND:                 0.467
REMARK SMILES CC1=CCC[C@@H](C)C(=O)C[C@@H](C(C)C)C(=O)C1
REMARK SMILES IDX 8 1 9 2 6 3 7 4 5 5 4 6 3 7 2 8 1 9 10 11 11 12 15 13 16 14
REMARK SMILES IDX 17 15 12 17 13 18 14 19
REMARK H PARENT
REMARK Flexibility Score: 70.00
ROOT
ATOM      1  C   UNL     1       3.776  13.177  31.694  1.00  0.00     0.136 C 
ATOM      2  O   UNL     1       3.115  14.157  32.004  1.00  0.00    -0.299 OA
ENDROOT
BRANCH   1   3
ATOM      3  C   UNL     1       3.460  11.833  32.328  1.00  0.00     0.053 C 
ATOM      4  C   UNL     1       4.351  10.735  31.732  1.00  0.00     0.016 C 
BRANCH   3   5
ATOM      5  C   UNL     1       1.966  11.482  32.157  1.00  0.00     0.015 C 
BRANCH   5   6
ATOM      6  C   UNL     1       1.587  11.309  30.673  1.00  0.00     0.028 C 
BRANCH   6   7
ATOM      7  C   UNL     1       0.874  12.507  30.101  1.00  0.00    -0.028 C 
ATOM      8  C   UNL     1       1.200  13.124  28.940  1.00  0.00    -0.070 CG0
ATOM      9  C   UNL     1       0.434  14.369  28.568  1.00  0.00     0.039 C 
ATOM     10  G   UNL     1       2.263  12.600  27.985  1.00  0.00     0.000 G0
ENDBRANCH   6   7
ENDBRANCH   5   6
ENDBRANCH   3   5
ENDBRANCH   1   3
BRANCH   1  11
ATOM     11  C   UNL     1       4.861  13.310  30.648  1.00  0.00     0.087 C 
BRANCH  11  12
ATOM     12  C   UNL     1       4.364  13.651  29.213  1.00  0.00     0.066 C 
BRANCH  12  13
ATOM     13  C   UNL     1       3.647  12.466  28.574  1.00  0.00     0.140 C 
ATOM     14  O   UNL     1       4.182  11.366  28.608  1.00  0.00    -0.299 OA
BRANCH  13  15
ATOM     15  C   UNL     1       2.265  12.597  27.966  1.00  0.00     0.106 CG0
ATOM     16  G   UNL     1       1.217  13.125  28.935  1.00  0.00     0.000 G0
ENDBRANCH  13  15
ENDBRANCH  12  13
BRANCH  12  17
ATOM     17  C   UNL     1       5.436  14.279  28.261  1.00  0.00    -0.006 C 
ATOM     18  C   UNL     1       4.774  14.846  26.990  1.00  0.00     0.008 C 
ATOM     19  C   UNL     1       6.238  15.403  28.940  1.00  0.00     0.008 C 
ENDBRANCH  12  17
ENDBRANCH  11  12
ENDBRANCH   1  11
TORSDOF 1
ENDMDL
MODEL 5
REMARK VINA RESULT:    -4.355      2.060      4.058
REMARK INTER + INTRA:          -6.179
REMARK INTER:                  -6.361
REMARK INTRA:                   0.182
REMARK UNBOUND:                 0.467
REMARK SMILES CC1=CCC[C@@H](C)C(=O)C[C@@H](C(C)C)C(=O)C1
REMARK SMILES IDX 8 1 9 2 6 3 7 4 5 5 4 6 3 7 2 8 1 9 10 11 11 12 15 13 16 14
REMARK SMILES IDX 17 15 12 17 13 18 14 19
REMARK H PARENT
REMARK Flexibility Score: 70.00
ROOT
ATOM      1  C   UNL     1       3.718  12.048  31.949  1.00  0.00     0.136 C 
ATOM      2  O   UNL     1       4.518  12.106  32.871  1.00  0.00    -0.299 OA
ENDROOT
BRANCH   1   3
ATOM      3  C   UNL     1       3.230  10.692  31.468  1.00  0.00     0.053 C 
ATOM      4  C   UNL     1       2.623   9.895  32.632  1.00  0.00     0.016 C 
BRANCH   3   5
ATOM      5  C   UNL     1       4.375   9.902  30.800  1.00  0.00     0.015 C 
BRANCH   5   6
ATOM      6  C   UNL     1       5.028  10.702  29.655  1.00  0.00     0.028 C 
BRANCH   6   7
ATOM      7  C   UNL     1       4.257  10.623  28.363  1.00  0.00    -0.028 C 
ATOM      8  C   UNL     1       3.684  11.677  27.735  1.00  0.00    -0.070 CG0
ATOM      9  C   UNL     1       2.868  11.398  26.497  1.00  0.00     0.039 C 
ATOM     10  G   UNL     1       3.859  13.119  28.192  1.00  0.00     0.000 G0
ENDBRANCH   6   7
ENDBRANCH   5   6
ENDBRANCH   3   5
ENDBRANCH   1   3
BRANCH   1  11
ATOM     11  C   UNL     1       3.190  13.328  31.339  1.00  0.00     0.087 C 
BRANCH  11  12
ATOM     12  C   UNL     1       2.126  13.141  30.217  1.00  0.00     0.066 C 
BRANCH  12  13
ATOM     13  C   UNL     1       2.621  13.689  28.883  1.00  0.00     0.140 C 
ATOM     14  O   UNL     1       2.043  14.649  28.390  1.00  0.00    -0.299 OA
BRANCH  13  15
ATOM     15  C   UNL     1       3.846  13.129  28.189  1.00  0.00     0.106 CG0
ATOM     16  G   UNL     1       3.691  11.681  27.746  1.00  0.00     0.000 G0
ENDBRANCH  13  15
ENDBRANCH  12  13
BRANCH  12  17
ATOM     17  C   UNL     1       0.685  13.642  30.566  1.00  0.00    -0.006 C 
ATOM     18  C   UNL     1      -0.251  13.505  29.350  1.00  0.00     0.008 C 
ATOM     19  C   UNL     1       0.067  12.875  31.750  1.00  0.00     0.008 C 
ENDBRANCH  12  17
ENDBRANCH  11  12
ENDBRANCH   1  11
TORSDOF 1
ENDMDL
MODEL 6
REMARK VINA RESULT:    -4.249      1.895      3.734
REMARK INTER + INTRA:          -6.018
REMARK INTER:                  -6.029
REMARK INTRA:                   0.012
REMARK UNBOUND:                 0.467
REMARK SMILES CC1=CCC[C@@H](C)C(=O)C[C@@H](C(C)C)C(=O)C1
REMARK SMILES IDX 8 1 9 2 6 3 7 4 5 5 4 6 3 7 2 8 1 9 10 11 11 12 15 13 16 14
REMARK SMILES IDX 17 15 12 17 13 18 14 19
REMARK H PARENT
REMARK Flexibility Score: 70.00
ROOT
ATOM      1  C   UNL     1       4.606  13.663  28.820  1.00  0.00     0.136 C 
ATOM      2  O   UNL     1       5.349  14.616  28.635  1.00  0.00    -0.299 OA
ENDROOT
BRANCH   1   3
ATOM      3  C   UNL     1       3.452  13.420  27.863  1.00  0.00     0.053 C 
ATOM      4  C   UNL     1       3.841  13.831  26.436  1.00  0.00     0.016 C 
BRANCH   3   5
ATOM      5  C   UNL     1       2.186  14.174  28.326  1.00  0.00     0.015 C 
BRANCH   5   6
ATOM      6  C   UNL     1       0.997  13.215  28.536  1.00  0.00     0.028 C 
BRANCH   6   7
ATOM      7  C   UNL     1       0.270  13.450  29.834  1.00  0.00    -0.028 C 
ATOM      8  C   UNL     1       0.364  12.660  30.931  1.00  0.00    -0.070 CG0
ATOM      9  C   UNL     1      -0.509  12.996  32.115  1.00  0.00     0.039 C 
ATOM     10  G   UNL     1       1.329  11.487  31.037  1.00  0.00     0.000 G0
ENDBRANCH   6   7
ENDBRANCH   5   6
ENDBRANCH   3   5
ENDBRANCH   1   3
BRANCH   1  11
ATOM     11  C   UNL     1       4.880  12.716  29.967  1.00  0.00     0.087 C 
BRANCH  11  12
ATOM     12  C   UNL     1       3.848  11.563  30.140  1.00  0.00     0.066 C 
BRANCH  12  13
ATOM     13  C   UNL     1       2.801  11.905  31.195  1.00  0.00     0.140 C 
ATOM     14  O   UNL     1       3.134  12.584  32.156  1.00  0.00    -0.299 OA
BRANCH  13  15
ATOM     15  C   UNL     1       1.351  11.491  31.050  1.00  0.00     0.106 CG0
ATOM     16  G   UNL     1       0.388  12.663  30.926  1.00  0.00     0.000 G0
ENDBRANCH  13  15
ENDBRANCH  12  13
BRANCH  12  17
ATOM     17  C   UNL     1       4.460  10.138  30.351  1.00  0.00    -0.006 C 
ATOM     18  C   UNL     1       5.596   9.875  29.345  1.00  0.00     0.008 C 
ATOM     19  C   UNL     1       5.010   9.940  31.775  1.00  0.00     0.008 C 
ENDBRANCH  12  17
ENDBRANCH  11  12
ENDBRANCH   1  11
TORSDOF 1
ENDMDL
MODEL 7
REMARK VINA RESULT:    -4.228      2.105      4.072
REMARK INTER + INTRA:          -5.985
REMARK INTER:                  -6.593
REMARK INTRA:                   0.607
REMARK UNBOUND:                 0.467
REMARK SMILES CC1=CCC[C@@H](C)C(=O)C[C@@H](C(C)C)C(=O)C1
REMARK SMILES IDX 8 1 9 2 6 3 7 4 5 5 4 6 3 7 2 8 1 9 10 11 11 12 15 13 16 14
REMARK SMILES IDX 17 15 12 17 13 18 14 19
REMARK H PARENT
REMARK Flexibility Score: 70.00
ROOT
ATOM      1  C   UNL     1       3.240  10.770  30.240  1.00  0.00     0.136 C 
ATOM      2  O   UNL     1       3.638   9.990  29.388  1.00  0.00    -0.299 OA
ENDROOT
BRANCH   1   3
ATOM      3  C   UNL     1       4.234  11.394  31.205  1.00  0.00     0.053 C 
ATOM      4  C   UNL     1       4.928  10.307  32.039  1.00  0.00     0.016 C 
BRANCH   3   5
ATOM      5  C   UNL     1       3.539  12.427  32.117  1.00  0.00     0.015 C 
BRANCH   5   6
ATOM      6  C   UNL     1       3.760  13.869  31.617  1.00  0.00     0.028 C 
BRANCH   6   7
ATOM      7  C   UNL     1       4.813  13.968  30.544  1.00  0.00    -0.028 C 
ATOM      8  C   UNL     1       4.563  14.015  29.213  1.00  0.00    -0.070 CG0
ATOM      9  C   UNL     1       5.746  14.017  28.276  1.00  0.00     0.039 C 
ATOM     10  G   UNL     1       3.160  14.105  28.628  1.00  0.00     0.000 G0
ENDBRANCH   6   7
ENDBRANCH   5   6
ENDBRANCH   3   5
ENDBRANCH   1   3
BRANCH   1  11
ATOM     11  C   UNL     1       1.773  11.140  30.285  1.00  0.00     0.087 C 
BRANCH  11  12
ATOM     12  C   UNL     1       1.349  12.299  29.337  1.00  0.00     0.066 C 
BRANCH  12  13
ATOM     13  C   UNL     1       2.508  12.748  28.452  1.00  0.00     0.140 C 
ATOM     14  O   UNL     1       2.866  12.021  27.537  1.00  0.00    -0.299 OA
BRANCH  13  15
ATOM     15  C   UNL     1       3.175  14.097  28.628  1.00  0.00     0.106 CG0
ATOM     16  G   UNL     1       4.582  14.016  29.203  1.00  0.00     0.000 G0
ENDBRANCH  13  15
ENDBRANCH  12  13
BRANCH  12  17
ATOM     17  C   UNL     1       0.628  13.504  30.027  1.00  0.00    -0.006 C 
ATOM     18  C   UNL     1      -0.421  14.126  29.086  1.00  0.00     0.008 C 
ATOM     19  C   UNL     1      -0.068  13.099  31.339  1.00  0.00     0.008 C 
ENDBRANCH  12  17
ENDBRANCH  11  12
ENDBRANCH   1  11
TORSDOF 1
ENDMDL
MODEL 8
REMARK VINA RESULT:    -4.153      2.120      4.462
REMARK INTER + INTRA:          -5.871
REMARK INTER:                  -6.845
REMARK INTRA:                   0.974
REMARK UNBOUND:                 0.467
REMARK SMILES CC1=CCC[C@@H](C)C(=O)C[C@@H](C(C)C)C(=O)C1
REMARK SMILES IDX 8 1 9 2 6 3 7 4 5 5 4 6 3 7 2 8 1 9 10 11 11 12 15 13 16 14
REMARK SMILES IDX 17 15 12 17 13 18 14 19
REMARK H PARENT
REMARK Flexibility Score: 70.00
ROOT
ATOM      1  C   UNL     1       3.415  10.607  29.045  1.00  0.00     0.136 C 
ATOM      2  O   UNL     1       4.462   9.978  29.016  1.00  0.00    -0.299 OA
ENDROOT
BRANCH   1   3
ATOM      3  C   UNL     1       3.148  11.661  27.984  1.00  0.00     0.053 C 
ATOM      4  C   UNL     1       3.033  11.012  26.598  1.00  0.00     0.016 C 
BRANCH   3   5
ATOM      5  C   UNL     1       4.249  12.743  27.995  1.00  0.00     0.015 C 
BRANCH   5   6
ATOM      6  C   UNL     1       3.695  14.117  28.422  1.00  0.00     0.028 C 
BRANCH   6   7
ATOM      7  C   UNL     1       2.190  14.175  28.417  1.00  0.00    -0.028 C 
ATOM      8  C   UNL     1       1.398  13.909  29.484  1.00  0.00    -0.070 CG0
ATOM      9  C   UNL     1      -0.095  13.924  29.272  1.00  0.00     0.039 C 
ATOM     10  G   UNL     1       1.941  13.639  30.881  1.00  0.00     0.000 G0
ENDBRANCH   6   7
ENDBRANCH   5   6
ENDBRANCH   3   5
ENDBRANCH   1   3
BRANCH   1  11
ATOM     11  C   UNL     1       2.383  10.289  30.105  1.00  0.00     0.087 C 
BRANCH  11  12
ATOM     12  C   UNL     1       2.516  11.100  31.428  1.00  0.00     0.066 C 
BRANCH  12  13
ATOM     13  C   UNL     1       1.558  12.287  31.453  1.00  0.00     0.140 C 
ATOM     14  O   UNL     1       0.474  12.158  32.005  1.00  0.00    -0.299 OA
BRANCH  13  15
ATOM     15  C   UNL     1       1.940  13.638  30.883  1.00  0.00     0.106 CG0
ATOM     16  G   UNL     1       1.386  13.894  29.488  1.00  0.00     0.000 G0
ENDBRANCH  13  15
ENDBRANCH  12  13
BRANCH  12  17
ATOM     17  C   UNL     1       3.974  11.506  31.825  1.00  0.00    -0.006 C 
ATOM     18  C   UNL     1       4.013  12.949  32.362  1.00  0.00     0.008 C 
ATOM     19  C   UNL     1       4.575  10.569  32.889  1.00  0.00     0.008 C 
ENDBRANCH  12  17
ENDBRANCH  11  12
ENDBRANCH   1  11
TORSDOF 1
ENDMDL
MODEL 9
REMARK VINA RESULT:    -3.966      1.677      3.945
REMARK INTER + INTRA:          -5.586
REMARK INTER:                  -6.098
REMARK INTRA:                   0.512
REMARK UNBOUND:                 0.467
REMARK SMILES CC1=CCC[C@@H](C)C(=O)C[C@@H](C(C)C)C(=O)C1
REMARK SMILES IDX 8 1 9 2 6 3 7 4 5 5 4 6 3 7 2 8 1 9 10 11 11 12 15 13 16 14
REMARK SMILES IDX 17 15 12 17 13 18 14 19
REMARK H PARENT
REMARK Flexibility Score: 70.00
ROOT
ATOM      1  C   UNL     1       3.894  13.394  28.363  1.00  0.00     0.136 C 
ATOM      2  O   UNL     1       4.098  14.502  27.891  1.00  0.00    -0.299 OA
ENDROOT
BRANCH   1   3
ATOM      3  C   UNL     1       2.695  12.590  27.888  1.00  0.00     0.053 C 
ATOM      4  C   UNL     1       3.033  11.831  26.597  1.00  0.00     0.016 C 
BRANCH   3   5
ATOM      5  C   UNL     1       1.468  13.504  27.684  1.00  0.00     0.015 C 
BRANCH   5   6
ATOM      6  C   UNL     1       1.207  14.393  28.916  1.00  0.00     0.028 C 
BRANCH   6   7
ATOM      7  C   UNL     1       0.347  13.725  29.957  1.00  0.00    -0.028 C 
ATOM      8  C   UNL     1       0.766  13.359  31.192  1.00  0.00    -0.070 CG0
ATOM      9  C   UNL     1      -0.208  12.614  32.071  1.00  0.00     0.039 C 
ATOM     10  G   UNL     1       2.144  13.698  31.742  1.00  0.00     0.000 G0
ENDBRANCH   6   7
ENDBRANCH   5   6
ENDBRANCH   3   5
ENDBRANCH   1   3
BRANCH   1  11
ATOM     11  C   UNL     1       4.866  12.821  29.371  1.00  0.00     0.087 C 
BRANCH  11  12
ATOM     12  C   UNL     1       4.607  13.228  30.851  1.00  0.00     0.066 C 
BRANCH  12  13
ATOM     13  C   UNL     1       3.244  12.741  31.333  1.00  0.00     0.140 C 
ATOM     14  O   UNL     1       3.054  11.537  31.441  1.00  0.00    -0.299 OA
BRANCH  13  15
ATOM     15  C   UNL     1       2.150  13.702  31.750  1.00  0.00     0.106 CG0
ATOM     16  G   UNL     1       0.777  13.348  31.193  1.00  0.00     0.000 G0
ENDBRANCH  13  15
ENDBRANCH  12  13
BRANCH  12  17
ATOM     17  C   UNL     1       4.850  14.737  31.188  1.00  0.00    -0.006 C 
ATOM     18  C   UNL     1       5.165  14.920  32.684  1.00  0.00     0.008 C 
ATOM     19  C   UNL     1       6.001  15.344  30.366  1.00  0.00     0.008 C 
ENDBRANCH  12  17
ENDBRANCH  11  12
ENDBRANCH   1  11
TORSDOF 1
ENDMDL
