MODEL 1
REMARK VINA RESULT:    -3.757      0.000      0.000
REMARK INTER + INTRA:          -9.434
REMARK INTER:                  -6.833
REMARK INTRA:                  -2.601
REMARK UNBOUND:                -2.601
REMARK SMILES CCCCCCCCCCCCCC[C@H](C)C(=O)[O-]
REMARK SMILES IDX 9 1 10 2 11 3 12 4 13 5 14 6 15 7 16 8 17 9 18 10 19 11 8 12
REMARK SMILES IDX 7 13 6 14 5 15 4 16 3 17 2 18 1 19
REMARK H PARENT
REMARK Flexibility Score: inf
ROOT
ATOM      1  C   UNL     1      77.520 -74.558  -1.897  1.00  0.00     0.000 C 
ENDROOT
BRANCH   1   2
ATOM      2  C   UNL     1      77.403 -74.755  -3.418  1.00  0.00     0.000 C 
BRANCH   2   3
ATOM      3  C   UNL     1      76.311 -73.874  -4.047  1.00  0.00     0.000 C 
BRANCH   3   4
ATOM      4  C   UNL     1      76.550 -72.371  -3.808  1.00  0.00     0.000 C 
BRANCH   4   5
ATOM      5  C   UNL     1      75.249 -71.629  -3.455  1.00  0.00     0.001 C 
BRANCH   5   6
ATOM      6  C   UNL     1      74.232 -72.511  -2.693  1.00  0.00     0.009 C 
BRANCH   6   7
ATOM      7  C   UNL     1      74.415 -72.475  -1.159  1.00  0.00     0.032 C 
ATOM      8  C   UNL     1      74.199 -73.848  -0.510  1.00  0.00     0.014 C 
BRANCH   7   9
ATOM      9  C   UNL     1      73.473 -71.470  -0.552  1.00  0.00     0.044 C 
ATOM     10  O   UNL     1      72.227 -71.587  -0.706  1.00  0.00    -0.550 OA
ATOM     11  O   UNL     1      73.975 -70.402   0.179  1.00  0.00    -0.550 OA
ENDBRANCH   7   9
ENDBRANCH   6   7
ENDBRANCH   5   6
ENDBRANCH   4   5
ENDBRANCH   3   4
ENDBRANCH   2   3
ENDBRANCH   1   2
BRANCH   1  12
ATOM     12  C   UNL     1      77.758 -75.879  -1.146  1.00  0.00     0.000 C 
BRANCH  12  13
ATOM     13  C   UNL     1      78.698 -76.831  -1.906  1.00  0.00    -0.000 C 
BRANCH  13  14
ATOM     14  C   UNL     1      78.302 -78.308  -1.737  1.00  0.00    -0.000 C 
BRANCH  14  15
ATOM     15  C   UNL     1      76.782 -78.525  -1.842  1.00  0.00    -0.000 C 
BRANCH  15  16
ATOM     16  C   UNL     1      76.314 -78.788  -3.285  1.00  0.00    -0.000 C 
BRANCH  16  17
ATOM     17  C   UNL     1      75.310 -77.762  -3.843  1.00  0.00    -0.000 C 
BRANCH  17  18
ATOM     18  C   UNL     1      74.499 -77.059  -2.744  1.00  0.00    -0.003 C 
ATOM     19  C   UNL     1      73.467 -76.109  -3.345  1.00  0.00     0.004 C 
ENDBRANCH  17  18
ENDBRANCH  16  17
ENDBRANCH  15  16
ENDBRANCH  14  15
ENDBRANCH  13  14
ENDBRANCH  12  13
ENDBRANCH   1  12
TORSDOF 14
ENDMDL
MODEL 2
REMARK VINA RESULT:    -3.647      3.668      6.228
REMARK INTER + INTRA:          -9.232
REMARK INTER:                  -6.440
REMARK INTRA:                  -2.792
REMARK UNBOUND:                -2.601
REMARK SMILES CCCCCCCCCCCCCC[C@H](C)C(=O)[O-]
REMARK SMILES IDX 9 1 10 2 11 3 12 4 13 5 14 6 15 7 16 8 17 9 18 10 19 11 8 12
REMARK SMILES IDX 7 13 6 14 5 15 4 16 3 17 2 18 1 19
REMARK H PARENT
REMARK Flexibility Score: inf
ROOT
ATOM      1  C   UNL     1      76.177 -75.918  -0.588  1.00  0.00     0.000 C 
ENDROOT
BRANCH   1   2
ATOM      2  C   UNL     1      75.203 -76.957  -1.170  1.00  0.00     0.000 C 
BRANCH   2   3
ATOM      3  C   UNL     1      74.700 -76.578  -2.572  1.00  0.00     0.000 C 
BRANCH   3   4
ATOM      4  C   UNL     1      75.542 -77.210  -3.697  1.00  0.00     0.000 C 
BRANCH   4   5
ATOM      5  C   UNL     1      75.870 -78.687  -3.411  1.00  0.00     0.001 C 
BRANCH   5   6
ATOM      6  C   UNL     1      77.389 -78.966  -3.323  1.00  0.00     0.009 C 
BRANCH   6   7
ATOM      7  C   UNL     1      77.751 -80.080  -2.313  1.00  0.00     0.032 C 
ATOM      8  C   UNL     1      76.579 -80.440  -1.392  1.00  0.00     0.014 C 
BRANCH   7   9
ATOM      9  C   UNL     1      78.938 -79.659  -1.489  1.00  0.00     0.044 C 
ATOM     10  O   UNL     1      79.984 -79.229  -2.045  1.00  0.00    -0.550 OA
ATOM     11  O   UNL     1      78.886 -79.746  -0.104  1.00  0.00    -0.550 OA
ENDBRANCH   7   9
ENDBRANCH   6   7
ENDBRANCH   5   6
ENDBRANCH   4   5
ENDBRANCH   3   4
ENDBRANCH   2   3
ENDBRANCH   1   2
BRANCH   1  12
ATOM     12  C   UNL     1      77.647 -76.354  -0.703  1.00  0.00     0.000 C 
BRANCH  12  13
ATOM     13  C   UNL     1      78.385 -75.652  -1.856  1.00  0.00    -0.000 C 
BRANCH  13  14
ATOM     14  C   UNL     1      77.840 -74.240  -2.131  1.00  0.00    -0.000 C 
BRANCH  14  15
ATOM     15  C   UNL     1      77.496 -74.020  -3.614  1.00  0.00    -0.000 C 
BRANCH  15  16
ATOM     16  C   UNL     1      76.240 -73.152  -3.814  1.00  0.00    -0.000 C 
BRANCH  16  17
ATOM     17  C   UNL     1      75.391 -72.930  -2.549  1.00  0.00    -0.000 C 
BRANCH  17  18
ATOM     18  C   UNL     1      73.936 -72.553  -2.863  1.00  0.00    -0.003 C 
ATOM     19  C   UNL     1      73.385 -73.397  -4.009  1.00  0.00     0.004 C 
ENDBRANCH  17  18
ENDBRANCH  16  17
ENDBRANCH  15  16
ENDBRANCH  14  15
ENDBRANCH  13  14
ENDBRANCH  12  13
ENDBRANCH   1  12
TORSDOF 14
ENDMDL
MODEL 3
REMARK VINA RESULT:    -3.609      1.117      1.674
REMARK INTER + INTRA:          -9.164
REMARK INTER:                  -6.897
REMARK INTRA:                  -2.268
REMARK UNBOUND:                -2.601
REMARK SMILES CCCCCCCCCCCCCC[C@H](C)C(=O)[O-]
REMARK SMILES IDX 9 1 10 2 11 3 12 4 13 5 14 6 15 7 16 8 17 9 18 10 19 11 8 12
REMARK SMILES IDX 7 13 6 14 5 15 4 16 3 17 2 18 1 19
REMARK H PARENT
REMARK Flexibility Score: inf
ROOT
ATOM      1  C   UNL     1      77.629 -74.368  -2.111  1.00  0.00     0.000 C 
ENDROOT
BRANCH   1   2
ATOM      2  C   UNL     1      77.535 -73.704  -3.495  1.00  0.00     0.000 C 
BRANCH   2   3
ATOM      3  C   UNL     1      76.471 -72.597  -3.550  1.00  0.00     0.000 C 
BRANCH   3   4
ATOM      4  C   UNL     1      75.113 -73.102  -4.073  1.00  0.00     0.000 C 
BRANCH   4   5
ATOM      5  C   UNL     1      73.939 -72.592  -3.218  1.00  0.00     0.001 C 
BRANCH   5   6
ATOM      6  C   UNL     1      74.395 -71.845  -1.942  1.00  0.00     0.009 C 
BRANCH   6   7
ATOM      7  C   UNL     1      73.445 -72.047  -0.739  1.00  0.00     0.032 C 
ATOM      8  C   UNL     1      72.079 -72.604  -1.158  1.00  0.00     0.014 C 
BRANCH   7   9
ATOM      9  C   UNL     1      73.264 -70.747  -0.004  1.00  0.00     0.044 C 
ATOM     10  O   UNL     1      74.162 -69.863  -0.036  1.00  0.00    -0.550 OA
ATOM     11  O   UNL     1      72.101 -70.515   0.719  1.00  0.00    -0.550 OA
ENDBRANCH   7   9
ENDBRANCH   6   7
ENDBRANCH   5   6
ENDBRANCH   4   5
ENDBRANCH   3   4
ENDBRANCH   2   3
ENDBRANCH   1   2
BRANCH   1  12
ATOM     12  C   UNL     1      78.451 -75.667  -2.131  1.00  0.00     0.000 C 
BRANCH  12  13
ATOM     13  C   UNL     1      77.992 -76.677  -1.065  1.00  0.00    -0.000 C 
BRANCH  13  14
ATOM     14  C   UNL     1      77.266 -77.888  -1.675  1.00  0.00    -0.000 C 
BRANCH  14  15
ATOM     15  C   UNL     1      76.681 -77.585  -3.065  1.00  0.00    -0.000 C 
BRANCH  15  16
ATOM     16  C   UNL     1      75.198 -77.981  -3.189  1.00  0.00    -0.000 C 
BRANCH  16  17
ATOM     17  C   UNL     1      74.303 -77.534  -2.018  1.00  0.00    -0.000 C 
BRANCH  17  18
ATOM     18  C   UNL     1      74.179 -76.007  -1.909  1.00  0.00    -0.003 C 
ATOM     19  C   UNL     1      74.519 -75.528  -0.500  1.00  0.00     0.004 C 
ENDBRANCH  17  18
ENDBRANCH  16  17
ENDBRANCH  15  16
ENDBRANCH  14  15
ENDBRANCH  13  14
ENDBRANCH  12  13
ENDBRANCH   1  12
TORSDOF 14
ENDMDL
MODEL 4
REMARK VINA RESULT:    -3.578      1.218      2.755
REMARK INTER + INTRA:          -9.108
REMARK INTER:                  -6.440
REMARK INTRA:                  -2.668
REMARK UNBOUND:                -2.601
REMARK SMILES CCCCCCCCCCCCCC[C@H](C)C(=O)[O-]
REMARK SMILES IDX 9 1 10 2 11 3 12 4 13 5 14 6 15 7 16 8 17 9 18 10 19 11 8 12
REMARK SMILES IDX 7 13 6 14 5 15 4 16 3 17 2 18 1 19
REMARK H PARENT
REMARK Flexibility Score: inf
ROOT
ATOM      1  C   UNL     1      78.615 -76.935  -1.498  1.00  0.00     0.000 C 
ENDROOT
BRANCH   1   2
ATOM      2  C   UNL     1      77.525 -76.157  -0.742  1.00  0.00     0.000 C 
BRANCH   2   3
ATOM      3  C   UNL     1      77.093 -74.877  -1.476  1.00  0.00     0.000 C 
BRANCH   3   4
ATOM      4  C   UNL     1      77.854 -74.665  -2.798  1.00  0.00     0.000 C 
BRANCH   4   5
ATOM      5  C   UNL     1      77.165 -73.625  -3.700  1.00  0.00     0.001 C 
BRANCH   5   6
ATOM      6  C   UNL     1      75.640 -73.851  -3.834  1.00  0.00     0.009 C 
BRANCH   6   7
ATOM      7  C   UNL     1      74.811 -72.556  -3.679  1.00  0.00     0.032 C 
ATOM      8  C   UNL     1      75.682 -71.294  -3.712  1.00  0.00     0.014 C 
BRANCH   7   9
ATOM      9  C   UNL     1      74.025 -72.600  -2.396  1.00  0.00     0.044 C 
ATOM     10  O   UNL     1      72.796 -72.879  -2.408  1.00  0.00    -0.550 OA
ATOM     11  O   UNL     1      74.653 -72.329  -1.188  1.00  0.00    -0.550 OA
ENDBRANCH   7   9
ENDBRANCH   6   7
ENDBRANCH   5   6
ENDBRANCH   4   5
ENDBRANCH   3   4
ENDBRANCH   2   3
ENDBRANCH   1   2
BRANCH   1  12
ATOM     12  C   UNL     1      78.300 -78.435  -1.614  1.00  0.00     0.000 C 
BRANCH  12  13
ATOM     13  C   UNL     1      76.806 -78.709  -1.865  1.00  0.00    -0.000 C 
BRANCH  13  14
ATOM     14  C   UNL     1      76.436 -78.634  -3.356  1.00  0.00    -0.000 C 
BRANCH  14  15
ATOM     15  C   UNL     1      75.501 -77.453  -3.671  1.00  0.00    -0.000 C 
BRANCH  15  16
ATOM     16  C   UNL     1      74.083 -77.645  -3.105  1.00  0.00    -0.000 C 
BRANCH  16  17
ATOM     17  C   UNL     1      73.584 -76.509  -2.193  1.00  0.00    -0.000 C 
BRANCH  17  18
ATOM     18  C   UNL     1      73.641 -76.870  -0.702  1.00  0.00    -0.003 C 
ATOM     19  C   UNL     1      73.937 -75.639   0.151  1.00  0.00     0.004 C 
ENDBRANCH  17  18
ENDBRANCH  16  17
ENDBRANCH  15  16
ENDBRANCH  14  15
ENDBRANCH  13  14
ENDBRANCH  12  13
ENDBRANCH   1  12
TORSDOF 14
ENDMDL
MODEL 5
REMARK VINA RESULT:    -3.564      3.055      5.858
REMARK INTER + INTRA:          -9.083
REMARK INTER:                  -6.783
REMARK INTRA:                  -2.300
REMARK UNBOUND:                -2.601
REMARK SMILES CCCCCCCCCCCCCC[C@H](C)C(=O)[O-]
REMARK SMILES IDX 9 1 10 2 11 3 12 4 13 5 14 6 15 7 16 8 17 9 18 10 19 11 8 12
REMARK SMILES IDX 7 13 6 14 5 15 4 16 3 17 2 18 1 19
REMARK H PARENT
REMARK Flexibility Score: inf
ROOT
ATOM      1  C   UNL     1      76.708 -72.731  -3.734  1.00  0.00     0.000 C 
ENDROOT
BRANCH   1   2
ATOM      2  C   UNL     1      76.350 -74.181  -4.103  1.00  0.00     0.000 C 
BRANCH   2   3
ATOM      3  C   UNL     1      76.763 -75.188  -3.018  1.00  0.00     0.000 C 
BRANCH   3   4
ATOM      4  C   UNL     1      77.960 -74.701  -2.180  1.00  0.00     0.000 C 
BRANCH   4   5
ATOM      5  C   UNL     1      78.578 -75.836  -1.344  1.00  0.00     0.001 C 
BRANCH   5   6
ATOM      6  C   UNL     1      77.536 -76.870  -0.856  1.00  0.00     0.009 C 
BRANCH   6   7
ATOM      7  C   UNL     1      77.944 -78.334  -1.139  1.00  0.00     0.032 C 
ATOM      8  C   UNL     1      79.208 -78.434  -2.003  1.00  0.00     0.014 C 
BRANCH   7   9
ATOM      9  C   UNL     1      76.810 -79.063  -1.809  1.00  0.00     0.044 C 
ATOM     10  O   UNL     1      76.291 -78.608  -2.863  1.00  0.00    -0.550 OA
ATOM     11  O   UNL     1      76.325 -80.244  -1.262  1.00  0.00    -0.550 OA
ENDBRANCH   7   9
ENDBRANCH   6   7
ENDBRANCH   5   6
ENDBRANCH   4   5
ENDBRANCH   3   4
ENDBRANCH   2   3
ENDBRANCH   1   2
BRANCH   1  12
ATOM     12  C   UNL     1      75.501 -71.782  -3.820  1.00  0.00     0.000 C 
BRANCH  12  13
ATOM     13  C   UNL     1      74.276 -72.312  -3.054  1.00  0.00    -0.000 C 
BRANCH  13  14
ATOM     14  C   UNL     1      74.344 -72.004  -1.549  1.00  0.00    -0.000 C 
BRANCH  14  15
ATOM     15  C   UNL     1      74.688 -73.247  -0.709  1.00  0.00    -0.000 C 
BRANCH  15  16
ATOM     16  C   UNL     1      73.486 -74.189  -0.516  1.00  0.00    -0.000 C 
BRANCH  16  17
ATOM     17  C   UNL     1      73.830 -75.579   0.053  1.00  0.00    -0.000 C 
BRANCH  17  18
ATOM     18  C   UNL     1      73.977 -76.651  -1.036  1.00  0.00    -0.003 C 
ATOM     19  C   UNL     1      73.238 -76.246  -2.309  1.00  0.00     0.004 C 
ENDBRANCH  17  18
ENDBRANCH  16  17
ENDBRANCH  15  16
ENDBRANCH  14  15
ENDBRANCH  13  14
ENDBRANCH  12  13
ENDBRANCH   1  12
TORSDOF 14
ENDMDL
MODEL 6
REMARK VINA RESULT:    -3.536      3.779      5.645
REMARK INTER + INTRA:          -9.031
REMARK INTER:                  -7.324
REMARK INTRA:                  -1.707
REMARK UNBOUND:                -2.601
REMARK SMILES CCCCCCCCCCCCCC[C@H](C)C(=O)[O-]
REMARK SMILES IDX 9 1 10 2 11 3 12 4 13 5 14 6 15 7 16 8 17 9 18 10 19 11 8 12
REMARK SMILES IDX 7 13 6 14 5 15 4 16 3 17 2 18 1 19
REMARK H PARENT
REMARK Flexibility Score: inf
ROOT
ATOM      1  C   UNL     1      77.351 -75.856  -0.764  1.00  0.00     0.000 C 
ENDROOT
BRANCH   1   2
ATOM      2  C   UNL     1      75.914 -75.314  -0.678  1.00  0.00     0.000 C 
BRANCH   2   3
ATOM      3  C   UNL     1      74.942 -76.313  -0.028  1.00  0.00     0.000 C 
BRANCH   3   4
ATOM      4  C   UNL     1      73.473 -75.862  -0.125  1.00  0.00     0.000 C 
BRANCH   4   5
ATOM      5  C   UNL     1      72.857 -75.599   1.261  1.00  0.00     0.001 C 
BRANCH   5   6
ATOM      6  C   UNL     1      73.001 -76.796   2.229  1.00  0.00     0.009 C 
BRANCH   6   7
ATOM      7  C   UNL     1      72.303 -76.575   3.590  1.00  0.00     0.032 C 
ATOM      8  C   UNL     1      71.668 -75.183   3.703  1.00  0.00     0.014 C 
BRANCH   7   9
ATOM      9  C   UNL     1      73.287 -76.780   4.711  1.00  0.00     0.044 C 
ATOM     10  O   UNL     1      74.430 -77.258   4.479  1.00  0.00    -0.550 OA
ATOM     11  O   UNL     1      72.936 -76.446   6.012  1.00  0.00    -0.550 OA
ENDBRANCH   7   9
ENDBRANCH   6   7
ENDBRANCH   5   6
ENDBRANCH   4   5
ENDBRANCH   3   4
ENDBRANCH   2   3
ENDBRANCH   1   2
BRANCH   1  12
ATOM     12  C   UNL     1      78.167 -75.194  -1.887  1.00  0.00     0.000 C 
BRANCH  12  13
ATOM     13  C   UNL     1      77.285 -74.699  -3.047  1.00  0.00    -0.000 C 
BRANCH  13  14
ATOM     14  C   UNL     1      77.521 -73.214  -3.373  1.00  0.00    -0.000 C 
BRANCH  14  15
ATOM     15  C   UNL     1      76.227 -72.488  -3.780  1.00  0.00    -0.000 C 
BRANCH  15  16
ATOM     16  C   UNL     1      75.002 -73.420  -3.809  1.00  0.00    -0.000 C 
BRANCH  16  17
ATOM     17  C   UNL     1      73.847 -73.010  -2.876  1.00  0.00    -0.000 C 
BRANCH  17  18
ATOM     18  C   UNL     1      74.310 -72.141  -1.697  1.00  0.00    -0.003 C 
ATOM     19  C   UNL     1      73.250 -72.093  -0.600  1.00  0.00     0.004 C 
ENDBRANCH  17  18
ENDBRANCH  16  17
ENDBRANCH  15  16
ENDBRANCH  14  15
ENDBRANCH  13  14
ENDBRANCH  12  13
ENDBRANCH   1  12
TORSDOF 14
ENDMDL
MODEL 7
REMARK VINA RESULT:    -3.532      1.276      2.172
REMARK INTER + INTRA:          -9.024
REMARK INTER:                  -6.874
REMARK INTRA:                  -2.150
REMARK UNBOUND:                -2.601
REMARK SMILES CCCCCCCCCCCCCC[C@H](C)C(=O)[O-]
REMARK SMILES IDX 9 1 10 2 11 3 12 4 13 5 14 6 15 7 16 8 17 9 18 10 19 11 8 12
REMARK SMILES IDX 7 13 6 14 5 15 4 16 3 17 2 18 1 19
REMARK H PARENT
REMARK Flexibility Score: inf
ROOT
ATOM      1  C   UNL     1      77.760 -73.683  -2.652  1.00  0.00     0.000 C 
ENDROOT
BRANCH   1   2
ATOM      2  C   UNL     1      76.924 -73.191  -3.846  1.00  0.00     0.000 C 
BRANCH   2   3
ATOM      3  C   UNL     1      76.131 -71.913  -3.527  1.00  0.00     0.000 C 
BRANCH   3   4
ATOM      4  C   UNL     1      74.613 -72.093  -3.714  1.00  0.00     0.000 C 
BRANCH   4   5
ATOM      5  C   UNL     1      73.999 -72.986  -2.620  1.00  0.00     0.001 C 
BRANCH   5   6
ATOM      6  C   UNL     1      74.317 -72.499  -1.187  1.00  0.00     0.009 C 
BRANCH   6   7
ATOM      7  C   UNL     1      73.058 -72.285  -0.317  1.00  0.00     0.032 C 
ATOM      8  C   UNL     1      71.762 -72.607  -1.072  1.00  0.00     0.014 C 
BRANCH   7   9
ATOM      9  C   UNL     1      73.016 -70.868   0.189  1.00  0.00     0.044 C 
ATOM     10  O   UNL     1      73.998 -70.097   0.012  1.00  0.00    -0.550 OA
ATOM     11  O   UNL     1      71.892 -70.403   0.858  1.00  0.00    -0.550 OA
ENDBRANCH   7   9
ENDBRANCH   6   7
ENDBRANCH   5   6
ENDBRANCH   4   5
ENDBRANCH   3   4
ENDBRANCH   2   3
ENDBRANCH   1   2
BRANCH   1  12
ATOM     12  C   UNL     1      77.799 -75.217  -2.549  1.00  0.00     0.000 C 
BRANCH  12  13
ATOM     13  C   UNL     1      78.259 -75.706  -1.164  1.00  0.00    -0.000 C 
BRANCH  13  14
ATOM     14  C   UNL     1      77.145 -76.440  -0.398  1.00  0.00    -0.000 C 
BRANCH  14  15
ATOM     15  C   UNL     1      75.771 -75.768  -0.571  1.00  0.00    -0.000 C 
BRANCH  15  16
ATOM     16  C   UNL     1      74.618 -76.782  -0.680  1.00  0.00    -0.000 C 
BRANCH  16  17
ATOM     17  C   UNL     1      73.750 -76.651  -1.944  1.00  0.00    -0.000 C 
BRANCH  17  18
ATOM     18  C   UNL     1      74.579 -76.464  -3.223  1.00  0.00    -0.003 C 
ATOM     19  C   UNL     1      75.262 -77.766  -3.631  1.00  0.00     0.004 C 
ENDBRANCH  17  18
ENDBRANCH  16  17
ENDBRANCH  15  16
ENDBRANCH  14  15
ENDBRANCH  13  14
ENDBRANCH  12  13
ENDBRANCH   1  12
TORSDOF 14
ENDMDL
MODEL 8
REMARK VINA RESULT:    -3.491      3.037      6.084
REMARK INTER + INTRA:          -8.948
REMARK INTER:                  -6.781
REMARK INTRA:                  -2.167
REMARK UNBOUND:                -2.601
REMARK SMILES CCCCCCCCCCCCCC[C@H](C)C(=O)[O-]
REMARK SMILES IDX 9 1 10 2 11 3 12 4 13 5 14 6 15 7 16 8 17 9 18 10 19 11 8 12
REMARK SMILES IDX 7 13 6 14 5 15 4 16 3 17 2 18 1 19
REMARK H PARENT
REMARK Flexibility Score: inf
ROOT
ATOM      1  C   UNL     1      76.783 -74.989  -1.458  1.00  0.00     0.000 C 
ENDROOT
BRANCH   1   2
ATOM      2  C   UNL     1      77.242 -76.327  -0.852  1.00  0.00     0.000 C 
BRANCH   2   3
ATOM      3  C   UNL     1      78.563 -76.829  -1.456  1.00  0.00     0.000 C 
BRANCH   3   4
ATOM      4  C   UNL     1      78.396 -78.144  -2.241  1.00  0.00     0.000 C 
BRANCH   4   5
ATOM      5  C   UNL     1      77.646 -77.932  -3.568  1.00  0.00     0.001 C 
BRANCH   5   6
ATOM      6  C   UNL     1      76.699 -79.101  -3.926  1.00  0.00     0.009 C 
BRANCH   6   7
ATOM      7  C   UNL     1      75.201 -78.726  -3.846  1.00  0.00     0.032 C 
ATOM      8  C   UNL     1      74.981 -77.212  -3.746  1.00  0.00     0.014 C 
BRANCH   7   9
ATOM      9  C   UNL     1      74.562 -79.414  -2.670  1.00  0.00     0.044 C 
ATOM     10  O   UNL     1      73.391 -79.875  -2.757  1.00  0.00    -0.550 OA
ATOM     11  O   UNL     1      75.260 -79.543  -1.477  1.00  0.00    -0.550 OA
ENDBRANCH   7   9
ENDBRANCH   6   7
ENDBRANCH   5   6
ENDBRANCH   4   5
ENDBRANCH   3   4
ENDBRANCH   2   3
ENDBRANCH   1   2
BRANCH   1  12
ATOM     12  C   UNL     1      77.899 -74.283  -2.245  1.00  0.00     0.000 C 
BRANCH  12  13
ATOM     13  C   UNL     1      77.567 -74.134  -3.740  1.00  0.00    -0.000 C 
BRANCH  13  14
ATOM     14  C   UNL     1      76.147 -73.592  -3.977  1.00  0.00    -0.000 C 
BRANCH  14  15
ATOM     15  C   UNL     1      76.071 -72.061  -3.843  1.00  0.00    -0.000 C 
BRANCH  15  16
ATOM     16  C   UNL     1      74.759 -71.582  -3.195  1.00  0.00    -0.000 C 
BRANCH  16  17
ATOM     17  C   UNL     1      73.998 -72.653  -2.392  1.00  0.00    -0.000 C 
BRANCH  17  18
ATOM     18  C   UNL     1      74.151 -72.483  -0.874  1.00  0.00    -0.003 C 
ATOM     19  C   UNL     1      73.839 -71.051  -0.446  1.00  0.00     0.004 C 
ENDBRANCH  17  18
ENDBRANCH  16  17
ENDBRANCH  15  16
ENDBRANCH  14  15
ENDBRANCH  13  14
ENDBRANCH  12  13
ENDBRANCH   1  12
TORSDOF 14
ENDMDL
MODEL 9
REMARK VINA RESULT:    -3.485      2.088      3.936
REMARK INTER + INTRA:          -8.938
REMARK INTER:                  -6.723
REMARK INTRA:                  -2.215
REMARK UNBOUND:                -2.601
REMARK SMILES CCCCCCCCCCCCCC[C@H](C)C(=O)[O-]
REMARK SMILES IDX 9 1 10 2 11 3 12 4 13 5 14 6 15 7 16 8 17 9 18 10 19 11 8 12
REMARK SMILES IDX 7 13 6 14 5 15 4 16 3 17 2 18 1 19
REMARK H PARENT
REMARK Flexibility Score: inf
ROOT
ATOM      1  C   UNL     1      77.156 -73.217  -3.312  1.00  0.00     0.000 C 
ENDROOT
BRANCH   1   2
ATOM      2  C   UNL     1      76.323 -72.131  -4.016  1.00  0.00     0.000 C 
BRANCH   2   3
ATOM      3  C   UNL     1      74.824 -72.231  -3.690  1.00  0.00     0.000 C 
BRANCH   3   4
ATOM      4  C   UNL     1      74.507 -71.861  -2.229  1.00  0.00     0.000 C 
BRANCH   4   5
ATOM      5  C   UNL     1      73.753 -72.988  -1.499  1.00  0.00     0.001 C 
BRANCH   5   6
ATOM      6  C   UNL     1      74.689 -73.940  -0.719  1.00  0.00     0.009 C 
BRANCH   6   7
ATOM      7  C   UNL     1      74.529 -75.425  -1.119  1.00  0.00     0.032 C 
ATOM      8  C   UNL     1      73.936 -75.592  -2.523  1.00  0.00     0.014 C 
BRANCH   7   9
ATOM      9  C   UNL     1      73.667 -76.138  -0.112  1.00  0.00     0.044 C 
ATOM     10  O   UNL     1      73.446 -77.374  -0.220  1.00  0.00    -0.550 OA
ATOM     11  O   UNL     1      73.104 -75.432   0.944  1.00  0.00    -0.550 OA
ENDBRANCH   7   9
ENDBRANCH   6   7
ENDBRANCH   5   6
ENDBRANCH   4   5
ENDBRANCH   3   4
ENDBRANCH   2   3
ENDBRANCH   1   2
BRANCH   1  12
ATOM     12  C   UNL     1      77.218 -74.528  -4.113  1.00  0.00     0.000 C 
BRANCH  12  13
ATOM     13  C   UNL     1      77.648 -75.728  -3.252  1.00  0.00    -0.000 C 
BRANCH  13  14
ATOM     14  C   UNL     1      78.306 -75.299  -1.930  1.00  0.00    -0.000 C 
BRANCH  14  15
ATOM     15  C   UNL     1      77.926 -76.220  -0.757  1.00  0.00    -0.000 C 
BRANCH  15  16
ATOM     16  C   UNL     1      77.497 -77.626  -1.216  1.00  0.00    -0.000 C 
BRANCH  16  17
ATOM     17  C   UNL     1      78.454 -78.764  -0.816  1.00  0.00    -0.000 C 
BRANCH  17  18
ATOM     18  C   UNL     1      79.462 -79.114  -1.920  1.00  0.00    -0.003 C 
ATOM     19  C   UNL     1      80.290 -80.339  -1.540  1.00  0.00     0.004 C 
ENDBRANCH  17  18
ENDBRANCH  16  17
ENDBRANCH  15  16
ENDBRANCH  14  15
ENDBRANCH  13  14
ENDBRANCH  12  13
ENDBRANCH   1  12
TORSDOF 14
ENDMDL
