MODEL 1
REMARK VINA RESULT:    -6.124      0.000      0.000
REMARK INTER + INTRA:         -19.745
REMARK INTER:                 -16.149
REMARK INTRA:                  -3.596
REMARK UNBOUND:                -3.596
REMARK SMILES CCCCCCCCCCCCCCCCCCCCCCCCCCCCCC(=O)[O-]
REMARK SMILES IDX 16 1 17 2 18 3 19 4 20 5 21 6 22 7 23 8 24 9 25 10 26 11
REMARK SMILES IDX 27 12 28 13 29 14 30 15 31 16 32 17 15 18 14 19 13 20 12 21
REMARK SMILES IDX 11 22 10 23 9 24 8 25 7 26 6 27 5 28 4 29 3 30 2 31 1 32
REMARK H PARENT
REMARK Flexibility Score: inf
ROOT
ATOM      1  C   UNL     1      53.644  15.880  -1.755  1.00  0.00     0.000 C 
ENDROOT
BRANCH   1   2
ATOM      2  C   UNL     1      53.174  14.646  -0.953  1.00  0.00     0.000 C 
BRANCH   2   3
ATOM      3  C   UNL     1      54.196  14.095   0.065  1.00  0.00     0.000 C 
BRANCH   3   4
ATOM      4  C   UNL     1      53.960  14.498   1.534  1.00  0.00     0.000 C 
BRANCH   4   5
ATOM      5  C   UNL     1      52.682  15.324   1.740  1.00  0.00     0.000 C 
BRANCH   5   6
ATOM      6  C   UNL     1      53.018  16.799   2.010  1.00  0.00     0.000 C 
BRANCH   6   7
ATOM      7  C   UNL     1      54.512  17.026   2.294  1.00  0.00     0.000 C 
BRANCH   7   8
ATOM      8  C   UNL     1      55.254  17.650   1.099  1.00  0.00     0.000 C 
BRANCH   8   9
ATOM      9  C   UNL     1      56.771  17.401   1.154  1.00  0.00     0.000 C 
BRANCH   9  10
ATOM     10  C   UNL     1      57.183  16.102   0.440  1.00  0.00     0.000 C 
BRANCH  10  11
ATOM     11  C   UNL     1      58.608  15.659   0.807  1.00  0.00     0.000 C 
BRANCH  11  12
ATOM     12  C   UNL     1      59.029  14.366   0.085  1.00  0.00     0.000 C 
BRANCH  12  13
ATOM     13  C   UNL     1      57.842  13.436  -0.227  1.00  0.00     0.006 C 
BRANCH  13  14
ATOM     14  C   UNL     1      57.748  12.214   0.702  1.00  0.00     0.053 C 
BRANCH  14  15
ATOM     15  C   UNL     1      58.515  11.036   0.184  1.00  0.00     0.041 C 
ATOM     16  O   UNL     1      59.467  10.555   0.855  1.00  0.00    -0.550 OA
ATOM     17  O   UNL     1      58.162  10.448  -1.024  1.00  0.00    -0.550 OA
ENDBRANCH  14  15
ENDBRANCH  13  14
ENDBRANCH  12  13
ENDBRANCH  11  12
ENDBRANCH  10  11
ENDBRANCH   9  10
ENDBRANCH   8   9
ENDBRANCH   7   8
ENDBRANCH   6   7
ENDBRANCH   5   6
ENDBRANCH   4   5
ENDBRANCH   3   4
ENDBRANCH   2   3
ENDBRANCH   1   2
BRANCH   1  18
ATOM     18  C   UNL     1      52.501  16.782  -2.259  1.00  0.00     0.000 C 
BRANCH  18  19
ATOM     19  C   UNL     1      52.056  17.854  -1.244  1.00  0.00     0.000 C 
BRANCH  19  20
ATOM     20  C   UNL     1      50.720  18.506  -1.642  1.00  0.00     0.000 C 
BRANCH  20  21
ATOM     21  C   UNL     1      50.084  19.312  -0.497  1.00  0.00     0.000 C 
BRANCH  21  22
ATOM     22  C   UNL     1      50.049  18.530   0.826  1.00  0.00     0.000 C 
BRANCH  22  23
ATOM     23  C   UNL     1      50.287  19.422   2.058  1.00  0.00     0.000 C 
BRANCH  23  24
ATOM     24  C   UNL     1      49.040  20.149   2.593  1.00  0.00    -0.000 C 
BRANCH  24  25
ATOM     25  C   UNL     1      47.728  19.443   2.221  1.00  0.00    -0.000 C 
BRANCH  25  26
ATOM     26  C   UNL     1      46.513  20.288   2.624  1.00  0.00    -0.000 C 
BRANCH  26  27
ATOM     27  C   UNL     1      46.169  21.310   1.534  1.00  0.00    -0.000 C 
BRANCH  27  28
ATOM     28  C   UNL     1      46.577  20.795   0.147  1.00  0.00    -0.000 C 
BRANCH  28  29
ATOM     29  C   UNL     1      46.796  21.927  -0.874  1.00  0.00    -0.000 C 
BRANCH  29  30
ATOM     30  C   UNL     1      46.735  21.492  -2.350  1.00  0.00    -0.000 C 
BRANCH  30  31
ATOM     31  C   UNL     1      45.772  22.347  -3.187  1.00  0.00    -0.003 C 
ATOM     32  C   UNL     1      44.721  23.015  -2.304  1.00  0.00     0.004 C 
ENDBRANCH  30  31
ENDBRANCH  29  30
ENDBRANCH  28  29
ENDBRANCH  27  28
ENDBRANCH  26  27
ENDBRANCH  25  26
ENDBRANCH  24  25
ENDBRANCH  23  24
ENDBRANCH  22  23
ENDBRANCH  21  22
ENDBRANCH  20  21
ENDBRANCH  19  20
ENDBRANCH  18  19
ENDBRANCH   1  18
TORSDOF 28
ENDMDL
MODEL 2
REMARK VINA RESULT:    -6.071      1.761      3.880
REMARK INTER + INTRA:         -19.603
REMARK INTER:                 -15.477
REMARK INTRA:                  -4.126
REMARK UNBOUND:                -3.596
REMARK SMILES CCCCCCCCCCCCCCCCCCCCCCCCCCCCCC(=O)[O-]
REMARK SMILES IDX 16 1 17 2 18 3 19 4 20 5 21 6 22 7 23 8 24 9 25 10 26 11
REMARK SMILES IDX 27 12 28 13 29 14 30 15 31 16 32 17 15 18 14 19 13 20 12 21
REMARK SMILES IDX 11 22 10 23 9 24 8 25 7 26 6 27 5 28 4 29 3 30 2 31 1 32
REMARK H PARENT
REMARK Flexibility Score: inf
ROOT
ATOM      1  C   UNL     1      54.276  17.700   2.389  1.00  0.00     0.000 C 
ENDROOT
BRANCH   1   2
ATOM      2  C   UNL     1      55.355  16.767   1.796  1.00  0.00     0.000 C 
BRANCH   2   3
ATOM      3  C   UNL     1      56.238  17.397   0.697  1.00  0.00     0.000 C 
BRANCH   3   4
ATOM      4  C   UNL     1      55.810  17.106  -0.754  1.00  0.00     0.000 C 
BRANCH   4   5
ATOM      5  C   UNL     1      54.586  17.919  -1.202  1.00  0.00     0.000 C 
BRANCH   5   6
ATOM      6  C   UNL     1      53.313  17.059  -1.171  1.00  0.00     0.000 C 
BRANCH   6   7
ATOM      7  C   UNL     1      53.569  15.603  -1.592  1.00  0.00     0.000 C 
BRANCH   7   8
ATOM      8  C   UNL     1      53.227  14.595  -0.480  1.00  0.00     0.000 C 
BRANCH   8   9
ATOM      9  C   UNL     1      54.146  13.363  -0.499  1.00  0.00     0.000 C 
BRANCH   9  10
ATOM     10  C   UNL     1      55.463  13.597   0.262  1.00  0.00     0.000 C 
BRANCH  10  11
ATOM     11  C   UNL     1      56.394  12.375   0.211  1.00  0.00     0.000 C 
BRANCH  11  12
ATOM     12  C   UNL     1      57.883  12.765   0.235  1.00  0.00     0.000 C 
BRANCH  12  13
ATOM     13  C   UNL     1      58.109  14.285   0.133  1.00  0.00     0.006 C 
BRANCH  13  14
ATOM     14  C   UNL     1      59.509  14.674  -0.372  1.00  0.00     0.053 C 
BRANCH  14  15
ATOM     15  C   UNL     1      60.546  14.622   0.708  1.00  0.00     0.041 C 
ATOM     16  O   UNL     1      61.666  14.089   0.487  1.00  0.00    -0.550 OA
ATOM     17  O   UNL     1      60.290  15.189   1.951  1.00  0.00    -0.550 OA
ENDBRANCH  14  15
ENDBRANCH  13  14
ENDBRANCH  12  13
ENDBRANCH  11  12
ENDBRANCH  10  11
ENDBRANCH   9  10
ENDBRANCH   8   9
ENDBRANCH   7   8
ENDBRANCH   6   7
ENDBRANCH   5   6
ENDBRANCH   4   5
ENDBRANCH   3   4
ENDBRANCH   2   3
ENDBRANCH   1   2
BRANCH   1  18
ATOM     18  C   UNL     1      52.837  17.163   2.269  1.00  0.00     0.000 C 
BRANCH  18  19
ATOM     19  C   UNL     1      51.752  18.191   2.649  1.00  0.00     0.000 C 
BRANCH  19  20
ATOM     20  C   UNL     1      50.494  18.054   1.772  1.00  0.00     0.000 C 
BRANCH  20  21
ATOM     21  C   UNL     1      49.779  19.395   1.540  1.00  0.00     0.000 C 
BRANCH  21  22
ATOM     22  C   UNL     1      48.279  19.328   1.870  1.00  0.00     0.000 C 
BRANCH  22  23
ATOM     23  C   UNL     1      47.678  20.703   2.214  1.00  0.00     0.000 C 
BRANCH  23  24
ATOM     24  C   UNL     1      46.170  20.845   1.945  1.00  0.00    -0.000 C 
BRANCH  24  25
ATOM     25  C   UNL     1      45.844  21.927   0.904  1.00  0.00    -0.000 C 
BRANCH  25  26
ATOM     26  C   UNL     1      46.570  21.655  -0.420  1.00  0.00    -0.000 C 
BRANCH  26  27
ATOM     27  C   UNL     1      45.792  20.651  -1.278  1.00  0.00    -0.000 C 
BRANCH  27  28
ATOM     28  C   UNL     1      46.720  19.938  -2.271  1.00  0.00    -0.000 C 
BRANCH  28  29
ATOM     29  C   UNL     1      48.187  19.904  -1.803  1.00  0.00    -0.000 C 
BRANCH  29  30
ATOM     30  C   UNL     1      48.954  18.618  -2.164  1.00  0.00    -0.000 C 
BRANCH  30  31
ATOM     31  C   UNL     1      50.459  18.854  -2.360  1.00  0.00    -0.003 C 
ATOM     32  C   UNL     1      50.866  20.241  -1.872  1.00  0.00     0.004 C 
ENDBRANCH  30  31
ENDBRANCH  29  30
ENDBRANCH  28  29
ENDBRANCH  27  28
ENDBRANCH  26  27
ENDBRANCH  25  26
ENDBRANCH  24  25
ENDBRANCH  23  24
ENDBRANCH  22  23
ENDBRANCH  21  22
ENDBRANCH  20  21
ENDBRANCH  19  20
ENDBRANCH  18  19
ENDBRANCH   1  18
TORSDOF 28
ENDMDL
MODEL 3
REMARK VINA RESULT:    -6.044      1.705      4.114
REMARK INTER + INTRA:         -19.532
REMARK INTER:                 -15.717
REMARK INTRA:                  -3.815
REMARK UNBOUND:                -3.596
REMARK SMILES CCCCCCCCCCCCCCCCCCCCCCCCCCCCCC(=O)[O-]
REMARK SMILES IDX 16 1 17 2 18 3 19 4 20 5 21 6 22 7 23 8 24 9 25 10 26 11
REMARK SMILES IDX 27 12 28 13 29 14 30 15 31 16 32 17 15 18 14 19 13 20 12 21
REMARK SMILES IDX 11 22 10 23 9 24 8 25 7 26 6 27 5 28 4 29 3 30 2 31 1 32
REMARK H PARENT
REMARK Flexibility Score: inf
ROOT
ATOM      1  C   UNL     1      52.343  17.884   1.896  1.00  0.00     0.000 C 
ENDROOT
BRANCH   1   2
ATOM      2  C   UNL     1      53.221  16.852   2.637  1.00  0.00     0.000 C 
BRANCH   2   3
ATOM      3  C   UNL     1      54.742  17.107   2.559  1.00  0.00     0.000 C 
BRANCH   3   4
ATOM      4  C   UNL     1      55.224  17.913   1.338  1.00  0.00     0.000 C 
BRANCH   4   5
ATOM      5  C   UNL     1      56.028  17.073   0.334  1.00  0.00     0.000 C 
BRANCH   5   6
ATOM      6  C   UNL     1      55.457  17.217  -1.085  1.00  0.00     0.000 C 
BRANCH   6   7
ATOM      7  C   UNL     1      54.059  17.857  -1.102  1.00  0.00     0.000 C 
BRANCH   7   8
ATOM      8  C   UNL     1      52.964  16.876  -1.559  1.00  0.00     0.000 C 
BRANCH   8   9
ATOM      9  C   UNL     1      53.496  15.445  -1.744  1.00  0.00     0.000 C 
BRANCH   9  10
ATOM     10  C   UNL     1      53.350  14.591  -0.472  1.00  0.00     0.000 C 
BRANCH  10  11
ATOM     11  C   UNL     1      54.301  13.384  -0.465  1.00  0.00     0.000 C 
BRANCH  11  12
ATOM     12  C   UNL     1      55.543  13.617   0.414  1.00  0.00     0.000 C 
BRANCH  12  13
ATOM     13  C   UNL     1      56.817  12.969  -0.159  1.00  0.00     0.006 C 
BRANCH  13  14
ATOM     14  C   UNL     1      58.051  13.114   0.748  1.00  0.00     0.053 C 
BRANCH  14  15
ATOM     15  C   UNL     1      58.804  14.385   0.497  1.00  0.00     0.041 C 
ATOM     16  O   UNL     1      58.864  14.867  -0.665  1.00  0.00    -0.550 OA
ATOM     17  O   UNL     1      59.414  15.055   1.550  1.00  0.00    -0.550 OA
ENDBRANCH  14  15
ENDBRANCH  13  14
ENDBRANCH  12  13
ENDBRANCH  11  12
ENDBRANCH  10  11
ENDBRANCH   9  10
ENDBRANCH   8   9
ENDBRANCH   7   8
ENDBRANCH   6   7
ENDBRANCH   5   6
ENDBRANCH   4   5
ENDBRANCH   3   4
ENDBRANCH   2   3
ENDBRANCH   1   2
BRANCH   1  18
ATOM     18  C   UNL     1      51.106  18.350   2.688  1.00  0.00     0.000 C 
BRANCH  18  19
ATOM     19  C   UNL     1      50.178  19.297   1.900  1.00  0.00     0.000 C 
BRANCH  19  20
ATOM     20  C   UNL     1      49.712  18.675   0.572  1.00  0.00     0.000 C 
BRANCH  20  21
ATOM     21  C   UNL     1      50.126  19.505  -0.654  1.00  0.00     0.000 C 
BRANCH  21  22
ATOM     22  C   UNL     1      49.063  19.490  -1.764  1.00  0.00     0.000 C 
BRANCH  22  23
ATOM     23  C   UNL     1      47.875  20.426  -1.470  1.00  0.00     0.000 C 
BRANCH  23  24
ATOM     24  C   UNL     1      46.625  20.190  -2.335  1.00  0.00    -0.000 C 
BRANCH  24  25
ATOM     25  C   UNL     1      45.364  20.856  -1.765  1.00  0.00    -0.000 C 
BRANCH  25  26
ATOM     26  C   UNL     1      45.110  22.216  -2.428  1.00  0.00    -0.000 C 
BRANCH  26  27
ATOM     27  C   UNL     1      44.249  23.113  -1.532  1.00  0.00    -0.000 C 
BRANCH  27  28
ATOM     28  C   UNL     1      43.906  22.406  -0.212  1.00  0.00    -0.000 C 
BRANCH  28  29
ATOM     29  C   UNL     1      44.125  23.299   1.022  1.00  0.00    -0.000 C 
BRANCH  29  30
ATOM     30  C   UNL     1      45.028  22.693   2.112  1.00  0.00    -0.000 C 
BRANCH  30  31
ATOM     31  C   UNL     1      46.278  22.007   1.541  1.00  0.00    -0.003 C 
ATOM     32  C   UNL     1      46.320  20.532   1.928  1.00  0.00     0.004 C 
ENDBRANCH  30  31
ENDBRANCH  29  30
ENDBRANCH  28  29
ENDBRANCH  27  28
ENDBRANCH  26  27
ENDBRANCH  25  26
ENDBRANCH  24  25
ENDBRANCH  23  24
ENDBRANCH  22  23
ENDBRANCH  21  22
ENDBRANCH  20  21
ENDBRANCH  19  20
ENDBRANCH  18  19
ENDBRANCH   1  18
TORSDOF 28
ENDMDL
MODEL 4
REMARK VINA RESULT:    -6.020      4.619     11.759
REMARK INTER + INTRA:         -19.469
REMARK INTER:                 -15.709
REMARK INTRA:                  -3.760
REMARK UNBOUND:                -3.596
REMARK SMILES CCCCCCCCCCCCCCCCCCCCCCCCCCCCCC(=O)[O-]
REMARK SMILES IDX 16 1 17 2 18 3 19 4 20 5 21 6 22 7 23 8 24 9 25 10 26 11
REMARK SMILES IDX 27 12 28 13 29 14 30 15 31 16 32 17 15 18 14 19 13 20 12 21
REMARK SMILES IDX 11 22 10 23 9 24 8 25 7 26 6 27 5 28 4 29 3 30 2 31 1 32
REMARK H PARENT
REMARK Flexibility Score: inf
ROOT
ATOM      1  C   UNL     1      52.985  16.838   1.966  1.00  0.00     0.000 C 
ENDROOT
BRANCH   1   2
ATOM      2  C   UNL     1      52.745  15.325   1.771  1.00  0.00     0.000 C 
BRANCH   2   3
ATOM      3  C   UNL     1      54.007  14.495   1.446  1.00  0.00     0.000 C 
BRANCH   3   4
ATOM      4  C   UNL     1      54.157  14.054  -0.022  1.00  0.00     0.000 C 
BRANCH   4   5
ATOM      5  C   UNL     1      53.052  14.602  -0.938  1.00  0.00     0.000 C 
BRANCH   5   6
ATOM      6  C   UNL     1      53.614  15.644  -1.917  1.00  0.00     0.000 C 
BRANCH   6   7
ATOM      7  C   UNL     1      53.211  17.081  -1.552  1.00  0.00     0.000 C 
BRANCH   7   8
ATOM      8  C   UNL     1      51.768  17.416  -1.970  1.00  0.00     0.000 C 
BRANCH   8   9
ATOM      9  C   UNL     1      51.281  18.753  -1.388  1.00  0.00     0.000 C 
BRANCH   9  10
ATOM     10  C   UNL     1      49.902  18.639  -0.715  1.00  0.00     0.000 C 
BRANCH  10  11
ATOM     11  C   UNL     1      50.005  18.257   0.770  1.00  0.00     0.000 C 
BRANCH  11  12
ATOM     12  C   UNL     1      50.270  19.473   1.675  1.00  0.00     0.000 C 
BRANCH  12  13
ATOM     13  C   UNL     1      49.085  19.806   2.601  1.00  0.00     0.006 C 
BRANCH  13  14
ATOM     14  C   UNL     1      47.836  20.306   1.856  1.00  0.00     0.053 C 
BRANCH  14  15
ATOM     15  C   UNL     1      47.025  21.266   2.671  1.00  0.00     0.041 C 
ATOM     16  O   UNL     1      47.333  22.488   2.703  1.00  0.00    -0.550 OA
ATOM     17  O   UNL     1      45.910  20.822   3.372  1.00  0.00    -0.550 OA
ENDBRANCH  14  15
ENDBRANCH  13  14
ENDBRANCH  12  13
ENDBRANCH  11  12
ENDBRANCH  10  11
ENDBRANCH   9  10
ENDBRANCH   8   9
ENDBRANCH   7   8
ENDBRANCH   6   7
ENDBRANCH   5   6
ENDBRANCH   4   5
ENDBRANCH   3   4
ENDBRANCH   2   3
ENDBRANCH   1   2
BRANCH   1  18
ATOM     18  C   UNL     1      54.429  17.205   2.360  1.00  0.00     0.000 C 
BRANCH  18  19
ATOM     19  C   UNL     1      55.237  17.869   1.226  1.00  0.00     0.000 C 
BRANCH  19  20
ATOM     20  C   UNL     1      56.710  17.423   1.228  1.00  0.00     0.000 C 
BRANCH  20  21
ATOM     21  C   UNL     1      56.994  16.297   0.222  1.00  0.00     0.000 C 
BRANCH  21  22
ATOM     22  C   UNL     1      58.382  15.665   0.420  1.00  0.00     0.000 C 
BRANCH  22  23
ATOM     23  C   UNL     1      58.511  14.280  -0.241  1.00  0.00     0.000 C 
BRANCH  23  24
ATOM     24  C   UNL     1      57.892  13.115   0.551  1.00  0.00    -0.000 C 
BRANCH  24  25
ATOM     25  C   UNL     1      57.319  12.012  -0.351  1.00  0.00    -0.000 C 
BRANCH  25  26
ATOM     26  C   UNL     1      58.280  10.821  -0.445  1.00  0.00    -0.000 C 
BRANCH  26  27
ATOM     27  C   UNL     1      58.903  10.508   0.920  1.00  0.00    -0.000 C 
BRANCH  27  28
ATOM     28  C   UNL     1      60.381  10.116   0.775  1.00  0.00    -0.000 C 
BRANCH  28  29
ATOM     29  C   UNL     1      61.192  11.128  -0.053  1.00  0.00    -0.000 C 
BRANCH  29  30
ATOM     30  C   UNL     1      61.623  12.395   0.710  1.00  0.00    -0.000 C 
BRANCH  30  31
ATOM     31  C   UNL     1      63.022  12.274   1.331  1.00  0.00    -0.003 C 
ATOM     32  C   UNL     1      63.286  13.408   2.317  1.00  0.00     0.004 C 
ENDBRANCH  30  31
ENDBRANCH  29  30
ENDBRANCH  28  29
ENDBRANCH  27  28
ENDBRANCH  26  27
ENDBRANCH  25  26
ENDBRANCH  24  25
ENDBRANCH  23  24
ENDBRANCH  22  23
ENDBRANCH  21  22
ENDBRANCH  20  21
ENDBRANCH  19  20
ENDBRANCH  18  19
ENDBRANCH   1  18
TORSDOF 28
ENDMDL
MODEL 5
REMARK VINA RESULT:    -5.984      3.903     11.789
REMARK INTER + INTRA:         -19.375
REMARK INTER:                 -15.315
REMARK INTRA:                  -4.060
REMARK UNBOUND:                -3.596
REMARK SMILES CCCCCCCCCCCCCCCCCCCCCCCCCCCCCC(=O)[O-]
REMARK SMILES IDX 16 1 17 2 18 3 19 4 20 5 21 6 22 7 23 8 24 9 25 10 26 11
REMARK SMILES IDX 27 12 28 13 29 14 30 15 31 16 32 17 15 18 14 19 13 20 12 21
REMARK SMILES IDX 11 22 10 23 9 24 8 25 7 26 6 27 5 28 4 29 3 30 2 31 1 32
REMARK H PARENT
REMARK Flexibility Score: inf
ROOT
ATOM      1  C   UNL     1      53.649  13.574  -0.021  1.00  0.00     0.000 C 
ENDROOT
BRANCH   1   2
ATOM      2  C   UNL     1      52.879  14.511  -0.977  1.00  0.00     0.000 C 
BRANCH   2   3
ATOM      3  C   UNL     1      53.745  15.560  -1.708  1.00  0.00     0.000 C 
BRANCH   3   4
ATOM      4  C   UNL     1      53.300  17.026  -1.542  1.00  0.00     0.000 C 
BRANCH   4   5
ATOM      5  C   UNL     1      54.426  17.951  -1.054  1.00  0.00     0.000 C 
BRANCH   5   6
ATOM      6  C   UNL     1      55.717  17.159  -0.799  1.00  0.00     0.000 C 
BRANCH   6   7
ATOM      7  C   UNL     1      56.191  17.248   0.661  1.00  0.00     0.000 C 
BRANCH   7   8
ATOM      8  C   UNL     1      55.165  17.939   1.576  1.00  0.00     0.000 C 
BRANCH   8   9
ATOM      9  C   UNL     1      54.484  16.958   2.544  1.00  0.00     0.000 C 
BRANCH   9  10
ATOM     10  C   UNL     1      53.034  16.637   2.138  1.00  0.00     0.000 C 
BRANCH  10  11
ATOM     11  C   UNL     1      52.132  17.881   2.157  1.00  0.00     0.000 C 
BRANCH  11  12
ATOM     12  C   UNL     1      50.994  17.800   1.124  1.00  0.00     0.000 C 
BRANCH  12  13
ATOM     13  C   UNL     1      50.278  19.147   0.909  1.00  0.00     0.006 C 
BRANCH  13  14
ATOM     14  C   UNL     1      49.498  19.233  -0.413  1.00  0.00     0.053 C 
BRANCH  14  15
ATOM     15  C   UNL     1      50.397  19.375  -1.604  1.00  0.00     0.041 C 
ATOM     16  O   UNL     1      51.386  20.153  -1.561  1.00  0.00    -0.550 OA
ATOM     17  O   UNL     1      50.162  18.626  -2.750  1.00  0.00    -0.550 OA
ENDBRANCH  14  15
ENDBRANCH  13  14
ENDBRANCH  12  13
ENDBRANCH  11  12
ENDBRANCH  10  11
ENDBRANCH   9  10
ENDBRANCH   8   9
ENDBRANCH   7   8
ENDBRANCH   6   7
ENDBRANCH   5   6
ENDBRANCH   4   5
ENDBRANCH   3   4
ENDBRANCH   2   3
ENDBRANCH   1   2
BRANCH   1  18
ATOM     18  C   UNL     1      55.175  13.790  -0.013  1.00  0.00     0.000 C 
BRANCH  18  19
ATOM     19  C   UNL     1      55.988  12.522  -0.345  1.00  0.00     0.000 C 
BRANCH  19  20
ATOM     20  C   UNL     1      57.432  12.609   0.180  1.00  0.00     0.000 C 
BRANCH  20  21
ATOM     21  C   UNL     1      57.921  14.057   0.347  1.00  0.00     0.000 C 
BRANCH  21  22
ATOM     22  C   UNL     1      59.454  14.164   0.361  1.00  0.00     0.000 C 
BRANCH  22  23
ATOM     23  C   UNL     1      59.987  15.282  -0.555  1.00  0.00     0.000 C 
BRANCH  23  24
ATOM     24  C   UNL     1      61.302  14.958  -1.286  1.00  0.00    -0.000 C 
BRANCH  24  25
ATOM     25  C   UNL     1      61.851  13.565  -0.947  1.00  0.00    -0.000 C 
BRANCH  25  26
ATOM     26  C   UNL     1      63.201  13.664  -0.224  1.00  0.00    -0.000 C 
BRANCH  26  27
ATOM     27  C   UNL     1      63.375  12.514   0.775  1.00  0.00    -0.000 C 
BRANCH  27  28
ATOM     28  C   UNL     1      62.072  11.718   0.931  1.00  0.00    -0.000 C 
BRANCH  28  29
ATOM     29  C   UNL     1      62.152  10.309   0.316  1.00  0.00    -0.000 C 
BRANCH  29  30
ATOM     30  C   UNL     1      61.030   9.971  -0.684  1.00  0.00    -0.000 C 
BRANCH  30  31
ATOM     31  C   UNL     1      61.087   8.518  -1.180  1.00  0.00    -0.003 C 
ATOM     32  C   UNL     1      60.958   7.537  -0.019  1.00  0.00     0.004 C 
ENDBRANCH  30  31
ENDBRANCH  29  30
ENDBRANCH  28  29
ENDBRANCH  27  28
ENDBRANCH  26  27
ENDBRANCH  25  26
ENDBRANCH  24  25
ENDBRANCH  23  24
ENDBRANCH  22  23
ENDBRANCH  21  22
ENDBRANCH  20  21
ENDBRANCH  19  20
ENDBRANCH  18  19
ENDBRANCH   1  18
TORSDOF 28
ENDMDL
MODEL 6
REMARK VINA RESULT:    -5.972      1.410      3.098
REMARK INTER + INTRA:         -19.344
REMARK INTER:                 -15.051
REMARK INTRA:                  -4.293
REMARK UNBOUND:                -3.596
REMARK SMILES CCCCCCCCCCCCCCCCCCCCCCCCCCCCCC(=O)[O-]
REMARK SMILES IDX 16 1 17 2 18 3 19 4 20 5 21 6 22 7 23 8 24 9 25 10 26 11
REMARK SMILES IDX 27 12 28 13 29 14 30 15 31 16 32 17 15 18 14 19 13 20 12 21
REMARK SMILES IDX 11 22 10 23 9 24 8 25 7 26 6 27 5 28 4 29 3 30 2 31 1 32
REMARK H PARENT
REMARK Flexibility Score: inf
ROOT
ATOM      1  C   UNL     1      54.093  14.057   0.196  1.00  0.00     0.000 C 
ENDROOT
BRANCH   1   2
ATOM      2  C   UNL     1      53.093  14.579  -0.858  1.00  0.00     0.000 C 
BRANCH   2   3
ATOM      3  C   UNL     1      53.651  15.650  -1.820  1.00  0.00     0.000 C 
BRANCH   3   4
ATOM      4  C   UNL     1      53.153  17.089  -1.582  1.00  0.00     0.000 C 
BRANCH   4   5
ATOM      5  C   UNL     1      54.253  18.040  -1.086  1.00  0.00     0.000 C 
BRANCH   5   6
ATOM      6  C   UNL     1      55.561  17.278  -0.825  1.00  0.00     0.000 C 
BRANCH   6   7
ATOM      7  C   UNL     1      56.090  17.475   0.605  1.00  0.00     0.000 C 
BRANCH   7   8
ATOM      8  C   UNL     1      57.365  16.659   0.883  1.00  0.00     0.000 C 
BRANCH   8   9
ATOM      9  C   UNL     1      57.658  15.630  -0.221  1.00  0.00     0.000 C 
BRANCH   9  10
ATOM     10  C   UNL     1      58.413  14.396   0.305  1.00  0.00     0.000 C 
BRANCH  10  11
ATOM     11  C   UNL     1      57.466  13.245   0.680  1.00  0.00     0.000 C 
BRANCH  11  12
ATOM     12  C   UNL     1      57.261  12.250  -0.476  1.00  0.00     0.000 C 
BRANCH  12  13
ATOM     13  C   UNL     1      57.750  10.828  -0.140  1.00  0.00     0.006 C 
BRANCH  13  14
ATOM     14  C   UNL     1      59.268  10.639  -0.294  1.00  0.00     0.053 C 
BRANCH  14  15
ATOM     15  C   UNL     1      59.856   9.789   0.790  1.00  0.00     0.041 C 
ATOM     16  O   UNL     1      61.032   9.350   0.683  1.00  0.00    -0.550 OA
ATOM     17  O   UNL     1      59.120   9.504   1.933  1.00  0.00    -0.550 OA
ENDBRANCH  14  15
ENDBRANCH  13  14
ENDBRANCH  12  13
ENDBRANCH  11  12
ENDBRANCH  10  11
ENDBRANCH   9  10
ENDBRANCH   8   9
ENDBRANCH   7   8
ENDBRANCH   6   7
ENDBRANCH   5   6
ENDBRANCH   4   5
ENDBRANCH   3   4
ENDBRANCH   2   3
ENDBRANCH   1   2
BRANCH   1  18
ATOM     18  C   UNL     1      53.979  14.740   1.573  1.00  0.00     0.000 C 
BRANCH  18  19
ATOM     19  C   UNL     1      52.758  15.672   1.709  1.00  0.00     0.000 C 
BRANCH  19  20
ATOM     20  C   UNL     1      53.158  17.083   2.175  1.00  0.00     0.000 C 
BRANCH  20  21
ATOM     21  C   UNL     1      51.999  17.843   2.841  1.00  0.00     0.000 C 
BRANCH  21  22
ATOM     22  C   UNL     1      50.865  18.170   1.856  1.00  0.00     0.000 C 
BRANCH  22  23
ATOM     23  C   UNL     1      49.466  18.045   2.488  1.00  0.00     0.000 C 
BRANCH  23  24
ATOM     24  C   UNL     1      48.392  18.971   1.891  1.00  0.00    -0.000 C 
BRANCH  24  25
ATOM     25  C   UNL     1      48.349  20.353   2.560  1.00  0.00    -0.000 C 
BRANCH  25  26
ATOM     26  C   UNL     1      47.425  21.309   1.794  1.00  0.00    -0.000 C 
BRANCH  26  27
ATOM     27  C   UNL     1      47.101  20.760   0.400  1.00  0.00    -0.000 C 
BRANCH  27  28
ATOM     28  C   UNL     1      47.537  21.745  -0.695  1.00  0.00    -0.000 C 
BRANCH  28  29
ATOM     29  C   UNL     1      48.303  21.065  -1.843  1.00  0.00    -0.000 C 
BRANCH  29  30
ATOM     30  C   UNL     1      48.327  19.526  -1.787  1.00  0.00    -0.000 C 
BRANCH  30  31
ATOM     31  C   UNL     1      49.749  18.947  -1.840  1.00  0.00    -0.003 C 
ATOM     32  C   UNL     1      50.785  19.997  -1.450  1.00  0.00     0.004 C 
ENDBRANCH  30  31
ENDBRANCH  29  30
ENDBRANCH  28  29
ENDBRANCH  27  28
ENDBRANCH  26  27
ENDBRANCH  25  26
ENDBRANCH  24  25
ENDBRANCH  23  24
ENDBRANCH  22  23
ENDBRANCH  21  22
ENDBRANCH  20  21
ENDBRANCH  19  20
ENDBRANCH  18  19
ENDBRANCH   1  18
TORSDOF 28
ENDMDL
MODEL 7
REMARK VINA RESULT:    -5.969      1.609      3.920
REMARK INTER + INTRA:         -19.335
REMARK INTER:                 -15.454
REMARK INTRA:                  -3.881
REMARK UNBOUND:                -3.596
REMARK SMILES CCCCCCCCCCCCCCCCCCCCCCCCCCCCCC(=O)[O-]
REMARK SMILES IDX 16 1 17 2 18 3 19 4 20 5 21 6 22 7 23 8 24 9 25 10 26 11
REMARK SMILES IDX 27 12 28 13 29 14 30 15 31 16 32 17 15 18 14 19 13 20 12 21
REMARK SMILES IDX 11 22 10 23 9 24 8 25 7 26 6 27 5 28 4 29 3 30 2 31 1 32
REMARK H PARENT
REMARK Flexibility Score: inf
ROOT
ATOM      1  C   UNL     1      55.021  17.852   1.707  1.00  0.00     0.000 C 
ENDROOT
BRANCH   1   2
ATOM      2  C   UNL     1      56.078  17.314   0.717  1.00  0.00     0.000 C 
BRANCH   2   3
ATOM      3  C   UNL     1      55.590  17.145  -0.738  1.00  0.00     0.000 C 
BRANCH   3   4
ATOM      4  C   UNL     1      54.293  17.894  -1.100  1.00  0.00     0.000 C 
BRANCH   4   5
ATOM      5  C   UNL     1      53.154  16.960  -1.538  1.00  0.00     0.000 C 
BRANCH   5   6
ATOM      6  C   UNL     1      53.669  15.531  -1.760  1.00  0.00     0.000 C 
BRANCH   6   7
ATOM      7  C   UNL     1      53.036  14.513  -0.798  1.00  0.00     0.000 C 
BRANCH   7   8
ATOM      8  C   UNL     1      53.997  13.368  -0.430  1.00  0.00     0.000 C 
BRANCH   8   9
ATOM      9  C   UNL     1      55.091  13.812   0.554  1.00  0.00     0.000 C 
BRANCH   9  10
ATOM     10  C   UNL     1      56.463  13.195   0.230  1.00  0.00     0.000 C 
BRANCH  10  11
ATOM     11  C   UNL     1      56.353  11.734  -0.237  1.00  0.00     0.000 C 
BRANCH  11  12
ATOM     12  C   UNL     1      57.694  11.175  -0.745  1.00  0.00     0.000 C 
BRANCH  12  13
ATOM     13  C   UNL     1      58.663  10.805   0.394  1.00  0.00     0.006 C 
BRANCH  13  14
ATOM     14  C   UNL     1      60.136  11.117   0.083  1.00  0.00     0.053 C 
BRANCH  14  15
ATOM     15  C   UNL     1      60.916   9.895  -0.296  1.00  0.00     0.041 C 
ATOM     16  O   UNL     1      60.371   8.978  -0.967  1.00  0.00    -0.550 OA
ATOM     17  O   UNL     1      62.253   9.779   0.064  1.00  0.00    -0.550 OA
ENDBRANCH  14  15
ENDBRANCH  13  14
ENDBRANCH  12  13
ENDBRANCH  11  12
ENDBRANCH  10  11
ENDBRANCH   9  10
ENDBRANCH   8   9
ENDBRANCH   7   8
ENDBRANCH   6   7
ENDBRANCH   5   6
ENDBRANCH   4   5
ENDBRANCH   3   4
ENDBRANCH   2   3
ENDBRANCH   1   2
BRANCH   1  18
ATOM     18  C   UNL     1      54.223  16.756   2.439  1.00  0.00     0.000 C 
BRANCH  18  19
ATOM     19  C   UNL     1      52.715  16.759   2.116  1.00  0.00     0.000 C 
BRANCH  19  20
ATOM     20  C   UNL     1      52.127  18.181   2.115  1.00  0.00     0.000 C 
BRANCH  20  21
ATOM     21  C   UNL     1      50.653  18.218   2.550  1.00  0.00     0.000 C 
BRANCH  21  22
ATOM     22  C   UNL     1      49.736  18.827   1.477  1.00  0.00     0.000 C 
BRANCH  22  23
ATOM     23  C   UNL     1      50.449  19.042   0.129  1.00  0.00     0.000 C 
BRANCH  23  24
ATOM     24  C   UNL     1      49.874  18.240  -1.052  1.00  0.00    -0.000 C 
BRANCH  24  25
ATOM     25  C   UNL     1      49.369  19.132  -2.195  1.00  0.00    -0.000 C 
BRANCH  25  26
ATOM     26  C   UNL     1      48.028  19.784  -1.835  1.00  0.00    -0.000 C 
BRANCH  26  27
ATOM     27  C   UNL     1      48.152  21.312  -1.797  1.00  0.00    -0.000 C 
BRANCH  27  28
ATOM     28  C   UNL     1      47.280  21.908  -0.682  1.00  0.00    -0.000 C 
BRANCH  28  29
ATOM     29  C   UNL     1      47.039  20.928   0.481  1.00  0.00    -0.000 C 
BRANCH  29  30
ATOM     30  C   UNL     1      46.937  21.581   1.872  1.00  0.00    -0.000 C 
BRANCH  30  31
ATOM     31  C   UNL     1      46.326  20.649   2.928  1.00  0.00    -0.003 C 
ATOM     32  C   UNL     1      45.087  21.274   3.562  1.00  0.00     0.004 C 
ENDBRANCH  30  31
ENDBRANCH  29  30
ENDBRANCH  28  29
ENDBRANCH  27  28
ENDBRANCH  26  27
ENDBRANCH  25  26
ENDBRANCH  24  25
ENDBRANCH  23  24
ENDBRANCH  22  23
ENDBRANCH  21  22
ENDBRANCH  20  21
ENDBRANCH  19  20
ENDBRANCH  18  19
ENDBRANCH   1  18
TORSDOF 28
ENDMDL
MODEL 8
REMARK VINA RESULT:    -5.915      1.682      3.597
REMARK INTER + INTRA:         -19.193
REMARK INTER:                 -15.333
REMARK INTRA:                  -3.860
REMARK UNBOUND:                -3.596
REMARK SMILES CCCCCCCCCCCCCCCCCCCCCCCCCCCCCC(=O)[O-]
REMARK SMILES IDX 16 1 17 2 18 3 19 4 20 5 21 6 22 7 23 8 24 9 25 10 26 11
REMARK SMILES IDX 27 12 28 13 29 14 30 15 31 16 32 17 15 18 14 19 13 20 12 21
REMARK SMILES IDX 11 22 10 23 9 24 8 25 7 26 6 27 5 28 4 29 3 30 2 31 1 32
REMARK H PARENT
REMARK Flexibility Score: inf
ROOT
ATOM      1  C   UNL     1      55.123  17.883   1.481  1.00  0.00     0.000 C 
ENDROOT
BRANCH   1   2
ATOM      2  C   UNL     1      55.937  17.181   0.371  1.00  0.00     0.000 C 
BRANCH   2   3
ATOM      3  C   UNL     1      55.367  17.331  -1.056  1.00  0.00     0.000 C 
BRANCH   3   4
ATOM      4  C   UNL     1      53.868  17.010  -1.215  1.00  0.00     0.000 C 
BRANCH   4   5
ATOM      5  C   UNL     1      53.604  15.608  -1.785  1.00  0.00     0.000 C 
BRANCH   5   6
ATOM      6  C   UNL     1      53.236  14.620  -0.666  1.00  0.00     0.000 C 
BRANCH   6   7
ATOM      7  C   UNL     1      54.283  13.509  -0.487  1.00  0.00     0.000 C 
BRANCH   7   8
ATOM      8  C   UNL     1      55.216  13.762   0.711  1.00  0.00     0.000 C 
BRANCH   8   9
ATOM      9  C   UNL     1      56.453  12.848   0.697  1.00  0.00     0.000 C 
BRANCH   9  10
ATOM     10  C   UNL     1      57.617  13.441  -0.115  1.00  0.00     0.000 C 
BRANCH  10  11
ATOM     11  C   UNL     1      58.150  14.749   0.494  1.00  0.00     0.000 C 
BRANCH  11  12
ATOM     12  C   UNL     1      59.568  14.596   1.071  1.00  0.00     0.000 C 
BRANCH  12  13
ATOM     13  C   UNL     1      60.407  13.534   0.336  1.00  0.00     0.006 C 
BRANCH  13  14
ATOM     14  C   UNL     1      61.923  13.686   0.542  1.00  0.00     0.053 C 
BRANCH  14  15
ATOM     15  C   UNL     1      62.543  12.477   1.174  1.00  0.00     0.041 C 
ATOM     16  O   UNL     1      63.411  12.609   2.078  1.00  0.00    -0.550 OA
ATOM     17  O   UNL     1      62.142  11.204   0.790  1.00  0.00    -0.550 OA
ENDBRANCH  14  15
ENDBRANCH  13  14
ENDBRANCH  12  13
ENDBRANCH  11  12
ENDBRANCH  10  11
ENDBRANCH   9  10
ENDBRANCH   8   9
ENDBRANCH   7   8
ENDBRANCH   6   7
ENDBRANCH   5   6
ENDBRANCH   4   5
ENDBRANCH   3   4
ENDBRANCH   2   3
ENDBRANCH   1   2
BRANCH   1  18
ATOM     18  C   UNL     1      54.259  16.931   2.331  1.00  0.00     0.000 C 
BRANCH  18  19
ATOM     19  C   UNL     1      52.889  17.517   2.727  1.00  0.00     0.000 C 
BRANCH  19  20
ATOM     20  C   UNL     1      51.826  17.289   1.638  1.00  0.00     0.000 C 
BRANCH  20  21
ATOM     21  C   UNL     1      50.452  17.870   2.012  1.00  0.00     0.000 C 
BRANCH  21  22
ATOM     22  C   UNL     1      50.540  19.326   2.495  1.00  0.00     0.000 C 
BRANCH  22  23
ATOM     23  C   UNL     1      49.167  20.021   2.560  1.00  0.00     0.000 C 
BRANCH  23  24
ATOM     24  C   UNL     1      47.955  19.101   2.329  1.00  0.00    -0.000 C 
BRANCH  24  25
ATOM     25  C   UNL     1      46.629  19.868   2.217  1.00  0.00    -0.000 C 
BRANCH  25  26
ATOM     26  C   UNL     1      46.798  21.141   1.376  1.00  0.00    -0.000 C 
BRANCH  26  27
ATOM     27  C   UNL     1      46.670  20.831  -0.120  1.00  0.00    -0.000 C 
BRANCH  27  28
ATOM     28  C   UNL     1      47.557  21.767  -0.954  1.00  0.00    -0.000 C 
BRANCH  28  29
ATOM     29  C   UNL     1      48.635  21.015  -1.755  1.00  0.00    -0.000 C 
BRANCH  29  30
ATOM     30  C   UNL     1      48.457  19.486  -1.810  1.00  0.00    -0.000 C 
BRANCH  30  31
ATOM     31  C   UNL     1      49.704  18.720  -1.346  1.00  0.00    -0.003 C 
ATOM     32  C   UNL     1      50.924  19.635  -1.296  1.00  0.00     0.004 C 
ENDBRANCH  30  31
ENDBRANCH  29  30
ENDBRANCH  28  29
ENDBRANCH  27  28
ENDBRANCH  26  27
ENDBRANCH  25  26
ENDBRANCH  24  25
ENDBRANCH  23  24
ENDBRANCH  22  23
ENDBRANCH  21  22
ENDBRANCH  20  21
ENDBRANCH  19  20
ENDBRANCH  18  19
ENDBRANCH   1  18
TORSDOF 28
ENDMDL
MODEL 9
REMARK VINA RESULT:    -5.903      1.433      4.469
REMARK INTER + INTRA:         -19.162
REMARK INTER:                 -15.179
REMARK INTRA:                  -3.983
REMARK UNBOUND:                -3.596
REMARK SMILES CCCCCCCCCCCCCCCCCCCCCCCCCCCCCC(=O)[O-]
REMARK SMILES IDX 16 1 17 2 18 3 19 4 20 5 21 6 22 7 23 8 24 9 25 10 26 11
REMARK SMILES IDX 27 12 28 13 29 14 30 15 31 16 32 17 15 18 14 19 13 20 12 21
REMARK SMILES IDX 11 22 10 23 9 24 8 25 7 26 6 27 5 28 4 29 3 30 2 31 1 32
REMARK H PARENT
REMARK Flexibility Score: inf
ROOT
ATOM      1  C   UNL     1      49.610  17.869   2.261  1.00  0.00     0.000 C 
ENDROOT
BRANCH   1   2
ATOM      2  C   UNL     1      50.968  17.839   1.525  1.00  0.00     0.000 C 
BRANCH   2   3
ATOM      3  C   UNL     1      52.212  17.827   2.441  1.00  0.00     0.000 C 
BRANCH   3   4
ATOM      4  C   UNL     1      53.190  16.656   2.224  1.00  0.00     0.000 C 
BRANCH   4   5
ATOM      5  C   UNL     1      54.661  17.046   2.432  1.00  0.00     0.000 C 
BRANCH   5   6
ATOM      6  C   UNL     1      55.137  18.007   1.332  1.00  0.00     0.000 C 
BRANCH   6   7
ATOM      7  C   UNL     1      55.241  17.330  -0.044  1.00  0.00     0.000 C 
BRANCH   7   8
ATOM      8  C   UNL     1      54.274  17.935  -1.078  1.00  0.00     0.000 C 
BRANCH   8   9
ATOM      9  C   UNL     1      53.119  16.983  -1.431  1.00  0.00     0.000 C 
BRANCH   9  10
ATOM     10  C   UNL     1      53.607  15.567  -1.785  1.00  0.00     0.000 C 
BRANCH  10  11
ATOM     11  C   UNL     1      53.136  14.513  -0.770  1.00  0.00     0.000 C 
BRANCH  11  12
ATOM     12  C   UNL     1      54.204  13.441  -0.494  1.00  0.00     0.000 C 
BRANCH  12  13
ATOM     13  C   UNL     1      55.197  13.849   0.610  1.00  0.00     0.006 C 
BRANCH  13  14
ATOM     14  C   UNL     1      56.671  13.627   0.235  1.00  0.00     0.053 C 
BRANCH  14  15
ATOM     15  C   UNL     1      57.073  12.186   0.302  1.00  0.00     0.041 C 
ATOM     16  O   UNL     1      57.653  11.643  -0.676  1.00  0.00    -0.550 OA
ATOM     17  O   UNL     1      56.836  11.447   1.454  1.00  0.00    -0.550 OA
ENDBRANCH  14  15
ENDBRANCH  13  14
ENDBRANCH  12  13
ENDBRANCH  11  12
ENDBRANCH  10  11
ENDBRANCH   9  10
ENDBRANCH   8   9
ENDBRANCH   7   8
ENDBRANCH   6   7
ENDBRANCH   5   6
ENDBRANCH   4   5
ENDBRANCH   3   4
ENDBRANCH   2   3
ENDBRANCH   1   2
BRANCH   1  18
ATOM     18  C   UNL     1      48.722  19.076   1.905  1.00  0.00     0.000 C 
BRANCH  18  19
ATOM     19  C   UNL     1      49.173  20.399   2.556  1.00  0.00     0.000 C 
BRANCH  19  20
ATOM     20  C   UNL     1      47.978  21.268   2.987  1.00  0.00     0.000 C 
BRANCH  20  21
ATOM     21  C   UNL     1      46.866  21.322   1.928  1.00  0.00     0.000 C 
BRANCH  21  22
ATOM     22  C   UNL     1      45.471  21.513   2.545  1.00  0.00     0.000 C 
BRANCH  22  23
ATOM     23  C   UNL     1      44.518  22.316   1.640  1.00  0.00     0.000 C 
BRANCH  23  24
ATOM     24  C   UNL     1      45.058  22.627   0.232  1.00  0.00    -0.000 C 
BRANCH  24  25
ATOM     25  C   UNL     1      44.094  22.208  -0.888  1.00  0.00    -0.000 C 
BRANCH  25  26
ATOM     26  C   UNL     1      44.689  22.511  -2.269  1.00  0.00    -0.000 C 
BRANCH  26  27
ATOM     27  C   UNL     1      46.148  22.051  -2.353  1.00  0.00    -0.000 C 
BRANCH  27  28
ATOM     28  C   UNL     1      46.260  20.533  -2.144  1.00  0.00    -0.000 C 
BRANCH  28  29
ATOM     29  C   UNL     1      47.638  20.101  -1.610  1.00  0.00    -0.000 C 
BRANCH  29  30
ATOM     30  C   UNL     1      48.296  18.938  -2.377  1.00  0.00    -0.000 C 
BRANCH  30  31
ATOM     31  C   UNL     1      49.671  18.552  -1.813  1.00  0.00    -0.003 C 
ATOM     32  C   UNL     1      50.618  19.749  -1.803  1.00  0.00     0.004 C 
ENDBRANCH  30  31
ENDBRANCH  29  30
ENDBRANCH  28  29
ENDBRANCH  27  28
ENDBRANCH  26  27
ENDBRANCH  25  26
ENDBRANCH  24  25
ENDBRANCH  23  24
ENDBRANCH  22  23
ENDBRANCH  21  22
ENDBRANCH  20  21
ENDBRANCH  19  20
ENDBRANCH  18  19
ENDBRANCH   1  18
TORSDOF 28
ENDMDL
