MODEL 1
REMARK VINA RESULT:    -5.260      0.000      0.000
REMARK INTER + INTRA:          -8.088
REMARK INTER:                  -8.027
REMARK INTRA:                  -0.061
REMARK UNBOUND:                -0.061
REMARK SMILES CC1=CCC[C@H](C)C(=O)C[C@H](C(C)C)C(=O)C1
REMARK SMILES IDX 8 1 9 2 6 3 7 4 5 5 4 6 3 7 2 8 1 9 10 11 11 12 15 13 16 14
REMARK SMILES IDX 17 15 12 17 13 18 14 19
REMARK H PARENT
REMARK Flexibility Score: 70.00
ROOT
ATOM      1  C   UNL     1      13.417 -19.256 -29.567  1.00  0.00     0.136 C 
ATOM      2  O   UNL     1      13.249 -20.241 -28.864  1.00  0.00    -0.299 OA
ENDROOT
BRANCH   1   3
ATOM      3  C   UNL     1      13.375 -19.330 -31.106  1.00  0.00     0.053 C 
ATOM      4  C   UNL     1      12.444 -20.468 -31.550  1.00  0.00     0.016 C 
BRANCH   3   5
ATOM      5  C   UNL     1      12.932 -17.985 -31.809  1.00  0.00     0.015 C 
BRANCH   5   6
ATOM      6  C   UNL     1      11.452 -17.875 -32.341  1.00  0.00     0.028 C 
BRANCH   6   7
ATOM      7  C   UNL     1      10.674 -16.727 -31.683  1.00  0.00    -0.028 C 
ATOM      8  C   UNL     1      10.130 -16.637 -30.424  1.00  0.00    -0.070 CG0
ATOM      9  C   UNL     1       9.319 -15.404 -30.115  1.00  0.00     0.039 C 
ATOM     10  G   UNL     1      10.247 -17.677 -29.303  1.00  0.00     0.000 G0
ENDBRANCH   6   7
ENDBRANCH   5   6
ENDBRANCH   3   5
ENDBRANCH   1   3
BRANCH   1  11
ATOM     11  C   UNL     1      13.746 -17.941 -28.971  1.00  0.00     0.087 C 
BRANCH  11  12
ATOM     12  C   UNL     1      12.764 -16.804 -28.702  1.00  0.00     0.066 C 
BRANCH  12  13
ATOM     13  C   UNL     1      11.399 -17.424 -28.295  1.00  0.00     0.140 C 
ATOM     14  O   UNL     1      11.181 -17.634 -27.112  1.00  0.00    -0.299 OA
BRANCH  13  15
ATOM     15  C   UNL     1      10.242 -17.683 -29.289  1.00  0.00     0.106 CG0
ATOM     16  G   UNL     1      10.123 -16.628 -30.396  1.00  0.00     0.000 G0
ENDBRANCH  13  15
ENDBRANCH  12  13
BRANCH  12  17
ATOM     17  C   UNL     1      13.350 -15.803 -27.658  1.00  0.00    -0.006 C 
ATOM     18  C   UNL     1      14.227 -16.514 -26.615  1.00  0.00     0.008 C 
ATOM     19  C   UNL     1      14.122 -14.628 -28.290  1.00  0.00     0.008 C 
ENDBRANCH  12  17
ENDBRANCH  11  12
ENDBRANCH   1  11
TORSDOF 1
ENDMDL
MODEL 2
REMARK VINA RESULT:    -4.924      2.244      4.878
REMARK INTER + INTRA:          -7.575
REMARK INTER:                  -7.354
REMARK INTRA:                  -0.221
REMARK UNBOUND:                -0.061
REMARK SMILES CC1=CCC[C@H](C)C(=O)C[C@H](C(C)C)C(=O)C1
REMARK SMILES IDX 8 1 9 2 6 3 7 4 5 5 4 6 3 7 2 8 1 9 10 11 11 12 15 13 16 14
REMARK SMILES IDX 17 15 12 17 13 18 14 19
REMARK H PARENT
REMARK Flexibility Score: 70.00
ROOT
ATOM      1  C   UNL     1      13.508 -16.209 -30.413  1.00  0.00     0.136 C 
ATOM      2  O   UNL     1      14.498 -15.790 -30.992  1.00  0.00    -0.299 OA
ENDROOT
BRANCH   1   3
ATOM      3  C   UNL     1      13.392 -16.200 -28.876  1.00  0.00     0.053 C 
ATOM      4  C   UNL     1      14.143 -14.990 -28.302  1.00  0.00     0.016 C 
BRANCH   3   5
ATOM      5  C   UNL     1      11.906 -16.201 -28.337  1.00  0.00     0.015 C 
BRANCH   5   6
ATOM      6  C   UNL     1      11.357 -17.518 -27.666  1.00  0.00     0.028 C 
BRANCH   6   7
ATOM      7  C   UNL     1      12.242 -18.738 -27.955  1.00  0.00    -0.028 C 
ATOM      8  C   UNL     1      12.254 -19.582 -29.041  1.00  0.00    -0.070 CG0
ATOM      9  C   UNL     1      13.179 -20.770 -28.974  1.00  0.00     0.039 C 
ATOM     10  G   UNL     1      11.403 -19.448 -30.310  1.00  0.00     0.000 G0
ENDBRANCH   6   7
ENDBRANCH   5   6
ENDBRANCH   3   5
ENDBRANCH   1   3
BRANCH   1  11
ATOM     11  C   UNL     1      12.388 -16.821 -31.163  1.00  0.00     0.087 C 
BRANCH  11  12
ATOM     12  C   UNL     1      12.507 -17.880 -32.256  1.00  0.00     0.066 C 
BRANCH  12  13
ATOM     13  C   UNL     1      12.186 -19.265 -31.630  1.00  0.00     0.140 C 
ATOM     14  O   UNL     1      12.670 -20.264 -32.139  1.00  0.00    -0.299 OA
BRANCH  13  15
ATOM     15  C   UNL     1      11.384 -19.450 -30.319  1.00  0.00     0.106 CG0
ATOM     16  G   UNL     1      12.258 -19.566 -29.065  1.00  0.00     0.000 G0
ENDBRANCH  13  15
ENDBRANCH  12  13
BRANCH  12  17
ATOM     17  C   UNL     1      11.618 -17.510 -33.484  1.00  0.00    -0.006 C 
ATOM     18  C   UNL     1      10.204 -17.087 -33.058  1.00  0.00     0.008 C 
ATOM     19  C   UNL     1      12.241 -16.439 -34.400  1.00  0.00     0.008 C 
ENDBRANCH  12  17
ENDBRANCH  11  12
ENDBRANCH   1  11
TORSDOF 1
ENDMDL
MODEL 3
REMARK VINA RESULT:    -4.834      2.367      4.892
REMARK INTER + INTRA:          -7.438
REMARK INTER:                  -7.290
REMARK INTRA:                  -0.148
REMARK UNBOUND:                -0.061
REMARK SMILES CC1=CCC[C@H](C)C(=O)C[C@H](C(C)C)C(=O)C1
REMARK SMILES IDX 8 1 9 2 6 3 7 4 5 5 4 6 3 7 2 8 1 9 10 11 11 12 15 13 16 14
REMARK SMILES IDX 17 15 12 17 13 18 14 19
REMARK H PARENT
REMARK Flexibility Score: 70.00
ROOT
ATOM      1  C   UNL     1       9.872 -16.062 -31.373  1.00  0.00     0.136 C 
ATOM      2  O   UNL     1       9.414 -15.085 -31.945  1.00  0.00    -0.299 OA
ENDROOT
BRANCH   1   3
ATOM      3  C   UNL     1       9.759 -16.246 -29.847  1.00  0.00     0.053 C 
ATOM      4  C   UNL     1       9.001 -17.544 -29.531  1.00  0.00     0.016 C 
BRANCH   3   5
ATOM      5  C   UNL     1      11.146 -16.250 -29.089  1.00  0.00     0.015 C 
BRANCH   5   6
ATOM      6  C   UNL     1      11.337 -17.259 -27.892  1.00  0.00     0.028 C 
BRANCH   6   7
ATOM      7  C   UNL     1      12.532 -18.200 -28.099  1.00  0.00    -0.028 C 
ATOM      8  C   UNL     1      12.689 -19.245 -28.979  1.00  0.00    -0.070 CG0
ATOM      9  C   UNL     1      13.954 -20.056 -28.859  1.00  0.00     0.039 C 
ATOM     10  G   UNL     1      11.696 -19.684 -30.062  1.00  0.00     0.000 G0
ENDBRANCH   6   7
ENDBRANCH   5   6
ENDBRANCH   3   5
ENDBRANCH   1   3
BRANCH   1  11
ATOM     11  C   UNL     1      10.631 -17.094 -32.115  1.00  0.00     0.087 C 
BRANCH  11  12
ATOM     12  C   UNL     1      12.040 -17.583 -31.790  1.00  0.00     0.066 C 
BRANCH  12  13
ATOM     13  C   UNL     1      11.969 -19.103 -31.476  1.00  0.00     0.140 C 
ATOM     14  O   UNL     1      12.240 -19.898 -32.363  1.00  0.00    -0.299 OA
BRANCH  13  15
ATOM     15  C   UNL     1      11.691 -19.677 -30.066  1.00  0.00     0.106 CG0
ATOM     16  G   UNL     1      12.712 -19.247 -29.006  1.00  0.00     0.000 G0
ENDBRANCH  13  15
ENDBRANCH  12  13
BRANCH  12  17
ATOM     17  C   UNL     1      13.032 -17.212 -32.937  1.00  0.00    -0.006 C 
ATOM     18  C   UNL     1      12.328 -16.465 -34.080  1.00  0.00     0.008 C 
ATOM     19  C   UNL     1      14.262 -16.416 -32.459  1.00  0.00     0.008 C 
ENDBRANCH  12  17
ENDBRANCH  11  12
ENDBRANCH   1  11
TORSDOF 1
ENDMDL
MODEL 4
REMARK VINA RESULT:    -4.627      1.454      3.467
REMARK INTER + INTRA:          -7.123
REMARK INTER:                  -7.236
REMARK INTRA:                   0.113
REMARK UNBOUND:                -0.061
REMARK SMILES CC1=CCC[C@H](C)C(=O)C[C@H](C(C)C)C(=O)C1
REMARK SMILES IDX 8 1 9 2 6 3 7 4 5 5 4 6 3 7 2 8 1 9 10 11 11 12 15 13 16 14
REMARK SMILES IDX 17 15 12 17 13 18 14 19
REMARK H PARENT
REMARK Flexibility Score: 70.00
ROOT
ATOM      1  C   UNL     1       9.923 -16.985 -29.488  1.00  0.00     0.136 C 
ATOM      2  O   UNL     1       9.655 -18.156 -29.266  1.00  0.00    -0.299 OA
ENDROOT
BRANCH   1   3
ATOM      3  C   UNL     1       9.111 -16.132 -30.481  1.00  0.00     0.053 C 
ATOM      4  C   UNL     1       9.333 -14.640 -30.193  1.00  0.00     0.016 C 
BRANCH   3   5
ATOM      5  C   UNL     1       9.429 -16.426 -32.002  1.00  0.00     0.015 C 
BRANCH   5   6
ATOM      6  C   UNL     1      10.940 -16.544 -32.437  1.00  0.00     0.028 C 
BRANCH   6   7
ATOM      7  C   UNL     1      11.476 -17.978 -32.325  1.00  0.00    -0.028 C 
ATOM      8  C   UNL     1      12.480 -18.485 -31.535  1.00  0.00    -0.070 CG0
ATOM      9  C   UNL     1      12.847 -19.933 -31.740  1.00  0.00     0.039 C 
ATOM     10  G   UNL     1      13.282 -17.721 -30.475  1.00  0.00     0.000 G0
ENDBRANCH   6   7
ENDBRANCH   5   6
ENDBRANCH   3   5
ENDBRANCH   1   3
BRANCH   1  11
ATOM     11  C   UNL     1      11.099 -16.340 -28.861  1.00  0.00     0.087 C 
BRANCH  11  12
ATOM     12  C   UNL     1      12.197 -17.045 -28.068  1.00  0.00     0.066 C 
BRANCH  12  13
ATOM     13  C   UNL     1      12.918 -18.043 -29.015  1.00  0.00     0.140 C 
ATOM     14  O   UNL     1      13.113 -19.183 -28.625  1.00  0.00    -0.299 OA
BRANCH  13  15
ATOM     15  C   UNL     1      13.300 -17.716 -30.478  1.00  0.00     0.106 CG0
ATOM     16  G   UNL     1      12.481 -18.483 -31.523  1.00  0.00     0.000 G0
ENDBRANCH  13  15
ENDBRANCH  12  13
BRANCH  12  17
ATOM     17  C   UNL     1      13.144 -16.005 -27.391  1.00  0.00    -0.006 C 
ATOM     18  C   UNL     1      14.234 -16.688 -26.551  1.00  0.00     0.008 C 
ATOM     19  C   UNL     1      13.779 -15.009 -28.379  1.00  0.00     0.008 C 
ENDBRANCH  12  17
ENDBRANCH  11  12
ENDBRANCH   1  11
TORSDOF 1
ENDMDL
MODEL 5
REMARK VINA RESULT:    -4.599      1.634      4.186
REMARK INTER + INTRA:          -7.080
REMARK INTER:                  -6.772
REMARK INTRA:                  -0.308
REMARK UNBOUND:                -0.061
REMARK SMILES CC1=CCC[C@H](C)C(=O)C[C@H](C(C)C)C(=O)C1
REMARK SMILES IDX 8 1 9 2 6 3 7 4 5 5 4 6 3 7 2 8 1 9 10 11 11 12 15 13 16 14
REMARK SMILES IDX 17 15 12 17 13 18 14 19
REMARK H PARENT
REMARK Flexibility Score: 70.00
ROOT
ATOM      1  C   UNL     1      11.526 -17.433 -28.092  1.00  0.00     0.136 C 
ATOM      2  O   UNL     1      11.091 -18.289 -27.337  1.00  0.00    -0.299 OA
ENDROOT
BRANCH   1   3
ATOM      3  C   UNL     1      13.033 -17.138 -28.217  1.00  0.00     0.053 C 
ATOM      4  C   UNL     1      13.532 -16.420 -26.954  1.00  0.00     0.016 C 
BRANCH   3   5
ATOM      5  C   UNL     1      13.925 -18.415 -28.483  1.00  0.00     0.015 C 
BRANCH   5   6
ATOM      6  C   UNL     1      13.701 -19.215 -29.824  1.00  0.00     0.028 C 
BRANCH   6   7
ATOM      7  C   UNL     1      13.712 -18.306 -31.060  1.00  0.00    -0.028 C 
ATOM      8  C   UNL     1      12.735 -18.085 -32.002  1.00  0.00    -0.070 CG0
ATOM      9  C   UNL     1      13.098 -17.208 -33.173  1.00  0.00     0.039 C 
ATOM     10  G   UNL     1      11.312 -18.659 -31.993  1.00  0.00     0.000 G0
ENDBRANCH   6   7
ENDBRANCH   5   6
ENDBRANCH   3   5
ENDBRANCH   1   3
BRANCH   1  11
ATOM     11  C   UNL     1      10.611 -16.577 -28.881  1.00  0.00     0.087 C 
BRANCH  11  12
ATOM     12  C   UNL     1      10.409 -16.628 -30.394  1.00  0.00     0.066 C 
BRANCH  12  13
ATOM     13  C   UNL     1      10.429 -18.116 -30.838  1.00  0.00     0.140 C 
ATOM     14  O   UNL     1       9.639 -18.892 -30.322  1.00  0.00    -0.299 OA
BRANCH  13  15
ATOM     15  C   UNL     1      11.312 -18.657 -31.988  1.00  0.00     0.106 CG0
ATOM     16  G   UNL     1      12.733 -18.081 -32.008  1.00  0.00     0.000 G0
ENDBRANCH  13  15
ENDBRANCH  12  13
BRANCH  12  17
ATOM     17  C   UNL     1       9.118 -15.853 -30.805  1.00  0.00    -0.006 C 
ATOM     18  C   UNL     1       8.875 -14.630 -29.907  1.00  0.00     0.008 C 
ATOM     19  C   UNL     1       9.091 -15.438 -32.289  1.00  0.00     0.008 C 
ENDBRANCH  12  17
ENDBRANCH  11  12
ENDBRANCH   1  11
TORSDOF 1
ENDMDL
MODEL 6
REMARK VINA RESULT:    -4.545      2.015      3.312
REMARK INTER + INTRA:          -6.997
REMARK INTER:                  -6.474
REMARK INTRA:                  -0.523
REMARK UNBOUND:                -0.061
REMARK SMILES CC1=CCC[C@H](C)C(=O)C[C@H](C(C)C)C(=O)C1
REMARK SMILES IDX 8 1 9 2 6 3 7 4 5 5 4 6 3 7 2 8 1 9 10 11 11 12 15 13 16 14
REMARK SMILES IDX 17 15 12 17 13 18 14 19
REMARK H PARENT
REMARK Flexibility Score: 70.00
ROOT
ATOM      1  C   UNL     1      12.997 -17.208 -32.561  1.00  0.00     0.136 C 
ATOM      2  O   UNL     1      13.892 -16.384 -32.664  1.00  0.00    -0.299 OA
ENDROOT
BRANCH   1   3
ATOM      3  C   UNL     1      11.657 -17.061 -33.307  1.00  0.00     0.053 C 
ATOM      4  C   UNL     1      11.897 -16.456 -34.699  1.00  0.00     0.016 C 
BRANCH   3   5
ATOM      5  C   UNL     1      10.843 -18.408 -33.453  1.00  0.00     0.015 C 
BRANCH   5   6
ATOM      6  C   UNL     1       9.645 -18.665 -32.460  1.00  0.00     0.028 C 
BRANCH   6   7
ATOM      7  C   UNL     1       9.243 -17.403 -31.684  1.00  0.00    -0.028 C 
ATOM      8  C   UNL     1       9.594 -16.998 -30.417  1.00  0.00    -0.070 CG0
ATOM      9  C   UNL     1       8.936 -15.748 -29.892  1.00  0.00     0.039 C 
ATOM     10  G   UNL     1      10.575 -17.703 -29.473  1.00  0.00     0.000 G0
ENDBRANCH   6   7
ENDBRANCH   5   6
ENDBRANCH   3   5
ENDBRANCH   1   3
BRANCH   1  11
ATOM     11  C   UNL     1      13.127 -18.366 -31.647  1.00  0.00     0.087 C 
BRANCH  11  12
ATOM     12  C   UNL     1      13.161 -18.310 -30.122  1.00  0.00     0.066 C 
BRANCH  12  13
ATOM     13  C   UNL     1      12.062 -17.321 -29.646  1.00  0.00     0.140 C 
ATOM     14  O   UNL     1      12.355 -16.144 -29.504  1.00  0.00    -0.299 OA
BRANCH  13  15
ATOM     15  C   UNL     1      10.576 -17.712 -29.456  1.00  0.00     0.106 CG0
ATOM     16  G   UNL     1       9.617 -17.006 -30.422  1.00  0.00     0.000 G0
ENDBRANCH  13  15
ENDBRANCH  12  13
BRANCH  12  17
ATOM     17  C   UNL     1      13.041 -19.742 -29.514  1.00  0.00    -0.006 C 
ATOM     18  C   UNL     1      12.547 -20.763 -30.550  1.00  0.00     0.008 C 
ATOM     19  C   UNL     1      14.337 -20.244 -28.848  1.00  0.00     0.008 C 
ENDBRANCH  12  17
ENDBRANCH  11  12
ENDBRANCH   1  11
TORSDOF 1
ENDMDL
MODEL 7
REMARK VINA RESULT:    -4.519      1.978      4.152
REMARK INTER + INTRA:          -6.957
REMARK INTER:                  -6.622
REMARK INTRA:                  -0.334
REMARK UNBOUND:                -0.061
REMARK SMILES CC1=CCC[C@H](C)C(=O)C[C@H](C(C)C)C(=O)C1
REMARK SMILES IDX 8 1 9 2 6 3 7 4 5 5 4 6 3 7 2 8 1 9 10 11 11 12 15 13 16 14
REMARK SMILES IDX 17 15 12 17 13 18 14 19
REMARK H PARENT
REMARK Flexibility Score: 70.00
ROOT
ATOM      1  C   UNL     1      12.967 -16.459 -29.009  1.00  0.00     0.136 C 
ATOM      2  O   UNL     1      13.563 -15.473 -28.604  1.00  0.00    -0.299 OA
ENDROOT
BRANCH   1   3
ATOM      3  C   UNL     1      11.766 -17.059 -28.254  1.00  0.00     0.053 C 
ATOM      4  C   UNL     1      11.918 -16.809 -26.746  1.00  0.00     0.016 C 
BRANCH   3   5
ATOM      5  C   UNL     1      10.360 -16.521 -28.737  1.00  0.00     0.015 C 
BRANCH   5   6
ATOM      6  C   UNL     1       9.657 -17.253 -29.943  1.00  0.00     0.028 C 
BRANCH   6   7
ATOM      7  C   UNL     1       9.421 -16.321 -31.140  1.00  0.00    -0.028 C 
ATOM      8  C   UNL     1       9.928 -16.379 -32.417  1.00  0.00    -0.070 CG0
ATOM      9  C   UNL     1       9.589 -15.238 -33.341  1.00  0.00     0.039 C 
ATOM     10  G   UNL     1      10.825 -17.482 -32.993  1.00  0.00     0.000 G0
ENDBRANCH   6   7
ENDBRANCH   5   6
ENDBRANCH   3   5
ENDBRANCH   1   3
BRANCH   1  11
ATOM     11  C   UNL     1      13.420 -17.179 -30.221  1.00  0.00     0.087 C 
BRANCH  11  12
ATOM     12  C   UNL     1      12.598 -18.175 -31.037  1.00  0.00     0.066 C 
BRANCH  12  13
ATOM     13  C   UNL     1      12.252 -17.519 -32.402  1.00  0.00     0.140 C 
ATOM     14  O   UNL     1      13.163 -17.089 -33.092  1.00  0.00    -0.299 OA
BRANCH  13  15
ATOM     15  C   UNL     1      10.826 -17.485 -33.002  1.00  0.00     0.106 CG0
ATOM     16  G   UNL     1       9.930 -16.387 -32.416  1.00  0.00     0.000 G0
ENDBRANCH  13  15
ENDBRANCH  12  13
BRANCH  12  17
ATOM     17  C   UNL     1      13.343 -19.542 -31.153  1.00  0.00    -0.006 C 
ATOM     18  C   UNL     1      13.892 -20.010 -29.796  1.00  0.00     0.008 C 
ATOM     19  C   UNL     1      12.497 -20.657 -31.797  1.00  0.00     0.008 C 
ENDBRANCH  12  17
ENDBRANCH  11  12
ENDBRANCH   1  11
TORSDOF 1
ENDMDL
MODEL 8
REMARK VINA RESULT:    -4.465      1.709      2.851
REMARK INTER + INTRA:          -6.875
REMARK INTER:                  -6.847
REMARK INTRA:                  -0.029
REMARK UNBOUND:                -0.061
REMARK SMILES CC1=CCC[C@H](C)C(=O)C[C@H](C(C)C)C(=O)C1
REMARK SMILES IDX 8 1 9 2 6 3 7 4 5 5 4 6 3 7 2 8 1 9 10 11 11 12 15 13 16 14
REMARK SMILES IDX 17 15 12 17 13 18 14 19
REMARK H PARENT
REMARK Flexibility Score: 70.00
ROOT
ATOM      1  C   UNL     1      13.173 -17.272 -31.800  1.00  0.00     0.136 C 
ATOM      2  O   UNL     1      13.765 -18.235 -32.262  1.00  0.00    -0.299 OA
ENDROOT
BRANCH   1   3
ATOM      3  C   UNL     1      11.853 -16.753 -32.402  1.00  0.00     0.053 C 
ATOM      4  C   UNL     1      11.330 -17.746 -33.450  1.00  0.00     0.016 C 
BRANCH   3   5
ATOM      5  C   UNL     1      10.720 -16.470 -31.336  1.00  0.00     0.015 C 
BRANCH   5   6
ATOM      6  C   UNL     1       9.955 -17.702 -30.718  1.00  0.00     0.028 C 
BRANCH   6   7
ATOM      7  C   UNL     1      10.002 -17.715 -29.184  1.00  0.00    -0.028 C 
ATOM      8  C   UNL     1      10.904 -18.311 -28.334  1.00  0.00    -0.070 CG0
ATOM      9  C   UNL     1      10.608 -18.232 -26.858  1.00  0.00     0.039 C 
ATOM     10  G   UNL     1      12.175 -19.068 -28.737  1.00  0.00     0.000 G0
ENDBRANCH   6   7
ENDBRANCH   5   6
ENDBRANCH   3   5
ENDBRANCH   1   3
BRANCH   1  11
ATOM     11  C   UNL     1      13.739 -16.500 -30.670  1.00  0.00     0.087 C 
BRANCH  11  12
ATOM     12  C   UNL     1      13.377 -16.665 -29.195  1.00  0.00     0.066 C 
BRANCH  12  13
ATOM     13  C   UNL     1      13.417 -18.179 -28.850  1.00  0.00     0.140 C 
ATOM     14  O   UNL     1      14.489 -18.682 -28.550  1.00  0.00    -0.299 OA
BRANCH  13  15
ATOM     15  C   UNL     1      12.157 -19.071 -28.743  1.00  0.00     0.106 CG0
ATOM     16  G   UNL     1      10.887 -18.309 -28.345  1.00  0.00     0.000 G0
ENDBRANCH  13  15
ENDBRANCH  12  13
BRANCH  12  17
ATOM     17  C   UNL     1      14.294 -15.778 -28.298  1.00  0.00    -0.006 C 
ATOM     18  C   UNL     1      14.164 -14.287 -28.647  1.00  0.00     0.008 C 
ATOM     19  C   UNL     1      14.078 -15.991 -26.787  1.00  0.00     0.008 C 
ENDBRANCH  12  17
ENDBRANCH  11  12
ENDBRANCH   1  11
TORSDOF 1
ENDMDL
MODEL 9
REMARK VINA RESULT:    -4.408      1.538      3.380
REMARK INTER + INTRA:          -6.788
REMARK INTER:                  -7.543
REMARK INTRA:                   0.755
REMARK UNBOUND:                -0.061
REMARK SMILES CC1=CCC[C@H](C)C(=O)C[C@H](C(C)C)C(=O)C1
REMARK SMILES IDX 8 1 9 2 6 3 7 4 5 5 4 6 3 7 2 8 1 9 10 11 11 12 15 13 16 14
REMARK SMILES IDX 17 15 12 17 13 18 14 19
REMARK H PARENT
REMARK Flexibility Score: 70.00
ROOT
ATOM      1  C   UNL     1      10.451 -16.233 -30.505  1.00  0.00     0.136 C 
ATOM      2  O   UNL     1       9.606 -15.517 -29.991  1.00  0.00    -0.299 OA
ENDROOT
BRANCH   1   3
ATOM      3  C   UNL     1      10.148 -17.101 -31.742  1.00  0.00     0.053 C 
ATOM      4  C   UNL     1      10.867 -16.529 -32.972  1.00  0.00     0.016 C 
BRANCH   3   5
ATOM      5  C   UNL     1      10.529 -18.627 -31.573  1.00  0.00     0.015 C 
BRANCH   5   6
ATOM      6  C   UNL     1      11.936 -19.105 -32.100  1.00  0.00     0.028 C 
BRANCH   6   7
ATOM      7  C   UNL     1      12.846 -19.612 -30.972  1.00  0.00    -0.028 C 
ATOM      8  C   UNL     1      12.662 -19.581 -29.610  1.00  0.00    -0.070 CG0
ATOM      9  C   UNL     1      13.805 -20.064 -28.754  1.00  0.00     0.039 C 
ATOM     10  G   UNL     1      11.415 -19.085 -28.868  1.00  0.00     0.000 G0
ENDBRANCH   6   7
ENDBRANCH   5   6
ENDBRANCH   3   5
ENDBRANCH   1   3
BRANCH   1  11
ATOM     11  C   UNL     1      11.804 -16.360 -29.917  1.00  0.00     0.087 C 
BRANCH  11  12
ATOM     12  C   UNL     1      12.133 -16.471 -28.430  1.00  0.00     0.066 C 
BRANCH  12  13
ATOM     13  C   UNL     1      11.666 -17.866 -27.931  1.00  0.00     0.140 C 
ATOM     14  O   UNL     1      11.380 -18.001 -26.752  1.00  0.00    -0.299 OA
BRANCH  13  15
ATOM     15  C   UNL     1      11.423 -19.076 -28.866  1.00  0.00     0.106 CG0
ATOM     16  G   UNL     1      12.681 -19.564 -29.594  1.00  0.00     0.000 G0
ENDBRANCH  13  15
ENDBRANCH  12  13
BRANCH  12  17
ATOM     17  C   UNL     1      13.643 -16.171 -28.174  1.00  0.00    -0.006 C 
ATOM     18  C   UNL     1      13.991 -14.703 -28.468  1.00  0.00     0.008 C 
ATOM     19  C   UNL     1      14.121 -16.558 -26.761  1.00  0.00     0.008 C 
ENDBRANCH  12  17
ENDBRANCH  11  12
ENDBRANCH   1  11
TORSDOF 1
ENDMDL
