MODEL 1
REMARK VINA RESULT:    -3.534      0.000      0.000
REMARK INTER + INTRA:          -4.391
REMARK INTER:                  -4.360
REMARK INTRA:                  -0.030
REMARK UNBOUND:                -0.030
REMARK SMILES CCCCCC=O
REMARK SMILES IDX 4 1 3 2 2 3 1 4 5 5 6 6 7 7
REMARK H PARENT
REMARK Flexibility Score: inf
ROOT
ATOM      1  C   UNL     1      25.521  56.584  -8.643  1.00  0.00     0.008 C 
ENDROOT
BRANCH   1   2
ATOM      2  C   UNL     1      25.555  58.083  -8.988  1.00  0.00     0.000 C 
BRANCH   2   3
ATOM      3  C   UNL     1      26.732  58.451  -9.905  1.00  0.00    -0.003 C 
ATOM      4  C   UNL     1      27.022  59.951  -9.921  1.00  0.00     0.004 C 
ENDBRANCH   2   3
ENDBRANCH   1   2
BRANCH   1   5
ATOM      5  C   UNL     1      24.109  55.996  -8.767  1.00  0.00     0.072 C 
BRANCH   5   6
ATOM      6  C   UNL     1      23.641  55.380  -7.480  1.00  0.00     0.224 C 
ATOM      7  O   UNL     1      22.648  54.671  -7.457  1.00  0.00    -0.303 OA
ENDBRANCH   5   6
ENDBRANCH   1   5
TORSDOF 4
ENDMDL
MODEL 2
REMARK VINA RESULT:    -3.452      2.553      4.622
REMARK INTER + INTRA:          -4.290
REMARK INTER:                  -4.200
REMARK INTRA:                  -0.090
REMARK UNBOUND:                -0.030
REMARK SMILES CCCCCC=O
REMARK SMILES IDX 4 1 3 2 2 3 1 4 5 5 6 6 7 7
REMARK H PARENT
REMARK Flexibility Score: inf
ROOT
ATOM      1  C   UNL     1      25.781  56.506  -8.233  1.00  0.00     0.008 C 
ENDROOT
BRANCH   1   2
ATOM      2  C   UNL     1      24.869  55.267  -8.268  1.00  0.00     0.000 C 
BRANCH   2   3
ATOM      3  C   UNL     1      23.385  55.621  -8.093  1.00  0.00    -0.003 C 
ATOM      4  C   UNL     1      22.719  54.835  -6.964  1.00  0.00     0.004 C 
ENDBRANCH   2   3
ENDBRANCH   1   2
BRANCH   1   5
ATOM      5  C   UNL     1      25.084  57.751  -8.798  1.00  0.00     0.072 C 
BRANCH   5   6
ATOM      6  C   UNL     1      26.068  58.777  -9.281  1.00  0.00     0.224 C 
ATOM      7  O   UNL     1      26.899  58.488 -10.128  1.00  0.00    -0.303 OA
ENDBRANCH   5   6
ENDBRANCH   1   5
TORSDOF 4
ENDMDL
MODEL 3
REMARK VINA RESULT:    -3.441      2.942      4.913
REMARK INTER + INTRA:          -4.276
REMARK INTER:                  -4.240
REMARK INTRA:                  -0.035
REMARK UNBOUND:                -0.030
REMARK SMILES CCCCCC=O
REMARK SMILES IDX 4 1 3 2 2 3 1 4 5 5 6 6 7 7
REMARK H PARENT
REMARK Flexibility Score: inf
ROOT
ATOM      1  C   UNL     1      25.862  56.825  -9.038  1.00  0.00     0.008 C 
ENDROOT
BRANCH   1   2
ATOM      2  C   UNL     1      24.947  56.375  -7.885  1.00  0.00     0.000 C 
BRANCH   2   3
ATOM      3  C   UNL     1      23.675  55.674  -8.382  1.00  0.00    -0.003 C 
ATOM      4  C   UNL     1      22.898  54.992  -7.256  1.00  0.00     0.004 C 
ENDBRANCH   2   3
ENDBRANCH   1   2
BRANCH   1   5
ATOM      5  C   UNL     1      25.886  58.351  -9.194  1.00  0.00     0.072 C 
BRANCH   5   6
ATOM      6  C   UNL     1      27.015  58.809 -10.072  1.00  0.00     0.224 C 
ATOM      7  O   UNL     1      27.361  59.980 -10.076  1.00  0.00    -0.303 OA
ENDBRANCH   5   6
ENDBRANCH   1   5
TORSDOF 4
ENDMDL
MODEL 4
REMARK VINA RESULT:    -3.274     13.553     15.162
REMARK INTER + INTRA:          -4.070
REMARK INTER:                  -4.009
REMARK INTRA:                  -0.061
REMARK UNBOUND:                -0.030
REMARK SMILES CCCCCC=O
REMARK SMILES IDX 4 1 3 2 2 3 1 4 5 5 6 6 7 7
REMARK H PARENT
REMARK Flexibility Score: inf
ROOT
ATOM      1  C   UNL     1      29.238  45.621   0.266  1.00  0.00     0.008 C 
ENDROOT
BRANCH   1   2
ATOM      2  C   UNL     1      30.231  44.478  -0.009  1.00  0.00     0.000 C 
BRANCH   2   3
ATOM      3  C   UNL     1      31.367  44.423   1.023  1.00  0.00    -0.003 C 
ATOM      4  C   UNL     1      31.839  45.811   1.456  1.00  0.00     0.004 C 
ENDBRANCH   2   3
ENDBRANCH   1   2
BRANCH   1   5
ATOM      5  C   UNL     1      28.065  45.617  -0.724  1.00  0.00     0.072 C 
BRANCH   5   6
ATOM      6  C   UNL     1      27.720  47.000  -1.193  1.00  0.00     0.224 C 
ATOM      7  O   UNL     1      27.108  47.165  -2.237  1.00  0.00    -0.303 OA
ENDBRANCH   5   6
ENDBRANCH   1   5
TORSDOF 4
ENDMDL
MODEL 5
REMARK VINA RESULT:    -3.238     14.126     15.712
REMARK INTER + INTRA:          -4.025
REMARK INTER:                  -3.958
REMARK INTRA:                  -0.067
REMARK UNBOUND:                -0.030
REMARK SMILES CCCCCC=O
REMARK SMILES IDX 4 1 3 2 2 3 1 4 5 5 6 6 7 7
REMARK H PARENT
REMARK Flexibility Score: inf
ROOT
ATOM      1  C   UNL     1      29.957  44.471  -0.111  1.00  0.00     0.008 C 
ENDROOT
BRANCH   1   2
ATOM      2  C   UNL     1      29.086  45.725   0.077  1.00  0.00     0.000 C 
BRANCH   2   3
ATOM      3  C   UNL     1      27.840  45.718  -0.820  1.00  0.00    -0.003 C 
ATOM      4  C   UNL     1      27.587  47.067  -1.492  1.00  0.00     0.004 C 
ENDBRANCH   2   3
ENDBRANCH   1   2
BRANCH   1   5
ATOM      5  C   UNL     1      31.107  44.409   0.903  1.00  0.00     0.072 C 
BRANCH   5   6
ATOM      6  C   UNL     1      31.860  45.706   0.980  1.00  0.00     0.224 C 
ATOM      7  O   UNL     1      32.014  46.269   2.053  1.00  0.00    -0.303 OA
ENDBRANCH   5   6
ENDBRANCH   1   5
TORSDOF 4
ENDMDL
MODEL 6
REMARK VINA RESULT:    -3.166     16.756     17.944
REMARK INTER + INTRA:          -3.937
REMARK INTER:                  -3.817
REMARK INTRA:                  -0.120
REMARK UNBOUND:                -0.030
REMARK SMILES CCCCCC=O
REMARK SMILES IDX 4 1 3 2 2 3 1 4 5 5 6 6 7 7
REMARK H PARENT
REMARK Flexibility Score: inf
ROOT
ATOM      1  C   UNL     1      18.937  44.777   0.305  1.00  0.00     0.008 C 
ENDROOT
BRANCH   1   2
ATOM      2  C   UNL     1      17.410  44.601   0.243  1.00  0.00     0.000 C 
BRANCH   2   3
ATOM      3  C   UNL     1      16.809  44.182   1.593  1.00  0.00    -0.003 C 
ATOM      4  C   UNL     1      15.553  44.975   1.953  1.00  0.00     0.004 C 
ENDBRANCH   2   3
ENDBRANCH   1   2
BRANCH   1   5
ATOM      5  C   UNL     1      19.527  44.244   1.618  1.00  0.00     0.072 C 
BRANCH   5   6
ATOM      6  C   UNL     1      20.203  42.916   1.433  1.00  0.00     0.224 C 
ATOM      7  O   UNL     1      20.463  42.504   0.313  1.00  0.00    -0.303 OA
ENDBRANCH   5   6
ENDBRANCH   1   5
TORSDOF 4
ENDMDL
MODEL 7
REMARK VINA RESULT:    -2.997     16.280     17.839
REMARK INTER + INTRA:          -3.728
REMARK INTER:                  -3.599
REMARK INTRA:                  -0.129
REMARK UNBOUND:                -0.030
REMARK SMILES CCCCCC=O
REMARK SMILES IDX 4 1 3 2 2 3 1 4 5 5 6 6 7 7
REMARK H PARENT
REMARK Flexibility Score: inf
ROOT
ATOM      1  C   UNL     1      17.016  43.660   1.528  1.00  0.00     0.008 C 
ENDROOT
BRANCH   1   2
ATOM      2  C   UNL     1      18.378  44.049   2.130  1.00  0.00     0.000 C 
BRANCH   2   3
ATOM      3  C   UNL     1      19.495  44.098   1.078  1.00  0.00    -0.003 C 
ATOM      4  C   UNL     1      19.216  45.109  -0.034  1.00  0.00     0.004 C 
ENDBRANCH   2   3
ENDBRANCH   1   2
BRANCH   1   5
ATOM      5  C   UNL     1      15.909  44.649   1.917  1.00  0.00     0.072 C 
BRANCH   5   6
ATOM      6  C   UNL     1      15.426  45.444   0.738  1.00  0.00     0.224 C 
ATOM      7  O   UNL     1      14.370  46.055   0.795  1.00  0.00    -0.303 OA
ENDBRANCH   5   6
ENDBRANCH   1   5
TORSDOF 4
ENDMDL
MODEL 8
REMARK VINA RESULT:    -2.997      6.546      7.945
REMARK INTER + INTRA:          -3.728
REMARK INTER:                  -3.613
REMARK INTRA:                  -0.115
REMARK UNBOUND:                -0.030
REMARK SMILES CCCCCC=O
REMARK SMILES IDX 4 1 3 2 2 3 1 4 5 5 6 6 7 7
REMARK H PARENT
REMARK Flexibility Score: inf
ROOT
ATOM      1  C   UNL     1      30.274  57.621 -13.125  1.00  0.00     0.008 C 
ENDROOT
BRANCH   1   2
ATOM      2  C   UNL     1      31.500  56.884 -13.692  1.00  0.00     0.000 C 
BRANCH   2   3
ATOM      3  C   UNL     1      32.687  57.824 -13.947  1.00  0.00    -0.003 C 
ATOM      4  C   UNL     1      34.021  57.226 -13.500  1.00  0.00     0.004 C 
ENDBRANCH   2   3
ENDBRANCH   1   2
BRANCH   1   5
ATOM      5  C   UNL     1      30.572  59.098 -12.835  1.00  0.00     0.072 C 
BRANCH   5   6
ATOM      6  C   UNL     1      30.139  59.499 -11.455  1.00  0.00     0.224 C 
ATOM      7  O   UNL     1      28.991  59.308 -11.085  1.00  0.00    -0.303 OA
ENDBRANCH   5   6
ENDBRANCH   1   5
TORSDOF 4
ENDMDL
