MODEL 1
REMARK VINA RESULT:    -3.363      0.000      0.000
REMARK INTER + INTRA:          -4.241
REMARK INTER:                  -4.149
REMARK INTRA:                  -0.092
REMARK UNBOUND:                -0.092
REMARK SMILES CCCCCC(=O)[O-]
REMARK SMILES IDX 4 1 5 2 6 3 7 4 8 5 3 6 2 7 1 8
REMARK H PARENT
REMARK Flexibility Score: inf
ROOT
ATOM      1  C   UNL     1      17.609  27.813  27.495  1.00  0.00     0.006 C 
ENDROOT
BRANCH   1   2
ATOM      2  C   UNL     1      18.332  26.616  26.865  1.00  0.00     0.053 C 
BRANCH   2   3
ATOM      3  C   UNL     1      18.731  25.632  27.919  1.00  0.00     0.041 C 
ATOM      4  O   UNL     1      18.748  24.400  27.662  1.00  0.00    -0.550 OA
ATOM      5  O   UNL     1      19.035  26.072  29.202  1.00  0.00    -0.550 OA
ENDBRANCH   2   3
ENDBRANCH   1   2
BRANCH   1   6
ATOM      6  C   UNL     1      18.482  29.079  27.549  1.00  0.00     0.000 C 
BRANCH   6   7
ATOM      7  C   UNL     1      18.436  29.839  28.887  1.00  0.00    -0.003 C 
ATOM      8  C   UNL     1      18.515  31.356  28.716  1.00  0.00     0.004 C 
ENDBRANCH   6   7
ENDBRANCH   1   6
TORSDOF 4
ENDMDL
MODEL 2
REMARK VINA RESULT:    -3.360      2.142      4.375
REMARK INTER + INTRA:          -4.238
REMARK INTER:                  -4.105
REMARK INTRA:                  -0.133
REMARK UNBOUND:                -0.092
REMARK SMILES CCCCCC(=O)[O-]
REMARK SMILES IDX 4 1 5 2 6 3 7 4 8 5 3 6 2 7 1 8
REMARK H PARENT
REMARK Flexibility Score: inf
ROOT
ATOM      1  C   UNL     1      17.603  27.710  27.410  1.00  0.00     0.006 C 
ENDROOT
BRANCH   1   2
ATOM      2  C   UNL     1      18.515  28.932  27.573  1.00  0.00     0.053 C 
BRANCH   2   3
ATOM      3  C   UNL     1      18.343  29.535  28.932  1.00  0.00     0.041 C 
ATOM      4  O   UNL     1      18.346  30.785  29.075  1.00  0.00    -0.550 OA
ATOM      5  O   UNL     1      18.231  28.715  30.048  1.00  0.00    -0.550 OA
ENDBRANCH   2   3
ENDBRANCH   1   2
BRANCH   1   6
ATOM      6  C   UNL     1      18.381  26.420  27.094  1.00  0.00     0.000 C 
BRANCH   6   7
ATOM      7  C   UNL     1      18.739  25.565  28.323  1.00  0.00    -0.003 C 
ATOM      8  C   UNL     1      18.940  24.088  27.985  1.00  0.00     0.004 C 
ENDBRANCH   6   7
ENDBRANCH   1   6
TORSDOF 4
ENDMDL
MODEL 3
REMARK VINA RESULT:    -3.302      2.581      5.377
REMARK INTER + INTRA:          -4.166
REMARK INTER:                  -4.118
REMARK INTRA:                  -0.048
REMARK UNBOUND:                -0.092
REMARK SMILES CCCCCC(=O)[O-]
REMARK SMILES IDX 4 1 5 2 6 3 7 4 8 5 3 6 2 7 1 8
REMARK H PARENT
REMARK Flexibility Score: inf
ROOT
ATOM      1  C   UNL     1      19.032  24.941  28.438  1.00  0.00     0.006 C 
ENDROOT
BRANCH   1   2
ATOM      2  C   UNL     1      18.533  25.941  27.388  1.00  0.00     0.053 C 
BRANCH   2   3
ATOM      3  C   UNL     1      18.051  27.195  28.046  1.00  0.00     0.041 C 
ATOM      4  O   UNL     1      18.078  27.303  29.299  1.00  0.00    -0.550 OA
ATOM      5  O   UNL     1      17.523  28.225  27.277  1.00  0.00    -0.550 OA
ENDBRANCH   2   3
ENDBRANCH   1   2
BRANCH   1   6
ATOM      6  C   UNL     1      19.014  23.486  27.938  1.00  0.00     0.000 C 
BRANCH   6   7
ATOM      7  C   UNL     1      18.776  22.430  29.032  1.00  0.00    -0.003 C 
ATOM      8  C   UNL     1      19.025  21.001  28.549  1.00  0.00     0.004 C 
ENDBRANCH   6   7
ENDBRANCH   1   6
TORSDOF 4
ENDMDL
MODEL 4
REMARK VINA RESULT:    -3.298      2.674      4.187
REMARK INTER + INTRA:          -4.161
REMARK INTER:                  -4.053
REMARK INTRA:                  -0.108
REMARK UNBOUND:                -0.092
REMARK SMILES CCCCCC(=O)[O-]
REMARK SMILES IDX 4 1 5 2 6 3 7 4 8 5 3 6 2 7 1 8
REMARK H PARENT
REMARK Flexibility Score: inf
ROOT
ATOM      1  C   UNL     1      18.391  29.498  29.122  1.00  0.00     0.006 C 
ENDROOT
BRANCH   1   2
ATOM      2  C   UNL     1      18.043  28.363  30.093  1.00  0.00     0.053 C 
BRANCH   2   3
ATOM      3  C   UNL     1      18.166  28.830  31.509  1.00  0.00     0.041 C 
ATOM      4  O   UNL     1      17.706  29.951  31.848  1.00  0.00    -0.550 OA
ATOM      5  O   UNL     1      18.833  28.047  32.444  1.00  0.00    -0.550 OA
ENDBRANCH   2   3
ENDBRANCH   1   2
BRANCH   1   6
ATOM      6  C   UNL     1      18.375  29.053  27.648  1.00  0.00     0.000 C 
BRANCH   6   7
ATOM      7  C   UNL     1      17.466  27.848  27.348  1.00  0.00    -0.003 C 
ATOM      8  C   UNL     1      18.224  26.663  26.751  1.00  0.00     0.004 C 
ENDBRANCH   6   7
ENDBRANCH   1   6
TORSDOF 4
ENDMDL
MODEL 5
REMARK VINA RESULT:    -3.294      4.244      5.357
REMARK INTER + INTRA:          -4.156
REMARK INTER:                  -4.062
REMARK INTRA:                  -0.094
REMARK UNBOUND:                -0.092
REMARK SMILES CCCCCC(=O)[O-]
REMARK SMILES IDX 4 1 5 2 6 3 7 4 8 5 3 6 2 7 1 8
REMARK H PARENT
REMARK Flexibility Score: inf
ROOT
ATOM      1  C   UNL     1      18.343  29.060  32.121  1.00  0.00     0.006 C 
ENDROOT
BRANCH   1   2
ATOM      2  C   UNL     1      18.036  28.554  30.706  1.00  0.00     0.053 C 
BRANCH   2   3
ATOM      3  C   UNL     1      18.262  29.640  29.702  1.00  0.00     0.041 C 
ATOM      4  O   UNL     1      18.340  30.840  30.074  1.00  0.00    -0.550 OA
ATOM      5  O   UNL     1      18.337  29.332  28.349  1.00  0.00    -0.550 OA
ENDBRANCH   2   3
ENDBRANCH   1   2
BRANCH   1   6
ATOM      6  C   UNL     1      19.140  28.046  32.961  1.00  0.00     0.000 C 
BRANCH   6   7
ATOM      7  C   UNL     1      18.882  28.118  34.477  1.00  0.00    -0.003 C 
ATOM      8  C   UNL     1      17.722  29.044  34.842  1.00  0.00     0.004 C 
ENDBRANCH   6   7
ENDBRANCH   1   6
TORSDOF 4
ENDMDL
MODEL 6
REMARK VINA RESULT:    -3.258      1.970      2.590
REMARK INTER + INTRA:          -4.111
REMARK INTER:                  -3.998
REMARK INTRA:                  -0.113
REMARK UNBOUND:                -0.092
REMARK SMILES CCCCCC(=O)[O-]
REMARK SMILES IDX 4 1 5 2 6 3 7 4 8 5 3 6 2 7 1 8
REMARK H PARENT
REMARK Flexibility Score: inf
ROOT
ATOM      1  C   UNL     1      18.521  29.615  27.996  1.00  0.00     0.006 C 
ENDROOT
BRANCH   1   2
ATOM      2  C   UNL     1      17.689  28.379  27.631  1.00  0.00     0.053 C 
BRANCH   2   3
ATOM      3  C   UNL     1      18.534  27.373  26.915  1.00  0.00     0.041 C 
ATOM      4  O   UNL     1      19.282  27.733  25.969  1.00  0.00    -0.550 OA
ATOM      5  O   UNL     1      18.457  26.029  27.259  1.00  0.00    -0.550 OA
ENDBRANCH   2   3
ENDBRANCH   1   2
BRANCH   1   6
ATOM      6  C   UNL     1      18.383  30.016  29.476  1.00  0.00     0.000 C 
BRANCH   6   7
ATOM      7  C   UNL     1      18.142  28.842  30.442  1.00  0.00    -0.003 C 
ATOM      8  C   UNL     1      17.883  29.294  31.879  1.00  0.00     0.004 C 
ENDBRANCH   6   7
ENDBRANCH   1   6
TORSDOF 4
ENDMDL
MODEL 7
REMARK VINA RESULT:    -3.197      3.019      4.338
REMARK INTER + INTRA:          -4.037
REMARK INTER:                  -3.840
REMARK INTRA:                  -0.196
REMARK UNBOUND:                -0.092
REMARK SMILES CCCCCC(=O)[O-]
REMARK SMILES IDX 4 1 5 2 6 3 7 4 8 5 3 6 2 7 1 8
REMARK H PARENT
REMARK Flexibility Score: inf
ROOT
ATOM      1  C   UNL     1      18.729  27.728  29.583  1.00  0.00     0.006 C 
ENDROOT
BRANCH   1   2
ATOM      2  C   UNL     1      18.023  28.624  30.608  1.00  0.00     0.053 C 
BRANCH   2   3
ATOM      3  C   UNL     1      18.267  30.067  30.297  1.00  0.00     0.041 C 
ATOM      4  O   UNL     1      18.356  30.451  29.102  1.00  0.00    -0.550 OA
ATOM      5  O   UNL     1      18.448  30.980  31.328  1.00  0.00    -0.550 OA
ENDBRANCH   2   3
ENDBRANCH   1   2
BRANCH   1   6
ATOM      6  C   UNL     1      17.747  26.959  28.681  1.00  0.00     0.000 C 
BRANCH   6   7
ATOM      7  C   UNL     1      17.605  27.520  27.255  1.00  0.00    -0.003 C 
ATOM      8  C   UNL     1      18.947  27.685  26.542  1.00  0.00     0.004 C 
ENDBRANCH   6   7
ENDBRANCH   1   6
TORSDOF 4
ENDMDL
MODEL 8
REMARK VINA RESULT:    -3.154      3.272      4.653
REMARK INTER + INTRA:          -3.983
REMARK INTER:                  -3.888
REMARK INTRA:                  -0.095
REMARK UNBOUND:                -0.092
REMARK SMILES CCCCCC(=O)[O-]
REMARK SMILES IDX 4 1 5 2 6 3 7 4 8 5 3 6 2 7 1 8
REMARK H PARENT
REMARK Flexibility Score: inf
ROOT
ATOM      1  C   UNL     1      18.053  29.282  30.670  1.00  0.00     0.006 C 
ENDROOT
BRANCH   1   2
ATOM      2  C   UNL     1      17.754  29.671  32.123  1.00  0.00     0.053 C 
BRANCH   2   3
ATOM      3  C   UNL     1      18.418  28.718  33.067  1.00  0.00     0.041 C 
ATOM      4  O   UNL     1      19.273  27.898  32.642  1.00  0.00    -0.550 OA
ATOM      5  O   UNL     1      18.055  28.701  34.408  1.00  0.00    -0.550 OA
ENDBRANCH   2   3
ENDBRANCH   1   2
BRANCH   1   6
ATOM      6  C   UNL     1      18.430  30.489  29.792  1.00  0.00     0.000 C 
BRANCH   6   7
ATOM      7  C   UNL     1      18.435  30.209  28.278  1.00  0.00    -0.003 C 
ATOM      8  C   UNL     1      18.146  28.747  27.940  1.00  0.00     0.004 C 
ENDBRANCH   6   7
ENDBRANCH   1   6
TORSDOF 4
ENDMDL
MODEL 9
REMARK VINA RESULT:    -3.138      3.226      4.748
REMARK INTER + INTRA:          -3.964
REMARK INTER:                  -3.834
REMARK INTRA:                  -0.130
REMARK UNBOUND:                -0.092
REMARK SMILES CCCCCC(=O)[O-]
REMARK SMILES IDX 4 1 5 2 6 3 7 4 8 5 3 6 2 7 1 8
REMARK H PARENT
REMARK Flexibility Score: inf
ROOT
ATOM      1  C   UNL     1      18.752  28.804  27.959  1.00  0.00     0.006 C 
ENDROOT
BRANCH   1   2
ATOM      2  C   UNL     1      18.378  29.258  29.375  1.00  0.00     0.053 C 
BRANCH   2   3
ATOM      3  C   UNL     1      18.406  30.751  29.471  1.00  0.00     0.041 C 
ATOM      4  O   UNL     1      18.362  31.315  30.595  1.00  0.00    -0.550 OA
ATOM      5  O   UNL     1      18.428  31.522  28.314  1.00  0.00    -0.550 OA
ENDBRANCH   2   3
ENDBRANCH   1   2
BRANCH   1   6
ATOM      6  C   UNL     1      17.615  28.045  27.252  1.00  0.00     0.000 C 
BRANCH   6   7
ATOM      7  C   UNL     1      17.985  26.630  26.772  1.00  0.00    -0.003 C 
ATOM      8  C   UNL     1      18.723  25.813  27.832  1.00  0.00     0.004 C 
ENDBRANCH   6   7
ENDBRANCH   1   6
TORSDOF 4
ENDMDL
