MODEL 1
REMARK VINA RESULT:    -5.662      0.000      0.000
REMARK INTER + INTRA:          -6.457
REMARK INTER:                  -6.324
REMARK INTRA:                  -0.133
REMARK UNBOUND:                -0.133
REMARK SMILES O=C([O-])C=Cc1ccccc1
REMARK SMILES IDX 4 1 5 2 2 3 1 4 3 5 6 6 7 7 11 8 8 9 10 10 9 11
REMARK H PARENT
REMARK Flexibility Score: inf
ROOT
ATOM      1  C   UNL     1     -12.926   2.836  -9.267  1.00  0.00     0.025 C 
ATOM      2  C   UNL     1     -12.232   1.691  -9.355  1.00  0.00     0.010 C 
ENDROOT
BRANCH   1   3
ATOM      3  C   UNL     1     -12.340   4.067  -8.709  1.00  0.00     0.064 C 
ATOM      4  O   UNL     1     -13.019   5.123  -8.601  1.00  0.00    -0.545 OA
ATOM      5  O   UNL     1     -11.015   4.064  -8.293  1.00  0.00    -0.545 OA
ENDBRANCH   1   3
BRANCH   2   6
ATOM      6  C   UNL     1     -12.763   0.415  -9.908  1.00  0.00    -0.026 A 
ATOM      7  C   UNL     1     -11.846  -0.604 -10.225  1.00  0.00     0.008 A 
ATOM      8  C   UNL     1     -14.138   0.179 -10.130  1.00  0.00     0.008 A 
ATOM      9  C   UNL     1     -12.285  -1.824 -10.747  1.00  0.00     0.001 A 
ATOM     10  C   UNL     1     -14.570  -1.044 -10.653  1.00  0.00     0.001 A 
ATOM     11  C   UNL     1     -13.646  -2.044 -10.961  1.00  0.00     0.000 A 
ENDBRANCH   2   6
TORSDOF 2
ENDMDL
MODEL 2
REMARK VINA RESULT:    -5.602      3.772      5.129
REMARK INTER + INTRA:          -6.390
REMARK INTER:                  -6.252
REMARK INTRA:                  -0.138
REMARK UNBOUND:                -0.133
REMARK SMILES O=C([O-])C=Cc1ccccc1
REMARK SMILES IDX 4 1 5 2 2 3 1 4 3 5 6 6 7 7 11 8 8 9 10 10 9 11
REMARK H PARENT
REMARK Flexibility Score: inf
ROOT
ATOM      1  C   UNL     1     -10.790  -1.910  -9.270  1.00  0.00     0.025 C 
ATOM      2  C   UNL     1     -10.749  -0.652  -9.734  1.00  0.00     0.010 C 
ENDROOT
BRANCH   1   3
ATOM      3  C   UNL     1      -9.610  -2.792  -9.289  1.00  0.00     0.064 C 
ATOM      4  O   UNL     1      -9.166  -3.266 -10.369  1.00  0.00    -0.545 OA
ATOM      5  O   UNL     1      -8.975  -3.107  -8.096  1.00  0.00    -0.545 OA
ENDBRANCH   1   3
BRANCH   2   6
ATOM      6  C   UNL     1     -11.902   0.289  -9.743  1.00  0.00    -0.026 A 
ATOM      7  C   UNL     1     -13.159  -0.205 -10.138  1.00  0.00     0.008 A 
ATOM      8  C   UNL     1     -11.796   1.650  -9.377  1.00  0.00     0.008 A 
ATOM      9  C   UNL     1     -14.279   0.631 -10.167  1.00  0.00     0.001 A 
ATOM     10  C   UNL     1     -12.921   2.480  -9.408  1.00  0.00     0.001 A 
ATOM     11  C   UNL     1     -14.160   1.973  -9.802  1.00  0.00     0.000 A 
ENDBRANCH   2   6
TORSDOF 2
ENDMDL
MODEL 3
REMARK VINA RESULT:    -5.556      3.738      5.227
REMARK INTER + INTRA:          -6.339
REMARK INTER:                  -6.208
REMARK INTRA:                  -0.131
REMARK UNBOUND:                -0.133
REMARK SMILES O=C([O-])C=Cc1ccccc1
REMARK SMILES IDX 4 1 5 2 2 3 1 4 3 5 6 6 7 7 11 8 8 9 10 10 9 11
REMARK H PARENT
REMARK Flexibility Score: inf
ROOT
ATOM      1  C   UNL     1     -10.964  -2.142  -9.591  1.00  0.00     0.025 C 
ATOM      2  C   UNL     1     -10.884  -0.861  -9.982  1.00  0.00     0.010 C 
ENDROOT
BRANCH   1   3
ATOM      3  C   UNL     1      -9.831  -3.074  -9.726  1.00  0.00     0.064 C 
ATOM      4  O   UNL     1      -8.774  -2.736 -10.322  1.00  0.00    -0.545 OA
ATOM      5  O   UNL     1      -9.930  -4.350  -9.186  1.00  0.00    -0.545 OA
ENDBRANCH   1   3
BRANCH   2   6
ATOM      6  C   UNL     1     -11.988   0.131  -9.873  1.00  0.00    -0.026 A 
ATOM      7  C   UNL     1     -11.672   1.432  -9.440  1.00  0.00     0.008 A 
ATOM      8  C   UNL     1     -13.335  -0.169 -10.182  1.00  0.00     0.008 A 
ATOM      9  C   UNL     1     -12.667   2.407  -9.319  1.00  0.00     0.001 A 
ATOM     10  C   UNL     1     -14.324   0.811 -10.058  1.00  0.00     0.001 A 
ATOM     11  C   UNL     1     -13.992   2.097  -9.628  1.00  0.00     0.000 A 
ENDBRANCH   2   6
TORSDOF 2
ENDMDL
MODEL 4
REMARK VINA RESULT:    -5.371      4.145      5.612
REMARK INTER + INTRA:          -6.132
REMARK INTER:                  -6.006
REMARK INTRA:                  -0.126
REMARK UNBOUND:                -0.133
REMARK SMILES O=C([O-])C=Cc1ccccc1
REMARK SMILES IDX 4 1 5 2 2 3 1 4 3 5 6 6 7 7 11 8 8 9 10 10 9 11
REMARK H PARENT
REMARK Flexibility Score: inf
ROOT
ATOM      1  C   UNL     1      -9.943  -2.677  -8.560  1.00  0.00     0.025 C 
ATOM      2  C   UNL     1     -10.318  -2.105  -9.714  1.00  0.00     0.010 C 
ENDROOT
BRANCH   1   3
ATOM      3  C   UNL     1      -8.794  -3.595  -8.477  1.00  0.00     0.064 C 
ATOM      4  O   UNL     1      -7.697  -3.226  -7.980  1.00  0.00    -0.545 OA
ATOM      5  O   UNL     1      -8.923  -4.893  -8.956  1.00  0.00    -0.545 OA
ENDBRANCH   1   3
BRANCH   2   6
ATOM      6  C   UNL     1     -11.465  -1.169  -9.866  1.00  0.00    -0.026 A 
ATOM      7  C   UNL     1     -12.680  -1.683 -10.357  1.00  0.00     0.008 A 
ATOM      8  C   UNL     1     -11.395   0.205  -9.544  1.00  0.00     0.008 A 
ATOM      9  C   UNL     1     -13.793  -0.853 -10.521  1.00  0.00     0.001 A 
ATOM     10  C   UNL     1     -12.512   1.029  -9.710  1.00  0.00     0.001 A 
ATOM     11  C   UNL     1     -13.709   0.502 -10.198  1.00  0.00     0.000 A 
ENDBRANCH   2   6
TORSDOF 2
ENDMDL
MODEL 5
REMARK VINA RESULT:    -5.346      4.189      5.614
REMARK INTER + INTRA:          -6.104
REMARK INTER:                  -5.977
REMARK INTRA:                  -0.127
REMARK UNBOUND:                -0.133
REMARK SMILES O=C([O-])C=Cc1ccccc1
REMARK SMILES IDX 4 1 5 2 2 3 1 4 3 5 6 6 7 7 11 8 8 9 10 10 9 11
REMARK H PARENT
REMARK Flexibility Score: inf
ROOT
ATOM      1  C   UNL     1     -10.069  -2.878  -8.510  1.00  0.00     0.025 C 
ATOM      2  C   UNL     1     -10.284  -2.177  -9.633  1.00  0.00     0.010 C 
ENDROOT
BRANCH   1   3
ATOM      3  C   UNL     1      -8.917  -3.784  -8.360  1.00  0.00     0.064 C 
ATOM      4  O   UNL     1      -9.051  -5.033  -8.453  1.00  0.00    -0.545 OA
ATOM      5  O   UNL     1      -7.658  -3.251  -8.112  1.00  0.00    -0.545 OA
ENDBRANCH   1   3
BRANCH   2   6
ATOM      6  C   UNL     1     -11.426  -1.247  -9.849  1.00  0.00    -0.026 A 
ATOM      7  C   UNL     1     -11.261   0.103  -9.488  1.00  0.00     0.008 A 
ATOM      8  C   UNL     1     -12.665  -1.652 -10.396  1.00  0.00     0.008 A 
ATOM      9  C   UNL     1     -12.297   1.023  -9.667  1.00  0.00     0.001 A 
ATOM     10  C   UNL     1     -13.697  -0.725 -10.572  1.00  0.00     0.001 A 
ATOM     11  C   UNL     1     -13.515   0.610 -10.208  1.00  0.00     0.000 A 
ENDBRANCH   2   6
TORSDOF 2
ENDMDL
MODEL 6
REMARK VINA RESULT:    -5.194      5.311      6.877
REMARK INTER + INTRA:          -5.935
REMARK INTER:                  -5.792
REMARK INTRA:                  -0.143
REMARK UNBOUND:                -0.133
REMARK SMILES O=C([O-])C=Cc1ccccc1
REMARK SMILES IDX 4 1 5 2 2 3 1 4 3 5 6 6 7 7 11 8 8 9 10 10 9 11
REMARK H PARENT
REMARK Flexibility Score: inf
ROOT
ATOM      1  C   UNL     1     -10.389  -4.671  -8.228  1.00  0.00     0.025 C 
ATOM      2  C   UNL     1     -11.140  -4.295  -9.274  1.00  0.00     0.010 C 
ENDROOT
BRANCH   1   3
ATOM      3  C   UNL     1     -10.142  -6.088  -7.910  1.00  0.00     0.064 C 
ATOM      4  O   UNL     1     -10.258  -6.984  -8.789  1.00  0.00    -0.545 OA
ATOM      5  O   UNL     1      -9.775  -6.444  -6.619  1.00  0.00    -0.545 OA
ENDBRANCH   1   3
BRANCH   2   6
ATOM      6  C   UNL     1     -11.428  -2.883  -9.650  1.00  0.00    -0.026 A 
ATOM      7  C   UNL     1     -10.441  -1.913  -9.394  1.00  0.00     0.008 A 
ATOM      8  C   UNL     1     -12.641  -2.471 -10.248  1.00  0.00     0.008 A 
ATOM      9  C   UNL     1     -10.655  -0.572  -9.725  1.00  0.00     0.001 A 
ATOM     10  C   UNL     1     -12.846  -1.128 -10.577  1.00  0.00     0.001 A 
ATOM     11  C   UNL     1     -11.856  -0.179 -10.316  1.00  0.00     0.000 A 
ENDBRANCH   2   6
TORSDOF 2
ENDMDL
MODEL 7
REMARK VINA RESULT:    -4.916     15.191     17.077
REMARK INTER + INTRA:          -5.624
REMARK INTER:                  -5.494
REMARK INTRA:                  -0.131
REMARK UNBOUND:                -0.133
REMARK SMILES O=C([O-])C=Cc1ccccc1
REMARK SMILES IDX 4 1 5 2 2 3 1 4 3 5 6 6 7 7 11 8 8 9 10 10 9 11
REMARK H PARENT
REMARK Flexibility Score: inf
ROOT
ATOM      1  C   UNL     1     -12.899   5.694   4.603  1.00  0.00     0.025 C 
ATOM      2  C   UNL     1     -12.972   6.060   5.892  1.00  0.00     0.010 C 
ENDROOT
BRANCH   1   3
ATOM      3  C   UNL     1     -13.884   6.144   3.605  1.00  0.00     0.064 C 
ATOM      4  O   UNL     1     -13.623   6.121   2.373  1.00  0.00    -0.545 OA
ATOM      5  O   UNL     1     -15.125   6.602   4.029  1.00  0.00    -0.545 OA
ENDBRANCH   1   3
BRANCH   2   6
ATOM      6  C   UNL     1     -12.011   5.642   6.950  1.00  0.00    -0.026 A 
ATOM      7  C   UNL     1     -12.109   4.333   7.456  1.00  0.00     0.008 A 
ATOM      8  C   UNL     1     -11.010   6.494   7.469  1.00  0.00     0.008 A 
ATOM      9  C   UNL     1     -11.234   3.884   8.450  1.00  0.00     0.001 A 
ATOM     10  C   UNL     1     -10.138   6.038   8.463  1.00  0.00     0.001 A 
ATOM     11  C   UNL     1     -10.250   4.736   8.953  1.00  0.00     0.000 A 
ENDBRANCH   2   6
TORSDOF 2
ENDMDL
MODEL 8
REMARK VINA RESULT:    -4.873      6.233      7.585
REMARK INTER + INTRA:          -5.575
REMARK INTER:                  -5.448
REMARK INTRA:                  -0.127
REMARK UNBOUND:                -0.133
REMARK SMILES O=C([O-])C=Cc1ccccc1
REMARK SMILES IDX 4 1 5 2 2 3 1 4 3 5 6 6 7 7 11 8 8 9 10 10 9 11
REMARK H PARENT
REMARK Flexibility Score: inf
ROOT
ATOM      1  C   UNL     1     -10.739  -3.973  -8.749  1.00  0.00     0.025 C 
ATOM      2  C   UNL     1     -10.015  -4.540  -7.772  1.00  0.00     0.010 C 
ENDROOT
BRANCH   1   3
ATOM      3  C   UNL     1     -10.249  -2.815  -9.516  1.00  0.00     0.064 C 
ATOM      4  O   UNL     1      -9.116  -2.829 -10.068  1.00  0.00    -0.545 OA
ATOM      5  O   UNL     1     -11.049  -1.687  -9.635  1.00  0.00    -0.545 OA
ENDBRANCH   1   3
BRANCH   2   6
ATOM      6  C   UNL     1     -10.450  -5.710  -6.961  1.00  0.00    -0.026 A 
ATOM      7  C   UNL     1     -10.014  -6.989  -7.352  1.00  0.00     0.008 A 
ATOM      8  C   UNL     1     -11.278  -5.599  -5.821  1.00  0.00     0.008 A 
ATOM      9  C   UNL     1     -10.390  -8.125  -6.630  1.00  0.00     0.001 A 
ATOM     10  C   UNL     1     -11.650  -6.740  -5.103  1.00  0.00     0.001 A 
ATOM     11  C   UNL     1     -11.207  -8.001  -5.505  1.00  0.00     0.000 A 
ENDBRANCH   2   6
TORSDOF 2
ENDMDL
MODEL 9
REMARK VINA RESULT:    -4.813     16.042     17.451
REMARK INTER + INTRA:          -5.509
REMARK INTER:                  -5.364
REMARK INTRA:                  -0.145
REMARK UNBOUND:                -0.133
REMARK SMILES O=C([O-])C=Cc1ccccc1
REMARK SMILES IDX 4 1 5 2 2 3 1 4 3 5 6 6 7 7 11 8 8 9 10 10 9 11
REMARK H PARENT
REMARK Flexibility Score: inf
ROOT
ATOM      1  C   UNL     1      -8.709   8.203   5.726  1.00  0.00     0.025 C 
ATOM      2  C   UNL     1      -8.728   7.253   6.673  1.00  0.00     0.010 C 
ENDROOT
BRANCH   1   3
ATOM      3  C   UNL     1      -7.774   9.340   5.777  1.00  0.00     0.064 C 
ATOM      4  O   UNL     1      -7.441   9.959   4.731  1.00  0.00    -0.545 OA
ATOM      5  O   UNL     1      -7.250   9.739   6.999  1.00  0.00    -0.545 OA
ENDBRANCH   1   3
BRANCH   2   6
ATOM      6  C   UNL     1      -9.645   6.080   6.682  1.00  0.00    -0.026 A 
ATOM      7  C   UNL     1     -10.316   5.752   5.489  1.00  0.00     0.008 A 
ATOM      8  C   UNL     1      -9.874   5.282   7.826  1.00  0.00     0.008 A 
ATOM      9  C   UNL     1     -11.189   4.662   5.436  1.00  0.00     0.001 A 
ATOM     10  C   UNL     1     -10.749   4.193   7.765  1.00  0.00     0.001 A 
ATOM     11  C   UNL     1     -11.406   3.883   6.573  1.00  0.00     0.000 A 
ENDBRANCH   2   6
TORSDOF 2
ENDMDL
