MODEL 1
REMARK VINA RESULT:    -5.292      0.000      0.000
REMARK INTER + INTRA:          -7.431
REMARK INTER:                  -6.530
REMARK INTRA:                  -0.902
REMARK UNBOUND:                -0.902
REMARK SMILES C=C(CCC=C(C)C)[C@@H]1CC=C(C)CC1
REMARK SMILES IDX 3 1 2 2 1 3 9 4 13 5 12 6 11 7 14 8 10 9 15 10 4 11 5 12
REMARK SMILES IDX 6 13 7 14 8 15
REMARK H PARENT
REMARK Flexibility Score: inf
ROOT
ATOM      1  C   UNL     1     168.632 163.847 201.793  1.00  0.00     0.035 C 
ENDROOT
BRANCH   1   2
ATOM      2  C   UNL     1     169.160 164.263 200.428  1.00  0.00    -0.074 C 
ATOM      3  C   UNL     1     169.687 163.333 199.613  1.00  0.00     0.008 C 
BRANCH   2   4
ATOM      4  C   UNL     1     169.218 165.732 200.021  1.00  0.00     0.018 C 
ATOM      5  C   UNL     1     168.260 169.875 198.975  1.00  0.00     0.039 C 
ATOM      6  C   UNL     1     168.444 168.424 199.328  1.00  0.00    -0.077 C 
ATOM      7  C   UNL     1     168.430 168.059 200.628  1.00  0.00    -0.027 C 
ATOM      8  C   UNL     1     168.771 167.438 198.224  1.00  0.00     0.031 C 
ATOM      9  C   UNL     1     168.551 166.625 201.080  1.00  0.00     0.035 C 
ATOM     10  C   UNL     1     168.575 165.978 198.647  1.00  0.00     0.013 C 
ENDBRANCH   2   4
ENDBRANCH   1   2
BRANCH   1  11
ATOM     11  C   UNL     1     167.738 162.599 201.716  1.00  0.00     0.032 C 
BRANCH  11  12
ATOM     12  C   UNL     1     166.265 162.933 201.676  1.00  0.00    -0.028 C 
ATOM     13  C   UNL     1     165.483 162.687 200.603  1.00  0.00    -0.080 C 
ATOM     14  C   UNL     1     166.032 162.036 199.357  1.00  0.00     0.039 C 
ATOM     15  C   UNL     1     164.029 163.079 200.663  1.00  0.00     0.039 C 
ENDBRANCH  11  12
ENDBRANCH   1  11
TORSDOF 4
ENDMDL
MODEL 2
REMARK VINA RESULT:    -5.283      3.390      7.036
REMARK INTER + INTRA:          -7.420
REMARK INTER:                  -6.523
REMARK INTRA:                  -0.897
REMARK UNBOUND:                -0.902
REMARK SMILES C=C(CCC=C(C)C)[C@@H]1CC=C(C)CC1
REMARK SMILES IDX 3 1 2 2 1 3 9 4 13 5 12 6 11 7 14 8 10 9 15 10 4 11 5 12
REMARK SMILES IDX 6 13 7 14 8 15
REMARK H PARENT
REMARK Flexibility Score: inf
ROOT
ATOM      1  C   UNL     1     163.368 168.137 201.740  1.00  0.00     0.035 C 
ENDROOT
BRANCH   1   2
ATOM      2  C   UNL     1     162.833 167.702 200.383  1.00  0.00    -0.074 C 
ATOM      3  C   UNL     1     162.311 168.621 199.554  1.00  0.00     0.008 C 
BRANCH   2   4
ATOM      4  C   UNL     1     162.765 166.227 200.001  1.00  0.00     0.018 C 
ATOM      5  C   UNL     1     163.693 162.069 198.992  1.00  0.00     0.039 C 
ATOM      6  C   UNL     1     163.519 163.524 199.328  1.00  0.00    -0.077 C 
ATOM      7  C   UNL     1     163.571 163.910 200.621  1.00  0.00    -0.027 C 
ATOM      8  C   UNL     1     163.160 164.493 198.218  1.00  0.00     0.031 C 
ATOM      9  C   UNL     1     163.462 165.350 201.054  1.00  0.00     0.035 C 
ATOM     10  C   UNL     1     163.368 165.960 198.613  1.00  0.00     0.013 C 
ENDBRANCH   2   4
ENDBRANCH   1   2
BRANCH   1  11
ATOM     11  C   UNL     1     164.260 169.386 201.642  1.00  0.00     0.032 C 
BRANCH  11  12
ATOM     12  C   UNL     1     165.731 169.052 201.552  1.00  0.00    -0.028 C 
ATOM     13  C   UNL     1     166.486 169.335 200.470  1.00  0.00    -0.080 C 
ATOM     14  C   UNL     1     165.906 170.030 199.261  1.00  0.00     0.039 C 
ATOM     15  C   UNL     1     167.940 168.941 200.479  1.00  0.00     0.039 C 
ENDBRANCH  11  12
ENDBRANCH   1  11
TORSDOF 4
ENDMDL
MODEL 3
REMARK VINA RESULT:    -5.216      3.251      5.242
REMARK INTER + INTRA:          -7.337
REMARK INTER:                  -6.329
REMARK INTRA:                  -1.008
REMARK UNBOUND:                -0.902
REMARK SMILES C=C(CCC=C(C)C)[C@@H]1CC=C(C)CC1
REMARK SMILES IDX 3 1 2 2 1 3 9 4 13 5 12 6 11 7 14 8 10 9 15 10 4 11 5 12
REMARK SMILES IDX 6 13 7 14 8 15
REMARK H PARENT
REMARK Flexibility Score: inf
ROOT
ATOM      1  C   UNL     1     163.693 169.478 199.614  1.00  0.00     0.035 C 
ENDROOT
BRANCH   1   2
ATOM      2  C   UNL     1     164.833 169.533 200.619  1.00  0.00    -0.074 C 
ATOM      3  C   UNL     1     164.570 169.838 201.901  1.00  0.00     0.008 C 
BRANCH   2   4
ATOM      4  C   UNL     1     166.283 169.374 200.173  1.00  0.00     0.018 C 
ATOM      5  C   UNL     1     169.959 168.495 197.962  1.00  0.00     0.039 C 
ATOM      6  C   UNL     1     168.624 168.721 198.617  1.00  0.00    -0.077 C 
ATOM      7  C   UNL     1     167.905 169.813 198.281  1.00  0.00    -0.027 C 
ATOM      8  C   UNL     1     168.188 167.788 199.729  1.00  0.00     0.031 C 
ATOM      9  C   UNL     1     166.534 170.099 198.841  1.00  0.00     0.035 C 
ATOM     10  C   UNL     1     166.693 167.898 200.052  1.00  0.00     0.013 C 
ENDBRANCH   2   4
ENDBRANCH   1   2
BRANCH   1  11
ATOM     11  C   UNL     1     162.498 168.660 200.133  1.00  0.00     0.032 C 
BRANCH  11  12
ATOM     12  C   UNL     1     162.503 167.233 199.636  1.00  0.00    -0.028 C 
ATOM     13  C   UNL     1     162.839 166.183 200.414  1.00  0.00    -0.080 C 
ATOM     14  C   UNL     1     163.226 166.363 201.862  1.00  0.00     0.039 C 
ATOM     15  C   UNL     1     162.828 164.802 199.810  1.00  0.00     0.039 C 
ENDBRANCH  11  12
ENDBRANCH   1  11
TORSDOF 4
ENDMDL
MODEL 4
REMARK VINA RESULT:    -5.210      3.570      6.864
REMARK INTER + INTRA:          -7.330
REMARK INTER:                  -6.096
REMARK INTRA:                  -1.234
REMARK UNBOUND:                -0.902
REMARK SMILES C=C(CCC=C(C)C)[C@@H]1CC=C(C)CC1
REMARK SMILES IDX 3 1 2 2 1 3 9 4 13 5 12 6 11 7 14 8 10 9 15 10 4 11 5 12
REMARK SMILES IDX 6 13 7 14 8 15
REMARK H PARENT
REMARK Flexibility Score: inf
ROOT
ATOM      1  C   UNL     1     164.622 170.112 200.073  1.00  0.00     0.035 C 
ENDROOT
BRANCH   1   2
ATOM      2  C   UNL     1     163.558 169.123 199.622  1.00  0.00    -0.074 C 
ATOM      3  C   UNL     1     162.953 169.298 198.435  1.00  0.00     0.008 C 
BRANCH   2   4
ATOM      4  C   UNL     1     163.076 168.010 200.547  1.00  0.00     0.018 C 
ATOM      5  C   UNL     1     162.794 164.549 203.215  1.00  0.00     0.039 C 
ATOM      6  C   UNL     1     163.031 165.697 202.273  1.00  0.00    -0.077 C 
ATOM      7  C   UNL     1     163.493 166.865 202.766  1.00  0.00    -0.027 C 
ATOM      8  C   UNL     1     162.619 165.549 200.821  1.00  0.00     0.031 C 
ATOM      9  C   UNL     1     163.813 168.056 201.896  1.00  0.00     0.035 C 
ATOM     10  C   UNL     1     163.232 166.620 199.912  1.00  0.00     0.013 C 
ENDBRANCH   2   4
ENDBRANCH   1   2
BRANCH   1  11
ATOM     11  C   UNL     1     165.976 169.865 199.386  1.00  0.00     0.032 C 
BRANCH  11  12
ATOM     12  C   UNL     1     167.066 169.479 200.359  1.00  0.00    -0.028 C 
ATOM     13  C   UNL     1     167.444 168.201 200.573  1.00  0.00    -0.080 C 
ATOM     14  C   UNL     1     166.805 167.052 199.831  1.00  0.00     0.039 C 
ATOM     15  C   UNL     1     168.531 167.928 201.581  1.00  0.00     0.039 C 
ENDBRANCH  11  12
ENDBRANCH   1  11
TORSDOF 4
ENDMDL
MODEL 5
REMARK VINA RESULT:    -5.171      4.083      6.859
REMARK INTER + INTRA:          -7.282
REMARK INTER:                  -6.505
REMARK INTRA:                  -0.776
REMARK UNBOUND:                -0.902
REMARK SMILES C=C(CCC=C(C)C)[C@@H]1CC=C(C)CC1
REMARK SMILES IDX 3 1 2 2 1 3 9 4 13 5 12 6 11 7 14 8 10 9 15 10 4 11 5 12
REMARK SMILES IDX 6 13 7 14 8 15
REMARK H PARENT
REMARK Flexibility Score: inf
ROOT
ATOM      1  C   UNL     1     164.079 166.276 202.773  1.00  0.00     0.035 C 
ENDROOT
BRANCH   1   2
ATOM      2  C   UNL     1     163.111 165.106 202.678  1.00  0.00    -0.074 C 
ATOM      3  C   UNL     1     162.275 164.855 203.701  1.00  0.00     0.008 C 
BRANCH   2   4
ATOM      4  C   UNL     1     163.159 164.139 201.500  1.00  0.00     0.018 C 
ATOM      5  C   UNL     1     164.258 161.916 197.891  1.00  0.00     0.039 C 
ATOM      6  C   UNL     1     163.990 162.774 199.096  1.00  0.00    -0.077 C 
ATOM      7  C   UNL     1     164.630 162.501 200.252  1.00  0.00    -0.027 C 
ATOM      8  C   UNL     1     162.910 163.836 199.012  1.00  0.00     0.031 C 
ATOM      9  C   UNL     1     164.469 163.334 201.499  1.00  0.00     0.035 C 
ATOM     10  C   UNL     1     162.985 164.857 200.153  1.00  0.00     0.013 C 
ENDBRANCH   2   4
ENDBRANCH   1   2
BRANCH   1  11
ATOM     11  C   UNL     1     163.360 167.634 202.704  1.00  0.00     0.032 C 
BRANCH  11  12
ATOM     12  C   UNL     1     164.132 168.667 201.917  1.00  0.00    -0.028 C 
ATOM     13  C   UNL     1     163.762 169.083 200.687  1.00  0.00    -0.080 C 
ATOM     14  C   UNL     1     162.522 168.549 200.011  1.00  0.00     0.039 C 
ATOM     15  C   UNL     1     164.616 170.106 199.982  1.00  0.00     0.039 C 
ENDBRANCH  11  12
ENDBRANCH   1  11
TORSDOF 4
ENDMDL
MODEL 6
REMARK VINA RESULT:    -5.168      1.744      2.749
REMARK INTER + INTRA:          -7.278
REMARK INTER:                  -6.027
REMARK INTRA:                  -1.252
REMARK UNBOUND:                -0.902
REMARK SMILES C=C(CCC=C(C)C)[C@@H]1CC=C(C)CC1
REMARK SMILES IDX 3 1 2 2 1 3 9 4 13 5 12 6 11 7 14 8 10 9 15 10 4 11 5 12
REMARK SMILES IDX 6 13 7 14 8 15
REMARK H PARENT
REMARK Flexibility Score: inf
ROOT
ATOM      1  C   UNL     1     167.359 161.922 200.028  1.00  0.00     0.035 C 
ENDROOT
BRANCH   1   2
ATOM      2  C   UNL     1     168.438 162.903 199.595  1.00  0.00    -0.074 C 
ATOM      3  C   UNL     1     169.056 162.728 198.415  1.00  0.00     0.008 C 
BRANCH   2   4
ATOM      4  C   UNL     1     168.918 164.008 200.531  1.00  0.00     0.018 C 
ATOM      5  C   UNL     1     169.197 167.443 203.233  1.00  0.00     0.039 C 
ATOM      6  C   UNL     1     168.961 166.303 202.280  1.00  0.00    -0.077 C 
ATOM      7  C   UNL     1     168.499 165.130 202.761  1.00  0.00    -0.027 C 
ATOM      8  C   UNL     1     169.374 166.466 200.830  1.00  0.00     0.031 C 
ATOM      9  C   UNL     1     168.181 163.948 201.880  1.00  0.00     0.035 C 
ATOM     10  C   UNL     1     168.761 165.404 199.910  1.00  0.00     0.013 C 
ENDBRANCH   2   4
ENDBRANCH   1   2
BRANCH   1  11
ATOM     11  C   UNL     1     165.993 162.242 199.397  1.00  0.00     0.032 C 
BRANCH  11  12
ATOM     12  C   UNL     1     164.942 162.596 200.422  1.00  0.00    -0.028 C 
ATOM     13  C   UNL     1     164.554 163.865 200.671  1.00  0.00    -0.080 C 
ATOM     14  C   UNL     1     165.142 165.034 199.919  1.00  0.00     0.039 C 
ATOM     15  C   UNL     1     163.508 164.107 201.729  1.00  0.00     0.039 C 
ENDBRANCH  11  12
ENDBRANCH   1  11
TORSDOF 4
ENDMDL
MODEL 7
REMARK VINA RESULT:    -5.131      1.989      5.457
REMARK INTER + INTRA:          -7.232
REMARK INTER:                  -5.945
REMARK INTRA:                  -1.287
REMARK UNBOUND:                -0.902
REMARK SMILES C=C(CCC=C(C)C)[C@@H]1CC=C(C)CC1
REMARK SMILES IDX 3 1 2 2 1 3 9 4 13 5 12 6 11 7 14 8 10 9 15 10 4 11 5 12
REMARK SMILES IDX 6 13 7 14 8 15
REMARK H PARENT
REMARK Flexibility Score: inf
ROOT
ATOM      1  C   UNL     1     167.149 161.838 200.001  1.00  0.00     0.035 C 
ENDROOT
BRANCH   1   2
ATOM      2  C   UNL     1     165.697 162.138 199.661  1.00  0.00    -0.074 C 
ATOM      3  C   UNL     1     165.289 162.063 198.383  1.00  0.00     0.008 C 
BRANCH   2   4
ATOM      4  C   UNL     1     164.728 162.643 200.725  1.00  0.00     0.018 C 
ATOM      5  C   UNL     1     162.464 165.080 203.573  1.00  0.00     0.039 C 
ATOM      6  C   UNL     1     163.332 164.359 202.578  1.00  0.00    -0.077 C 
ATOM      7  C   UNL     1     163.035 164.446 201.265  1.00  0.00    -0.027 C 
ATOM      8  C   UNL     1     164.433 163.452 203.091  1.00  0.00     0.031 C 
ATOM      9  C   UNL     1     163.875 163.805 200.188  1.00  0.00     0.035 C 
ATOM     10  C   UNL     1     165.452 163.076 202.009  1.00  0.00     0.013 C 
ENDBRANCH   2   4
ENDBRANCH   1   2
BRANCH   1  11
ATOM     11  C   UNL     1     168.122 162.813 199.314  1.00  0.00     0.032 C 
BRANCH  11  12
ATOM     12  C   UNL     1     168.729 163.809 200.275  1.00  0.00    -0.028 C 
ATOM     13  C   UNL     1     168.275 165.073 200.410  1.00  0.00    -0.080 C 
ATOM     14  C   UNL     1     167.100 165.581 199.609  1.00  0.00     0.039 C 
ATOM     15  C   UNL     1     168.967 165.990 201.385  1.00  0.00     0.039 C 
ENDBRANCH  11  12
ENDBRANCH   1  11
TORSDOF 4
ENDMDL
MODEL 8
REMARK VINA RESULT:    -5.125      3.307      5.307
REMARK INTER + INTRA:          -7.225
REMARK INTER:                  -5.946
REMARK INTRA:                  -1.279
REMARK UNBOUND:                -0.902
REMARK SMILES C=C(CCC=C(C)C)[C@@H]1CC=C(C)CC1
REMARK SMILES IDX 3 1 2 2 1 3 9 4 13 5 12 6 11 7 14 8 10 9 15 10 4 11 5 12
REMARK SMILES IDX 6 13 7 14 8 15
REMARK H PARENT
REMARK Flexibility Score: inf
ROOT
ATOM      1  C   UNL     1     164.634 170.128 200.007  1.00  0.00     0.035 C 
ENDROOT
BRANCH   1   2
ATOM      2  C   UNL     1     166.061 169.785 199.610  1.00  0.00    -0.074 C 
ATOM      3  C   UNL     1     166.396 169.754 198.309  1.00  0.00     0.008 C 
BRANCH   2   4
ATOM      4  C   UNL     1     167.086 169.352 200.654  1.00  0.00     0.018 C 
ATOM      5  C   UNL     1     169.548 167.096 203.486  1.00  0.00     0.039 C 
ATOM      6  C   UNL     1     168.617 167.751 202.503  1.00  0.00    -0.077 C 
ATOM      7  C   UNL     1     168.876 167.643 201.183  1.00  0.00    -0.027 C 
ATOM      8  C   UNL     1     167.492 168.621 203.029  1.00  0.00     0.031 C 
ATOM      9  C   UNL     1     167.974 168.217 200.118  1.00  0.00     0.035 C 
ATOM     10  C   UNL     1     166.423 168.922 201.972  1.00  0.00     0.013 C 
ENDBRANCH   2   4
ENDBRANCH   1   2
BRANCH   1  11
ATOM     11  C   UNL     1     163.608 169.162 199.389  1.00  0.00     0.032 C 
BRANCH  11  12
ATOM     12  C   UNL     1     163.106 168.132 200.373  1.00  0.00    -0.028 C 
ATOM     13  C   UNL     1     163.594 166.874 200.436  1.00  0.00    -0.080 C 
ATOM     14  C   UNL     1     164.702 166.410 199.522  1.00  0.00     0.039 C 
ATOM     15  C   UNL     1     163.008 165.920 201.445  1.00  0.00     0.039 C 
ENDBRANCH  11  12
ENDBRANCH   1  11
TORSDOF 4
ENDMDL
MODEL 9
REMARK VINA RESULT:    -5.096      2.719      5.368
REMARK INTER + INTRA:          -7.190
REMARK INTER:                  -6.530
REMARK INTRA:                  -0.660
REMARK UNBOUND:                -0.902
REMARK SMILES C=C(CCC=C(C)C)[C@@H]1CC=C(C)CC1
REMARK SMILES IDX 3 1 2 2 1 3 9 4 13 5 12 6 11 7 14 8 10 9 15 10 4 11 5 12
REMARK SMILES IDX 6 13 7 14 8 15
REMARK H PARENT
REMARK Flexibility Score: inf
ROOT
ATOM      1  C   UNL     1     166.968 169.450 200.271  1.00  0.00     0.035 C 
ENDROOT
BRANCH   1   2
ATOM      2  C   UNL     1     167.957 168.762 199.343  1.00  0.00    -0.074 C 
ATOM      3  C   UNL     1     168.641 169.495 198.447  1.00  0.00     0.008 C 
BRANCH   2   4
ATOM      4  C   UNL     1     168.094 167.243 199.325  1.00  0.00     0.018 C 
ATOM      5  C   UNL     1     169.579 163.130 199.100  1.00  0.00     0.039 C 
ATOM      6  C   UNL     1     169.203 164.586 199.130  1.00  0.00    -0.077 C 
ATOM      7  C   UNL     1     169.408 165.293 200.261  1.00  0.00    -0.027 C 
ATOM      8  C   UNL     1     168.483 165.180 197.935  1.00  0.00     0.031 C 
ATOM      9  C   UNL     1     169.115 166.768 200.373  1.00  0.00     0.035 C 
ATOM     10  C   UNL     1     168.484 166.713 197.937  1.00  0.00     0.013 C 
ENDBRANCH   2   4
ENDBRANCH   1   2
BRANCH   1  11
ATOM     11  C   UNL     1     165.852 170.176 199.499  1.00  0.00     0.032 C 
BRANCH  11  12
ATOM     12  C   UNL     1     164.468 169.743 199.923  1.00  0.00    -0.028 C 
ATOM     13  C   UNL     1     163.639 169.041 199.122  1.00  0.00    -0.080 C 
ATOM     14  C   UNL     1     164.050 168.621 197.731  1.00  0.00     0.039 C 
ATOM     15  C   UNL     1     162.271 168.676 199.639  1.00  0.00     0.039 C 
ENDBRANCH  11  12
ENDBRANCH   1  11
TORSDOF 4
ENDMDL
