MODEL 1
REMARK VINA RESULT:    -3.172      0.000      0.000
REMARK INTER + INTRA:         -10.711
REMARK INTER:                  -7.252
REMARK INTRA:                  -3.458
REMARK UNBOUND:                -3.458
REMARK SMILES CCCCCCCCCCCCCCCCCCCCCCCC(=O)[O-]
REMARK SMILES IDX 13 1 14 2 15 3 16 4 17 5 18 6 19 7 20 8 21 9 22 10 23 11
REMARK SMILES IDX 24 12 25 13 26 14 12 15 11 16 10 17 9 18 8 19 7 20 6 21 5 22
REMARK SMILES IDX 4 23 3 24 2 25 1 26
REMARK H PARENT
REMARK Flexibility Score: inf
ROOT
ATOM      1  C   UNL     1      24.806  -8.380  29.873  1.00  0.00     0.000 C 
ENDROOT
BRANCH   1   2
ATOM      2  C   UNL     1      24.850  -9.156  28.548  1.00  0.00     0.000 C 
BRANCH   2   3
ATOM      3  C   UNL     1      25.816 -10.354  28.582  1.00  0.00     0.000 C 
BRANCH   3   4
ATOM      4  C   UNL     1      27.306  -9.996  28.418  1.00  0.00     0.000 C 
BRANCH   4   5
ATOM      5  C   UNL     1      28.115  -9.962  29.729  1.00  0.00     0.000 C 
BRANCH   5   6
ATOM      6  C   UNL     1      27.930 -11.217  30.607  1.00  0.00     0.000 C 
BRANCH   6   7
ATOM      7  C   UNL     1      29.259 -11.943  30.885  1.00  0.00     0.000 C 
BRANCH   7   8
ATOM      8  C   UNL     1      30.453 -11.273  30.186  1.00  0.00     0.000 C 
BRANCH   8   9
ATOM      9  C   UNL     1      31.658 -11.098  31.121  1.00  0.00     0.000 C 
BRANCH   9  10
ATOM     10  C   UNL     1      31.930  -9.613  31.391  1.00  0.00     0.006 C 
BRANCH  10  11
ATOM     11  C   UNL     1      30.712  -8.936  32.023  1.00  0.00     0.053 C 
BRANCH  11  12
ATOM     12  C   UNL     1      31.144  -7.852  32.961  1.00  0.00     0.041 C 
ATOM     13  O   UNL     1      30.757  -6.668  32.782  1.00  0.00    -0.550 OA
ATOM     14  O   UNL     1      32.013  -8.143  34.005  1.00  0.00    -0.550 OA
ENDBRANCH  11  12
ENDBRANCH  10  11
ENDBRANCH   9  10
ENDBRANCH   8   9
ENDBRANCH   7   8
ENDBRANCH   6   7
ENDBRANCH   5   6
ENDBRANCH   4   5
ENDBRANCH   3   4
ENDBRANCH   2   3
ENDBRANCH   1   2
BRANCH   1  15
ATOM     15  C   UNL     1      23.483  -7.612  30.015  1.00  0.00     0.000 C 
BRANCH  15  16
ATOM     16  C   UNL     1      22.467  -7.977  28.921  1.00  0.00     0.000 C 
BRANCH  16  17
ATOM     17  C   UNL     1      21.071  -8.283  29.493  1.00  0.00     0.000 C 
BRANCH  17  18
ATOM     18  C   UNL     1      21.100  -9.412  30.547  1.00  0.00    -0.000 C 
BRANCH  18  19
ATOM     19  C   UNL     1      21.297 -10.817  29.948  1.00  0.00    -0.000 C 
BRANCH  19  20
ATOM     20  C   UNL     1      22.584 -11.538  30.393  1.00  0.00    -0.000 C 
BRANCH  20  21
ATOM     21  C   UNL     1      23.101 -11.142  31.792  1.00  0.00    -0.000 C 
BRANCH  21  22
ATOM     22  C   UNL     1      24.616 -11.330  32.010  1.00  0.00    -0.000 C 
BRANCH  22  23
ATOM     23  C   UNL     1      25.190 -10.594  33.235  1.00  0.00    -0.000 C 
BRANCH  23  24
ATOM     24  C   UNL     1      24.569  -9.199  33.434  1.00  0.00    -0.000 C 
BRANCH  24  25
ATOM     25  C   UNL     1      24.065  -8.979  34.869  1.00  0.00    -0.003 C 
ATOM     26  C   UNL     1      24.001 -10.276  35.676  1.00  0.00     0.004 C 
ENDBRANCH  24  25
ENDBRANCH  23  24
ENDBRANCH  22  23
ENDBRANCH  21  22
ENDBRANCH  20  21
ENDBRANCH  19  20
ENDBRANCH  18  19
ENDBRANCH  17  18
ENDBRANCH  16  17
ENDBRANCH  15  16
ENDBRANCH   1  15
TORSDOF 22
ENDMDL
MODEL 2
REMARK VINA RESULT:    -3.079      2.370      7.279
REMARK INTER + INTRA:         -10.497
REMARK INTER:                  -7.809
REMARK INTRA:                  -2.688
REMARK UNBOUND:                -3.458
REMARK SMILES CCCCCCCCCCCCCCCCCCCCCCCC(=O)[O-]
REMARK SMILES IDX 13 1 14 2 15 3 16 4 17 5 18 6 19 7 20 8 21 9 22 10 23 11
REMARK SMILES IDX 24 12 25 13 26 14 12 15 11 16 10 17 9 18 8 19 7 20 6 21 5 22
REMARK SMILES IDX 4 23 3 24 2 25 1 26
REMARK H PARENT
REMARK Flexibility Score: inf
ROOT
ATOM      1  C   UNL     1      25.453  -9.107  29.292  1.00  0.00     0.000 C 
ENDROOT
BRANCH   1   2
ATOM      2  C   UNL     1      24.397  -7.992  29.274  1.00  0.00     0.000 C 
BRANCH   2   3
ATOM      3  C   UNL     1      23.507  -7.984  30.530  1.00  0.00     0.000 C 
BRANCH   3   4
ATOM      4  C   UNL     1      22.028  -8.337  30.285  1.00  0.00     0.000 C 
BRANCH   4   5
ATOM      5  C   UNL     1      21.788  -9.690  29.589  1.00  0.00     0.000 C 
BRANCH   5   6
ATOM      6  C   UNL     1      21.424 -10.833  30.560  1.00  0.00     0.000 C 
BRANCH   6   7
ATOM      7  C   UNL     1      22.648 -11.669  30.971  1.00  0.00     0.000 C 
BRANCH   7   8
ATOM      8  C   UNL     1      23.063 -11.427  32.432  1.00  0.00     0.000 C 
BRANCH   8   9
ATOM      9  C   UNL     1      21.951 -10.760  33.256  1.00  0.00     0.000 C 
BRANCH   9  10
ATOM     10  C   UNL     1      22.261 -10.837  34.755  1.00  0.00     0.006 C 
BRANCH  10  11
ATOM     11  C   UNL     1      22.414  -9.439  35.358  1.00  0.00     0.053 C 
BRANCH  11  12
ATOM     12  C   UNL     1      23.855  -9.143  35.637  1.00  0.00     0.041 C 
ATOM     13  O   UNL     1      24.756  -9.892  35.176  1.00  0.00    -0.550 OA
ATOM     14  O   UNL     1      24.199  -8.069  36.448  1.00  0.00    -0.550 OA
ENDBRANCH  11  12
ENDBRANCH  10  11
ENDBRANCH   9  10
ENDBRANCH   8   9
ENDBRANCH   7   8
ENDBRANCH   6   7
ENDBRANCH   5   6
ENDBRANCH   4   5
ENDBRANCH   3   4
ENDBRANCH   2   3
ENDBRANCH   1   2
BRANCH   1  15
ATOM     15  C   UNL     1      25.758  -9.552  30.731  1.00  0.00     0.000 C 
BRANCH  15  16
ATOM     16  C   UNL     1      27.265  -9.601  31.027  1.00  0.00     0.000 C 
BRANCH  16  17
ATOM     17  C   UNL     1      28.084 -10.112  29.828  1.00  0.00     0.000 C 
BRANCH  17  18
ATOM     18  C   UNL     1      28.717 -11.495  30.092  1.00  0.00    -0.000 C 
BRANCH  18  19
ATOM     19  C   UNL     1      30.252 -11.461  30.229  1.00  0.00    -0.000 C 
BRANCH  19  20
ATOM     20  C   UNL     1      30.778 -10.671  31.443  1.00  0.00    -0.000 C 
BRANCH  20  21
ATOM     21  C   UNL     1      32.072  -9.870  31.188  1.00  0.00    -0.000 C 
BRANCH  21  22
ATOM     22  C   UNL     1      31.887  -8.345  31.065  1.00  0.00    -0.000 C 
BRANCH  22  23
ATOM     23  C   UNL     1      30.479  -7.833  31.423  1.00  0.00    -0.000 C 
BRANCH  23  24
ATOM     24  C   UNL     1      30.453  -7.044  32.744  1.00  0.00    -0.000 C 
BRANCH  24  25
ATOM     25  C   UNL     1      31.863  -6.755  33.284  1.00  0.00    -0.003 C 
ATOM     26  C   UNL     1      32.259  -7.689  34.428  1.00  0.00     0.004 C 
ENDBRANCH  24  25
ENDBRANCH  23  24
ENDBRANCH  22  23
ENDBRANCH  21  22
ENDBRANCH  20  21
ENDBRANCH  19  20
ENDBRANCH  18  19
ENDBRANCH  17  18
ENDBRANCH  16  17
ENDBRANCH  15  16
ENDBRANCH   1  15
TORSDOF 22
ENDMDL
MODEL 3
REMARK VINA RESULT:    -3.065      1.236      2.931
REMARK INTER + INTRA:         -10.464
REMARK INTER:                  -8.090
REMARK INTRA:                  -2.375
REMARK UNBOUND:                -3.458
REMARK SMILES CCCCCCCCCCCCCCCCCCCCCCCC(=O)[O-]
REMARK SMILES IDX 13 1 14 2 15 3 16 4 17 5 18 6 19 7 20 8 21 9 22 10 23 11
REMARK SMILES IDX 24 12 25 13 26 14 12 15 11 16 10 17 9 18 8 19 7 20 6 21 5 22
REMARK SMILES IDX 4 23 3 24 2 25 1 26
REMARK H PARENT
REMARK Flexibility Score: inf
ROOT
ATOM      1  C   UNL     1      27.291  -9.798  30.520  1.00  0.00     0.000 C 
ENDROOT
BRANCH   1   2
ATOM      2  C   UNL     1      27.972 -10.959  29.778  1.00  0.00     0.000 C 
BRANCH   2   3
ATOM      3  C   UNL     1      28.643 -11.970  30.726  1.00  0.00     0.000 C 
BRANCH   3   4
ATOM      4  C   UNL     1      29.909 -11.457  31.438  1.00  0.00     0.000 C 
BRANCH   4   5
ATOM      5  C   UNL     1      31.079 -11.093  30.503  1.00  0.00     0.000 C 
BRANCH   5   6
ATOM      6  C   UNL     1      32.285 -10.462  31.232  1.00  0.00     0.000 C 
BRANCH   6   7
ATOM      7  C   UNL     1      32.929  -9.321  30.425  1.00  0.00     0.000 C 
BRANCH   7   8
ATOM      8  C   UNL     1      32.485  -7.933  30.912  1.00  0.00     0.000 C 
BRANCH   8   9
ATOM      9  C   UNL     1      30.958  -7.763  30.893  1.00  0.00     0.000 C 
BRANCH   9  10
ATOM     10  C   UNL     1      30.430  -7.406  32.287  1.00  0.00     0.006 C 
BRANCH  10  11
ATOM     11  C   UNL     1      31.507  -6.712  33.124  1.00  0.00     0.053 C 
BRANCH  11  12
ATOM     12  C   UNL     1      32.056  -7.651  34.152  1.00  0.00     0.041 C 
ATOM     13  O   UNL     1      31.559  -8.799  34.292  1.00  0.00    -0.550 OA
ATOM     14  O   UNL     1      33.086  -7.238  34.989  1.00  0.00    -0.550 OA
ENDBRANCH  11  12
ENDBRANCH  10  11
ENDBRANCH   9  10
ENDBRANCH   8   9
ENDBRANCH   7   8
ENDBRANCH   6   7
ENDBRANCH   5   6
ENDBRANCH   4   5
ENDBRANCH   3   4
ENDBRANCH   2   3
ENDBRANCH   1   2
BRANCH   1  15
ATOM     15  C   UNL     1      26.268  -9.094  29.615  1.00  0.00     0.000 C 
BRANCH  15  16
ATOM     16  C   UNL     1      25.843  -9.960  28.419  1.00  0.00     0.000 C 
BRANCH  16  17
ATOM     17  C   UNL     1      24.406  -9.659  27.955  1.00  0.00     0.000 C 
BRANCH  17  18
ATOM     18  C   UNL     1      23.641  -8.760  28.951  1.00  0.00    -0.000 C 
BRANCH  18  19
ATOM     19  C   UNL     1      22.295  -9.350  29.414  1.00  0.00    -0.000 C 
BRANCH  19  20
ATOM     20  C   UNL     1      22.386 -10.746  30.060  1.00  0.00    -0.000 C 
BRANCH  20  21
ATOM     21  C   UNL     1      22.398 -10.750  31.603  1.00  0.00    -0.000 C 
BRANCH  21  22
ATOM     22  C   UNL     1      23.795 -10.684  32.250  1.00  0.00    -0.000 C 
BRANCH  22  23
ATOM     23  C   UNL     1      24.282  -9.265  32.596  1.00  0.00    -0.000 C 
BRANCH  23  24
ATOM     24  C   UNL     1      24.595  -9.094  34.094  1.00  0.00    -0.000 C 
BRANCH  24  25
ATOM     25  C   UNL     1      23.453  -9.591  34.993  1.00  0.00    -0.003 C 
ATOM     26  C   UNL     1      23.856 -10.793  35.848  1.00  0.00     0.004 C 
ENDBRANCH  24  25
ENDBRANCH  23  24
ENDBRANCH  22  23
ENDBRANCH  21  22
ENDBRANCH  20  21
ENDBRANCH  19  20
ENDBRANCH  18  19
ENDBRANCH  17  18
ENDBRANCH  16  17
ENDBRANCH  15  16
ENDBRANCH   1  15
TORSDOF 22
ENDMDL
MODEL 4
REMARK VINA RESULT:    -3.041      2.722      7.974
REMARK INTER + INTRA:         -10.411
REMARK INTER:                  -8.561
REMARK INTRA:                  -1.850
REMARK UNBOUND:                -3.458
REMARK SMILES CCCCCCCCCCCCCCCCCCCCCCCC(=O)[O-]
REMARK SMILES IDX 13 1 14 2 15 3 16 4 17 5 18 6 19 7 20 8 21 9 22 10 23 11
REMARK SMILES IDX 24 12 25 13 26 14 12 15 11 16 10 17 9 18 8 19 7 20 6 21 5 22
REMARK SMILES IDX 4 23 3 24 2 25 1 26
REMARK H PARENT
REMARK Flexibility Score: inf
ROOT
ATOM      1  C   UNL     1      27.015  -9.545  30.200  1.00  0.00     0.000 C 
ENDROOT
BRANCH   1   2
ATOM      2  C   UNL     1      26.681 -10.446  29.001  1.00  0.00     0.000 C 
BRANCH   2   3
ATOM      3  C   UNL     1      25.621  -9.837  28.065  1.00  0.00     0.000 C 
BRANCH   3   4
ATOM      4  C   UNL     1      24.618  -8.886  28.746  1.00  0.00     0.000 C 
BRANCH   4   5
ATOM      5  C   UNL     1      23.296  -8.680  27.984  1.00  0.00     0.000 C 
BRANCH   5   6
ATOM      6  C   UNL     1      22.101  -8.324  28.894  1.00  0.00     0.000 C 
BRANCH   6   7
ATOM      7  C   UNL     1      22.481  -8.311  30.385  1.00  0.00     0.000 C 
BRANCH   7   8
ATOM      8  C   UNL     1      21.576  -9.220  31.232  1.00  0.00     0.000 C 
BRANCH   8   9
ATOM      9  C   UNL     1      22.376 -10.185  32.119  1.00  0.00     0.000 C 
BRANCH   9  10
ATOM     10  C   UNL     1      22.119  -9.902  33.604  1.00  0.00     0.006 C 
BRANCH  10  11
ATOM     11  C   UNL     1      23.433  -9.818  34.385  1.00  0.00     0.053 C 
BRANCH  11  12
ATOM     12  C   UNL     1      23.281  -8.917  35.570  1.00  0.00     0.041 C 
ATOM     13  O   UNL     1      24.297  -8.513  36.193  1.00  0.00    -0.550 OA
ATOM     14  O   UNL     1      22.013  -8.562  36.014  1.00  0.00    -0.550 OA
ENDBRANCH  11  12
ENDBRANCH  10  11
ENDBRANCH   9  10
ENDBRANCH   8   9
ENDBRANCH   7   8
ENDBRANCH   6   7
ENDBRANCH   5   6
ENDBRANCH   4   5
ENDBRANCH   3   4
ENDBRANCH   2   3
ENDBRANCH   1   2
BRANCH   1  15
ATOM     15  C   UNL     1      28.280 -10.036  30.920  1.00  0.00     0.000 C 
BRANCH  15  16
ATOM     16  C   UNL     1      28.764 -11.399  30.401  1.00  0.00     0.000 C 
BRANCH  16  17
ATOM     17  C   UNL     1      30.045 -11.878  31.107  1.00  0.00     0.000 C 
BRANCH  17  18
ATOM     18  C   UNL     1      31.327 -11.405  30.388  1.00  0.00    -0.000 C 
BRANCH  18  19
ATOM     19  C   UNL     1      32.234 -10.512  31.257  1.00  0.00    -0.000 C 
BRANCH  19  20
ATOM     20  C   UNL     1      32.958  -9.385  30.494  1.00  0.00    -0.000 C 
BRANCH  20  21
ATOM     21  C   UNL     1      32.489  -7.957  30.843  1.00  0.00    -0.000 C 
BRANCH  21  22
ATOM     22  C   UNL     1      30.970  -7.797  31.053  1.00  0.00    -0.000 C 
BRANCH  22  23
ATOM     23  C   UNL     1      30.563  -7.239  32.429  1.00  0.00    -0.000 C 
BRANCH  23  24
ATOM     24  C   UNL     1      31.771  -6.770  33.260  1.00  0.00    -0.000 C 
BRANCH  24  25
ATOM     25  C   UNL     1      32.182  -7.795  34.329  1.00  0.00    -0.003 C 
ATOM     26  C   UNL     1      33.304  -7.284  35.235  1.00  0.00     0.004 C 
ENDBRANCH  24  25
ENDBRANCH  23  24
ENDBRANCH  22  23
ENDBRANCH  21  22
ENDBRANCH  20  21
ENDBRANCH  19  20
ENDBRANCH  18  19
ENDBRANCH  17  18
ENDBRANCH  16  17
ENDBRANCH  15  16
ENDBRANCH   1  15
TORSDOF 22
ENDMDL
MODEL 5
REMARK VINA RESULT:    -3.033      2.387      6.253
REMARK INTER + INTRA:         -10.392
REMARK INTER:                  -6.828
REMARK INTRA:                  -3.564
REMARK UNBOUND:                -3.458
REMARK SMILES CCCCCCCCCCCCCCCCCCCCCCCC(=O)[O-]
REMARK SMILES IDX 13 1 14 2 15 3 16 4 17 5 18 6 19 7 20 8 21 9 22 10 23 11
REMARK SMILES IDX 24 12 25 13 26 14 12 15 11 16 10 17 9 18 8 19 7 20 6 21 5 22
REMARK SMILES IDX 4 23 3 24 2 25 1 26
REMARK H PARENT
REMARK Flexibility Score: inf
ROOT
ATOM      1  C   UNL     1      24.222  -8.058  30.051  1.00  0.00     0.000 C 
ENDROOT
BRANCH   1   2
ATOM      2  C   UNL     1      23.312  -8.482  28.888  1.00  0.00     0.000 C 
BRANCH   2   3
ATOM      3  C   UNL     1      21.817  -8.465  29.255  1.00  0.00     0.000 C 
BRANCH   3   4
ATOM      4  C   UNL     1      21.189  -9.851  29.499  1.00  0.00     0.000 C 
BRANCH   4   5
ATOM      5  C   UNL     1      21.210 -10.327  30.963  1.00  0.00     0.000 C 
BRANCH   5   6
ATOM      6  C   UNL     1      21.772 -11.752  31.147  1.00  0.00     0.000 C 
BRANCH   6   7
ATOM      7  C   UNL     1      22.939 -12.052  30.189  1.00  0.00     0.000 C 
BRANCH   7   8
ATOM      8  C   UNL     1      24.303 -12.029  30.898  1.00  0.00     0.000 C 
BRANCH   8   9
ATOM      9  C   UNL     1      24.170 -11.989  32.428  1.00  0.00     0.000 C 
BRANCH   9  10
ATOM     10  C   UNL     1      24.997 -10.841  33.019  1.00  0.00     0.006 C 
BRANCH  10  11
ATOM     11  C   UNL     1      24.094  -9.702  33.498  1.00  0.00     0.053 C 
BRANCH  11  12
ATOM     12  C   UNL     1      24.151  -9.581  34.988  1.00  0.00     0.041 C 
ATOM     13  O   UNL     1      24.186  -8.446  35.531  1.00  0.00    -0.550 OA
ATOM     14  O   UNL     1      24.215 -10.724  35.776  1.00  0.00    -0.550 OA
ENDBRANCH  11  12
ENDBRANCH  10  11
ENDBRANCH   9  10
ENDBRANCH   8   9
ENDBRANCH   7   8
ENDBRANCH   6   7
ENDBRANCH   5   6
ENDBRANCH   4   5
ENDBRANCH   3   4
ENDBRANCH   2   3
ENDBRANCH   1   2
BRANCH   1  15
ATOM     15  C   UNL     1      25.582  -8.768  29.971  1.00  0.00     0.000 C 
BRANCH  15  16
ATOM     16  C   UNL     1      25.681  -9.721  28.769  1.00  0.00     0.000 C 
BRANCH  16  17
ATOM     17  C   UNL     1      27.034  -9.613  28.043  1.00  0.00     0.000 C 
BRANCH  17  18
ATOM     18  C   UNL     1      27.730 -10.983  27.887  1.00  0.00    -0.000 C 
BRANCH  18  19
ATOM     19  C   UNL     1      27.654 -11.866  29.147  1.00  0.00    -0.000 C 
BRANCH  19  20
ATOM     20  C   UNL     1      28.901 -11.819  30.050  1.00  0.00    -0.000 C 
BRANCH  20  21
ATOM     21  C   UNL     1      28.773 -10.909  31.290  1.00  0.00    -0.000 C 
BRANCH  21  22
ATOM     22  C   UNL     1      29.022  -9.410  31.033  1.00  0.00    -0.000 C 
BRANCH  22  23
ATOM     23  C   UNL     1      30.372  -8.880  31.553  1.00  0.00    -0.000 C 
BRANCH  23  24
ATOM     24  C   UNL     1      30.290  -7.420  32.034  1.00  0.00    -0.000 C 
BRANCH  24  25
ATOM     25  C   UNL     1      31.374  -7.081  33.069  1.00  0.00    -0.003 C 
ATOM     26  C   UNL     1      31.798  -8.294  33.898  1.00  0.00     0.004 C 
ENDBRANCH  24  25
ENDBRANCH  23  24
ENDBRANCH  22  23
ENDBRANCH  21  22
ENDBRANCH  20  21
ENDBRANCH  19  20
ENDBRANCH  18  19
ENDBRANCH  17  18
ENDBRANCH  16  17
ENDBRANCH  15  16
ENDBRANCH   1  15
TORSDOF 22
ENDMDL
MODEL 6
REMARK VINA RESULT:    -3.011      1.248      2.204
REMARK INTER + INTRA:         -10.341
REMARK INTER:                  -7.047
REMARK INTRA:                  -3.294
REMARK UNBOUND:                -3.458
REMARK SMILES CCCCCCCCCCCCCCCCCCCCCCCC(=O)[O-]
REMARK SMILES IDX 13 1 14 2 15 3 16 4 17 5 18 6 19 7 20 8 21 9 22 10 23 11
REMARK SMILES IDX 24 12 25 13 26 14 12 15 11 16 10 17 9 18 8 19 7 20 6 21 5 22
REMARK SMILES IDX 4 23 3 24 2 25 1 26
REMARK H PARENT
REMARK Flexibility Score: inf
ROOT
ATOM      1  C   UNL     1      25.493  -8.700  29.648  1.00  0.00     0.000 C 
ENDROOT
BRANCH   1   2
ATOM      2  C   UNL     1      24.787  -9.187  30.923  1.00  0.00     0.000 C 
BRANCH   2   3
ATOM      3  C   UNL     1      25.764  -9.724  31.985  1.00  0.00     0.000 C 
BRANCH   3   4
ATOM      4  C   UNL     1      25.882 -11.259  32.047  1.00  0.00     0.000 C 
BRANCH   4   5
ATOM      5  C   UNL     1      27.277 -11.819  31.712  1.00  0.00     0.000 C 
BRANCH   5   6
ATOM      6  C   UNL     1      27.595 -11.836  30.201  1.00  0.00     0.000 C 
BRANCH   6   7
ATOM      7  C   UNL     1      28.657 -10.792  29.812  1.00  0.00     0.000 C 
BRANCH   7   8
ATOM      8  C   UNL     1      29.361 -10.184  31.035  1.00  0.00     0.000 C 
BRANCH   8   9
ATOM      9  C   UNL     1      30.785 -10.727  31.223  1.00  0.00     0.000 C 
BRANCH   9  10
ATOM     10  C   UNL     1      31.805  -9.583  31.275  1.00  0.00     0.006 C 
BRANCH  10  11
ATOM     11  C   UNL     1      31.116  -8.243  31.547  1.00  0.00     0.053 C 
BRANCH  11  12
ATOM     12  C   UNL     1      31.439  -7.760  32.926  1.00  0.00     0.041 C 
ATOM     13  O   UNL     1      31.654  -8.584  33.853  1.00  0.00    -0.550 OA
ATOM     14  O   UNL     1      31.452  -6.397  33.199  1.00  0.00    -0.550 OA
ENDBRANCH  11  12
ENDBRANCH  10  11
ENDBRANCH   9  10
ENDBRANCH   8   9
ENDBRANCH   7   8
ENDBRANCH   6   7
ENDBRANCH   5   6
ENDBRANCH   4   5
ENDBRANCH   3   4
ENDBRANCH   2   3
ENDBRANCH   1   2
BRANCH   1  15
ATOM     15  C   UNL     1      25.215  -9.648  28.470  1.00  0.00     0.000 C 
BRANCH  15  16
ATOM     16  C   UNL     1      23.712  -9.849  28.217  1.00  0.00     0.000 C 
BRANCH  16  17
ATOM     17  C   UNL     1      22.969  -8.519  27.994  1.00  0.00     0.000 C 
BRANCH  17  18
ATOM     18  C   UNL     1      21.766  -8.348  28.946  1.00  0.00    -0.000 C 
BRANCH  18  19
ATOM     19  C   UNL     1      21.174  -9.681  29.445  1.00  0.00    -0.000 C 
BRANCH  19  20
ATOM     20  C   UNL     1      21.183  -9.862  30.975  1.00  0.00    -0.000 C 
BRANCH  20  21
ATOM     21  C   UNL     1      21.750 -11.209  31.469  1.00  0.00    -0.000 C 
BRANCH  21  22
ATOM     22  C   UNL     1      22.248 -11.218  32.928  1.00  0.00    -0.000 C 
BRANCH  22  23
ATOM     23  C   UNL     1      22.330  -9.830  33.591  1.00  0.00    -0.000 C 
BRANCH  23  24
ATOM     24  C   UNL     1      21.711  -9.809  35.000  1.00  0.00    -0.000 C 
BRANCH  24  25
ATOM     25  C   UNL     1      22.730  -9.423  36.084  1.00  0.00    -0.003 C 
ATOM     26  C   UNL     1      24.098  -9.063  35.505  1.00  0.00     0.004 C 
ENDBRANCH  24  25
ENDBRANCH  23  24
ENDBRANCH  22  23
ENDBRANCH  21  22
ENDBRANCH  20  21
ENDBRANCH  19  20
ENDBRANCH  18  19
ENDBRANCH  17  18
ENDBRANCH  16  17
ENDBRANCH  15  16
ENDBRANCH   1  15
TORSDOF 22
ENDMDL
MODEL 7
REMARK VINA RESULT:    -2.994      2.572      6.798
REMARK INTER + INTRA:         -10.303
REMARK INTER:                  -7.330
REMARK INTRA:                  -2.973
REMARK UNBOUND:                -3.458
REMARK SMILES CCCCCCCCCCCCCCCCCCCCCCCC(=O)[O-]
REMARK SMILES IDX 13 1 14 2 15 3 16 4 17 5 18 6 19 7 20 8 21 9 22 10 23 11
REMARK SMILES IDX 24 12 25 13 26 14 12 15 11 16 10 17 9 18 8 19 7 20 6 21 5 22
REMARK SMILES IDX 4 23 3 24 2 25 1 26
REMARK H PARENT
REMARK Flexibility Score: inf
ROOT
ATOM      1  C   UNL     1      23.993  -7.232  29.400  1.00  0.00     0.000 C 
ENDROOT
BRANCH   1   2
ATOM      2  C   UNL     1      22.764  -7.691  28.601  1.00  0.00     0.000 C 
BRANCH   2   3
ATOM      3  C   UNL     1      21.780  -8.531  29.437  1.00  0.00     0.000 C 
BRANCH   3   4
ATOM      4  C   UNL     1      21.446  -9.917  28.853  1.00  0.00     0.000 C 
BRANCH   4   5
ATOM      5  C   UNL     1      22.585 -10.951  28.938  1.00  0.00     0.000 C 
BRANCH   5   6
ATOM      6  C   UNL     1      22.394 -11.996  30.058  1.00  0.00     0.000 C 
BRANCH   6   7
ATOM      7  C   UNL     1      22.768 -11.447  31.446  1.00  0.00     0.000 C 
BRANCH   7   8
ATOM      8  C   UNL     1      21.557 -11.360  32.390  1.00  0.00     0.000 C 
BRANCH   8   9
ATOM      9  C   UNL     1      21.652 -10.173  33.359  1.00  0.00     0.000 C 
BRANCH   9  10
ATOM     10  C   UNL     1      23.115  -9.826  33.659  1.00  0.00     0.006 C 
BRANCH  10  11
ATOM     11  C   UNL     1      23.413  -9.940  35.155  1.00  0.00     0.053 C 
BRANCH  11  12
ATOM     12  C   UNL     1      24.216 -11.172  35.435  1.00  0.00     0.041 C 
ATOM     13  O   UNL     1      24.074 -11.786  36.526  1.00  0.00    -0.550 OA
ATOM     14  O   UNL     1      25.155 -11.614  34.513  1.00  0.00    -0.550 OA
ENDBRANCH  11  12
ENDBRANCH  10  11
ENDBRANCH   9  10
ENDBRANCH   8   9
ENDBRANCH   7   8
ENDBRANCH   6   7
ENDBRANCH   5   6
ENDBRANCH   4   5
ENDBRANCH   3   4
ENDBRANCH   2   3
ENDBRANCH   1   2
BRANCH   1  15
ATOM     15  C   UNL     1      24.185  -8.096  30.657  1.00  0.00     0.000 C 
BRANCH  15  16
ATOM     16  C   UNL     1      25.383  -9.052  30.539  1.00  0.00     0.000 C 
BRANCH  16  17
ATOM     17  C   UNL     1      25.869  -9.210  29.087  1.00  0.00     0.000 C 
BRANCH  17  18
ATOM     18  C   UNL     1      27.286  -9.819  29.003  1.00  0.00    -0.000 C 
BRANCH  18  19
ATOM     19  C   UNL     1      28.006  -9.909  30.362  1.00  0.00    -0.000 C 
BRANCH  19  20
ATOM     20  C   UNL     1      28.765 -11.227  30.608  1.00  0.00    -0.000 C 
BRANCH  20  21
ATOM     21  C   UNL     1      29.931 -11.130  31.614  1.00  0.00    -0.000 C 
BRANCH  21  22
ATOM     22  C   UNL     1      31.339 -11.265  31.001  1.00  0.00    -0.000 C 
BRANCH  22  23
ATOM     23  C   UNL     1      32.230 -10.016  31.146  1.00  0.00    -0.000 C 
BRANCH  23  24
ATOM     24  C   UNL     1      31.804  -9.116  32.320  1.00  0.00    -0.000 C 
BRANCH  24  25
ATOM     25  C   UNL     1      31.417  -7.700  31.865  1.00  0.00    -0.003 C 
ATOM     26  C   UNL     1      30.155  -7.183  32.556  1.00  0.00     0.004 C 
ENDBRANCH  24  25
ENDBRANCH  23  24
ENDBRANCH  22  23
ENDBRANCH  21  22
ENDBRANCH  20  21
ENDBRANCH  19  20
ENDBRANCH  18  19
ENDBRANCH  17  18
ENDBRANCH  16  17
ENDBRANCH  15  16
ENDBRANCH   1  15
TORSDOF 22
ENDMDL
MODEL 8
REMARK VINA RESULT:    -2.900      2.529      7.167
REMARK INTER + INTRA:         -10.088
REMARK INTER:                  -7.513
REMARK INTRA:                  -2.576
REMARK UNBOUND:                -3.458
REMARK SMILES CCCCCCCCCCCCCCCCCCCCCCCC(=O)[O-]
REMARK SMILES IDX 13 1 14 2 15 3 16 4 17 5 18 6 19 7 20 8 21 9 22 10 23 11
REMARK SMILES IDX 24 12 25 13 26 14 12 15 11 16 10 17 9 18 8 19 7 20 6 21 5 22
REMARK SMILES IDX 4 23 3 24 2 25 1 26
REMARK H PARENT
REMARK Flexibility Score: inf
ROOT
ATOM      1  C   UNL     1      26.210  -9.131  29.376  1.00  0.00     0.000 C 
ENDROOT
BRANCH   1   2
ATOM      2  C   UNL     1      25.165 -10.022  28.688  1.00  0.00     0.000 C 
BRANCH   2   3
ATOM      3  C   UNL     1      24.039  -9.218  28.011  1.00  0.00     0.000 C 
BRANCH   3   4
ATOM      4  C   UNL     1      23.665  -7.900  28.714  1.00  0.00     0.000 C 
BRANCH   4   5
ATOM      5  C   UNL     1      22.510  -8.007  29.727  1.00  0.00     0.000 C 
BRANCH   5   6
ATOM      6  C   UNL     1      21.501  -9.130  29.405  1.00  0.00     0.000 C 
BRANCH   6   7
ATOM      7  C   UNL     1      21.416 -10.184  30.522  1.00  0.00     0.000 C 
BRANCH   7   8
ATOM      8  C   UNL     1      22.485  -9.979  31.607  1.00  0.00     0.000 C 
BRANCH   8   9
ATOM      9  C   UNL     1      22.806 -11.273  32.370  1.00  0.00     0.000 C 
BRANCH   9  10
ATOM     10  C   UNL     1      22.854 -11.020  33.881  1.00  0.00     0.006 C 
BRANCH  10  11
ATOM     11  C   UNL     1      23.663  -9.763  34.204  1.00  0.00     0.053 C 
BRANCH  11  12
ATOM     12  C   UNL     1      23.964  -9.696  35.669  1.00  0.00     0.041 C 
ATOM     13  O   UNL     1      24.368  -8.620  36.184  1.00  0.00    -0.550 OA
ATOM     14  O   UNL     1      23.845 -10.835  36.455  1.00  0.00    -0.550 OA
ENDBRANCH  11  12
ENDBRANCH  10  11
ENDBRANCH   9  10
ENDBRANCH   8   9
ENDBRANCH   7   8
ENDBRANCH   6   7
ENDBRANCH   5   6
ENDBRANCH   4   5
ENDBRANCH   3   4
ENDBRANCH   2   3
ENDBRANCH   1   2
BRANCH   1  15
ATOM     15  C   UNL     1      26.400  -9.541  30.845  1.00  0.00     0.000 C 
BRANCH  15  16
ATOM     16  C   UNL     1      26.065 -11.020  31.093  1.00  0.00     0.000 C 
BRANCH  16  17
ATOM     17  C   UNL     1      27.326 -11.888  31.260  1.00  0.00     0.000 C 
BRANCH  17  18
ATOM     18  C   UNL     1      28.627 -11.064  31.163  1.00  0.00    -0.000 C 
BRANCH  18  19
ATOM     19  C   UNL     1      29.910 -11.914  31.241  1.00  0.00    -0.000 C 
BRANCH  19  20
ATOM     20  C   UNL     1      30.820 -11.832  30.001  1.00  0.00    -0.000 C 
BRANCH  20  21
ATOM     21  C   UNL     1      32.186 -11.155  30.238  1.00  0.00    -0.000 C 
BRANCH  21  22
ATOM     22  C   UNL     1      32.250 -10.218  31.461  1.00  0.00    -0.000 C 
BRANCH  22  23
ATOM     23  C   UNL     1      32.081  -8.722  31.139  1.00  0.00    -0.000 C 
BRANCH  23  24
ATOM     24  C   UNL     1      30.772  -8.138  31.700  1.00  0.00    -0.000 C 
BRANCH  24  25
ATOM     25  C   UNL     1      31.012  -7.189  32.885  1.00  0.00    -0.003 C 
ATOM     26  C   UNL     1      31.965  -7.776  33.927  1.00  0.00     0.004 C 
ENDBRANCH  24  25
ENDBRANCH  23  24
ENDBRANCH  22  23
ENDBRANCH  21  22
ENDBRANCH  20  21
ENDBRANCH  19  20
ENDBRANCH  18  19
ENDBRANCH  17  18
ENDBRANCH  16  17
ENDBRANCH  15  16
ENDBRANCH   1  15
TORSDOF 22
ENDMDL
