MODEL 1
REMARK VINA RESULT:    -4.397      0.000      0.000
REMARK INTER + INTRA:          -9.616
REMARK INTER:                  -6.711
REMARK INTRA:                  -2.905
REMARK UNBOUND:                -2.905
REMARK SMILES CC(=O)CCC=C(C)CCC=C(C)CCC=C(C)C
REMARK SMILES IDX 10 1 11 2 12 3 13 4 14 5 15 6 16 7 18 8 17 9 19 10 9 11 7 12
REMARK SMILES IDX 6 13 8 14 5 15 4 16 2 17 3 18 1 19
REMARK H PARENT
REMARK Flexibility Score: inf
ROOT
ATOM      1  C   UNL     1      -1.001   3.243  27.788  1.00  0.00     0.032 C 
ENDROOT
BRANCH   1   2
ATOM      2  C   UNL     1      -1.384   1.974  27.069  1.00  0.00    -0.028 C 
ATOM      3  C   UNL     1      -1.106   0.722  27.501  1.00  0.00    -0.077 C 
ATOM      4  C   UNL     1      -1.532  -0.438  26.639  1.00  0.00     0.039 C 
BRANCH   3   5
ATOM      5  C   UNL     1      -0.419   0.425  28.822  1.00  0.00     0.034 C 
BRANCH   5   6
ATOM      6  C   UNL     1      -1.332  -0.346  29.787  1.00  0.00     0.032 C 
BRANCH   6   7
ATOM      7  C   UNL     1      -2.230   0.589  30.561  1.00  0.00    -0.028 C 
ATOM      8  C   UNL     1      -4.284   1.801  31.145  1.00  0.00     0.039 C 
ATOM      9  C   UNL     1      -3.546   0.777  30.322  1.00  0.00    -0.080 C 
ATOM     10  C   UNL     1      -4.289  -0.003  29.265  1.00  0.00     0.039 C 
ENDBRANCH   6   7
ENDBRANCH   5   6
ENDBRANCH   3   5
ENDBRANCH   1   2
BRANCH   1  11
ATOM     11  C   UNL     1      -2.173   3.783  28.615  1.00  0.00     0.034 C 
BRANCH  11  12
ATOM     12  C   UNL     1      -1.711   4.202  29.994  1.00  0.00    -0.077 C 
ATOM     13  C   UNL     1      -0.544   3.709  30.468  1.00  0.00    -0.028 C 
ATOM     14  C   UNL     1      -2.563   5.153  30.801  1.00  0.00     0.039 C 
BRANCH  13  15
ATOM     15  C   UNL     1       0.059   4.072  31.805  1.00  0.00     0.035 C 
BRANCH  15  16
ATOM     16  C   UNL     1      -0.292   3.043  32.886  1.00  0.00     0.079 C 
BRANCH  16  17
ATOM     17  C   UNL     1      -1.210   3.623  33.930  1.00  0.00     0.130 C 
ATOM     18  O   UNL     1      -2.123   2.944  34.376  1.00  0.00    -0.300 OA
ATOM     19  C   UNL     1      -1.047   5.036  34.404  1.00  0.00     0.087 C 
ENDBRANCH  16  17
ENDBRANCH  15  16
ENDBRANCH  13  15
ENDBRANCH  11  12
ENDBRANCH   1  11
TORSDOF 9
ENDMDL
MODEL 2
REMARK VINA RESULT:    -4.301      2.232      3.308
REMARK INTER + INTRA:          -9.469
REMARK INTER:                  -6.792
REMARK INTRA:                  -2.677
REMARK UNBOUND:                -2.905
REMARK SMILES CC(=O)CCC=C(C)CCC=C(C)CCC=C(C)C
REMARK SMILES IDX 10 1 11 2 12 3 13 4 14 5 15 6 16 7 18 8 17 9 19 10 9 11 7 12
REMARK SMILES IDX 6 13 8 14 5 15 4 16 2 17 3 18 1 19
REMARK H PARENT
REMARK Flexibility Score: inf
ROOT
ATOM      1  C   UNL     1      -0.483   1.849  29.601  1.00  0.00     0.032 C 
ENDROOT
BRANCH   1   2
ATOM      2  C   UNL     1      -0.282   0.779  28.558  1.00  0.00    -0.028 C 
ATOM      3  C   UNL     1      -1.102   0.556  27.505  1.00  0.00    -0.077 C 
ATOM      4  C   UNL     1      -0.772  -0.583  26.575  1.00  0.00     0.039 C 
BRANCH   3   5
ATOM      5  C   UNL     1      -2.318   1.413  27.193  1.00  0.00     0.034 C 
BRANCH   5   6
ATOM      6  C   UNL     1      -3.605   0.580  27.117  1.00  0.00     0.032 C 
BRANCH   6   7
ATOM      7  C   UNL     1      -3.844  -0.185  28.397  1.00  0.00    -0.028 C 
ATOM      8  C   UNL     1      -4.759  -0.649  30.628  1.00  0.00     0.039 C 
ATOM      9  C   UNL     1      -4.689   0.193  29.380  1.00  0.00    -0.080 C 
ATOM     10  C   UNL     1      -5.556   1.424  29.266  1.00  0.00     0.039 C 
ENDBRANCH   6   7
ENDBRANCH   5   6
ENDBRANCH   3   5
ENDBRANCH   1   2
BRANCH   1  11
ATOM     11  C   UNL     1      -1.421   1.365  30.713  1.00  0.00     0.034 C 
BRANCH  11  12
ATOM     12  C   UNL     1      -2.418   2.443  31.082  1.00  0.00    -0.077 C 
ATOM     13  C   UNL     1      -3.104   2.327  32.241  1.00  0.00    -0.028 C 
ATOM     14  C   UNL     1      -2.620   3.612  30.147  1.00  0.00     0.039 C 
BRANCH  13  15
ATOM     15  C   UNL     1      -4.096   3.344  32.756  1.00  0.00     0.035 C 
BRANCH  15  16
ATOM     16  C   UNL     1      -5.541   2.852  32.615  1.00  0.00     0.079 C 
BRANCH  16  17
ATOM     17  C   UNL     1      -5.868   1.785  33.628  1.00  0.00     0.130 C 
ATOM     18  O   UNL     1      -6.546   0.825  33.296  1.00  0.00    -0.300 OA
ATOM     19  C   UNL     1      -5.405   1.903  35.049  1.00  0.00     0.087 C 
ENDBRANCH  16  17
ENDBRANCH  15  16
ENDBRANCH  13  15
ENDBRANCH  11  12
ENDBRANCH   1  11
TORSDOF 9
ENDMDL
MODEL 3
REMARK VINA RESULT:    -4.290      1.424      2.181
REMARK INTER + INTRA:          -9.452
REMARK INTER:                  -7.311
REMARK INTRA:                  -2.141
REMARK UNBOUND:                -2.905
REMARK SMILES CC(=O)CCC=C(C)CCC=C(C)CCC=C(C)C
REMARK SMILES IDX 10 1 11 2 12 3 13 4 14 5 15 6 16 7 18 8 17 9 19 10 9 11 7 12
REMARK SMILES IDX 6 13 8 14 5 15 4 16 2 17 3 18 1 19
REMARK H PARENT
REMARK Flexibility Score: inf
ROOT
ATOM      1  C   UNL     1      -0.239   0.367  28.821  1.00  0.00     0.032 C 
ENDROOT
BRANCH   1   2
ATOM      2  C   UNL     1      -0.786   0.317  27.418  1.00  0.00    -0.028 C 
ATOM      3  C   UNL     1      -1.971  -0.233  27.064  1.00  0.00    -0.077 C 
ATOM      4  C   UNL     1      -2.350  -0.229  25.606  1.00  0.00     0.039 C 
BRANCH   3   5
ATOM      5  C   UNL     1      -2.952  -0.823  28.064  1.00  0.00     0.034 C 
BRANCH   5   6
ATOM      6  C   UNL     1      -3.973   0.216  28.550  1.00  0.00     0.032 C 
BRANCH   6   7
ATOM      7  C   UNL     1      -4.450  -0.094  29.949  1.00  0.00    -0.028 C 
ATOM      8  C   UNL     1      -5.465   0.320  32.147  1.00  0.00     0.039 C 
ATOM      9  C   UNL     1      -5.120   0.763  30.748  1.00  0.00    -0.080 C 
ATOM     10  C   UNL     1      -5.530   2.141  30.285  1.00  0.00     0.039 C 
ENDBRANCH   6   7
ENDBRANCH   5   6
ENDBRANCH   3   5
ENDBRANCH   1   2
BRANCH   1  11
ATOM     11  C   UNL     1       0.069   1.809  29.242  1.00  0.00     0.034 C 
BRANCH  11  12
ATOM     12  C   UNL     1      -1.113   2.424  29.960  1.00  0.00    -0.077 C 
ATOM     13  C   UNL     1      -1.282   2.167  31.277  1.00  0.00    -0.028 C 
ATOM     14  C   UNL     1      -2.070   3.301  29.188  1.00  0.00     0.039 C 
BRANCH  13  15
ATOM     15  C   UNL     1      -2.389   2.745  32.128  1.00  0.00     0.035 C 
BRANCH  15  16
ATOM     16  C   UNL     1      -1.946   4.027  32.843  1.00  0.00     0.079 C 
BRANCH  16  17
ATOM     17  C   UNL     1      -1.899   3.843  34.338  1.00  0.00     0.130 C 
ATOM     18  O   UNL     1      -2.347   2.821  34.835  1.00  0.00    -0.300 OA
ATOM     19  C   UNL     1      -1.346   4.914  35.230  1.00  0.00     0.087 C 
ENDBRANCH  16  17
ENDBRANCH  15  16
ENDBRANCH  13  15
ENDBRANCH  11  12
ENDBRANCH   1  11
TORSDOF 9
ENDMDL
MODEL 4
REMARK VINA RESULT:    -4.248      2.225      4.002
REMARK INTER + INTRA:          -9.388
REMARK INTER:                  -7.354
REMARK INTRA:                  -2.033
REMARK UNBOUND:                -2.905
REMARK SMILES CC(=O)CCC=C(C)CCC=C(C)CCC=C(C)C
REMARK SMILES IDX 10 1 11 2 12 3 13 4 14 5 15 6 16 7 18 8 17 9 19 10 9 11 7 12
REMARK SMILES IDX 6 13 8 14 5 15 4 16 2 17 3 18 1 19
REMARK H PARENT
REMARK Flexibility Score: inf
ROOT
ATOM      1  C   UNL     1      -3.575  -0.498  29.469  1.00  0.00     0.032 C 
ENDROOT
BRANCH   1   2
ATOM      2  C   UNL     1      -2.999  -0.264  28.095  1.00  0.00    -0.028 C 
ATOM      3  C   UNL     1      -1.711   0.061  27.837  1.00  0.00    -0.077 C 
ATOM      4  C   UNL     1      -1.310   0.295  26.404  1.00  0.00     0.039 C 
BRANCH   3   5
ATOM      5  C   UNL     1      -0.643   0.170  28.912  1.00  0.00     0.034 C 
BRANCH   5   6
ATOM      6  C   UNL     1      -0.088   1.596  29.030  1.00  0.00     0.032 C 
BRANCH   6   7
ATOM      7  C   UNL     1      -0.589   2.281  30.279  1.00  0.00    -0.028 C 
ATOM      8  C   UNL     1      -1.970   3.781  31.649  1.00  0.00     0.039 C 
ATOM      9  C   UNL     1      -1.642   3.125  30.332  1.00  0.00    -0.080 C 
ATOM     10  C   UNL     1      -2.491   3.427  29.121  1.00  0.00     0.039 C 
ENDBRANCH   6   7
ENDBRANCH   5   6
ENDBRANCH   3   5
ENDBRANCH   1   2
BRANCH   1  11
ATOM     11  C   UNL     1      -4.663   0.533  29.792  1.00  0.00     0.034 C 
BRANCH  11  12
ATOM     12  C   UNL     1      -4.974   0.540  31.273  1.00  0.00    -0.077 C 
ATOM     13  C   UNL     1      -4.998   1.722  31.930  1.00  0.00    -0.028 C 
ATOM     14  C   UNL     1      -5.243  -0.770  31.976  1.00  0.00     0.039 C 
BRANCH  13  15
ATOM     15  C   UNL     1      -5.334   1.883  33.394  1.00  0.00     0.035 C 
BRANCH  15  16
ATOM     16  C   UNL     1      -4.082   2.143  34.240  1.00  0.00     0.079 C 
BRANCH  16  17
ATOM     17  C   UNL     1      -4.317   1.829  35.694  1.00  0.00     0.130 C 
ATOM     18  O   UNL     1      -3.391   1.429  36.384  1.00  0.00    -0.300 OA
ATOM     19  C   UNL     1      -5.682   1.962  36.302  1.00  0.00     0.087 C 
ENDBRANCH  16  17
ENDBRANCH  15  16
ENDBRANCH  13  15
ENDBRANCH  11  12
ENDBRANCH   1  11
TORSDOF 9
ENDMDL
MODEL 5
REMARK VINA RESULT:    -4.202      1.639      2.277
REMARK INTER + INTRA:          -9.318
REMARK INTER:                  -7.035
REMARK INTRA:                  -2.283
REMARK UNBOUND:                -2.905
REMARK SMILES CC(=O)CCC=C(C)CCC=C(C)CCC=C(C)C
REMARK SMILES IDX 10 1 11 2 12 3 13 4 14 5 15 6 16 7 18 8 17 9 19 10 9 11 7 12
REMARK SMILES IDX 6 13 8 14 5 15 4 16 2 17 3 18 1 19
REMARK H PARENT
REMARK Flexibility Score: inf
ROOT
ATOM      1  C   UNL     1       0.033   1.691  29.221  1.00  0.00     0.032 C 
ENDROOT
BRANCH   1   2
ATOM      2  C   UNL     1      -0.835   2.455  28.253  1.00  0.00    -0.028 C 
ATOM      3  C   UNL     1      -1.435   1.926  27.162  1.00  0.00    -0.077 C 
ATOM      4  C   UNL     1      -2.241   2.842  26.279  1.00  0.00     0.039 C 
BRANCH   3   5
ATOM      5  C   UNL     1      -1.366   0.452  26.800  1.00  0.00     0.034 C 
BRANCH   5   6
ATOM      6  C   UNL     1      -2.740  -0.227  26.886  1.00  0.00     0.032 C 
BRANCH   6   7
ATOM      7  C   UNL     1      -3.039  -0.690  28.292  1.00  0.00    -0.028 C 
ATOM      8  C   UNL     1      -4.013  -0.624  30.546  1.00  0.00     0.039 C 
ATOM      9  C   UNL     1      -3.878  -0.071  29.150  1.00  0.00    -0.080 C 
ATOM     10  C   UNL     1      -4.676   1.149  28.755  1.00  0.00     0.039 C 
ENDBRANCH   6   7
ENDBRANCH   5   6
ENDBRANCH   3   5
ENDBRANCH   1   2
BRANCH   1  11
ATOM     11  C   UNL     1      -0.761   1.280  30.467  1.00  0.00     0.034 C 
BRANCH  11  12
ATOM     12  C   UNL     1      -1.013   2.475  31.361  1.00  0.00    -0.077 C 
ATOM     13  C   UNL     1       0.040   3.217  31.772  1.00  0.00    -0.028 C 
ATOM     14  C   UNL     1      -2.429   2.802  31.773  1.00  0.00     0.039 C 
BRANCH  13  15
ATOM     15  C   UNL     1      -0.066   4.457  32.628  1.00  0.00     0.035 C 
BRANCH  15  16
ATOM     16  C   UNL     1       0.125   4.139  34.116  1.00  0.00     0.079 C 
BRANCH  16  17
ATOM     17  C   UNL     1      -0.811   4.943  34.982  1.00  0.00     0.130 C 
ATOM     18  O   UNL     1      -0.476   5.239  36.119  1.00  0.00    -0.300 OA
ATOM     19  C   UNL     1      -2.164   5.352  34.483  1.00  0.00     0.087 C 
ENDBRANCH  16  17
ENDBRANCH  15  16
ENDBRANCH  13  15
ENDBRANCH  11  12
ENDBRANCH   1  11
TORSDOF 9
ENDMDL
MODEL 6
REMARK VINA RESULT:    -4.189      1.814      3.102
REMARK INTER + INTRA:          -9.297
REMARK INTER:                  -6.337
REMARK INTRA:                  -2.960
REMARK UNBOUND:                -2.905
REMARK SMILES CC(=O)CCC=C(C)CCC=C(C)CCC=C(C)C
REMARK SMILES IDX 10 1 11 2 12 3 13 4 14 5 15 6 16 7 18 8 17 9 19 10 9 11 7 12
REMARK SMILES IDX 6 13 8 14 5 15 4 16 2 17 3 18 1 19
REMARK H PARENT
REMARK Flexibility Score: inf
ROOT
ATOM      1  C   UNL     1      -0.254   0.948  29.454  1.00  0.00     0.032 C 
ENDROOT
BRANCH   1   2
ATOM      2  C   UNL     1      -0.498   0.425  28.062  1.00  0.00    -0.028 C 
ATOM      3  C   UNL     1      -1.643  -0.160  27.640  1.00  0.00    -0.077 C 
ATOM      4  C   UNL     1      -1.705  -0.661  26.221  1.00  0.00     0.039 C 
BRANCH   3   5
ATOM      5  C   UNL     1      -2.879  -0.307  28.512  1.00  0.00     0.034 C 
BRANCH   5   6
ATOM      6  C   UNL     1      -4.075   0.477  27.954  1.00  0.00     0.032 C 
BRANCH   6   7
ATOM      7  C   UNL     1      -4.177   1.846  28.583  1.00  0.00    -0.028 C 
ATOM      8  C   UNL     1      -3.820   4.263  28.833  1.00  0.00     0.039 C 
ATOM      9  C   UNL     1      -3.697   2.986  28.042  1.00  0.00    -0.080 C 
ATOM     10  C   UNL     1      -3.045   3.017  26.681  1.00  0.00     0.039 C 
ENDBRANCH   6   7
ENDBRANCH   5   6
ENDBRANCH   3   5
ENDBRANCH   1   2
BRANCH   1  11
ATOM     11  C   UNL     1      -0.008   2.462  29.439  1.00  0.00     0.034 C 
BRANCH  11  12
ATOM     12  C   UNL     1      -0.797   3.146  30.534  1.00  0.00    -0.077 C 
ATOM     13  C   UNL     1      -1.528   2.388  31.382  1.00  0.00    -0.028 C 
ATOM     14  C   UNL     1      -0.749   4.652  30.647  1.00  0.00     0.039 C 
BRANCH  13  15
ATOM     15  C   UNL     1      -2.328   2.930  32.544  1.00  0.00     0.035 C 
BRANCH  15  16
ATOM     16  C   UNL     1      -3.837   2.852  32.282  1.00  0.00     0.079 C 
BRANCH  16  17
ATOM     17  C   UNL     1      -4.439   1.600  32.866  1.00  0.00     0.130 C 
ATOM     18  O   UNL     1      -4.491   1.464  34.079  1.00  0.00    -0.300 OA
ATOM     19  C   UNL     1      -4.942   0.499  31.981  1.00  0.00     0.087 C 
ENDBRANCH  16  17
ENDBRANCH  15  16
ENDBRANCH  13  15
ENDBRANCH  11  12
ENDBRANCH   1  11
TORSDOF 9
ENDMDL
MODEL 7
REMARK VINA RESULT:    -4.185      1.884      2.847
REMARK INTER + INTRA:          -9.292
REMARK INTER:                  -6.904
REMARK INTRA:                  -2.389
REMARK UNBOUND:                -2.905
REMARK SMILES CC(=O)CCC=C(C)CCC=C(C)CCC=C(C)C
REMARK SMILES IDX 10 1 11 2 12 3 13 4 14 5 15 6 16 7 18 8 17 9 19 10 9 11 7 12
REMARK SMILES IDX 6 13 8 14 5 15 4 16 2 17 3 18 1 19
REMARK H PARENT
REMARK Flexibility Score: inf
ROOT
ATOM      1  C   UNL     1      -0.333   1.323  29.296  1.00  0.00     0.032 C 
ENDROOT
BRANCH   1   2
ATOM      2  C   UNL     1      -0.557   0.250  28.262  1.00  0.00    -0.028 C 
ATOM      3  C   UNL     1      -1.379   0.360  27.192  1.00  0.00    -0.077 C 
ATOM      4  C   UNL     1      -1.513  -0.827  26.274  1.00  0.00     0.039 C 
BRANCH   3   5
ATOM      5  C   UNL     1      -2.147   1.626  26.853  1.00  0.00     0.034 C 
BRANCH   5   6
ATOM      6  C   UNL     1      -3.659   1.456  27.059  1.00  0.00     0.032 C 
BRANCH   6   7
ATOM      7  C   UNL     1      -3.958   0.385  28.082  1.00  0.00    -0.028 C 
ATOM      8  C   UNL     1      -4.864  -0.598  30.142  1.00  0.00     0.039 C 
ATOM      9  C   UNL     1      -4.721   0.556  29.183  1.00  0.00    -0.080 C 
ATOM     10  C   UNL     1      -5.425   1.858  29.479  1.00  0.00     0.039 C 
ENDBRANCH   6   7
ENDBRANCH   5   6
ENDBRANCH   3   5
ENDBRANCH   1   2
BRANCH   1  11
ATOM     11  C   UNL     1      -1.286   1.150  30.485  1.00  0.00     0.034 C 
BRANCH  11  12
ATOM     12  C   UNL     1      -1.954   2.462  30.835  1.00  0.00    -0.077 C 
ATOM     13  C   UNL     1      -1.808   3.513  29.996  1.00  0.00    -0.028 C 
ATOM     14  C   UNL     1      -2.760   2.563  32.108  1.00  0.00     0.039 C 
BRANCH  13  15
ATOM     15  C   UNL     1      -2.450   4.865  30.196  1.00  0.00     0.035 C 
BRANCH  15  16
ATOM     16  C   UNL     1      -1.404   5.980  30.314  1.00  0.00     0.079 C 
BRANCH  16  17
ATOM     17  C   UNL     1      -1.220   6.422  31.743  1.00  0.00     0.130 C 
ATOM     18  O   UNL     1      -1.609   7.528  32.088  1.00  0.00    -0.300 OA
ATOM     19  C   UNL     1      -0.532   5.540  32.741  1.00  0.00     0.087 C 
ENDBRANCH  16  17
ENDBRANCH  15  16
ENDBRANCH  13  15
ENDBRANCH  11  12
ENDBRANCH   1  11
TORSDOF 9
ENDMDL
MODEL 8
REMARK VINA RESULT:    -4.176      2.476      6.143
REMARK INTER + INTRA:          -9.278
REMARK INTER:                  -6.596
REMARK INTRA:                  -2.682
REMARK UNBOUND:                -2.905
REMARK SMILES CC(=O)CCC=C(C)CCC=C(C)CCC=C(C)C
REMARK SMILES IDX 10 1 11 2 12 3 13 4 14 5 15 6 16 7 18 8 17 9 19 10 9 11 7 12
REMARK SMILES IDX 6 13 8 14 5 15 4 16 2 17 3 18 1 19
REMARK H PARENT
REMARK Flexibility Score: inf
ROOT
ATOM      1  C   UNL     1      -5.471  -0.102  31.338  1.00  0.00     0.032 C 
ENDROOT
BRANCH   1   2
ATOM      2  C   UNL     1      -5.226   0.328  32.762  1.00  0.00    -0.028 C 
ATOM      3  C   UNL     1      -5.306   1.601  33.215  1.00  0.00    -0.077 C 
ATOM      4  C   UNL     1      -4.993   1.860  34.666  1.00  0.00     0.039 C 
BRANCH   3   5
ATOM      5  C   UNL     1      -5.726   2.774  32.346  1.00  0.00     0.034 C 
BRANCH   5   6
ATOM      6  C   UNL     1      -4.918   4.041  32.659  1.00  0.00     0.032 C 
BRANCH   6   7
ATOM      7  C   UNL     1      -3.960   4.375  31.540  1.00  0.00    -0.028 C 
ATOM      8  C   UNL     1      -1.817   4.505  30.347  1.00  0.00     0.039 C 
ATOM      9  C   UNL     1      -2.654   4.033  31.508  1.00  0.00    -0.080 C 
ATOM     10  C   UNL     1      -2.015   3.201  32.594  1.00  0.00     0.039 C 
ENDBRANCH   6   7
ENDBRANCH   5   6
ENDBRANCH   3   5
ENDBRANCH   1   2
BRANCH   1  11
ATOM     11  C   UNL     1      -4.222  -0.758  30.738  1.00  0.00     0.034 C 
BRANCH  11  12
ATOM     12  C   UNL     1      -3.329   0.279  30.091  1.00  0.00    -0.077 C 
ATOM     13  C   UNL     1      -1.990   0.179  30.253  1.00  0.00    -0.028 C 
ATOM     14  C   UNL     1      -3.956   1.394  29.288  1.00  0.00     0.039 C 
BRANCH  13  15
ATOM     15  C   UNL     1      -0.979   1.114  29.633  1.00  0.00     0.035 C 
BRANCH  15  16
ATOM     16  C   UNL     1      -0.251   0.462  28.451  1.00  0.00     0.079 C 
BRANCH  16  17
ATOM     17  C   UNL     1      -1.057   0.554  27.181  1.00  0.00     0.130 C 
ATOM     18  O   UNL     1      -1.351   1.651  26.730  1.00  0.00    -0.300 OA
ATOM     19  C   UNL     1      -1.539  -0.681  26.481  1.00  0.00     0.087 C 
ENDBRANCH  16  17
ENDBRANCH  15  16
ENDBRANCH  13  15
ENDBRANCH  11  12
ENDBRANCH   1  11
TORSDOF 9
ENDMDL
MODEL 9
REMARK VINA RESULT:    -3.905      1.828      2.987
REMARK INTER + INTRA:          -8.865
REMARK INTER:                  -6.127
REMARK INTRA:                  -2.738
REMARK UNBOUND:                -2.905
REMARK SMILES CC(=O)CCC=C(C)CCC=C(C)CCC=C(C)C
REMARK SMILES IDX 10 1 11 2 12 3 13 4 14 5 15 6 16 7 18 8 17 9 19 10 9 11 7 12
REMARK SMILES IDX 6 13 8 14 5 15 4 16 2 17 3 18 1 19
REMARK H PARENT
REMARK Flexibility Score: inf
ROOT
ATOM      1  C   UNL     1      -0.259   0.371  28.881  1.00  0.00     0.032 C 
ENDROOT
BRANCH   1   2
ATOM      2  C   UNL     1      -0.716   0.086  27.473  1.00  0.00    -0.028 C 
ATOM      3  C   UNL     1      -2.006  -0.042  27.086  1.00  0.00    -0.077 C 
ATOM      4  C   UNL     1      -2.286  -0.364  25.641  1.00  0.00     0.039 C 
BRANCH   3   5
ATOM      5  C   UNL     1      -3.186   0.154  28.023  1.00  0.00     0.034 C 
BRANCH   5   6
ATOM      6  C   UNL     1      -4.109   1.289  27.557  1.00  0.00     0.032 C 
BRANCH   6   7
ATOM      7  C   UNL     1      -3.884   2.548  28.361  1.00  0.00    -0.028 C 
ATOM      8  C   UNL     1      -2.882   4.706  28.969  1.00  0.00     0.039 C 
ATOM      9  C   UNL     1      -3.043   3.547  28.019  1.00  0.00    -0.080 C 
ATOM     10  C   UNL     1      -2.267   3.536  26.724  1.00  0.00     0.039 C 
ENDBRANCH   6   7
ENDBRANCH   5   6
ENDBRANCH   3   5
ENDBRANCH   1   2
BRANCH   1  11
ATOM     11  C   UNL     1       0.073   1.858  29.063  1.00  0.00     0.034 C 
BRANCH  11  12
ATOM     12  C   UNL     1      -0.462   2.370  30.383  1.00  0.00    -0.077 C 
ATOM     13  C   UNL     1       0.125   3.448  30.950  1.00  0.00    -0.028 C 
ATOM     14  C   UNL     1      -1.629   1.663  31.030  1.00  0.00     0.039 C 
BRANCH  13  15
ATOM     15  C   UNL     1      -0.328   4.092  32.239  1.00  0.00     0.035 C 
BRANCH  15  16
ATOM     16  C   UNL     1      -0.772   5.544  32.025  1.00  0.00     0.079 C 
BRANCH  16  17
ATOM     17  C   UNL     1      -2.067   5.842  32.736  1.00  0.00     0.130 C 
ATOM     18  O   UNL     1      -2.505   6.982  32.740  1.00  0.00    -0.300 OA
ATOM     19  C   UNL     1      -2.807   4.767  33.473  1.00  0.00     0.087 C 
ENDBRANCH  16  17
ENDBRANCH  15  16
ENDBRANCH  13  15
ENDBRANCH  11  12
ENDBRANCH   1  11
TORSDOF 9
ENDMDL
