MODEL 1
REMARK VINA RESULT:    -5.134      0.000      0.000
REMARK INTER + INTRA:         -11.040
REMARK INTER:                  -9.336
REMARK INTRA:                  -1.704
REMARK UNBOUND:                -1.704
REMARK SMILES CCCCCCCCCCCCCCCC(=O)[O-]
REMARK SMILES IDX 9 1 10 2 11 3 12 4 13 5 14 6 15 7 16 8 17 9 18 10 8 11 7 12
REMARK SMILES IDX 6 13 5 14 4 15 3 16 2 17 1 18
REMARK H PARENT
REMARK Flexibility Score: inf
ROOT
ATOM      1  C   UNL     1      10.561  22.610 -10.088  1.00  0.00     0.000 C 
ENDROOT
BRANCH   1   2
ATOM      2  C   UNL     1      11.239  23.832 -10.729  1.00  0.00     0.000 C 
BRANCH   2   3
ATOM      3  C   UNL     1      11.957  24.728  -9.702  1.00  0.00     0.000 C 
BRANCH   3   4
ATOM      4  C   UNL     1      11.944  24.207  -8.253  1.00  0.00     0.000 C 
BRANCH   4   5
ATOM      5  C   UNL     1      13.288  23.606  -7.818  1.00  0.00     0.000 C 
BRANCH   5   6
ATOM      6  C   UNL     1      13.079  22.317  -7.014  1.00  0.00     0.006 C 
BRANCH   6   7
ATOM      7  C   UNL     1      11.588  22.043  -6.791  1.00  0.00     0.053 C 
BRANCH   7   8
ATOM      8  C   UNL     1      11.203  20.726  -7.384  1.00  0.00     0.041 C 
ATOM      9  O   UNL     1      10.032  20.285  -7.242  1.00  0.00    -0.550 OA
ATOM     10  O   UNL     1      12.150  19.961  -8.052  1.00  0.00    -0.550 OA
ENDBRANCH   7   8
ENDBRANCH   6   7
ENDBRANCH   5   6
ENDBRANCH   4   5
ENDBRANCH   3   4
ENDBRANCH   2   3
ENDBRANCH   1   2
BRANCH   1  11
ATOM     11  C   UNL     1       9.024  22.714 -10.076  1.00  0.00     0.000 C 
BRANCH  11  12
ATOM     12  C   UNL     1       8.397  23.031  -8.705  1.00  0.00    -0.000 C 
BRANCH  12  13
ATOM     13  C   UNL     1       7.697  24.398  -8.666  1.00  0.00    -0.000 C 
BRANCH  13  14
ATOM     14  C   UNL     1       6.874  24.555  -7.378  1.00  0.00    -0.000 C 
BRANCH  14  15
ATOM     15  C   UNL     1       5.856  23.419  -7.182  1.00  0.00    -0.000 C 
BRANCH  15  16
ATOM     16  C   UNL     1       5.847  22.877  -5.742  1.00  0.00    -0.000 C 
BRANCH  16  17
ATOM     17  C   UNL     1       7.205  23.045  -5.041  1.00  0.00    -0.003 C 
ATOM     18  C   UNL     1       7.953  21.723  -4.876  1.00  0.00     0.004 C 
ENDBRANCH  16  17
ENDBRANCH  15  16
ENDBRANCH  14  15
ENDBRANCH  13  14
ENDBRANCH  12  13
ENDBRANCH  11  12
ENDBRANCH   1  11
TORSDOF 14
ENDMDL
MODEL 2
REMARK VINA RESULT:    -5.088      1.714      3.331
REMARK INTER + INTRA:         -10.956
REMARK INTER:                  -9.241
REMARK INTRA:                  -1.714
REMARK UNBOUND:                -1.704
REMARK SMILES CCCCCCCCCCCCCCCC(=O)[O-]
REMARK SMILES IDX 9 1 10 2 11 3 12 4 13 5 14 6 15 7 16 8 17 9 18 10 8 11 7 12
REMARK SMILES IDX 6 13 5 14 4 15 3 16 2 17 1 18
REMARK H PARENT
REMARK Flexibility Score: inf
ROOT
ATOM      1  C   UNL     1       7.476  22.938  -9.303  1.00  0.00     0.000 C 
ENDROOT
BRANCH   1   2
ATOM      2  C   UNL     1       8.699  22.560 -10.155  1.00  0.00     0.000 C 
BRANCH   2   3
ATOM      3  C   UNL     1      10.036  22.900  -9.471  1.00  0.00     0.000 C 
BRANCH   3   4
ATOM      4  C   UNL     1      10.976  23.812 -10.282  1.00  0.00     0.000 C 
BRANCH   4   5
ATOM      5  C   UNL     1      12.097  24.429  -9.433  1.00  0.00     0.000 C 
BRANCH   5   6
ATOM      6  C   UNL     1      12.474  23.506  -8.268  1.00  0.00     0.006 C 
BRANCH   6   7
ATOM      7  C   UNL     1      13.620  24.102  -7.444  1.00  0.00     0.053 C 
BRANCH   7   8
ATOM      8  C   UNL     1      14.214  23.065  -6.546  1.00  0.00     0.041 C 
ATOM      9  O   UNL     1      13.631  22.739  -5.479  1.00  0.00    -0.550 OA
ATOM     10  O   UNL     1      15.439  22.491  -6.863  1.00  0.00    -0.550 OA
ENDBRANCH   7   8
ENDBRANCH   6   7
ENDBRANCH   5   6
ENDBRANCH   4   5
ENDBRANCH   3   4
ENDBRANCH   2   3
ENDBRANCH   1   2
BRANCH   1  11
ATOM     11  C   UNL     1       7.660  24.268  -8.547  1.00  0.00     0.000 C 
BRANCH  11  12
ATOM     12  C   UNL     1       6.936  24.358  -7.191  1.00  0.00    -0.000 C 
BRANCH  12  13
ATOM     13  C   UNL     1       6.748  22.990  -6.517  1.00  0.00    -0.000 C 
BRANCH  13  14
ATOM     14  C   UNL     1       7.608  22.882  -5.249  1.00  0.00    -0.000 C 
BRANCH  14  15
ATOM     15  C   UNL     1       8.505  21.633  -5.244  1.00  0.00    -0.000 C 
BRANCH  15  16
ATOM     16  C   UNL     1       9.598  21.686  -6.326  1.00  0.00    -0.000 C 
BRANCH  16  17
ATOM     17  C   UNL     1       9.730  20.361  -7.093  1.00  0.00    -0.003 C 
ATOM     18  C   UNL     1      11.154  20.099  -7.583  1.00  0.00     0.004 C 
ENDBRANCH  16  17
ENDBRANCH  15  16
ENDBRANCH  14  15
ENDBRANCH  13  14
ENDBRANCH  12  13
ENDBRANCH  11  12
ENDBRANCH   1  11
TORSDOF 14
ENDMDL
MODEL 3
REMARK VINA RESULT:    -5.067      2.031      3.164
REMARK INTER + INTRA:         -10.917
REMARK INTER:                  -9.513
REMARK INTRA:                  -1.404
REMARK UNBOUND:                -1.704
REMARK SMILES CCCCCCCCCCCCCCCC(=O)[O-]
REMARK SMILES IDX 9 1 10 2 11 3 12 4 13 5 14 6 15 7 16 8 17 9 18 10 8 11 7 12
REMARK SMILES IDX 6 13 5 14 4 15 3 16 2 17 1 18
REMARK H PARENT
REMARK Flexibility Score: inf
ROOT
ATOM      1  C   UNL     1       7.145  23.630  -9.214  1.00  0.00     0.000 C 
ENDROOT
BRANCH   1   2
ATOM      2  C   UNL     1       8.541  23.263  -8.684  1.00  0.00     0.000 C 
BRANCH   2   3
ATOM      3  C   UNL     1       9.518  22.849  -9.800  1.00  0.00     0.000 C 
BRANCH   3   4
ATOM      4  C   UNL     1      11.004  22.821  -9.395  1.00  0.00     0.000 C 
BRANCH   4   5
ATOM      5  C   UNL     1      11.620  24.222  -9.276  1.00  0.00     0.000 C 
BRANCH   5   6
ATOM      6  C   UNL     1      12.796  24.224  -8.292  1.00  0.00     0.006 C 
BRANCH   6   7
ATOM      7  C   UNL     1      12.802  22.951  -7.440  1.00  0.00     0.053 C 
BRANCH   7   8
ATOM      8  C   UNL     1      14.032  22.894  -6.592  1.00  0.00     0.041 C 
ATOM      9  O   UNL     1      15.168  23.062  -7.110  1.00  0.00    -0.550 OA
ATOM     10  O   UNL     1      13.930  22.607  -5.237  1.00  0.00    -0.550 OA
ENDBRANCH   7   8
ENDBRANCH   6   7
ENDBRANCH   5   6
ENDBRANCH   4   5
ENDBRANCH   3   4
ENDBRANCH   2   3
ENDBRANCH   1   2
BRANCH   1  11
ATOM     11  C   UNL     1       6.547  22.547 -10.132  1.00  0.00     0.000 C 
BRANCH  11  12
ATOM     12  C   UNL     1       5.099  22.136  -9.807  1.00  0.00    -0.000 C 
BRANCH  12  13
ATOM     13  C   UNL     1       4.376  23.146  -8.902  1.00  0.00    -0.000 C 
BRANCH  13  14
ATOM     14  C   UNL     1       3.996  22.503  -7.559  1.00  0.00    -0.000 C 
BRANCH  14  15
ATOM     15  C   UNL     1       4.602  23.242  -6.354  1.00  0.00    -0.000 C 
BRANCH  15  16
ATOM     16  C   UNL     1       6.009  22.732  -5.995  1.00  0.00    -0.000 C 
BRANCH  16  17
ATOM     17  C   UNL     1       6.853  23.795  -5.274  1.00  0.00    -0.003 C 
ATOM     18  C   UNL     1       6.481  25.221  -5.678  1.00  0.00     0.004 C 
ENDBRANCH  16  17
ENDBRANCH  15  16
ENDBRANCH  14  15
ENDBRANCH  13  14
ENDBRANCH  12  13
ENDBRANCH  11  12
ENDBRANCH   1  11
TORSDOF 14
ENDMDL
MODEL 4
REMARK VINA RESULT:    -5.047      2.241      5.743
REMARK INTER + INTRA:         -10.881
REMARK INTER:                  -9.427
REMARK INTRA:                  -1.454
REMARK UNBOUND:                -1.704
REMARK SMILES CCCCCCCCCCCCCCCC(=O)[O-]
REMARK SMILES IDX 9 1 10 2 11 3 12 4 13 5 14 6 15 7 16 8 17 9 18 10 8 11 7 12
REMARK SMILES IDX 6 13 5 14 4 15 3 16 2 17 1 18
REMARK H PARENT
REMARK Flexibility Score: inf
ROOT
ATOM      1  C   UNL     1       8.593  23.030  -9.667  1.00  0.00     0.000 C 
ENDROOT
BRANCH   1   2
ATOM      2  C   UNL     1       7.451  22.102 -10.111  1.00  0.00     0.000 C 
BRANCH   2   3
ATOM      3  C   UNL     1       6.231  22.869 -10.657  1.00  0.00     0.000 C 
BRANCH   3   4
ATOM      4  C   UNL     1       5.388  23.601  -9.596  1.00  0.00     0.000 C 
BRANCH   4   5
ATOM      5  C   UNL     1       4.681  22.645  -8.625  1.00  0.00     0.000 C 
BRANCH   5   6
ATOM      6  C   UNL     1       5.033  22.979  -7.171  1.00  0.00     0.006 C 
BRANCH   6   7
ATOM      7  C   UNL     1       6.164  24.009  -7.101  1.00  0.00     0.053 C 
BRANCH   7   8
ATOM      8  C   UNL     1       6.716  24.088  -5.713  1.00  0.00     0.041 C 
ATOM      9  O   UNL     1       7.136  23.049  -5.138  1.00  0.00    -0.550 OA
ATOM     10  O   UNL     1       6.722  25.300  -5.035  1.00  0.00    -0.550 OA
ENDBRANCH   7   8
ENDBRANCH   6   7
ENDBRANCH   5   6
ENDBRANCH   4   5
ENDBRANCH   3   4
ENDBRANCH   2   3
ENDBRANCH   1   2
BRANCH   1  11
ATOM     11  C   UNL     1       9.974  22.564 -10.166  1.00  0.00     0.000 C 
BRANCH  11  12
ATOM     12  C   UNL     1      11.067  23.649 -10.183  1.00  0.00    -0.000 C 
BRANCH  12  13
ATOM     13  C   UNL     1      11.240  24.350  -8.827  1.00  0.00    -0.000 C 
BRANCH  13  14
ATOM     14  C   UNL     1      12.703  24.290  -8.363  1.00  0.00    -0.000 C 
BRANCH  14  15
ATOM     15  C   UNL     1      13.077  22.931  -7.749  1.00  0.00    -0.000 C 
BRANCH  15  16
ATOM     16  C   UNL     1      11.885  22.245  -7.060  1.00  0.00    -0.000 C 
BRANCH  16  17
ATOM     17  C   UNL     1      11.624  20.832  -7.604  1.00  0.00    -0.003 C 
ATOM     18  C   UNL     1      10.215  20.328  -7.295  1.00  0.00     0.004 C 
ENDBRANCH  16  17
ENDBRANCH  15  16
ENDBRANCH  14  15
ENDBRANCH  13  14
ENDBRANCH  12  13
ENDBRANCH  11  12
ENDBRANCH   1  11
TORSDOF 14
ENDMDL
MODEL 5
REMARK VINA RESULT:    -5.041      1.861      3.994
REMARK INTER + INTRA:         -10.870
REMARK INTER:                  -8.794
REMARK INTRA:                  -2.076
REMARK UNBOUND:                -1.704
REMARK SMILES CCCCCCCCCCCCCCCC(=O)[O-]
REMARK SMILES IDX 9 1 10 2 11 3 12 4 13 5 14 6 15 7 16 8 17 9 18 10 8 11 7 12
REMARK SMILES IDX 6 13 5 14 4 15 3 16 2 17 1 18
REMARK H PARENT
REMARK Flexibility Score: inf
ROOT
ATOM      1  C   UNL     1       8.833  21.609  -5.792  1.00  0.00     0.000 C 
ENDROOT
BRANCH   1   2
ATOM      2  C   UNL     1       9.924  22.153  -6.729  1.00  0.00     0.000 C 
BRANCH   2   3
ATOM      3  C   UNL     1       9.965  21.428  -8.087  1.00  0.00     0.000 C 
BRANCH   3   4
ATOM      4  C   UNL     1      10.495  22.268  -9.264  1.00  0.00     0.000 C 
BRANCH   4   5
ATOM      5  C   UNL     1      10.765  23.731  -8.885  1.00  0.00     0.000 C 
BRANCH   5   6
ATOM      6  C   UNL     1      12.237  24.096  -9.114  1.00  0.00     0.006 C 
BRANCH   6   7
ATOM      7  C   UNL     1      12.943  24.392  -7.787  1.00  0.00     0.053 C 
BRANCH   7   8
ATOM      8  C   UNL     1      13.878  23.281  -7.432  1.00  0.00     0.041 C 
ATOM      9  O   UNL     1      15.124  23.466  -7.461  1.00  0.00    -0.550 OA
ATOM     10  O   UNL     1      13.377  22.024  -7.115  1.00  0.00    -0.550 OA
ENDBRANCH   7   8
ENDBRANCH   6   7
ENDBRANCH   5   6
ENDBRANCH   4   5
ENDBRANCH   3   4
ENDBRANCH   2   3
ENDBRANCH   1   2
BRANCH   1  11
ATOM     11  C   UNL     1       7.901  22.710  -5.251  1.00  0.00     0.000 C 
BRANCH  11  12
ATOM     12  C   UNL     1       6.400  22.486  -5.510  1.00  0.00    -0.000 C 
BRANCH  12  13
ATOM     13  C   UNL     1       5.851  23.349  -6.656  1.00  0.00    -0.000 C 
BRANCH  13  14
ATOM     14  C   UNL     1       6.863  24.432  -7.059  1.00  0.00    -0.000 C 
BRANCH  14  15
ATOM     15  C   UNL     1       7.184  24.416  -8.562  1.00  0.00    -0.000 C 
BRANCH  15  16
ATOM     16  C   UNL     1       6.972  23.030  -9.197  1.00  0.00    -0.000 C 
BRANCH  16  17
ATOM     17  C   UNL     1       6.140  23.096 -10.488  1.00  0.00    -0.003 C 
ATOM     18  C   UNL     1       4.712  23.585 -10.248  1.00  0.00     0.004 C 
ENDBRANCH  16  17
ENDBRANCH  15  16
ENDBRANCH  14  15
ENDBRANCH  13  14
ENDBRANCH  12  13
ENDBRANCH  11  12
ENDBRANCH   1  11
TORSDOF 14
ENDMDL
MODEL 6
REMARK VINA RESULT:    -5.007      2.627      6.739
REMARK INTER + INTRA:         -10.808
REMARK INTER:                  -9.713
REMARK INTRA:                  -1.095
REMARK UNBOUND:                -1.704
REMARK SMILES CCCCCCCCCCCCCCCC(=O)[O-]
REMARK SMILES IDX 9 1 10 2 11 3 12 4 13 5 14 6 15 7 16 8 17 9 18 10 8 11 7 12
REMARK SMILES IDX 6 13 5 14 4 15 3 16 2 17 1 18
REMARK H PARENT
REMARK Flexibility Score: inf
ROOT
ATOM      1  C   UNL     1      11.759  24.385  -9.401  1.00  0.00     0.000 C 
ENDROOT
BRANCH   1   2
ATOM      2  C   UNL     1      10.873  23.140  -9.570  1.00  0.00     0.000 C 
BRANCH   2   3
ATOM      3  C   UNL     1       9.461  23.322  -8.982  1.00  0.00     0.000 C 
BRANCH   3   4
ATOM      4  C   UNL     1       8.360  22.471  -9.642  1.00  0.00     0.000 C 
BRANCH   4   5
ATOM      5  C   UNL     1       6.966  23.105  -9.536  1.00  0.00     0.000 C 
BRANCH   5   6
ATOM      6  C   UNL     1       6.902  24.102  -8.373  1.00  0.00     0.006 C 
BRANCH   6   7
ATOM      7  C   UNL     1       6.159  23.502  -7.174  1.00  0.00     0.053 C 
BRANCH   7   8
ATOM      8  C   UNL     1       6.795  23.937  -5.893  1.00  0.00     0.041 C 
ATOM      9  O   UNL     1       7.395  23.101  -5.166  1.00  0.00    -0.550 OA
ATOM     10  O   UNL     1       6.685  25.257  -5.475  1.00  0.00    -0.550 OA
ENDBRANCH   7   8
ENDBRANCH   6   7
ENDBRANCH   5   6
ENDBRANCH   4   5
ENDBRANCH   3   4
ENDBRANCH   2   3
ENDBRANCH   1   2
BRANCH   1  11
ATOM     11  C   UNL     1      12.790  24.238  -8.266  1.00  0.00     0.000 C 
BRANCH  11  12
ATOM     12  C   UNL     1      12.732  22.907  -7.493  1.00  0.00    -0.000 C 
BRANCH  12  13
ATOM     13  C   UNL     1      14.120  22.375  -7.105  1.00  0.00    -0.000 C 
BRANCH  13  14
ATOM     14  C   UNL     1      14.475  22.774  -5.664  1.00  0.00    -0.000 C 
BRANCH  14  15
ATOM     15  C   UNL     1      15.869  23.412  -5.550  1.00  0.00    -0.000 C 
BRANCH  15  16
ATOM     16  C   UNL     1      16.472  23.765  -6.921  1.00  0.00    -0.000 C 
BRANCH  16  17
ATOM     17  C   UNL     1      16.697  25.276  -7.093  1.00  0.00    -0.003 C 
ATOM     18  C   UNL     1      15.679  26.118  -6.324  1.00  0.00     0.004 C 
ENDBRANCH  16  17
ENDBRANCH  15  16
ENDBRANCH  14  15
ENDBRANCH  13  14
ENDBRANCH  12  13
ENDBRANCH  11  12
ENDBRANCH   1  11
TORSDOF 14
ENDMDL
MODEL 7
REMARK VINA RESULT:    -4.990      1.864      4.149
REMARK INTER + INTRA:         -10.778
REMARK INTER:                  -9.636
REMARK INTRA:                  -1.143
REMARK UNBOUND:                -1.704
REMARK SMILES CCCCCCCCCCCCCCCC(=O)[O-]
REMARK SMILES IDX 9 1 10 2 11 3 12 4 13 5 14 6 15 7 16 8 17 9 18 10 8 11 7 12
REMARK SMILES IDX 6 13 5 14 4 15 3 16 2 17 1 18
REMARK H PARENT
REMARK Flexibility Score: inf
ROOT
ATOM      1  C   UNL     1       4.782  22.508  -8.879  1.00  0.00     0.000 C 
ENDROOT
BRANCH   1   2
ATOM      2  C   UNL     1       6.068  23.279  -9.218  1.00  0.00     0.000 C 
BRANCH   2   3
ATOM      3  C   UNL     1       6.913  22.589 -10.306  1.00  0.00     0.000 C 
BRANCH   3   4
ATOM      4  C   UNL     1       8.317  22.139  -9.860  1.00  0.00     0.000 C 
BRANCH   4   5
ATOM      5  C   UNL     1       9.188  23.298  -9.356  1.00  0.00     0.000 C 
BRANCH   5   6
ATOM      6  C   UNL     1      10.657  23.092  -9.747  1.00  0.00     0.006 C 
BRANCH   6   7
ATOM      7  C   UNL     1      11.508  24.299  -9.340  1.00  0.00     0.053 C 
BRANCH   7   8
ATOM      8  C   UNL     1      12.490  23.914  -8.280  1.00  0.00     0.041 C 
ATOM      9  O   UNL     1      13.338  24.749  -7.867  1.00  0.00    -0.550 OA
ATOM     10  O   UNL     1      12.501  22.618  -7.780  1.00  0.00    -0.550 OA
ENDBRANCH   7   8
ENDBRANCH   6   7
ENDBRANCH   5   6
ENDBRANCH   4   5
ENDBRANCH   3   4
ENDBRANCH   2   3
ENDBRANCH   1   2
BRANCH   1  11
ATOM     11  C   UNL     1       4.139  22.964  -7.555  1.00  0.00     0.000 C 
BRANCH  11  12
ATOM     12  C   UNL     1       5.047  22.863  -6.315  1.00  0.00    -0.000 C 
BRANCH  12  13
ATOM     13  C   UNL     1       6.096  23.982  -6.244  1.00  0.00    -0.000 C 
BRANCH  13  14
ATOM     14  C   UNL     1       7.504  23.400  -6.045  1.00  0.00    -0.000 C 
BRANCH  14  15
ATOM     15  C   UNL     1       7.568  22.376  -4.900  1.00  0.00    -0.000 C 
BRANCH  15  16
ATOM     16  C   UNL     1       8.715  21.366  -5.075  1.00  0.00    -0.000 C 
BRANCH  16  17
ATOM     17  C   UNL     1       9.570  21.656  -6.319  1.00  0.00    -0.003 C 
ATOM     18  C   UNL     1       9.932  20.392  -7.098  1.00  0.00     0.004 C 
ENDBRANCH  16  17
ENDBRANCH  15  16
ENDBRANCH  14  15
ENDBRANCH  13  14
ENDBRANCH  12  13
ENDBRANCH  11  12
ENDBRANCH   1  11
TORSDOF 14
ENDMDL
MODEL 8
REMARK VINA RESULT:    -4.988      2.806      5.075
REMARK INTER + INTRA:         -10.774
REMARK INTER:                  -9.197
REMARK INTRA:                  -1.577
REMARK UNBOUND:                -1.704
REMARK SMILES CCCCCCCCCCCCCCCC(=O)[O-]
REMARK SMILES IDX 9 1 10 2 11 3 12 4 13 5 14 6 15 7 16 8 17 9 18 10 8 11 7 12
REMARK SMILES IDX 6 13 5 14 4 15 3 16 2 17 1 18
REMARK H PARENT
REMARK Flexibility Score: inf
ROOT
ATOM      1  C   UNL     1      11.544  22.687  -8.005  1.00  0.00     0.000 C 
ENDROOT
BRANCH   1   2
ATOM      2  C   UNL     1      11.284  21.175  -8.105  1.00  0.00     0.000 C 
BRANCH   2   3
ATOM      3  C   UNL     1      10.195  20.687  -7.131  1.00  0.00     0.000 C 
BRANCH   3   4
ATOM      4  C   UNL     1       9.669  21.749  -6.148  1.00  0.00     0.000 C 
BRANCH   4   5
ATOM      5  C   UNL     1       8.269  21.427  -5.606  1.00  0.00     0.000 C 
BRANCH   5   6
ATOM      6  C   UNL     1       7.647  22.652  -4.925  1.00  0.00     0.006 C 
BRANCH   6   7
ATOM      7  C   UNL     1       6.404  23.130  -5.682  1.00  0.00     0.053 C 
BRANCH   7   8
ATOM      8  C   UNL     1       6.492  24.597  -5.959  1.00  0.00     0.041 C 
ATOM      9  O   UNL     1       6.892  25.008  -7.080  1.00  0.00    -0.550 OA
ATOM     10  O   UNL     1       6.177  25.513  -4.963  1.00  0.00    -0.550 OA
ENDBRANCH   7   8
ENDBRANCH   6   7
ENDBRANCH   5   6
ENDBRANCH   4   5
ENDBRANCH   3   4
ENDBRANCH   2   3
ENDBRANCH   1   2
BRANCH   1  11
ATOM     11  C   UNL     1      11.149  23.449  -9.284  1.00  0.00     0.000 C 
BRANCH  11  12
ATOM     12  C   UNL     1       9.953  22.863 -10.056  1.00  0.00    -0.000 C 
BRANCH  12  13
ATOM     13  C   UNL     1       8.601  23.167  -9.392  1.00  0.00    -0.000 C 
BRANCH  13  14
ATOM     14  C   UNL     1       7.458  22.448 -10.125  1.00  0.00    -0.000 C 
BRANCH  14  15
ATOM     15  C   UNL     1       6.195  22.305  -9.260  1.00  0.00    -0.000 C 
BRANCH  15  16
ATOM     16  C   UNL     1       4.974  23.012  -9.874  1.00  0.00    -0.000 C 
BRANCH  16  17
ATOM     17  C   UNL     1       5.293  23.664 -11.229  1.00  0.00    -0.003 C 
ATOM     18  C   UNL     1       4.464  24.921 -11.491  1.00  0.00     0.004 C 
ENDBRANCH  16  17
ENDBRANCH  15  16
ENDBRANCH  14  15
ENDBRANCH  13  14
ENDBRANCH  12  13
ENDBRANCH  11  12
ENDBRANCH   1  11
TORSDOF 14
ENDMDL
MODEL 9
REMARK VINA RESULT:    -4.902      2.558      3.169
REMARK INTER + INTRA:         -10.617
REMARK INTER:                  -9.242
REMARK INTRA:                  -1.375
REMARK UNBOUND:                -1.704
REMARK SMILES CCCCCCCCCCCCCCCC(=O)[O-]
REMARK SMILES IDX 9 1 10 2 11 3 12 4 13 5 14 6 15 7 16 8 17 9 18 10 8 11 7 12
REMARK SMILES IDX 6 13 5 14 4 15 3 16 2 17 1 18
REMARK H PARENT
REMARK Flexibility Score: inf
ROOT
ATOM      1  C   UNL     1       9.439  21.819  -8.309  1.00  0.00     0.000 C 
ENDROOT
BRANCH   1   2
ATOM      2  C   UNL     1      10.597  22.397  -7.479  1.00  0.00     0.000 C 
BRANCH   2   3
ATOM      3  C   UNL     1      11.899  22.547  -8.289  1.00  0.00     0.000 C 
BRANCH   3   4
ATOM      4  C   UNL     1      12.418  23.990  -8.436  1.00  0.00     0.000 C 
BRANCH   4   5
ATOM      5  C   UNL     1      13.677  24.264  -7.600  1.00  0.00     0.000 C 
BRANCH   5   6
ATOM      6  C   UNL     1      14.351  22.954  -7.176  1.00  0.00     0.006 C 
BRANCH   6   7
ATOM      7  C   UNL     1      14.411  22.836  -5.650  1.00  0.00     0.053 C 
BRANCH   7   8
ATOM      8  C   UNL     1      15.815  23.011  -5.166  1.00  0.00     0.041 C 
ATOM      9  O   UNL     1      16.779  22.929  -5.972  1.00  0.00    -0.550 OA
ATOM     10  O   UNL     1      16.064  23.217  -3.815  1.00  0.00    -0.550 OA
ENDBRANCH   7   8
ENDBRANCH   6   7
ENDBRANCH   5   6
ENDBRANCH   4   5
ENDBRANCH   3   4
ENDBRANCH   2   3
ENDBRANCH   1   2
BRANCH   1  11
ATOM     11  C   UNL     1       8.736  22.879  -9.179  1.00  0.00     0.000 C 
BRANCH  11  12
ATOM     12  C   UNL     1       7.644  22.337 -10.120  1.00  0.00    -0.000 C 
BRANCH  12  13
ATOM     13  C   UNL     1       6.266  22.969  -9.870  1.00  0.00    -0.000 C 
BRANCH  13  14
ATOM     14  C   UNL     1       6.241  23.712  -8.526  1.00  0.00    -0.000 C 
BRANCH  14  15
ATOM     15  C   UNL     1       5.398  22.989  -7.462  1.00  0.00    -0.000 C 
BRANCH  15  16
ATOM     16  C   UNL     1       5.721  23.458  -6.033  1.00  0.00    -0.000 C 
BRANCH  16  17
ATOM     17  C   UNL     1       7.222  23.368  -5.710  1.00  0.00    -0.003 C 
ATOM     18  C   UNL     1       7.603  22.057  -5.023  1.00  0.00     0.004 C 
ENDBRANCH  16  17
ENDBRANCH  15  16
ENDBRANCH  14  15
ENDBRANCH  13  14
ENDBRANCH  12  13
ENDBRANCH  11  12
ENDBRANCH   1  11
TORSDOF 14
ENDMDL
