MODEL 1
REMARK VINA RESULT:    -3.958      0.000      0.000
REMARK INTER + INTRA:          -8.156
REMARK INTER:                  -6.735
REMARK INTRA:                  -1.421
REMARK UNBOUND:                -1.421
REMARK SMILES CCCCCCCCCCCCCC(=O)[O-]
REMARK SMILES IDX 8 1 9 2 10 3 11 4 12 5 13 6 14 7 15 8 16 9 7 10 6 11 5 12
REMARK SMILES IDX 4 13 3 14 2 15 1 16
REMARK H PARENT
REMARK Flexibility Score: inf
ROOT
ATOM      1  C   UNL     1       5.056  -2.846  -8.821  1.00  0.00     0.000 C 
ENDROOT
BRANCH   1   2
ATOM      2  C   UNL     1       6.411  -2.995  -9.529  1.00  0.00     0.000 C 
BRANCH   2   3
ATOM      3  C   UNL     1       7.521  -3.483  -8.586  1.00  0.00     0.000 C 
BRANCH   3   4
ATOM      4  C   UNL     1       7.448  -2.830  -7.197  1.00  0.00     0.000 C 
BRANCH   4   5
ATOM      5  C   UNL     1       7.491  -3.891  -6.090  1.00  0.00     0.006 C 
BRANCH   5   6
ATOM      6  C   UNL     1       7.637  -5.296  -6.680  1.00  0.00     0.053 C 
BRANCH   6   7
ATOM      7  C   UNL     1       6.777  -6.269  -5.937  1.00  0.00     0.041 C 
ATOM      8  O   UNL     1       6.746  -7.480  -6.281  1.00  0.00    -0.550 OA
ATOM      9  O   UNL     1       5.969  -5.828  -4.895  1.00  0.00    -0.550 OA
ENDBRANCH   6   7
ENDBRANCH   5   6
ENDBRANCH   4   5
ENDBRANCH   3   4
ENDBRANCH   2   3
ENDBRANCH   1   2
BRANCH   1  10
ATOM     10  C   UNL     1       4.241  -4.142  -8.914  1.00  0.00     0.000 C 
BRANCH  10  11
ATOM     11  C   UNL     1       3.867  -4.659  -7.518  1.00  0.00    -0.000 C 
BRANCH  11  12
ATOM     12  C   UNL     1       3.879  -3.549  -6.454  1.00  0.00    -0.000 C 
BRANCH  12  13
ATOM     13  C   UNL     1       2.556  -3.464  -5.673  1.00  0.00    -0.000 C 
BRANCH  13  14
ATOM     14  C   UNL     1       2.641  -2.513  -4.470  1.00  0.00    -0.000 C 
BRANCH  14  15
ATOM     15  C   UNL     1       1.748  -2.958  -3.302  1.00  0.00    -0.003 C 
ATOM     16  C   UNL     1       2.368  -2.578  -1.961  1.00  0.00     0.004 C 
ENDBRANCH  14  15
ENDBRANCH  13  14
ENDBRANCH  12  13
ENDBRANCH  11  12
ENDBRANCH  10  11
ENDBRANCH   1  10
TORSDOF 12
ENDMDL
MODEL 2
REMARK VINA RESULT:    -3.877      3.191      5.019
REMARK INTER + INTRA:          -8.018
REMARK INTER:                  -5.777
REMARK INTRA:                  -2.240
REMARK UNBOUND:                -1.421
REMARK SMILES CCCCCCCCCCCCCC(=O)[O-]
REMARK SMILES IDX 8 1 9 2 10 3 11 4 12 5 13 6 14 7 15 8 16 9 7 10 6 11 5 12
REMARK SMILES IDX 4 13 3 14 2 15 1 16
REMARK H PARENT
REMARK Flexibility Score: inf
ROOT
ATOM      1  C   UNL     1       3.692  -5.031  -8.439  1.00  0.00     0.000 C 
ENDROOT
BRANCH   1   2
ATOM      2  C   UNL     1       3.937  -4.155  -7.202  1.00  0.00     0.000 C 
BRANCH   2   3
ATOM      3  C   UNL     1       4.917  -3.004  -7.475  1.00  0.00     0.000 C 
BRANCH   3   4
ATOM      4  C   UNL     1       5.015  -2.652  -8.967  1.00  0.00     0.000 C 
BRANCH   4   5
ATOM      5  C   UNL     1       6.479  -2.579  -9.419  1.00  0.00     0.006 C 
BRANCH   5   6
ATOM      6  C   UNL     1       7.423  -2.508  -8.216  1.00  0.00     0.053 C 
BRANCH   6   7
ATOM      7  C   UNL     1       8.602  -1.641  -8.525  1.00  0.00     0.041 C 
ATOM      8  O   UNL     1       8.439  -0.526  -9.087  1.00  0.00    -0.550 OA
ATOM      9  O   UNL     1       9.887  -2.086  -8.238  1.00  0.00    -0.550 OA
ENDBRANCH   6   7
ENDBRANCH   5   6
ENDBRANCH   4   5
ENDBRANCH   3   4
ENDBRANCH   2   3
ENDBRANCH   1   2
BRANCH   1  10
ATOM     10  C   UNL     1       3.667  -6.519  -8.063  1.00  0.00     0.000 C 
BRANCH  10  11
ATOM     11  C   UNL     1       4.963  -7.218  -8.498  1.00  0.00    -0.000 C 
BRANCH  11  12
ATOM     12  C   UNL     1       5.845  -6.328  -9.389  1.00  0.00    -0.000 C 
BRANCH  12  13
ATOM     13  C   UNL     1       7.268  -6.156  -8.830  1.00  0.00    -0.000 C 
BRANCH  13  14
ATOM     14  C   UNL     1       7.415  -6.720  -7.407  1.00  0.00    -0.000 C 
BRANCH  14  15
ATOM     15  C   UNL     1       7.454  -5.618  -6.338  1.00  0.00    -0.003 C 
ATOM     16  C   UNL     1       6.409  -5.867  -5.255  1.00  0.00     0.004 C 
ENDBRANCH  14  15
ENDBRANCH  13  14
ENDBRANCH  12  13
ENDBRANCH  11  12
ENDBRANCH  10  11
ENDBRANCH   1  10
TORSDOF 12
ENDMDL
MODEL 3
REMARK VINA RESULT:    -3.762      1.206      2.070
REMARK INTER + INTRA:          -7.822
REMARK INTER:                  -6.911
REMARK INTRA:                  -0.911
REMARK UNBOUND:                -1.421
REMARK SMILES CCCCCCCCCCCCCC(=O)[O-]
REMARK SMILES IDX 8 1 9 2 10 3 11 4 12 5 13 6 14 7 15 8 16 9 7 10 6 11 5 12
REMARK SMILES IDX 4 13 3 14 2 15 1 16
REMARK H PARENT
REMARK Flexibility Score: inf
ROOT
ATOM      1  C   UNL     1       8.018  -2.256  -8.812  1.00  0.00     0.000 C 
ENDROOT
BRANCH   1   2
ATOM      2  C   UNL     1       8.583  -2.727  -7.464  1.00  0.00     0.000 C 
BRANCH   2   3
ATOM      3  C   UNL     1       9.671  -3.801  -7.622  1.00  0.00     0.000 C 
BRANCH   3   4
ATOM      4  C   UNL     1       9.358  -5.082  -6.834  1.00  0.00     0.000 C 
BRANCH   4   5
ATOM      5  C   UNL     1       8.013  -5.678  -7.268  1.00  0.00     0.006 C 
BRANCH   5   6
ATOM      6  C   UNL     1       7.652  -6.898  -6.417  1.00  0.00     0.053 C 
BRANCH   6   7
ATOM      7  C   UNL     1       6.249  -6.787  -5.910  1.00  0.00     0.041 C 
ATOM      8  O   UNL     1       5.317  -7.412  -6.481  1.00  0.00    -0.550 OA
ATOM      9  O   UNL     1       5.962  -5.953  -4.836  1.00  0.00    -0.550 OA
ENDBRANCH   6   7
ENDBRANCH   5   6
ENDBRANCH   4   5
ENDBRANCH   3   4
ENDBRANCH   2   3
ENDBRANCH   1   2
BRANCH   1  10
ATOM     10  C   UNL     1       6.564  -2.713  -8.989  1.00  0.00     0.000 C 
BRANCH  10  11
ATOM     11  C   UNL     1       5.917  -3.024  -7.632  1.00  0.00    -0.000 C 
BRANCH  11  12
ATOM     12  C   UNL     1       4.383  -2.932  -7.674  1.00  0.00    -0.000 C 
BRANCH  12  13
ATOM     13  C   UNL     1       3.706  -3.893  -6.681  1.00  0.00    -0.000 C 
BRANCH  13  14
ATOM     14  C   UNL     1       3.747  -3.373  -5.235  1.00  0.00    -0.000 C 
BRANCH  14  15
ATOM     15  C   UNL     1       2.384  -2.851  -4.758  1.00  0.00    -0.003 C 
ATOM     16  C   UNL     1       2.327  -2.777  -3.235  1.00  0.00     0.004 C 
ENDBRANCH  14  15
ENDBRANCH  13  14
ENDBRANCH  12  13
ENDBRANCH  11  12
ENDBRANCH  10  11
ENDBRANCH   1  10
TORSDOF 12
ENDMDL
MODEL 4
REMARK VINA RESULT:    -3.728      2.569      3.625
REMARK INTER + INTRA:          -7.764
REMARK INTER:                  -6.371
REMARK INTRA:                  -1.393
REMARK UNBOUND:                -1.421
REMARK SMILES CCCCCCCCCCCCCC(=O)[O-]
REMARK SMILES IDX 8 1 9 2 10 3 11 4 12 5 13 6 14 7 15 8 16 9 7 10 6 11 5 12
REMARK SMILES IDX 4 13 3 14 2 15 1 16
REMARK H PARENT
REMARK Flexibility Score: inf
ROOT
ATOM      1  C   UNL     1       5.154  -6.756  -7.266  1.00  0.00     0.000 C 
ENDROOT
BRANCH   1   2
ATOM      2  C   UNL     1       6.407  -7.378  -6.632  1.00  0.00     0.000 C 
BRANCH   2   3
ATOM      3  C   UNL     1       7.645  -6.476  -6.758  1.00  0.00     0.000 C 
BRANCH   3   4
ATOM      4  C   UNL     1       7.426  -5.082  -6.150  1.00  0.00     0.000 C 
BRANCH   4   5
ATOM      5  C   UNL     1       8.425  -4.070  -6.724  1.00  0.00     0.006 C 
BRANCH   5   6
ATOM      6  C   UNL     1       7.701  -2.942  -7.464  1.00  0.00     0.053 C 
BRANCH   6   7
ATOM      7  C   UNL     1       8.684  -2.073  -8.184  1.00  0.00     0.041 C 
ATOM      8  O   UNL     1       9.921  -2.259  -8.038  1.00  0.00    -0.550 OA
ATOM      9  O   UNL     1       8.234  -1.024  -8.976  1.00  0.00    -0.550 OA
ENDBRANCH   6   7
ENDBRANCH   5   6
ENDBRANCH   4   5
ENDBRANCH   3   4
ENDBRANCH   2   3
ENDBRANCH   1   2
BRANCH   1  10
ATOM     10  C   UNL     1       5.436  -6.293  -8.702  1.00  0.00     0.000 C 
BRANCH  10  11
ATOM     11  C   UNL     1       4.827  -4.909  -8.963  1.00  0.00    -0.000 C 
BRANCH  11  12
ATOM     12  C   UNL     1       3.749  -4.533  -7.934  1.00  0.00    -0.000 C 
BRANCH  12  13
ATOM     13  C   UNL     1       4.170  -3.354  -7.040  1.00  0.00    -0.000 C 
BRANCH  13  14
ATOM     14  C   UNL     1       3.902  -3.619  -5.550  1.00  0.00    -0.000 C 
BRANCH  14  15
ATOM     15  C   UNL     1       2.541  -3.075  -5.090  1.00  0.00    -0.003 C 
ATOM     16  C   UNL     1       2.541  -2.792  -3.591  1.00  0.00     0.004 C 
ENDBRANCH  14  15
ENDBRANCH  13  14
ENDBRANCH  12  13
ENDBRANCH  11  12
ENDBRANCH  10  11
ENDBRANCH   1  10
TORSDOF 12
ENDMDL
MODEL 5
REMARK VINA RESULT:    -3.712      1.853      3.413
REMARK INTER + INTRA:          -7.737
REMARK INTER:                  -5.920
REMARK INTRA:                  -1.817
REMARK UNBOUND:                -1.421
REMARK SMILES CCCCCCCCCCCCCC(=O)[O-]
REMARK SMILES IDX 8 1 9 2 10 3 11 4 12 5 13 6 14 7 15 8 16 9 7 10 6 11 5 12
REMARK SMILES IDX 4 13 3 14 2 15 1 16
REMARK H PARENT
REMARK Flexibility Score: inf
ROOT
ATOM      1  C   UNL     1       8.551  -1.882  -8.361  1.00  0.00     0.000 C 
ENDROOT
BRANCH   1   2
ATOM      2  C   UNL     1       9.428  -3.112  -8.084  1.00  0.00     0.000 C 
BRANCH   2   3
ATOM      3  C   UNL     1       9.105  -3.778  -6.737  1.00  0.00     0.000 C 
BRANCH   3   4
ATOM      4  C   UNL     1       7.597  -3.819  -6.443  1.00  0.00     0.000 C 
BRANCH   4   5
ATOM      5  C   UNL     1       7.148  -5.239  -6.076  1.00  0.00     0.006 C 
BRANCH   5   6
ATOM      6  C   UNL     1       6.708  -6.016  -7.319  1.00  0.00     0.053 C 
BRANCH   6   7
ATOM      7  C   UNL     1       5.917  -7.224  -6.929  1.00  0.00     0.041 C 
ATOM      8  O   UNL     1       5.400  -7.300  -5.783  1.00  0.00    -0.550 OA
ATOM      9  O   UNL     1       5.792  -8.289  -7.813  1.00  0.00    -0.550 OA
ENDBRANCH   6   7
ENDBRANCH   5   6
ENDBRANCH   4   5
ENDBRANCH   3   4
ENDBRANCH   2   3
ENDBRANCH   1   2
BRANCH   1  10
ATOM     10  C   UNL     1       7.986  -1.920  -9.787  1.00  0.00     0.000 C 
BRANCH  10  11
ATOM     11  C   UNL     1       6.833  -2.928  -9.894  1.00  0.00    -0.000 C 
BRANCH  11  12
ATOM     12  C   UNL     1       5.452  -2.262  -9.774  1.00  0.00    -0.000 C 
BRANCH  12  13
ATOM     13  C   UNL     1       4.687  -2.712  -8.517  1.00  0.00    -0.000 C 
BRANCH  13  14
ATOM     14  C   UNL     1       3.901  -4.014  -8.739  1.00  0.00    -0.000 C 
BRANCH  14  15
ATOM     15  C   UNL     1       3.300  -4.569  -7.439  1.00  0.00    -0.003 C 
ATOM     16  C   UNL     1       3.745  -3.746  -6.234  1.00  0.00     0.004 C 
ENDBRANCH  14  15
ENDBRANCH  13  14
ENDBRANCH  12  13
ENDBRANCH  11  12
ENDBRANCH  10  11
ENDBRANCH   1  10
TORSDOF 12
ENDMDL
MODEL 6
REMARK VINA RESULT:    -3.681      2.393      4.998
REMARK INTER + INTRA:          -7.684
REMARK INTER:                  -5.762
REMARK INTRA:                  -1.922
REMARK UNBOUND:                -1.421
REMARK SMILES CCCCCCCCCCCCCC(=O)[O-]
REMARK SMILES IDX 8 1 9 2 10 3 11 4 12 5 13 6 14 7 15 8 16 9 7 10 6 11 5 12
REMARK SMILES IDX 4 13 3 14 2 15 1 16
REMARK H PARENT
REMARK Flexibility Score: inf
ROOT
ATOM      1  C   UNL     1       8.438  -1.908  -8.327  1.00  0.00     0.000 C 
ENDROOT
BRANCH   1   2
ATOM      2  C   UNL     1       7.800  -1.839  -9.722  1.00  0.00     0.000 C 
BRANCH   2   3
ATOM      3  C   UNL     1       6.685  -2.878  -9.915  1.00  0.00     0.000 C 
BRANCH   3   4
ATOM      4  C   UNL     1       5.281  -2.255  -9.875  1.00  0.00     0.000 C 
BRANCH   4   5
ATOM      5  C   UNL     1       4.344  -3.070  -8.975  1.00  0.00     0.006 C 
BRANCH   5   6
ATOM      6  C   UNL     1       4.808  -3.028  -7.516  1.00  0.00     0.053 C 
BRANCH   6   7
ATOM      7  C   UNL     1       4.058  -4.032  -6.699  1.00  0.00     0.041 C 
ATOM      8  O   UNL     1       3.090  -4.662  -7.200  1.00  0.00    -0.550 OA
ATOM      9  O   UNL     1       4.396  -4.235  -5.367  1.00  0.00    -0.550 OA
ENDBRANCH   6   7
ENDBRANCH   5   6
ENDBRANCH   4   5
ENDBRANCH   3   4
ENDBRANCH   2   3
ENDBRANCH   1   2
BRANCH   1  10
ATOM     10  C   UNL     1       9.642  -2.859  -8.320  1.00  0.00     0.000 C 
BRANCH  10  11
ATOM     11  C   UNL     1       9.596  -3.795  -7.103  1.00  0.00    -0.000 C 
BRANCH  11  12
ATOM     12  C   UNL     1       8.216  -3.819  -6.428  1.00  0.00    -0.000 C 
BRANCH  12  13
ATOM     13  C   UNL     1       7.618  -5.235  -6.354  1.00  0.00    -0.000 C 
BRANCH  13  14
ATOM     14  C   UNL     1       7.988  -6.095  -7.573  1.00  0.00    -0.000 C 
BRANCH  14  15
ATOM     15  C   UNL     1       6.836  -6.213  -8.582  1.00  0.00    -0.003 C 
ATOM     16  C   UNL     1       5.678  -7.022  -8.002  1.00  0.00     0.004 C 
ENDBRANCH  14  15
ENDBRANCH  13  14
ENDBRANCH  12  13
ENDBRANCH  11  12
ENDBRANCH  10  11
ENDBRANCH   1  10
TORSDOF 12
ENDMDL
MODEL 7
REMARK VINA RESULT:    -3.656      2.949      4.935
REMARK INTER + INTRA:          -7.641
REMARK INTER:                  -5.607
REMARK INTRA:                  -2.034
REMARK UNBOUND:                -1.421
REMARK SMILES CCCCCCCCCCCCCC(=O)[O-]
REMARK SMILES IDX 8 1 9 2 10 3 11 4 12 5 13 6 14 7 15 8 16 9 7 10 6 11 5 12
REMARK SMILES IDX 4 13 3 14 2 15 1 16
REMARK H PARENT
REMARK Flexibility Score: inf
ROOT
ATOM      1  C   UNL     1       7.964  -2.497  -7.629  1.00  0.00     0.000 C 
ENDROOT
BRANCH   1   2
ATOM      2  C   UNL     1       7.660  -2.079  -9.075  1.00  0.00     0.000 C 
BRANCH   2   3
ATOM      3  C   UNL     1       6.287  -2.571  -9.558  1.00  0.00     0.000 C 
BRANCH   3   4
ATOM      4  C   UNL     1       5.331  -2.889  -8.399  1.00  0.00     0.000 C 
BRANCH   4   5
ATOM      5  C   UNL     1       4.091  -3.641  -8.901  1.00  0.00     0.006 C 
BRANCH   5   6
ATOM      6  C   UNL     1       4.286  -5.155  -8.797  1.00  0.00     0.053 C 
BRANCH   6   7
ATOM      7  C   UNL     1       3.453  -5.716  -7.687  1.00  0.00     0.041 C 
ATOM      8  O   UNL     1       2.820  -4.945  -6.919  1.00  0.00    -0.550 OA
ATOM      9  O   UNL     1       3.416  -7.087  -7.470  1.00  0.00    -0.550 OA
ENDBRANCH   6   7
ENDBRANCH   5   6
ENDBRANCH   4   5
ENDBRANCH   3   4
ENDBRANCH   2   3
ENDBRANCH   1   2
BRANCH   1  10
ATOM     10  C   UNL     1       9.407  -2.999  -7.493  1.00  0.00     0.000 C 
BRANCH  10  11
ATOM     11  C   UNL     1       9.740  -4.019  -8.591  1.00  0.00    -0.000 C 
BRANCH  11  12
ATOM     12  C   UNL     1       9.454  -5.466  -8.160  1.00  0.00    -0.000 C 
BRANCH  12  13
ATOM     13  C   UNL     1       8.057  -5.947  -8.590  1.00  0.00    -0.000 C 
BRANCH  13  14
ATOM     14  C   UNL     1       7.271  -6.586  -7.435  1.00  0.00    -0.000 C 
BRANCH  14  15
ATOM     15  C   UNL     1       7.555  -5.910  -6.085  1.00  0.00    -0.003 C 
ATOM     16  C   UNL     1       6.342  -5.121  -5.600  1.00  0.00     0.004 C 
ENDBRANCH  14  15
ENDBRANCH  13  14
ENDBRANCH  12  13
ENDBRANCH  11  12
ENDBRANCH  10  11
ENDBRANCH   1  10
TORSDOF 12
ENDMDL
MODEL 8
REMARK VINA RESULT:    -3.609      2.191      4.176
REMARK INTER + INTRA:          -7.561
REMARK INTER:                  -5.428
REMARK INTRA:                  -2.133
REMARK UNBOUND:                -1.421
REMARK SMILES CCCCCCCCCCCCCC(=O)[O-]
REMARK SMILES IDX 8 1 9 2 10 3 11 4 12 5 13 6 14 7 15 8 16 9 7 10 6 11 5 12
REMARK SMILES IDX 4 13 3 14 2 15 1 16
REMARK H PARENT
REMARK Flexibility Score: inf
ROOT
ATOM      1  C   UNL     1       3.906  -6.291  -8.309  1.00  0.00     0.000 C 
ENDROOT
BRANCH   1   2
ATOM      2  C   UNL     1       4.640  -6.736  -9.583  1.00  0.00     0.000 C 
BRANCH   2   3
ATOM      3  C   UNL     1       6.028  -7.327  -9.290  1.00  0.00     0.000 C 
BRANCH   3   4
ATOM      4  C   UNL     1       7.032  -6.269  -8.808  1.00  0.00     0.000 C 
BRANCH   4   5
ATOM      5  C   UNL     1       7.869  -6.801  -7.637  1.00  0.00     0.006 C 
BRANCH   5   6
ATOM      6  C   UNL     1       7.566  -6.029  -6.349  1.00  0.00     0.053 C 
BRANCH   6   7
ATOM      7  C   UNL     1       6.413  -6.649  -5.626  1.00  0.00     0.041 C 
ATOM      8  O   UNL     1       5.740  -5.969  -4.807  1.00  0.00    -0.550 OA
ATOM      9  O   UNL     1       6.111  -7.991  -5.818  1.00  0.00    -0.550 OA
ENDBRANCH   6   7
ENDBRANCH   5   6
ENDBRANCH   4   5
ENDBRANCH   3   4
ENDBRANCH   2   3
ENDBRANCH   1   2
BRANCH   1  10
ATOM     10  C   UNL     1       3.570  -4.795  -8.362  1.00  0.00     0.000 C 
BRANCH  10  11
ATOM     11  C   UNL     1       3.932  -4.103  -7.041  1.00  0.00    -0.000 C 
BRANCH  11  12
ATOM     12  C   UNL     1       5.135  -3.155  -7.179  1.00  0.00    -0.000 C 
BRANCH  12  13
ATOM     13  C   UNL     1       5.550  -2.937  -8.645  1.00  0.00    -0.000 C 
BRANCH  13  14
ATOM     14  C   UNL     1       7.010  -2.479  -8.783  1.00  0.00    -0.000 C 
BRANCH  14  15
ATOM     15  C   UNL     1       7.772  -2.532  -7.450  1.00  0.00    -0.003 C 
ATOM     16  C   UNL     1       9.233  -2.914  -7.669  1.00  0.00     0.004 C 
ENDBRANCH  14  15
ENDBRANCH  13  14
ENDBRANCH  12  13
ENDBRANCH  11  12
ENDBRANCH  10  11
ENDBRANCH   1  10
TORSDOF 12
ENDMDL
MODEL 9
REMARK VINA RESULT:    -3.574      2.645      5.061
REMARK INTER + INTRA:          -7.503
REMARK INTER:                  -5.374
REMARK INTRA:                  -2.128
REMARK UNBOUND:                -1.421
REMARK SMILES CCCCCCCCCCCCCC(=O)[O-]
REMARK SMILES IDX 8 1 9 2 10 3 11 4 12 5 13 6 14 7 15 8 16 9 7 10 6 11 5 12
REMARK SMILES IDX 4 13 3 14 2 15 1 16
REMARK H PARENT
REMARK Flexibility Score: inf
ROOT
ATOM      1  C   UNL     1       6.090  -3.868  -6.368  1.00  0.00     0.000 C 
ENDROOT
BRANCH   1   2
ATOM      2  C   UNL     1       6.032  -5.195  -5.598  1.00  0.00     0.000 C 
BRANCH   2   3
ATOM      3  C   UNL     1       7.182  -6.145  -5.965  1.00  0.00     0.000 C 
BRANCH   3   4
ATOM      4  C   UNL     1       7.316  -6.353  -7.481  1.00  0.00     0.000 C 
BRANCH   4   5
ATOM      5  C   UNL     1       6.384  -7.472  -7.965  1.00  0.00     0.006 C 
BRANCH   5   6
ATOM      6  C   UNL     1       5.491  -6.987  -9.110  1.00  0.00     0.053 C 
BRANCH   6   7
ATOM      7  C   UNL     1       4.122  -6.659  -8.604  1.00  0.00     0.041 C 
ATOM      8  O   UNL     1       3.386  -5.858  -9.239  1.00  0.00    -0.550 OA
ATOM      9  O   UNL     1       3.677  -7.199  -7.403  1.00  0.00    -0.550 OA
ENDBRANCH   6   7
ENDBRANCH   5   6
ENDBRANCH   4   5
ENDBRANCH   3   4
ENDBRANCH   2   3
ENDBRANCH   1   2
BRANCH   1  10
ATOM     10  C   UNL     1       4.716  -3.508  -6.948  1.00  0.00     0.000 C 
BRANCH  10  11
ATOM     11  C   UNL     1       4.862  -2.734  -8.266  1.00  0.00    -0.000 C 
BRANCH  11  12
ATOM     12  C   UNL     1       6.019  -3.253  -9.133  1.00  0.00    -0.000 C 
BRANCH  12  13
ATOM     13  C   UNL     1       6.870  -2.117  -9.727  1.00  0.00    -0.000 C 
BRANCH  13  14
ATOM     14  C   UNL     1       8.191  -1.912  -8.971  1.00  0.00    -0.000 C 
BRANCH  14  15
ATOM     15  C   UNL     1       8.979  -3.219  -8.794  1.00  0.00    -0.003 C 
ATOM     16  C   UNL     1       9.517  -3.348  -7.372  1.00  0.00     0.004 C 
ENDBRANCH  14  15
ENDBRANCH  13  14
ENDBRANCH  12  13
ENDBRANCH  11  12
ENDBRANCH  10  11
ENDBRANCH   1  10
TORSDOF 12
ENDMDL
