MODEL 1
REMARK VINA RESULT:    -4.388      0.000      0.000
REMARK INTER + INTRA:          -8.540
REMARK INTER:                  -7.466
REMARK INTRA:                  -1.074
REMARK UNBOUND:                -1.074
REMARK SMILES CCCCCCCCCCCCCC(=O)[O-]
REMARK SMILES IDX 8 1 9 2 10 3 11 4 12 5 13 6 14 7 15 8 16 9 7 10 6 11 5 12
REMARK SMILES IDX 4 13 3 14 2 15 1 16
REMARK H PARENT
REMARK Flexibility Score: inf
ROOT
ATOM      1  C   UNL     1      21.587   4.833   5.129  1.00  0.00     0.000 C 
ENDROOT
BRANCH   1   2
ATOM      2  C   UNL     1      21.863   5.664   6.396  1.00  0.00     0.000 C 
BRANCH   2   3
ATOM      3  C   UNL     1      23.288   5.438   6.944  1.00  0.00     0.000 C 
BRANCH   3   4
ATOM      4  C   UNL     1      24.376   5.417   5.852  1.00  0.00     0.000 C 
BRANCH   4   5
ATOM      5  C   UNL     1      25.610   4.563   6.188  1.00  0.00     0.006 C 
BRANCH   5   6
ATOM      6  C   UNL     1      25.301   3.445   7.192  1.00  0.00     0.053 C 
BRANCH   6   7
ATOM      7  C   UNL     1      26.559   2.739   7.589  1.00  0.00     0.041 C 
ATOM      8  O   UNL     1      27.066   1.875   6.826  1.00  0.00    -0.550 OA
ATOM      9  O   UNL     1      27.194   3.065   8.781  1.00  0.00    -0.550 OA
ENDBRANCH   6   7
ENDBRANCH   5   6
ENDBRANCH   4   5
ENDBRANCH   3   4
ENDBRANCH   2   3
ENDBRANCH   1   2
BRANCH   1  10
ATOM     10  C   UNL     1      21.215   5.698   3.912  1.00  0.00     0.000 C 
BRANCH  10  11
ATOM     11  C   UNL     1      20.162   5.086   2.972  1.00  0.00    -0.000 C 
BRANCH  11  12
ATOM     12  C   UNL     1      19.280   6.146   2.290  1.00  0.00    -0.000 C 
BRANCH  12  13
ATOM     13  C   UNL     1      19.376   7.521   2.971  1.00  0.00    -0.000 C 
BRANCH  13  14
ATOM     14  C   UNL     1      18.038   7.978   3.581  1.00  0.00    -0.000 C 
BRANCH  14  15
ATOM     15  C   UNL     1      18.088   8.054   5.115  1.00  0.00    -0.003 C 
ATOM     16  C   UNL     1      18.152   6.674   5.772  1.00  0.00     0.004 C 
ENDBRANCH  14  15
ENDBRANCH  13  14
ENDBRANCH  12  13
ENDBRANCH  11  12
ENDBRANCH  10  11
ENDBRANCH   1  10
TORSDOF 12
ENDMDL
MODEL 2
REMARK VINA RESULT:    -4.369      4.514      7.432
REMARK INTER + INTRA:          -8.508
REMARK INTER:                  -7.166
REMARK INTRA:                  -1.341
REMARK UNBOUND:                -1.074
REMARK SMILES CCCCCCCCCCCCCC(=O)[O-]
REMARK SMILES IDX 8 1 9 2 10 3 11 4 12 5 13 6 14 7 15 8 16 9 7 10 6 11 5 12
REMARK SMILES IDX 4 13 3 14 2 15 1 16
REMARK H PARENT
REMARK Flexibility Score: inf
ROOT
ATOM      1  C   UNL     1      20.664   6.272   3.157  1.00  0.00     0.000 C 
ENDROOT
BRANCH   1   2
ATOM      2  C   UNL     1      19.699   7.356   2.642  1.00  0.00     0.000 C 
BRANCH   2   3
ATOM      3  C   UNL     1      18.323   7.293   3.340  1.00  0.00     0.000 C 
BRANCH   3   4
ATOM      4  C   UNL     1      18.196   8.245   4.546  1.00  0.00     0.000 C 
BRANCH   4   5
ATOM      5  C   UNL     1      17.378   7.688   5.724  1.00  0.00     0.006 C 
BRANCH   5   6
ATOM      6  C   UNL     1      17.997   8.028   7.086  1.00  0.00     0.053 C 
BRANCH   6   7
ATOM      7  C   UNL     1      16.931   8.433   8.055  1.00  0.00     0.041 C 
ATOM      8  O   UNL     1      17.081   9.464   8.764  1.00  0.00    -0.550 OA
ATOM      9  O   UNL     1      15.756   7.699   8.145  1.00  0.00    -0.550 OA
ENDBRANCH   6   7
ENDBRANCH   5   6
ENDBRANCH   4   5
ENDBRANCH   3   4
ENDBRANCH   2   3
ENDBRANCH   1   2
BRANCH   1  10
ATOM     10  C   UNL     1      19.939   5.000   3.633  1.00  0.00     0.000 C 
BRANCH  10  11
ATOM     11  C   UNL     1      20.259   4.567   5.076  1.00  0.00    -0.000 C 
BRANCH  11  12
ATOM     12  C   UNL     1      20.615   5.751   5.991  1.00  0.00    -0.000 C 
BRANCH  12  13
ATOM     13  C   UNL     1      21.510   5.339   7.171  1.00  0.00    -0.000 C 
BRANCH  13  14
ATOM     14  C   UNL     1      22.857   6.084   7.185  1.00  0.00    -0.000 C 
BRANCH  14  15
ATOM     15  C   UNL     1      23.752   5.702   5.996  1.00  0.00    -0.003 C 
ATOM     16  C   UNL     1      24.678   4.525   6.307  1.00  0.00     0.004 C 
ENDBRANCH  14  15
ENDBRANCH  13  14
ENDBRANCH  12  13
ENDBRANCH  11  12
ENDBRANCH  10  11
ENDBRANCH   1  10
TORSDOF 12
ENDMDL
MODEL 3
REMARK VINA RESULT:    -4.368      8.690     10.093
REMARK INTER + INTRA:          -8.505
REMARK INTER:                  -7.192
REMARK INTRA:                  -1.314
REMARK UNBOUND:                -1.074
REMARK SMILES CCCCCCCCCCCCCC(=O)[O-]
REMARK SMILES IDX 8 1 9 2 10 3 11 4 12 5 13 6 14 7 15 8 16 9 7 10 6 11 5 12
REMARK SMILES IDX 4 13 3 14 2 15 1 16
REMARK H PARENT
REMARK Flexibility Score: inf
ROOT
ATOM      1  C   UNL     1      24.627   7.424  14.990  1.00  0.00     0.000 C 
ENDROOT
BRANCH   1   2
ATOM      2  C   UNL     1      23.296   7.009  14.336  1.00  0.00     0.000 C 
BRANCH   2   3
ATOM      3  C   UNL     1      23.343   5.571  13.776  1.00  0.00     0.000 C 
BRANCH   3   4
ATOM      4  C   UNL     1      23.742   4.512  14.823  1.00  0.00     0.000 C 
BRANCH   4   5
ATOM      5  C   UNL     1      24.685   3.414  14.301  1.00  0.00     0.006 C 
BRANCH   5   6
ATOM      6  C   UNL     1      25.839   3.976  13.460  1.00  0.00     0.053 C 
BRANCH   6   7
ATOM      7  C   UNL     1      26.249   2.989  12.413  1.00  0.00     0.041 C 
ATOM      8  O   UNL     1      25.787   1.818  12.434  1.00  0.00    -0.550 OA
ATOM      9  O   UNL     1      27.106   3.375  11.390  1.00  0.00    -0.550 OA
ENDBRANCH   6   7
ENDBRANCH   5   6
ENDBRANCH   4   5
ENDBRANCH   3   4
ENDBRANCH   2   3
ENDBRANCH   1   2
BRANCH   1  10
ATOM     10  C   UNL     1      25.714   7.783  13.962  1.00  0.00     0.000 C 
BRANCH  10  11
ATOM     11  C   UNL     1      27.141   7.345  14.340  1.00  0.00    -0.000 C 
BRANCH  11  12
ATOM     12  C   UNL     1      27.970   6.894  13.124  1.00  0.00    -0.000 C 
BRANCH  12  13
ATOM     13  C   UNL     1      28.948   7.978  12.641  1.00  0.00    -0.000 C 
BRANCH  13  14
ATOM     14  C   UNL     1      28.305   8.956  11.641  1.00  0.00    -0.000 C 
BRANCH  14  15
ATOM     15  C   UNL     1      28.188  10.380  12.206  1.00  0.00    -0.003 C 
ATOM     16  C   UNL     1      26.741  10.872  12.273  1.00  0.00     0.004 C 
ENDBRANCH  14  15
ENDBRANCH  13  14
ENDBRANCH  12  13
ENDBRANCH  11  12
ENDBRANCH  10  11
ENDBRANCH   1  10
TORSDOF 12
ENDMDL
MODEL 4
REMARK VINA RESULT:    -4.346      9.381     11.297
REMARK INTER + INTRA:          -8.469
REMARK INTER:                  -7.543
REMARK INTRA:                  -0.926
REMARK UNBOUND:                -1.074
REMARK SMILES CCCCCCCCCCCCCC(=O)[O-]
REMARK SMILES IDX 8 1 9 2 10 3 11 4 12 5 13 6 14 7 15 8 16 9 7 10 6 11 5 12
REMARK SMILES IDX 4 13 3 14 2 15 1 16
REMARK H PARENT
REMARK Flexibility Score: inf
ROOT
ATOM      1  C   UNL     1      24.757   7.012  15.812  1.00  0.00     0.000 C 
ENDROOT
BRANCH   1   2
ATOM      2  C   UNL     1      23.506   7.059  14.915  1.00  0.00     0.000 C 
BRANCH   2   3
ATOM      3  C   UNL     1      23.033   5.649  14.499  1.00  0.00     0.000 C 
BRANCH   3   4
ATOM      4  C   UNL     1      23.697   4.511  15.300  1.00  0.00     0.000 C 
BRANCH   4   5
ATOM      5  C   UNL     1      24.419   3.458  14.444  1.00  0.00     0.006 C 
BRANCH   5   6
ATOM      6  C   UNL     1      25.563   4.053  13.613  1.00  0.00     0.053 C 
BRANCH   6   7
ATOM      7  C   UNL     1      26.458   2.967  13.103  1.00  0.00     0.041 C 
ATOM      8  O   UNL     1      26.749   1.991  13.843  1.00  0.00    -0.550 OA
ATOM      9  O   UNL     1      26.933   3.011  11.799  1.00  0.00    -0.550 OA
ENDBRANCH   6   7
ENDBRANCH   5   6
ENDBRANCH   4   5
ENDBRANCH   3   4
ENDBRANCH   2   3
ENDBRANCH   1   2
BRANCH   1  10
ATOM     10  C   UNL     1      24.872   8.232  16.745  1.00  0.00     0.000 C 
BRANCH  10  11
ATOM     11  C   UNL     1      23.586   9.065  16.892  1.00  0.00    -0.000 C 
BRANCH  11  12
ATOM     12  C   UNL     1      22.845   8.792  18.212  1.00  0.00    -0.000 C 
BRANCH  12  13
ATOM     13  C   UNL     1      21.360   9.185  18.149  1.00  0.00    -0.000 C 
BRANCH  13  14
ATOM     14  C   UNL     1      21.049  10.153  16.992  1.00  0.00    -0.000 C 
BRANCH  14  15
ATOM     15  C   UNL     1      20.455  11.482  17.482  1.00  0.00    -0.003 C 
ATOM     16  C   UNL     1      20.839  11.803  18.928  1.00  0.00     0.004 C 
ENDBRANCH  14  15
ENDBRANCH  13  14
ENDBRANCH  12  13
ENDBRANCH  11  12
ENDBRANCH  10  11
ENDBRANCH   1  10
TORSDOF 12
ENDMDL
MODEL 5
REMARK VINA RESULT:    -4.333      4.253      7.324
REMARK INTER + INTRA:          -8.447
REMARK INTER:                  -7.503
REMARK INTRA:                  -0.944
REMARK UNBOUND:                -1.074
REMARK SMILES CCCCCCCCCCCCCC(=O)[O-]
REMARK SMILES IDX 8 1 9 2 10 3 11 4 12 5 13 6 14 7 15 8 16 9 7 10 6 11 5 12
REMARK SMILES IDX 4 13 3 14 2 15 1 16
REMARK H PARENT
REMARK Flexibility Score: inf
ROOT
ATOM      1  C   UNL     1      19.460   7.574   2.804  1.00  0.00     0.000 C 
ENDROOT
BRANCH   1   2
ATOM      2  C   UNL     1      17.949   7.859   2.896  1.00  0.00     0.000 C 
BRANCH   2   3
ATOM      3  C   UNL     1      17.352   7.416   4.249  1.00  0.00     0.000 C 
BRANCH   3   4
ATOM      4  C   UNL     1      18.076   8.015   5.471  1.00  0.00     0.000 C 
BRANCH   4   5
ATOM      5  C   UNL     1      17.559   7.522   6.833  1.00  0.00     0.006 C 
BRANCH   5   6
ATOM      6  C   UNL     1      16.672   8.556   7.538  1.00  0.00     0.053 C 
BRANCH   6   7
ATOM      7  C   UNL     1      17.379   9.123   8.729  1.00  0.00     0.041 C 
ATOM      8  O   UNL     1      16.745   9.340   9.795  1.00  0.00    -0.550 OA
ATOM      9  O   UNL     1      18.745   9.369   8.676  1.00  0.00    -0.550 OA
ENDBRANCH   6   7
ENDBRANCH   5   6
ENDBRANCH   4   5
ENDBRANCH   3   4
ENDBRANCH   2   3
ENDBRANCH   1   2
BRANCH   1  10
ATOM     10  C   UNL     1      19.774   6.180   2.229  1.00  0.00     0.000 C 
BRANCH  10  11
ATOM     11  C   UNL     1      20.388   5.185   3.230  1.00  0.00    -0.000 C 
BRANCH  11  12
ATOM     12  C   UNL     1      20.896   5.863   4.513  1.00  0.00    -0.000 C 
BRANCH  12  13
ATOM     13  C   UNL     1      21.415   4.854   5.550  1.00  0.00    -0.000 C 
BRANCH  13  14
ATOM     14  C   UNL     1      21.662   5.491   6.930  1.00  0.00    -0.000 C 
BRANCH  14  15
ATOM     15  C   UNL     1      23.140   5.842   7.158  1.00  0.00    -0.003 C 
ATOM     16  C   UNL     1      24.033   5.433   5.985  1.00  0.00     0.004 C 
ENDBRANCH  14  15
ENDBRANCH  13  14
ENDBRANCH  12  13
ENDBRANCH  11  12
ENDBRANCH  10  11
ENDBRANCH   1  10
TORSDOF 12
ENDMDL
MODEL 6
REMARK VINA RESULT:    -4.317     10.116     12.595
REMARK INTER + INTRA:          -8.419
REMARK INTER:                  -7.443
REMARK INTRA:                  -0.976
REMARK UNBOUND:                -1.074
REMARK SMILES CCCCCCCCCCCCCC(=O)[O-]
REMARK SMILES IDX 8 1 9 2 10 3 11 4 12 5 13 6 14 7 15 8 16 9 7 10 6 11 5 12
REMARK SMILES IDX 4 13 3 14 2 15 1 16
REMARK H PARENT
REMARK Flexibility Score: inf
ROOT
ATOM      1  C   UNL     1      21.747   9.031  17.806  1.00  0.00     0.000 C 
ENDROOT
BRANCH   1   2
ATOM      2  C   UNL     1      21.056  10.406  17.847  1.00  0.00     0.000 C 
BRANCH   2   3
ATOM      3  C   UNL     1      20.514  10.830  16.464  1.00  0.00     0.000 C 
BRANCH   3   4
ATOM      4  C   UNL     1      21.619  11.128  15.431  1.00  0.00     0.000 C 
BRANCH   4   5
ATOM      5  C   UNL     1      21.230  10.842  13.971  1.00  0.00     0.006 C 
BRANCH   5   6
ATOM      6  C   UNL     1      21.053  12.122  13.144  1.00  0.00     0.053 C 
BRANCH   6   7
ATOM      7  C   UNL     1      19.753  12.089  12.404  1.00  0.00     0.041 C 
ATOM      8  O   UNL     1      19.470  11.107  11.669  1.00  0.00    -0.550 OA
ATOM      9  O   UNL     1      18.836  13.120  12.561  1.00  0.00    -0.550 OA
ENDBRANCH   6   7
ENDBRANCH   5   6
ENDBRANCH   4   5
ENDBRANCH   3   4
ENDBRANCH   2   3
ENDBRANCH   1   2
BRANCH   1  10
ATOM     10  C   UNL     1      23.278   9.125  17.945  1.00  0.00     0.000 C 
BRANCH  10  11
ATOM     11  C   UNL     1      24.078   8.386  16.857  1.00  0.00    -0.000 C 
BRANCH  11  12
ATOM     12  C   UNL     1      23.255   7.301  16.142  1.00  0.00    -0.000 C 
BRANCH  12  13
ATOM     13  C   UNL     1      23.444   7.325  14.616  1.00  0.00    -0.000 C 
BRANCH  13  14
ATOM     14  C   UNL     1      23.179   5.957  13.961  1.00  0.00    -0.000 C 
BRANCH  14  15
ATOM     15  C   UNL     1      23.334   4.792  14.951  1.00  0.00    -0.003 C 
ATOM     16  C   UNL     1      24.369   3.763  14.494  1.00  0.00     0.004 C 
ENDBRANCH  14  15
ENDBRANCH  13  14
ENDBRANCH  12  13
ENDBRANCH  11  12
ENDBRANCH  10  11
ENDBRANCH   1  10
TORSDOF 12
ENDMDL
MODEL 7
REMARK VINA RESULT:    -4.299      9.294     10.505
REMARK INTER + INTRA:          -8.389
REMARK INTER:                  -7.111
REMARK INTRA:                  -1.278
REMARK UNBOUND:                -1.074
REMARK SMILES CCCCCCCCCCCCCC(=O)[O-]
REMARK SMILES IDX 8 1 9 2 10 3 11 4 12 5 13 6 14 7 15 8 16 9 7 10 6 11 5 12
REMARK SMILES IDX 4 13 3 14 2 15 1 16
REMARK H PARENT
REMARK Flexibility Score: inf
ROOT
ATOM      1  C   UNL     1      25.047   9.112  14.416  1.00  0.00     0.000 C 
ENDROOT
BRANCH   1   2
ATOM      2  C   UNL     1      25.993   8.591  13.318  1.00  0.00     0.000 C 
BRANCH   2   3
ATOM      3  C   UNL     1      26.822   7.377  13.789  1.00  0.00     0.000 C 
BRANCH   3   4
ATOM      4  C   UNL     1      28.070   7.107  12.925  1.00  0.00     0.000 C 
BRANCH   4   5
ATOM      5  C   UNL     1      28.385   8.200  11.889  1.00  0.00     0.006 C 
BRANCH   5   6
ATOM      6  C   UNL     1      29.715   8.913  12.166  1.00  0.00     0.053 C 
BRANCH   6   7
ATOM      7  C   UNL     1      29.471  10.228  12.838  1.00  0.00     0.041 C 
ATOM      8  O   UNL     1      29.597  11.300  12.191  1.00  0.00    -0.550 OA
ATOM      9  O   UNL     1      29.063  10.267  14.165  1.00  0.00    -0.550 OA
ENDBRANCH   6   7
ENDBRANCH   5   6
ENDBRANCH   4   5
ENDBRANCH   3   4
ENDBRANCH   2   3
ENDBRANCH   1   2
BRANCH   1  10
ATOM     10  C   UNL     1      23.965   8.090  14.811  1.00  0.00     0.000 C 
BRANCH  10  11
ATOM     11  C   UNL     1      23.100   7.573  13.647  1.00  0.00    -0.000 C 
BRANCH  11  12
ATOM     12  C   UNL     1      22.868   6.053  13.705  1.00  0.00    -0.000 C 
BRANCH  12  13
ATOM     13  C   UNL     1      23.315   5.437  15.041  1.00  0.00    -0.000 C 
BRANCH  13  14
ATOM     14  C   UNL     1      23.996   4.067  14.866  1.00  0.00    -0.000 C 
BRANCH  14  15
ATOM     15  C   UNL     1      24.911   4.018  13.633  1.00  0.00    -0.003 C 
ATOM     16  C   UNL     1      25.792   2.768  13.600  1.00  0.00     0.004 C 
ENDBRANCH  14  15
ENDBRANCH  13  14
ENDBRANCH  12  13
ENDBRANCH  11  12
ENDBRANCH  10  11
ENDBRANCH   1  10
TORSDOF 12
ENDMDL
MODEL 8
REMARK VINA RESULT:    -4.224      9.741     12.423
REMARK INTER + INTRA:          -8.260
REMARK INTER:                  -7.334
REMARK INTRA:                  -0.926
REMARK UNBOUND:                -1.074
REMARK SMILES CCCCCCCCCCCCCC(=O)[O-]
REMARK SMILES IDX 8 1 9 2 10 3 11 4 12 5 13 6 14 7 15 8 16 9 7 10 6 11 5 12
REMARK SMILES IDX 4 13 3 14 2 15 1 16
REMARK H PARENT
REMARK Flexibility Score: inf
ROOT
ATOM      1  C   UNL     1      24.297   8.210  16.647  1.00  0.00     0.000 C 
ENDROOT
BRANCH   1   2
ATOM      2  C   UNL     1      23.670   9.097  17.739  1.00  0.00     0.000 C 
BRANCH   2   3
ATOM      3  C   UNL     1      22.196   8.729  18.016  1.00  0.00     0.000 C 
BRANCH   3   4
ATOM      4  C   UNL     1      21.281   9.952  18.220  1.00  0.00     0.000 C 
BRANCH   4   5
ATOM      5  C   UNL     1      20.612  10.478  16.939  1.00  0.00     0.006 C 
BRANCH   5   6
ATOM      6  C   UNL     1      21.519  11.428  16.145  1.00  0.00     0.053 C 
BRANCH   6   7
ATOM      7  C   UNL     1      21.294  11.256  14.675  1.00  0.00     0.041 C 
ATOM      8  O   UNL     1      21.827  10.295  14.063  1.00  0.00    -0.550 OA
ATOM      9  O   UNL     1      20.460  12.133  13.992  1.00  0.00    -0.550 OA
ENDBRANCH   6   7
ENDBRANCH   5   6
ENDBRANCH   4   5
ENDBRANCH   3   4
ENDBRANCH   2   3
ENDBRANCH   1   2
BRANCH   1  10
ATOM     10  C   UNL     1      23.280   7.261  15.987  1.00  0.00     0.000 C 
BRANCH  10  11
ATOM     11  C   UNL     1      23.367   7.175  14.453  1.00  0.00    -0.000 C 
BRANCH  11  12
ATOM     12  C   UNL     1      23.283   5.731  13.929  1.00  0.00    -0.000 C 
BRANCH  12  13
ATOM     13  C   UNL     1      23.378   4.688  15.054  1.00  0.00    -0.000 C 
BRANCH  13  14
ATOM     14  C   UNL     1      24.314   3.517  14.704  1.00  0.00    -0.000 C 
BRANCH  14  15
ATOM     15  C   UNL     1      25.201   3.818  13.486  1.00  0.00    -0.003 C 
ATOM     16  C   UNL     1      25.753   2.552  12.829  1.00  0.00     0.004 C 
ENDBRANCH  14  15
ENDBRANCH  13  14
ENDBRANCH  12  13
ENDBRANCH  11  12
ENDBRANCH  10  11
ENDBRANCH   1  10
TORSDOF 12
ENDMDL
MODEL 9
REMARK VINA RESULT:    -4.208      2.055      3.660
REMARK INTER + INTRA:          -8.233
REMARK INTER:                  -7.203
REMARK INTRA:                  -1.030
REMARK UNBOUND:                -1.074
REMARK SMILES CCCCCCCCCCCCCC(=O)[O-]
REMARK SMILES IDX 8 1 9 2 10 3 11 4 12 5 13 6 14 7 15 8 16 9 7 10 6 11 5 12
REMARK SMILES IDX 4 13 3 14 2 15 1 16
REMARK H PARENT
REMARK Flexibility Score: inf
ROOT
ATOM      1  C   UNL     1      20.155   7.035   3.201  1.00  0.00     0.000 C 
ENDROOT
BRANCH   1   2
ATOM      2  C   UNL     1      20.283   5.505   3.092  1.00  0.00     0.000 C 
BRANCH   2   3
ATOM      3  C   UNL     1      21.045   4.895   4.289  1.00  0.00     0.000 C 
BRANCH   3   4
ATOM      4  C   UNL     1      20.897   5.703   5.593  1.00  0.00     0.000 C 
BRANCH   4   5
ATOM      5  C   UNL     1      21.587   5.081   6.818  1.00  0.00     0.006 C 
BRANCH   5   6
ATOM      6  C   UNL     1      22.884   5.807   7.200  1.00  0.00     0.053 C 
BRANCH   6   7
ATOM      7  C   UNL     1      24.049   5.207   6.478  1.00  0.00     0.041 C 
ATOM      8  O   UNL     1      24.683   4.248   6.991  1.00  0.00    -0.550 OA
ATOM      9  O   UNL     1      24.407   5.677   5.221  1.00  0.00    -0.550 OA
ENDBRANCH   6   7
ENDBRANCH   5   6
ENDBRANCH   4   5
ENDBRANCH   3   4
ENDBRANCH   2   3
ENDBRANCH   1   2
BRANCH   1  10
ATOM     10  C   UNL     1      18.952   7.594   2.420  1.00  0.00     0.000 C 
BRANCH  10  11
ATOM     11  C   UNL     1      17.724   7.949   3.278  1.00  0.00    -0.000 C 
BRANCH  11  12
ATOM     12  C   UNL     1      18.006   7.866   4.788  1.00  0.00    -0.000 C 
BRANCH  12  13
ATOM     13  C   UNL     1      16.720   7.762   5.625  1.00  0.00    -0.000 C 
BRANCH  13  14
ATOM     14  C   UNL     1      16.993   7.771   7.140  1.00  0.00    -0.000 C 
BRANCH  14  15
ATOM     15  C   UNL     1      18.372   8.354   7.485  1.00  0.00    -0.003 C 
ATOM     16  C   UNL     1      18.334   9.282   8.701  1.00  0.00     0.004 C 
ENDBRANCH  14  15
ENDBRANCH  13  14
ENDBRANCH  12  13
ENDBRANCH  11  12
ENDBRANCH  10  11
ENDBRANCH   1  10
TORSDOF 12
ENDMDL
