MODEL 1
REMARK VINA RESULT:    -5.062      0.000      0.000
REMARK INTER + INTRA:          -5.877
REMARK INTER:                  -5.654
REMARK INTRA:                  -0.223
REMARK UNBOUND:                -0.223
REMARK SMILES O=C([O-])c1ccccc1C(=O)[O-]
REMARK SMILES IDX 4 1 9 2 5 3 8 4 6 5 7 6 2 7 1 8 3 9 10 10 11 11 12 12
REMARK H PARENT
REMARK Flexibility Score: inf
ROOT
ATOM      1  C   UNL     1      70.612   8.798  33.322  1.00  0.00     0.006 A 
ATOM      2  C   UNL     1      70.289   7.414  33.253  1.00  0.00     0.006 A 
ATOM      3  C   UNL     1      69.570   9.744  33.341  1.00  0.00     0.010 A 
ATOM      4  C   UNL     1      68.939   7.032  33.139  1.00  0.00     0.010 A 
ATOM      5  C   UNL     1      68.237   9.341  33.251  1.00  0.00     0.001 A 
ATOM      6  C   UNL     1      67.924   7.989  33.138  1.00  0.00     0.001 A 
ENDROOT
BRANCH   1   7
ATOM      7  C   UNL     1      72.006   9.296  33.302  1.00  0.00     0.072 C 
ATOM      8  O   UNL     1      72.583   9.524  32.205  1.00  0.00    -0.545 OA
ATOM      9  O   UNL     1      72.718   9.460  34.484  1.00  0.00    -0.545 OA
ENDBRANCH   1   7
BRANCH   2  10
ATOM     10  C   UNL     1      71.305   6.343  33.363  1.00  0.00     0.072 C 
ATOM     11  O   UNL     1      71.527   5.775  34.466  1.00  0.00    -0.545 OA
ATOM     12  O   UNL     1      71.981   5.903  32.231  1.00  0.00    -0.545 OA
ENDBRANCH   2  10
TORSDOF 2
ENDMDL
MODEL 2
REMARK VINA RESULT:    -5.055      0.130      3.003
REMARK INTER + INTRA:          -5.869
REMARK INTER:                  -5.641
REMARK INTRA:                  -0.229
REMARK UNBOUND:                -0.223
REMARK SMILES O=C([O-])c1ccccc1C(=O)[O-]
REMARK SMILES IDX 4 1 9 2 5 3 8 4 6 5 7 6 2 7 1 8 3 9 10 10 11 11 12 12
REMARK H PARENT
REMARK Flexibility Score: inf
ROOT
ATOM      1  C   UNL     1      70.306   7.366  33.274  1.00  0.00     0.006 A 
ATOM      2  C   UNL     1      70.624   8.753  33.291  1.00  0.00     0.006 A 
ATOM      3  C   UNL     1      68.954   6.976  33.217  1.00  0.00     0.010 A 
ATOM      4  C   UNL     1      69.579   9.695  33.317  1.00  0.00     0.010 A 
ATOM      5  C   UNL     1      67.935   7.928  33.221  1.00  0.00     0.001 A 
ATOM      6  C   UNL     1      68.246   9.283  33.283  1.00  0.00     0.001 A 
ENDROOT
BRANCH   1   7
ATOM      7  C   UNL     1      71.334   6.307  33.386  1.00  0.00     0.072 C 
ATOM      8  O   UNL     1      71.647   5.844  34.515  1.00  0.00    -0.545 OA
ATOM      9  O   UNL     1      72.011   5.853  32.260  1.00  0.00    -0.545 OA
ENDBRANCH   1   7
BRANCH   2  10
ATOM     10  C   UNL     1      72.013   9.261  33.214  1.00  0.00     0.072 C 
ATOM     11  O   UNL     1      72.661   9.530  34.260  1.00  0.00    -0.545 OA
ATOM     12  O   UNL     1      72.643   9.383  31.981  1.00  0.00    -0.545 OA
ENDBRANCH   2  10
TORSDOF 2
ENDMDL
MODEL 3
REMARK VINA RESULT:    -4.878      1.642      2.873
REMARK INTER + INTRA:          -5.671
REMARK INTER:                  -5.646
REMARK INTRA:                  -0.026
REMARK UNBOUND:                -0.223
REMARK SMILES O=C([O-])c1ccccc1C(=O)[O-]
REMARK SMILES IDX 4 1 9 2 5 3 8 4 6 5 7 6 2 7 1 8 3 9 10 10 11 11 12 12
REMARK H PARENT
REMARK Flexibility Score: inf
ROOT
ATOM      1  C   UNL     1      69.536   9.032  33.244  1.00  0.00     0.006 A 
ATOM      2  C   UNL     1      70.770   8.349  33.431  1.00  0.00     0.006 A 
ATOM      3  C   UNL     1      68.331   8.310  33.344  1.00  0.00     0.010 A 
ATOM      4  C   UNL     1      70.755   6.958  33.646  1.00  0.00     0.010 A 
ATOM      5  C   UNL     1      68.340   6.935  33.581  1.00  0.00     0.001 A 
ATOM      6  C   UNL     1      69.550   6.259  33.720  1.00  0.00     0.001 A 
ENDROOT
BRANCH   1   7
ATOM      7  C   UNL     1      69.461  10.464  32.875  1.00  0.00     0.072 C 
ATOM      8  O   UNL     1      68.689  11.241  33.497  1.00  0.00    -0.545 OA
ATOM      9  O   UNL     1      70.192  10.958  31.800  1.00  0.00    -0.545 OA
ENDBRANCH   1   7
BRANCH   2  10
ATOM     10  C   UNL     1      72.076   9.043  33.479  1.00  0.00     0.072 C 
ATOM     11  O   UNL     1      72.527   9.495  34.565  1.00  0.00    -0.545 OA
ATOM     12  O   UNL     1      72.854   9.145  32.332  1.00  0.00    -0.545 OA
ENDBRANCH   2  10
TORSDOF 2
ENDMDL
MODEL 4
REMARK VINA RESULT:    -4.851      1.932      3.361
REMARK INTER + INTRA:          -5.642
REMARK INTER:                  -5.500
REMARK INTRA:                  -0.141
REMARK UNBOUND:                -0.223
REMARK SMILES O=C([O-])c1ccccc1C(=O)[O-]
REMARK SMILES IDX 4 1 9 2 5 3 8 4 6 5 7 6 2 7 1 8 3 9 10 10 11 11 12 12
REMARK H PARENT
REMARK Flexibility Score: inf
ROOT
ATOM      1  C   UNL     1      68.759   8.239  33.436  1.00  0.00     0.006 A 
ATOM      2  C   UNL     1      70.167   8.094  33.290  1.00  0.00     0.006 A 
ATOM      3  C   UNL     1      68.188   9.522  33.330  1.00  0.00     0.010 A 
ATOM      4  C   UNL     1      70.957   9.245  33.110  1.00  0.00     0.010 A 
ATOM      5  C   UNL     1      68.989  10.646  33.128  1.00  0.00     0.001 A 
ATOM      6  C   UNL     1      70.371  10.508  33.030  1.00  0.00     0.001 A 
ENDROOT
BRANCH   1   7
ATOM      7  C   UNL     1      67.867   7.104  33.768  1.00  0.00     0.072 C 
ATOM      8  O   UNL     1      67.471   6.322  32.862  1.00  0.00    -0.545 OA
ATOM      9  O   UNL     1      67.405   6.922  35.066  1.00  0.00    -0.545 OA
ENDBRANCH   1   7
BRANCH   2  10
ATOM     10  C   UNL     1      70.841   6.777  33.251  1.00  0.00     0.072 C 
ATOM     11  O   UNL     1      71.304   6.321  32.171  1.00  0.00    -0.545 OA
ATOM     12  O   UNL     1      71.032   6.056  34.423  1.00  0.00    -0.545 OA
ENDBRANCH   2  10
TORSDOF 2
ENDMDL
MODEL 5
REMARK VINA RESULT:    -4.814      1.996      3.044
REMARK INTER + INTRA:          -5.600
REMARK INTER:                  -5.409
REMARK INTRA:                  -0.191
REMARK UNBOUND:                -0.223
REMARK SMILES O=C([O-])c1ccccc1C(=O)[O-]
REMARK SMILES IDX 4 1 9 2 5 3 8 4 6 5 7 6 2 7 1 8 3 9 10 10 11 11 12 12
REMARK H PARENT
REMARK Flexibility Score: inf
ROOT
ATOM      1  C   UNL     1      70.260   8.624  33.107  1.00  0.00     0.006 A 
ATOM      2  C   UNL     1      68.842   8.628  33.230  1.00  0.00     0.006 A 
ATOM      3  C   UNL     1      70.923   9.827  32.796  1.00  0.00     0.010 A 
ATOM      4  C   UNL     1      68.137   9.818  32.972  1.00  0.00     0.010 A 
ATOM      5  C   UNL     1      70.204  11.000  32.567  1.00  0.00     0.001 A 
ATOM      6  C   UNL     1      68.814  10.993  32.644  1.00  0.00     0.001 A 
ENDROOT
BRANCH   1   7
ATOM      7  C   UNL     1      71.070   7.390  33.221  1.00  0.00     0.072 C 
ATOM      8  O   UNL     1      71.791   7.196  34.236  1.00  0.00    -0.545 OA
ATOM      9  O   UNL     1      71.098   6.462  32.187  1.00  0.00    -0.545 OA
ENDBRANCH   1   7
BRANCH   2  10
ATOM     10  C   UNL     1      68.070   7.450  33.685  1.00  0.00     0.072 C 
ATOM     11  O   UNL     1      67.626   7.384  34.862  1.00  0.00    -0.545 OA
ATOM     12  O   UNL     1      67.767   6.427  32.793  1.00  0.00    -0.545 OA
ENDBRANCH   2  10
TORSDOF 2
ENDMDL
MODEL 6
REMARK VINA RESULT:    -4.804      1.672      3.264
REMARK INTER + INTRA:          -5.589
REMARK INTER:                  -5.576
REMARK INTRA:                  -0.012
REMARK UNBOUND:                -0.223
REMARK SMILES O=C([O-])c1ccccc1C(=O)[O-]
REMARK SMILES IDX 4 1 9 2 5 3 8 4 6 5 7 6 2 7 1 8 3 9 10 10 11 11 12 12
REMARK H PARENT
REMARK Flexibility Score: inf
ROOT
ATOM      1  C   UNL     1      70.592   8.344  33.386  1.00  0.00     0.006 A 
ATOM      2  C   UNL     1      69.362   9.028  33.173  1.00  0.00     0.006 A 
ATOM      3  C   UNL     1      70.572   6.955  33.615  1.00  0.00     0.010 A 
ATOM      4  C   UNL     1      68.156   8.309  33.263  1.00  0.00     0.010 A 
ATOM      5  C   UNL     1      69.364   6.259  33.677  1.00  0.00     0.001 A 
ATOM      6  C   UNL     1      68.159   6.937  33.513  1.00  0.00     0.001 A 
ENDROOT
BRANCH   1   7
ATOM      7  C   UNL     1      71.896   9.043  33.449  1.00  0.00     0.072 C 
ATOM      8  O   UNL     1      72.342   9.456  34.553  1.00  0.00    -0.545 OA
ATOM      9  O   UNL     1      72.616   9.308  32.290  1.00  0.00    -0.545 OA
ENDBRANCH   1   7
BRANCH   2  10
ATOM     10  C   UNL     1      69.291  10.457  32.792  1.00  0.00     0.072 C 
ATOM     11  O   UNL     1      68.660  11.284  33.502  1.00  0.00    -0.545 OA
ATOM     12  O   UNL     1      69.981  10.916  31.675  1.00  0.00    -0.545 OA
ENDBRANCH   2  10
TORSDOF 2
ENDMDL
MODEL 7
REMARK VINA RESULT:    -4.738     10.688     12.040
REMARK INTER + INTRA:          -5.515
REMARK INTER:                  -5.319
REMARK INTRA:                  -0.196
REMARK UNBOUND:                -0.223
REMARK SMILES O=C([O-])c1ccccc1C(=O)[O-]
REMARK SMILES IDX 4 1 9 2 5 3 8 4 6 5 7 6 2 7 1 8 3 9 10 10 11 11 12 12
REMARK H PARENT
REMARK Flexibility Score: inf
ROOT
ATOM      1  C   UNL     1      64.162  17.184  38.167  1.00  0.00     0.006 A 
ATOM      2  C   UNL     1      63.569  15.967  38.604  1.00  0.00     0.006 A 
ATOM      3  C   UNL     1      64.046  18.331  38.976  1.00  0.00     0.010 A 
ATOM      4  C   UNL     1      62.827  15.959  39.800  1.00  0.00     0.010 A 
ATOM      5  C   UNL     1      63.326  18.293  40.169  1.00  0.00     0.001 A 
ATOM      6  C   UNL     1      62.708  17.113  40.574  1.00  0.00     0.001 A 
ENDROOT
BRANCH   1   7
ATOM      7  C   UNL     1      64.838  17.321  36.856  1.00  0.00     0.072 C 
ATOM      8  O   UNL     1      66.082  17.515  36.801  1.00  0.00    -0.545 OA
ATOM      9  O   UNL     1      64.106  17.300  35.675  1.00  0.00    -0.545 OA
ENDBRANCH   1   7
BRANCH   2  10
ATOM     10  C   UNL     1      63.750  14.682  37.892  1.00  0.00     0.072 C 
ATOM     11  O   UNL     1      62.851  14.231  37.134  1.00  0.00    -0.545 OA
ATOM     12  O   UNL     1      64.950  13.988  38.001  1.00  0.00    -0.545 OA
ENDBRANCH   2  10
TORSDOF 2
ENDMDL
MODEL 8
REMARK VINA RESULT:    -4.664     10.752     12.411
REMARK INTER + INTRA:          -5.432
REMARK INTER:                  -5.229
REMARK INTRA:                  -0.204
REMARK UNBOUND:                -0.223
REMARK SMILES O=C([O-])c1ccccc1C(=O)[O-]
REMARK SMILES IDX 4 1 9 2 5 3 8 4 6 5 7 6 2 7 1 8 3 9 10 10 11 11 12 12
REMARK H PARENT
REMARK Flexibility Score: inf
ROOT
ATOM      1  C   UNL     1      63.430  16.002  38.559  1.00  0.00     0.006 A 
ATOM      2  C   UNL     1      64.043  17.228  38.178  1.00  0.00     0.006 A 
ATOM      3  C   UNL     1      62.577  15.983  39.679  1.00  0.00     0.010 A 
ATOM      4  C   UNL     1      63.833  18.373  38.969  1.00  0.00     0.010 A 
ATOM      5  C   UNL     1      62.366  17.136  40.436  1.00  0.00     0.001 A 
ATOM      6  C   UNL     1      63.001  18.325  40.088  1.00  0.00     0.001 A 
ENDROOT
BRANCH   1   7
ATOM      7  C   UNL     1      63.705  14.720  37.870  1.00  0.00     0.072 C 
ATOM      8  O   UNL     1      64.671  13.999  38.235  1.00  0.00    -0.545 OA
ATOM      9  O   UNL     1      62.945  14.327  36.775  1.00  0.00    -0.545 OA
ENDBRANCH   1   7
BRANCH   2  10
ATOM     10  C   UNL     1      64.844  17.378  36.942  1.00  0.00     0.072 C 
ATOM     11  O   UNL     1      66.098  17.483  36.994  1.00  0.00    -0.545 OA
ATOM     12  O   UNL     1      64.222  17.336  35.699  1.00  0.00    -0.545 OA
ENDBRANCH   2  10
TORSDOF 2
ENDMDL
MODEL 9
REMARK VINA RESULT:    -4.649     10.706     12.262
REMARK INTER + INTRA:          -5.415
REMARK INTER:                  -5.206
REMARK INTRA:                  -0.210
REMARK UNBOUND:                -0.223
REMARK SMILES O=C([O-])c1ccccc1C(=O)[O-]
REMARK SMILES IDX 4 1 9 2 5 3 8 4 6 5 7 6 2 7 1 8 3 9 10 10 11 11 12 12
REMARK H PARENT
REMARK Flexibility Score: inf
ROOT
ATOM      1  C   UNL     1      63.356  16.476  38.735  1.00  0.00     0.006 A 
ATOM      2  C   UNL     1      64.238  15.975  37.738  1.00  0.00     0.006 A 
ATOM      3  C   UNL     1      62.886  15.603  39.734  1.00  0.00     0.010 A 
ATOM      4  C   UNL     1      64.565  14.606  37.740  1.00  0.00     0.010 A 
ATOM      5  C   UNL     1      63.241  14.254  39.730  1.00  0.00     0.001 A 
ATOM      6  C   UNL     1      64.070  13.755  38.728  1.00  0.00     0.001 A 
ENDROOT
BRANCH   1   7
ATOM      7  C   UNL     1      62.847  17.867  38.728  1.00  0.00     0.072 C 
ATOM      8  O   UNL     1      63.255  18.696  39.585  1.00  0.00    -0.545 OA
ATOM      9  O   UNL     1      61.869  18.260  37.822  1.00  0.00    -0.545 OA
ENDBRANCH   1   7
BRANCH   2  10
ATOM     10  C   UNL     1      64.890  16.841  36.730  1.00  0.00     0.072 C 
ATOM     11  O   UNL     1      65.973  17.430  36.988  1.00  0.00    -0.545 OA
ATOM     12  O   UNL     1      64.345  16.961  35.456  1.00  0.00    -0.545 OA
ENDBRANCH   2  10
TORSDOF 2
ENDMDL
