MODEL 1
REMARK VINA RESULT:    -3.312      0.000      0.000
REMARK INTER + INTRA:          -6.879
REMARK INTER:                  -5.829
REMARK INTRA:                  -1.050
REMARK UNBOUND:                -1.050
REMARK SMILES CCCCCCCCCCCCCCC(=O)[O-]
REMARK SMILES IDX 9 1 10 2 11 3 12 4 13 5 14 6 15 7 16 8 17 9 8 10 7 11 6 12
REMARK SMILES IDX 5 13 4 14 3 15 2 16 1 17
REMARK H PARENT
REMARK Flexibility Score: inf
ROOT
ATOM      1  C   UNL     1      15.636  16.160   7.154  1.00  0.00     0.000 C 
ENDROOT
BRANCH   1   2
ATOM      2  C   UNL     1      15.213  17.133   8.273  1.00  0.00     0.000 C 
BRANCH   2   3
ATOM      3  C   UNL     1      16.374  17.761   9.070  1.00  0.00     0.000 C 
BRANCH   3   4
ATOM      4  C   UNL     1      16.399  19.300   9.075  1.00  0.00     0.000 C 
BRANCH   4   5
ATOM      5  C   UNL     1      16.093  19.897  10.459  1.00  0.00     0.006 C 
BRANCH   5   6
ATOM      6  C   UNL     1      14.759  19.393  11.024  1.00  0.00     0.053 C 
BRANCH   6   7
ATOM      7  C   UNL     1      14.024  20.474  11.755  1.00  0.00     0.041 C 
ATOM      8  O   UNL     1      13.058  20.186  12.510  1.00  0.00    -0.550 OA
ATOM      9  O   UNL     1      14.385  21.803  11.576  1.00  0.00    -0.550 OA
ENDBRANCH   6   7
ENDBRANCH   5   6
ENDBRANCH   4   5
ENDBRANCH   3   4
ENDBRANCH   2   3
ENDBRANCH   1   2
BRANCH   1  10
ATOM     10  C   UNL     1      16.917  15.358   7.440  1.00  0.00     0.000 C 
BRANCH  10  11
ATOM     11  C   UNL     1      16.635  13.887   7.782  1.00  0.00    -0.000 C 
BRANCH  11  12
ATOM     12  C   UNL     1      15.350  13.403   7.100  1.00  0.00    -0.000 C 
BRANCH  12  13
ATOM     13  C   UNL     1      14.294  13.000   8.138  1.00  0.00    -0.000 C 
BRANCH  13  14
ATOM     14  C   UNL     1      14.742  13.379   9.554  1.00  0.00    -0.000 C 
BRANCH  14  15
ATOM     15  C   UNL     1      14.006  12.537  10.607  1.00  0.00    -0.000 C 
BRANCH  15  16
ATOM     16  C   UNL     1      14.943  11.578  11.357  1.00  0.00    -0.003 C 
ATOM     17  C   UNL     1      16.419  11.944  11.193  1.00  0.00     0.004 C 
ENDBRANCH  15  16
ENDBRANCH  14  15
ENDBRANCH  13  14
ENDBRANCH  12  13
ENDBRANCH  11  12
ENDBRANCH  10  11
ENDBRANCH   1  10
TORSDOF 13
ENDMDL
MODEL 2
REMARK VINA RESULT:    -3.300      2.803      6.878
REMARK INTER + INTRA:          -6.859
REMARK INTER:                  -6.020
REMARK INTRA:                  -0.839
REMARK UNBOUND:                -1.050
REMARK SMILES CCCCCCCCCCCCCCC(=O)[O-]
REMARK SMILES IDX 9 1 10 2 11 3 12 4 13 5 14 6 15 7 16 8 17 9 8 10 7 11 6 12
REMARK SMILES IDX 5 13 4 14 3 15 2 16 1 17
REMARK H PARENT
REMARK Flexibility Score: inf
ROOT
ATOM      1  C   UNL     1      15.795  15.980   7.218  1.00  0.00     0.000 C 
ENDROOT
BRANCH   1   2
ATOM      2  C   UNL     1      16.120  14.542   7.672  1.00  0.00     0.000 C 
BRANCH   2   3
ATOM      3  C   UNL     1      15.190  13.450   7.105  1.00  0.00     0.000 C 
BRANCH   3   4
ATOM      4  C   UNL     1      14.105  12.955   8.079  1.00  0.00     0.000 C 
BRANCH   4   5
ATOM      5  C   UNL     1      14.428  13.280   9.547  1.00  0.00     0.006 C 
BRANCH   5   6
ATOM      6  C   UNL     1      14.142  12.095  10.478  1.00  0.00     0.053 C 
BRANCH   6   7
ATOM      7  C   UNL     1      14.478  12.417  11.902  1.00  0.00     0.041 C 
ATOM      8  O   UNL     1      14.163  13.533  12.393  1.00  0.00    -0.550 OA
ATOM      9  O   UNL     1      15.170  11.495  12.677  1.00  0.00    -0.550 OA
ENDBRANCH   6   7
ENDBRANCH   5   6
ENDBRANCH   4   5
ENDBRANCH   3   4
ENDBRANCH   2   3
ENDBRANCH   1   2
BRANCH   1  10
ATOM     10  C   UNL     1      15.126  16.863   8.285  1.00  0.00     0.000 C 
BRANCH  10  11
ATOM     11  C   UNL     1      16.131  17.460   9.281  1.00  0.00    -0.000 C 
BRANCH  11  12
ATOM     12  C   UNL     1      16.289  18.970   9.061  1.00  0.00    -0.000 C 
BRANCH  12  13
ATOM     13  C   UNL     1      16.111  19.739  10.375  1.00  0.00    -0.000 C 
BRANCH  13  14
ATOM     14  C   UNL     1      15.022  19.101  11.245  1.00  0.00    -0.000 C 
BRANCH  14  15
ATOM     15  C   UNL     1      14.638  20.024  12.411  1.00  0.00    -0.000 C 
BRANCH  15  16
ATOM     16  C   UNL     1      13.270  20.693  12.210  1.00  0.00    -0.003 C 
ATOM     17  C   UNL     1      13.383  22.122  11.678  1.00  0.00     0.004 C 
ENDBRANCH  15  16
ENDBRANCH  14  15
ENDBRANCH  13  14
ENDBRANCH  12  13
ENDBRANCH  11  12
ENDBRANCH  10  11
ENDBRANCH   1  10
TORSDOF 13
ENDMDL
MODEL 3
REMARK VINA RESULT:    -3.249      3.348      6.829
REMARK INTER + INTRA:          -6.769
REMARK INTER:                  -6.043
REMARK INTRA:                  -0.725
REMARK UNBOUND:                -1.050
REMARK SMILES CCCCCCCCCCCCCCC(=O)[O-]
REMARK SMILES IDX 9 1 10 2 11 3 12 4 13 5 14 6 15 7 16 8 17 9 8 10 7 11 6 12
REMARK SMILES IDX 5 13 4 14 3 15 2 16 1 17
REMARK H PARENT
REMARK Flexibility Score: inf
ROOT
ATOM      1  C   UNL     1      14.535  13.682   6.978  1.00  0.00     0.000 C 
ENDROOT
BRANCH   1   2
ATOM      2  C   UNL     1      13.977  12.756   8.078  1.00  0.00     0.000 C 
BRANCH   2   3
ATOM      3  C   UNL     1      14.543  13.002   9.491  1.00  0.00     0.000 C 
BRANCH   3   4
ATOM      4  C   UNL     1      13.950  12.103  10.591  1.00  0.00     0.000 C 
BRANCH   4   5
ATOM      5  C   UNL     1      13.752  12.845  11.924  1.00  0.00     0.006 C 
BRANCH   5   6
ATOM      6  C   UNL     1      14.404  12.106  13.100  1.00  0.00     0.053 C 
BRANCH   6   7
ATOM      7  C   UNL     1      15.815  11.708  12.789  1.00  0.00     0.041 C 
ATOM      8  O   UNL     1      16.141  10.492  12.766  1.00  0.00    -0.550 OA
ATOM      9  O   UNL     1      16.776  12.683  12.558  1.00  0.00    -0.550 OA
ENDBRANCH   6   7
ENDBRANCH   5   6
ENDBRANCH   4   5
ENDBRANCH   3   4
ENDBRANCH   2   3
ENDBRANCH   1   2
BRANCH   1  10
ATOM     10  C   UNL     1      15.860  14.382   7.328  1.00  0.00     0.000 C 
BRANCH  10  11
ATOM     11  C   UNL     1      15.731  15.912   7.376  1.00  0.00    -0.000 C 
BRANCH  11  12
ATOM     12  C   UNL     1      16.068  16.447   8.773  1.00  0.00    -0.000 C 
BRANCH  12  13
ATOM     13  C   UNL     1      15.560  17.883   8.950  1.00  0.00    -0.000 C 
BRANCH  13  14
ATOM     14  C   UNL     1      16.004  18.463  10.298  1.00  0.00    -0.000 C 
BRANCH  14  15
ATOM     15  C   UNL     1      15.353  19.831  10.549  1.00  0.00    -0.000 C 
BRANCH  15  16
ATOM     16  C   UNL     1      14.184  19.755  11.543  1.00  0.00    -0.003 C 
ATOM     17  C   UNL     1      13.481  21.099  11.733  1.00  0.00     0.004 C 
ENDBRANCH  15  16
ENDBRANCH  14  15
ENDBRANCH  13  14
ENDBRANCH  12  13
ENDBRANCH  11  12
ENDBRANCH  10  11
ENDBRANCH   1  10
TORSDOF 13
ENDMDL
MODEL 4
REMARK VINA RESULT:    -3.235      3.217      6.801
REMARK INTER + INTRA:          -6.743
REMARK INTER:                  -5.665
REMARK INTRA:                  -1.078
REMARK UNBOUND:                -1.050
REMARK SMILES CCCCCCCCCCCCCCC(=O)[O-]
REMARK SMILES IDX 9 1 10 2 11 3 12 4 13 5 14 6 15 7 16 8 17 9 8 10 7 11 6 12
REMARK SMILES IDX 5 13 4 14 3 15 2 16 1 17
REMARK H PARENT
REMARK Flexibility Score: inf
ROOT
ATOM      1  C   UNL     1      15.724  16.055   7.127  1.00  0.00     0.000 C 
ENDROOT
BRANCH   1   2
ATOM      2  C   UNL     1      15.303  14.599   7.410  1.00  0.00     0.000 C 
BRANCH   2   3
ATOM      3  C   UNL     1      16.415  13.693   7.976  1.00  0.00     0.000 C 
BRANCH   3   4
ATOM      4  C   UNL     1      16.247  13.311   9.458  1.00  0.00     0.000 C 
BRANCH   4   5
ATOM      5  C   UNL     1      14.787  13.399   9.934  1.00  0.00     0.006 C 
BRANCH   5   6
ATOM      6  C   UNL     1      14.254  12.044  10.417  1.00  0.00     0.053 C 
BRANCH   6   7
ATOM      7  C   UNL     1      14.948  11.589  11.664  1.00  0.00     0.041 C 
ATOM      8  O   UNL     1      15.783  10.647  11.618  1.00  0.00    -0.550 OA
ATOM      9  O   UNL     1      14.647  12.183  12.882  1.00  0.00    -0.550 OA
ENDBRANCH   6   7
ENDBRANCH   5   6
ENDBRANCH   4   5
ENDBRANCH   3   4
ENDBRANCH   2   3
ENDBRANCH   1   2
BRANCH   1  10
ATOM     10  C   UNL     1      17.050  16.487   7.777  1.00  0.00     0.000 C 
BRANCH  10  11
ATOM     11  C   UNL     1      16.867  17.022   9.205  1.00  0.00    -0.000 C 
BRANCH  11  12
ATOM     12  C   UNL     1      15.758  18.080   9.256  1.00  0.00    -0.000 C 
BRANCH  12  13
ATOM     13  C   UNL     1      16.345  19.484   9.450  1.00  0.00    -0.000 C 
BRANCH  13  14
ATOM     14  C   UNL     1      15.580  20.256  10.531  1.00  0.00    -0.000 C 
BRANCH  14  15
ATOM     15  C   UNL     1      14.836  19.295  11.470  1.00  0.00    -0.000 C 
BRANCH  15  16
ATOM     16  C   UNL     1      13.472  19.844  11.918  1.00  0.00    -0.003 C 
ATOM     17  C   UNL     1      13.393  21.368  11.838  1.00  0.00     0.004 C 
ENDBRANCH  15  16
ENDBRANCH  14  15
ENDBRANCH  13  14
ENDBRANCH  12  13
ENDBRANCH  11  12
ENDBRANCH  10  11
ENDBRANCH   1  10
TORSDOF 13
ENDMDL
MODEL 5
REMARK VINA RESULT:    -3.230      3.102      6.421
REMARK INTER + INTRA:          -6.735
REMARK INTER:                  -5.184
REMARK INTRA:                  -1.551
REMARK UNBOUND:                -1.050
REMARK SMILES CCCCCCCCCCCCCCC(=O)[O-]
REMARK SMILES IDX 9 1 10 2 11 3 12 4 13 5 14 6 15 7 16 8 17 9 8 10 7 11 6 12
REMARK SMILES IDX 5 13 4 14 3 15 2 16 1 17
REMARK H PARENT
REMARK Flexibility Score: inf
ROOT
ATOM      1  C   UNL     1      15.312  17.225   8.689  1.00  0.00     0.000 C 
ENDROOT
BRANCH   1   2
ATOM      2  C   UNL     1      15.562  16.363   7.435  1.00  0.00     0.000 C 
BRANCH   2   3
ATOM      3  C   UNL     1      16.139  14.959   7.709  1.00  0.00     0.000 C 
BRANCH   3   4
ATOM      4  C   UNL     1      15.289  13.793   7.170  1.00  0.00     0.000 C 
BRANCH   4   5
ATOM      5  C   UNL     1      14.427  13.132   8.259  1.00  0.00     0.006 C 
BRANCH   5   6
ATOM      6  C   UNL     1      14.891  13.509   9.671  1.00  0.00     0.053 C 
BRANCH   6   7
ATOM      7  C   UNL     1      14.359  12.557  10.700  1.00  0.00     0.041 C 
ATOM      8  O   UNL     1      14.413  11.315  10.504  1.00  0.00    -0.550 OA
ATOM      9  O   UNL     1      13.774  13.047  11.861  1.00  0.00    -0.550 OA
ENDBRANCH   6   7
ENDBRANCH   5   6
ENDBRANCH   4   5
ENDBRANCH   3   4
ENDBRANCH   2   3
ENDBRANCH   1   2
BRANCH   1  10
ATOM     10  C   UNL     1      16.301  18.387   8.887  1.00  0.00     0.000 C 
BRANCH  10  11
ATOM     11  C   UNL     1      17.050  18.311  10.225  1.00  0.00    -0.000 C 
BRANCH  11  12
ATOM     12  C   UNL     1      16.825  16.954  10.904  1.00  0.00    -0.000 C 
BRANCH  12  13
ATOM     13  C   UNL     1      16.148  17.126  12.269  1.00  0.00    -0.000 C 
BRANCH  13  14
ATOM     14  C   UNL     1      15.909  18.608  12.583  1.00  0.00    -0.000 C 
BRANCH  14  15
ATOM     15  C   UNL     1      14.461  18.847  13.038  1.00  0.00    -0.000 C 
BRANCH  15  16
ATOM     16  C   UNL     1      13.615  19.555  11.969  1.00  0.00    -0.003 C 
ATOM     17  C   UNL     1      14.339  20.741  11.331  1.00  0.00     0.004 C 
ENDBRANCH  15  16
ENDBRANCH  14  15
ENDBRANCH  13  14
ENDBRANCH  12  13
ENDBRANCH  11  12
ENDBRANCH  10  11
ENDBRANCH   1  10
TORSDOF 13
ENDMDL
MODEL 6
REMARK VINA RESULT:    -3.211      3.686      7.404
REMARK INTER + INTRA:          -6.702
REMARK INTER:                  -5.575
REMARK INTRA:                  -1.127
REMARK UNBOUND:                -1.050
REMARK SMILES CCCCCCCCCCCCCCC(=O)[O-]
REMARK SMILES IDX 9 1 10 2 11 3 12 4 13 5 14 6 15 7 16 8 17 9 8 10 7 11 6 12
REMARK SMILES IDX 5 13 4 14 3 15 2 16 1 17
REMARK H PARENT
REMARK Flexibility Score: inf
ROOT
ATOM      1  C   UNL     1      15.746  17.586   8.932  1.00  0.00     0.000 C 
ENDROOT
BRANCH   1   2
ATOM      2  C   UNL     1      17.038  16.780   9.177  1.00  0.00     0.000 C 
BRANCH   2   3
ATOM      3  C   UNL     1      16.931  15.679  10.250  1.00  0.00     0.000 C 
BRANCH   3   4
ATOM      4  C   UNL     1      16.939  14.239   9.705  1.00  0.00     0.000 C 
BRANCH   4   5
ATOM      5  C   UNL     1      15.545  13.589   9.718  1.00  0.00     0.006 C 
BRANCH   5   6
ATOM      6  C   UNL     1      14.646  14.128   8.598  1.00  0.00     0.053 C 
BRANCH   6   7
ATOM      7  C   UNL     1      14.561  13.171   7.448  1.00  0.00     0.041 C 
ATOM      8  O   UNL     1      15.557  12.986   6.701  1.00  0.00    -0.550 OA
ATOM      9  O   UNL     1      13.369  12.510   7.182  1.00  0.00    -0.550 OA
ENDBRANCH   6   7
ENDBRANCH   5   6
ENDBRANCH   4   5
ENDBRANCH   3   4
ENDBRANCH   2   3
ENDBRANCH   1   2
BRANCH   1  10
ATOM     10  C   UNL     1      15.646  18.907   9.715  1.00  0.00     0.000 C 
BRANCH  10  11
ATOM     11  C   UNL     1      16.683  19.946   9.266  1.00  0.00    -0.000 C 
BRANCH  11  12
ATOM     12  C   UNL     1      16.873  21.030  10.335  1.00  0.00    -0.000 C 
BRANCH  12  13
ATOM     13  C   UNL     1      16.767  20.436  11.745  1.00  0.00    -0.000 C 
BRANCH  13  14
ATOM     14  C   UNL     1      15.778  21.231  12.605  1.00  0.00    -0.000 C 
BRANCH  14  15
ATOM     15  C   UNL     1      14.795  22.019  11.726  1.00  0.00    -0.000 C 
BRANCH  15  16
ATOM     16  C   UNL     1      13.359  21.481  11.817  1.00  0.00    -0.003 C 
ATOM     17  C   UNL     1      13.295  20.057  12.370  1.00  0.00     0.004 C 
ENDBRANCH  15  16
ENDBRANCH  14  15
ENDBRANCH  13  14
ENDBRANCH  12  13
ENDBRANCH  11  12
ENDBRANCH  10  11
ENDBRANCH   1  10
TORSDOF 13
ENDMDL
MODEL 7
REMARK VINA RESULT:    -3.189      1.048      1.727
REMARK INTER + INTRA:          -6.664
REMARK INTER:                  -5.519
REMARK INTRA:                  -1.144
REMARK UNBOUND:                -1.050
REMARK SMILES CCCCCCCCCCCCCCC(=O)[O-]
REMARK SMILES IDX 9 1 10 2 11 3 12 4 13 5 14 6 15 7 16 8 17 9 8 10 7 11 6 12
REMARK SMILES IDX 5 13 4 14 3 15 2 16 1 17
REMARK H PARENT
REMARK Flexibility Score: inf
ROOT
ATOM      1  C   UNL     1      15.479  16.973   8.725  1.00  0.00     0.000 C 
ENDROOT
BRANCH   1   2
ATOM      2  C   UNL     1      16.123  18.351   8.983  1.00  0.00     0.000 C 
BRANCH   2   3
ATOM      3  C   UNL     1      16.799  18.510  10.360  1.00  0.00     0.000 C 
BRANCH   3   4
ATOM      4  C   UNL     1      16.010  17.916  11.542  1.00  0.00     0.000 C 
BRANCH   4   5
ATOM      5  C   UNL     1      15.341  18.994  12.413  1.00  0.00     0.006 C 
BRANCH   5   6
ATOM      6  C   UNL     1      14.090  19.581  11.748  1.00  0.00     0.053 C 
BRANCH   6   7
ATOM      7  C   UNL     1      14.196  21.067  11.586  1.00  0.00     0.041 C 
ATOM      8  O   UNL     1      13.168  21.790  11.674  1.00  0.00    -0.550 OA
ATOM      9  O   UNL     1      15.425  21.649  11.304  1.00  0.00    -0.550 OA
ENDBRANCH   6   7
ENDBRANCH   5   6
ENDBRANCH   4   5
ENDBRANCH   3   4
ENDBRANCH   2   3
ENDBRANCH   1   2
BRANCH   1  10
ATOM     10  C   UNL     1      15.784  16.362   7.346  1.00  0.00     0.000 C 
BRANCH  10  11
ATOM     11  C   UNL     1      16.965  15.381   7.377  1.00  0.00    -0.000 C 
BRANCH  11  12
ATOM     12  C   UNL     1      16.556  14.051   8.023  1.00  0.00    -0.000 C 
BRANCH  12  13
ATOM     13  C   UNL     1      15.484  13.340   7.187  1.00  0.00    -0.000 C 
BRANCH  13  14
ATOM     14  C   UNL     1      14.246  13.022   8.035  1.00  0.00    -0.000 C 
BRANCH  14  15
ATOM     15  C   UNL     1      14.518  13.284   9.524  1.00  0.00    -0.000 C 
BRANCH  15  16
ATOM     16  C   UNL     1      14.061  12.123  10.421  1.00  0.00    -0.003 C 
ATOM     17  C   UNL     1      14.030  12.497  11.903  1.00  0.00     0.004 C 
ENDBRANCH  15  16
ENDBRANCH  14  15
ENDBRANCH  13  14
ENDBRANCH  12  13
ENDBRANCH  11  12
ENDBRANCH  10  11
ENDBRANCH   1  10
TORSDOF 13
ENDMDL
MODEL 8
REMARK VINA RESULT:    -3.093      1.352      2.574
REMARK INTER + INTRA:          -6.494
REMARK INTER:                  -5.224
REMARK INTRA:                  -1.270
REMARK UNBOUND:                -1.050
REMARK SMILES CCCCCCCCCCCCCCC(=O)[O-]
REMARK SMILES IDX 9 1 10 2 11 3 12 4 13 5 14 6 15 7 16 8 17 9 8 10 7 11 6 12
REMARK SMILES IDX 5 13 4 14 3 15 2 16 1 17
REMARK H PARENT
REMARK Flexibility Score: inf
ROOT
ATOM      1  C   UNL     1      16.028  16.456   8.551  1.00  0.00     0.000 C 
ENDROOT
BRANCH   1   2
ATOM      2  C   UNL     1      15.460  17.839   8.930  1.00  0.00     0.000 C 
BRANCH   2   3
ATOM      3  C   UNL     1      16.495  18.981   8.983  1.00  0.00     0.000 C 
BRANCH   3   4
ATOM      4  C   UNL     1      16.375  19.907  10.207  1.00  0.00     0.000 C 
BRANCH   4   5
ATOM      5  C   UNL     1      15.050  19.723  10.966  1.00  0.00     0.006 C 
BRANCH   5   6
ATOM      6  C   UNL     1      14.473  21.058  11.454  1.00  0.00     0.053 C 
BRANCH   6   7
ATOM      7  C   UNL     1      13.344  20.853  12.418  1.00  0.00     0.041 C 
ATOM      8  O   UNL     1      12.766  21.844  12.938  1.00  0.00    -0.550 OA
ATOM      9  O   UNL     1      12.955  19.567  12.769  1.00  0.00    -0.550 OA
ENDBRANCH   6   7
ENDBRANCH   5   6
ENDBRANCH   4   5
ENDBRANCH   3   4
ENDBRANCH   2   3
ENDBRANCH   1   2
BRANCH   1  10
ATOM     10  C   UNL     1      17.124  15.924   9.491  1.00  0.00     0.000 C 
BRANCH  10  11
ATOM     11  C   UNL     1      16.572  15.457  10.845  1.00  0.00    -0.000 C 
BRANCH  11  12
ATOM     12  C   UNL     1      17.125  14.075  11.216  1.00  0.00    -0.000 C 
BRANCH  12  13
ATOM     13  C   UNL     1      16.374  12.964  10.473  1.00  0.00    -0.000 C 
BRANCH  13  14
ATOM     14  C   UNL     1      14.857  13.136  10.612  1.00  0.00    -0.000 C 
BRANCH  14  15
ATOM     15  C   UNL     1      14.137  12.735   9.315  1.00  0.00    -0.000 C 
BRANCH  15  16
ATOM     16  C   UNL     1      14.906  13.164   8.056  1.00  0.00    -0.003 C 
ATOM     17  C   UNL     1      14.061  13.065   6.785  1.00  0.00     0.004 C 
ENDBRANCH  15  16
ENDBRANCH  14  15
ENDBRANCH  13  14
ENDBRANCH  12  13
ENDBRANCH  11  12
ENDBRANCH  10  11
ENDBRANCH   1  10
TORSDOF 13
ENDMDL
MODEL 9
REMARK VINA RESULT:    -3.080      1.759      3.659
REMARK INTER + INTRA:          -6.471
REMARK INTER:                  -5.380
REMARK INTRA:                  -1.092
REMARK UNBOUND:                -1.050
REMARK SMILES CCCCCCCCCCCCCCC(=O)[O-]
REMARK SMILES IDX 9 1 10 2 11 3 12 4 13 5 14 6 15 7 16 8 17 9 8 10 7 11 6 12
REMARK SMILES IDX 5 13 4 14 3 15 2 16 1 17
REMARK H PARENT
REMARK Flexibility Score: inf
ROOT
ATOM      1  C   UNL     1      16.458  14.293  12.363  1.00  0.00     0.000 C 
ENDROOT
BRANCH   1   2
ATOM      2  C   UNL     1      16.498  15.549  11.469  1.00  0.00     0.000 C 
BRANCH   2   3
ATOM      3  C   UNL     1      16.218  16.880  12.194  1.00  0.00     0.000 C 
BRANCH   3   4
ATOM      4  C   UNL     1      16.521  18.144  11.369  1.00  0.00     0.000 C 
BRANCH   4   5
ATOM      5  C   UNL     1      15.259  18.760  10.739  1.00  0.00     0.006 C 
BRANCH   5   6
ATOM      6  C   UNL     1      15.147  20.263  11.023  1.00  0.00     0.053 C 
BRANCH   6   7
ATOM      7  C   UNL     1      13.812  20.618  11.606  1.00  0.00     0.041 C 
ATOM      8  O   UNL     1      13.385  21.800  11.540  1.00  0.00    -0.550 OA
ATOM      9  O   UNL     1      13.057  19.648  12.251  1.00  0.00    -0.550 OA
ENDBRANCH   6   7
ENDBRANCH   5   6
ENDBRANCH   4   5
ENDBRANCH   3   4
ENDBRANCH   2   3
ENDBRANCH   1   2
BRANCH   1  10
ATOM     10  C   UNL     1      15.138  14.080  13.124  1.00  0.00     0.000 C 
BRANCH  10  11
ATOM     11  C   UNL     1      14.131  13.222  12.343  1.00  0.00    -0.000 C 
BRANCH  11  12
ATOM     12  C   UNL     1      14.706  11.831  12.051  1.00  0.00    -0.000 C 
BRANCH  12  13
ATOM     13  C   UNL     1      14.765  11.565  10.542  1.00  0.00    -0.000 C 
BRANCH  13  14
ATOM     14  C   UNL     1      14.193  12.748   9.751  1.00  0.00    -0.000 C 
BRANCH  14  15
ATOM     15  C   UNL     1      15.242  13.324   8.788  1.00  0.00    -0.000 C 
BRANCH  15  16
ATOM     16  C   UNL     1      14.811  13.224   7.317  1.00  0.00    -0.003 C 
ATOM     17  C   UNL     1      13.410  12.635   7.150  1.00  0.00     0.004 C 
ENDBRANCH  15  16
ENDBRANCH  14  15
ENDBRANCH  13  14
ENDBRANCH  12  13
ENDBRANCH  11  12
ENDBRANCH  10  11
ENDBRANCH   1  10
TORSDOF 13
ENDMDL
