MODEL 1
REMARK VINA RESULT:    -5.441      0.000      0.000
REMARK INTER + INTRA:          -8.540
REMARK INTER:                  -7.985
REMARK INTRA:                  -0.555
REMARK UNBOUND:                -0.555
REMARK SMILES CC(C)(O)CC[C@H](O)[C@](C)(O)[C@@H]1CC[C@@]2(O)C3=CC(=O)[C@@H]4C[C@H](O)[C@H](O)C[C@@]4(C)[C@@H]3CC[C@@]12C
REMARK SMILES IDX 6 1 7 2 9 3 10 4 12 5 34 6 33 7 32 8 15 9 31 10 17 11 14 12
REMARK SMILES IDX 13 13 30 14 18 15 28 16 19 17 21 18 27 19 29 20 20 21 22 22
REMARK SMILES IDX 25 23 23 24 16 25 26 27 24 29 11 31 8 33 5 35 2 36 1 37 3 38
REMARK SMILES IDX 4 39
REMARK H PARENT 16 26 26 28 24 30 11 32 8 34 4 40
REMARK Flexibility Score: inf
ROOT
ATOM      1  C   UNL     1      16.312  26.569  15.082  1.00  0.00     0.038 C 
ENDROOT
BRANCH   1   2
ATOM      2  C   UNL     1      15.101  25.675  15.481  1.00  0.00     0.146 C 
BRANCH   2   3
ATOM      3  C   UNL     1      14.519  24.767  14.326  1.00  0.00     0.091 C 
ATOM      4  C   UNL     1      14.201  23.371  14.933  1.00  0.00     0.045 C 
BRANCH   3   5
ATOM      5  C   UNL     1      13.224  25.431  13.671  1.00  0.00     0.032 C 
ATOM      6  C   UNL     1      11.924  25.099  15.980  1.00  0.00     0.015 C 
ATOM      7  C   UNL     1      11.903  25.669  14.529  1.00  0.00     0.006 C 
ATOM      8  C   UNL     1      10.717  24.992  13.770  1.00  0.00     0.011 C 
ATOM      9  C   UNL     1      11.729  27.224  14.546  1.00  0.00     0.092 C 
ATOM     10  C   UNL     1       9.351  25.395  14.314  1.00  0.00     0.009 C 
ATOM     11  C   UNL     1      10.280  27.722  14.689  1.00  0.00    -0.031 C 
ATOM     12  C   UNL     1      12.302  27.659  13.186  1.00  0.00     0.041 C 
ATOM     13  C   UNL     1      13.510  26.770  12.951  1.00  0.00     0.010 C 
ATOM     14  C   UNL     1       9.111  26.906  14.122  1.00  0.00     0.025 C 
ATOM     15  C   UNL     1      10.074  29.001  15.076  1.00  0.00     0.050 C 
ATOM     16  C   UNL     1       7.699  27.373  14.656  1.00  0.00    -0.013 C 
ATOM     17  C   UNL     1       8.748  29.632  15.053  1.00  0.00     0.159 C 
ATOM     18  C   UNL     1       7.591  28.911  14.418  1.00  0.00     0.070 C 
ATOM     19  C   UNL     1       6.546  26.646  13.864  1.00  0.00     0.042 C 
ATOM     20  C   UNL     1       7.574  27.051  16.178  1.00  0.00     0.013 C 
ATOM     21  O   UNL     1       8.618  30.811  15.481  1.00  0.00    -0.295 OA
ATOM     22  C   UNL     1       6.218  29.497  14.843  1.00  0.00     0.047 C 
ATOM     23  C   UNL     1       5.391  27.561  13.390  1.00  0.00     0.143 C 
ATOM     24  C   UNL     1       5.012  28.610  14.450  1.00  0.00     0.143 C 
BRANCH   9  25
ATOM     25  O   UNL     1      12.509  27.738  15.611  1.00  0.00    -0.385 OA
ATOM     26  H   UNL     1      12.358  28.713  15.710  1.00  0.00     0.211 HD
ENDBRANCH   9  25
BRANCH  23  27
ATOM     27  O   UNL     1       4.267  26.781  13.072  1.00  0.00    -0.390 OA
ATOM     28  H   UNL     1       4.040  26.255  13.882  1.00  0.00     0.211 HD
ENDBRANCH  23  27
BRANCH  24  29
ATOM     29  O   UNL     1       4.488  27.982  15.594  1.00  0.00    -0.390 OA
ATOM     30  H   UNL     1       5.118  27.257  15.846  1.00  0.00     0.211 HD
ENDBRANCH  24  29
ENDBRANCH   3   5
BRANCH   3  31
ATOM     31  O   UNL     1      15.522  24.579  13.355  1.00  0.00    -0.387 OA
ATOM     32  H   UNL     1      16.342  25.049  13.659  1.00  0.00     0.211 HD
ENDBRANCH   3  31
ENDBRANCH   2   3
BRANCH   2  33
ATOM     33  O   UNL     1      15.451  24.886  16.595  1.00  0.00    -0.390 OA
ATOM     34  H   UNL     1      16.423  24.694  16.524  1.00  0.00     0.211 HD
ENDBRANCH   2  33
ENDBRANCH   1   2
BRANCH   1  35
ATOM     35  C   UNL     1      16.038  28.087  15.220  1.00  0.00     0.037 C 
BRANCH  35  36
ATOM     36  C   UNL     1      16.523  28.958  14.024  1.00  0.00     0.059 C 
ATOM     37  C   UNL     1      17.190  28.085  12.945  1.00  0.00     0.042 C 
ATOM     38  C   UNL     1      15.362  29.756  13.394  1.00  0.00     0.042 C 
BRANCH  36  39
ATOM     39  O   UNL     1      17.502  29.858  14.488  1.00  0.00    -0.390 OA
ATOM     40  H   UNL     1      17.550  30.621  13.854  1.00  0.00     0.211 HD
ENDBRANCH  36  39
ENDBRANCH  35  36
ENDBRANCH   1  35
TORSDOF 11
ENDMDL
MODEL 2
REMARK VINA RESULT:    -5.193      7.536     12.461
REMARK INTER + INTRA:          -8.177
REMARK INTER:                  -7.842
REMARK INTRA:                  -0.335
REMARK UNBOUND:                -0.555
REMARK SMILES CC(C)(O)CC[C@H](O)[C@](C)(O)[C@@H]1CC[C@@]2(O)C3=CC(=O)[C@@H]4C[C@H](O)[C@H](O)C[C@@]4(C)[C@@H]3CC[C@@]12C
REMARK SMILES IDX 6 1 7 2 9 3 10 4 12 5 34 6 33 7 32 8 15 9 31 10 17 11 14 12
REMARK SMILES IDX 13 13 30 14 18 15 28 16 19 17 21 18 27 19 29 20 20 21 22 22
REMARK SMILES IDX 25 23 23 24 16 25 26 27 24 29 11 31 8 33 5 35 2 36 1 37 3 38
REMARK SMILES IDX 4 39
REMARK H PARENT 16 26 26 28 24 30 11 32 8 34 4 40
REMARK Flexibility Score: inf
ROOT
ATOM      1  C   UNL     1      18.672  24.360  14.412  1.00  0.00     0.038 C 
ENDROOT
BRANCH   1   2
ATOM      2  C   UNL     1      18.416  22.853  14.110  1.00  0.00     0.146 C 
BRANCH   2   3
ATOM      3  C   UNL     1      19.622  21.883  14.427  1.00  0.00     0.091 C 
ATOM      4  C   UNL     1      20.676  22.686  15.240  1.00  0.00     0.045 C 
BRANCH   3   5
ATOM      5  C   UNL     1      19.126  20.591  15.221  1.00  0.00     0.032 C 
ATOM      6  C   UNL     1      18.131  19.611  12.944  1.00  0.00     0.015 C 
ATOM      7  C   UNL     1      18.415  19.385  14.461  1.00  0.00     0.006 C 
ATOM      8  C   UNL     1      17.047  19.118  15.166  1.00  0.00     0.011 C 
ATOM      9  C   UNL     1      19.385  18.174  14.668  1.00  0.00     0.092 C 
ATOM     10  C   UNL     1      16.400  17.805  14.741  1.00  0.00     0.009 C 
ATOM     11  C   UNL     1      18.718  16.787  14.657  1.00  0.00    -0.031 C 
ATOM     12  C   UNL     1      20.003  18.448  16.051  1.00  0.00     0.041 C 
ATOM     13  C   UNL     1      20.218  19.950  16.108  1.00  0.00     0.010 C 
ATOM     14  C   UNL     1      17.277  16.606  15.152  1.00  0.00     0.025 C 
ATOM     15  C   UNL     1      19.497  15.700  14.460  1.00  0.00     0.050 C 
ATOM     16  C   UNL     1      16.642  15.218  14.748  1.00  0.00    -0.013 C 
ATOM     17  C   UNL     1      18.999  14.328  14.626  1.00  0.00     0.159 C 
ATOM     18  C   UNL     1      17.629  14.098  15.203  1.00  0.00     0.070 C 
ATOM     19  C   UNL     1      15.259  15.014  15.477  1.00  0.00     0.042 C 
ATOM     20  C   UNL     1      16.433  15.159  13.202  1.00  0.00     0.013 C 
ATOM     21  O   UNL     1      19.765  13.359  14.373  1.00  0.00    -0.295 OA
ATOM     22  C   UNL     1      17.097  12.668  14.921  1.00  0.00     0.047 C 
ATOM     23  C   UNL     1      15.051  13.623  16.122  1.00  0.00     0.143 C 
ATOM     24  C   UNL     1      15.592  12.487  15.236  1.00  0.00     0.143 C 
BRANCH   9  25
ATOM     25  O   UNL     1      20.373  18.228  13.654  1.00  0.00    -0.385 OA
ATOM     26  H   UNL     1      20.933  17.411  13.674  1.00  0.00     0.211 HD
ENDBRANCH   9  25
BRANCH  23  27
ATOM     27  O   UNL     1      13.684  13.416  16.375  1.00  0.00    -0.390 OA
ATOM     28  H   UNL     1      13.289  13.047  15.544  1.00  0.00     0.211 HD
ENDBRANCH  23  27
BRANCH  24  29
ATOM     29  O   UNL     1      14.859  12.410  14.039  1.00  0.00    -0.390 OA
ATOM     30  H   UNL     1      15.260  11.682  13.495  1.00  0.00     0.211 HD
ENDBRANCH  24  29
ENDBRANCH   3   5
BRANCH   3  31
ATOM     31  O   UNL     1      20.229  21.512  13.211  1.00  0.00    -0.387 OA
ATOM     32  H   UNL     1      19.764  20.708  12.863  1.00  0.00     0.211 HD
ENDBRANCH   3  31
ENDBRANCH   2   3
BRANCH   2  33
ATOM     33  O   UNL     1      17.256  22.432  14.792  1.00  0.00    -0.390 OA
ATOM     34  H   UNL     1      17.555  21.891  15.570  1.00  0.00     0.211 HD
ENDBRANCH   2  33
ENDBRANCH   1   2
BRANCH   1  35
ATOM     35  C   UNL     1      17.477  25.278  14.058  1.00  0.00     0.037 C 
BRANCH  35  36
ATOM     36  C   UNL     1      16.594  25.709  15.267  1.00  0.00     0.059 C 
ATOM     37  C   UNL     1      16.628  27.237  15.454  1.00  0.00     0.042 C 
ATOM     38  C   UNL     1      15.132  25.244  15.099  1.00  0.00     0.042 C 
BRANCH  36  39
ATOM     39  O   UNL     1      17.126  25.139  16.441  1.00  0.00    -0.390 OA
ATOM     40  H   UNL     1      16.413  25.128  17.133  1.00  0.00     0.211 HD
ENDBRANCH  36  39
ENDBRANCH  35  36
ENDBRANCH   1  35
TORSDOF 11
ENDMDL
MODEL 3
REMARK VINA RESULT:    -5.177      4.854     10.411
REMARK INTER + INTRA:          -8.153
REMARK INTER:                  -7.656
REMARK INTRA:                  -0.497
REMARK UNBOUND:                -0.555
REMARK SMILES CC(C)(O)CC[C@H](O)[C@](C)(O)[C@@H]1CC[C@@]2(O)C3=CC(=O)[C@@H]4C[C@H](O)[C@H](O)C[C@@]4(C)[C@@H]3CC[C@@]12C
REMARK SMILES IDX 6 1 7 2 9 3 10 4 12 5 34 6 33 7 32 8 15 9 31 10 17 11 14 12
REMARK SMILES IDX 13 13 30 14 18 15 28 16 19 17 21 18 27 19 29 20 20 21 22 22
REMARK SMILES IDX 25 23 23 24 16 25 26 27 24 29 11 31 8 33 5 35 2 36 1 37 3 38
REMARK SMILES IDX 4 39
REMARK H PARENT 16 26 26 28 24 30 11 32 8 34 4 40
REMARK Flexibility Score: inf
ROOT
ATOM      1  C   UNL     1       1.007  21.111  13.883  1.00  0.00     0.038 C 
ENDROOT
BRANCH   1   2
ATOM      2  C   UNL     1       1.956  22.347  13.873  1.00  0.00     0.146 C 
BRANCH   2   3
ATOM      3  C   UNL     1       1.820  23.317  15.113  1.00  0.00     0.091 C 
ATOM      4  C   UNL     1       1.081  22.544  16.242  1.00  0.00     0.045 C 
BRANCH   3   5
ATOM      5  C   UNL     1       3.250  23.836  15.594  1.00  0.00     0.032 C 
ATOM      6  C   UNL     1       3.087  25.831  13.826  1.00  0.00     0.015 C 
ATOM      7  C   UNL     1       3.885  25.165  14.988  1.00  0.00     0.006 C 
ATOM      8  C   UNL     1       5.306  24.807  14.444  1.00  0.00     0.011 C 
ATOM      9  C   UNL     1       3.994  26.133  16.213  1.00  0.00     0.092 C 
ATOM     10  C   UNL     1       6.146  26.035  14.113  1.00  0.00     0.009 C 
ATOM     11  C   UNL     1       5.121  27.177  16.129  1.00  0.00    -0.031 C 
ATOM     12  C   UNL     1       4.247  25.182  17.395  1.00  0.00     0.041 C 
ATOM     13  C   UNL     1       3.379  23.965  17.130  1.00  0.00     0.010 C 
ATOM     14  C   UNL     1       6.425  26.864  15.382  1.00  0.00     0.025 C 
ATOM     15  C   UNL     1       5.060  28.259  16.937  1.00  0.00     0.050 C 
ATOM     16  C   UNL     1       7.308  28.142  15.095  1.00  0.00    -0.013 C 
ATOM     17  C   UNL     1       6.172  29.208  17.079  1.00  0.00     0.159 C 
ATOM     18  C   UNL     1       7.501  28.895  16.447  1.00  0.00     0.070 C 
ATOM     19  C   UNL     1       8.720  27.718  14.535  1.00  0.00     0.042 C 
ATOM     20  C   UNL     1       6.589  29.063  14.060  1.00  0.00     0.013 C 
ATOM     21  O   UNL     1       6.026  30.225  17.808  1.00  0.00    -0.295 OA
ATOM     22  C   UNL     1       8.409  30.147  16.322  1.00  0.00     0.047 C 
ATOM     23  C   UNL     1       9.929  28.438  15.177  1.00  0.00     0.143 C 
ATOM     24  C   UNL     1       9.651  29.932  15.423  1.00  0.00     0.143 C 
BRANCH   9  25
ATOM     25  O   UNL     1       2.750  26.796  16.355  1.00  0.00    -0.385 OA
ATOM     26  H   UNL     1       2.839  27.570  16.970  1.00  0.00     0.211 HD
ENDBRANCH   9  25
BRANCH  23  27
ATOM     27  O   UNL     1      11.059  28.296  14.355  1.00  0.00    -0.390 OA
ATOM     28  H   UNL     1      11.780  28.848  14.754  1.00  0.00     0.211 HD
ENDBRANCH  23  27
BRANCH  24  29
ATOM     29  O   UNL     1       9.478  30.603  14.200  1.00  0.00    -0.390 OA
ATOM     30  H   UNL     1      10.184  31.299  14.143  1.00  0.00     0.211 HD
ENDBRANCH  24  29
ENDBRANCH   3   5
BRANCH   3  31
ATOM     31  O   UNL     1       0.999  24.400  14.746  1.00  0.00    -0.387 OA
ATOM     32  H   UNL     1       1.530  25.015  14.175  1.00  0.00     0.211 HD
ENDBRANCH   3  31
ENDBRANCH   2   3
BRANCH   2  33
ATOM     33  O   UNL     1       3.289  21.909  13.738  1.00  0.00    -0.390 OA
ATOM     34  H   UNL     1       3.411  21.636  12.790  1.00  0.00     0.211 HD
ENDBRANCH   2  33
ENDBRANCH   1   2
BRANCH   1  35
ATOM     35  C   UNL     1       1.646  19.830  13.296  1.00  0.00     0.037 C 
BRANCH  35  36
ATOM     36  C   UNL     1       2.049  18.752  14.346  1.00  0.00     0.059 C 
ATOM     37  C   UNL     1       1.071  18.751  15.535  1.00  0.00     0.042 C 
ATOM     38  C   UNL     1       2.102  17.341  13.722  1.00  0.00     0.042 C 
BRANCH  36  39
ATOM     39  O   UNL     1       3.321  19.076  14.860  1.00  0.00    -0.390 OA
ATOM     40  H   UNL     1       4.000  18.870  14.163  1.00  0.00     0.211 HD
ENDBRANCH  36  39
ENDBRANCH  35  36
ENDBRANCH   1  35
TORSDOF 11
ENDMDL
MODEL 4
REMARK VINA RESULT:    -5.149      1.505      2.150
REMARK INTER + INTRA:          -8.112
REMARK INTER:                  -8.237
REMARK INTRA:                   0.124
REMARK UNBOUND:                -0.555
REMARK SMILES CC(C)(O)CC[C@H](O)[C@](C)(O)[C@@H]1CC[C@@]2(O)C3=CC(=O)[C@@H]4C[C@H](O)[C@H](O)C[C@@]4(C)[C@@H]3CC[C@@]12C
REMARK SMILES IDX 6 1 7 2 9 3 10 4 12 5 34 6 33 7 32 8 15 9 31 10 17 11 14 12
REMARK SMILES IDX 13 13 30 14 18 15 28 16 19 17 21 18 27 19 29 20 20 21 22 22
REMARK SMILES IDX 25 23 23 24 16 25 26 27 24 29 11 31 8 33 5 35 2 36 1 37 3 38
REMARK SMILES IDX 4 39
REMARK H PARENT 16 26 26 28 24 30 11 32 8 34 4 40
REMARK Flexibility Score: inf
ROOT
ATOM      1  C   UNL     1      16.860  24.895  15.422  1.00  0.00     0.038 C 
ENDROOT
BRANCH   1   2
ATOM      2  C   UNL     1      15.435  25.448  15.121  1.00  0.00     0.146 C 
BRANCH   2   3
ATOM      3  C   UNL     1      14.468  24.455  14.363  1.00  0.00     0.091 C 
ATOM      4  C   UNL     1      13.974  23.396  15.390  1.00  0.00     0.045 C 
BRANCH   3   5
ATOM      5  C   UNL     1      13.249  25.239  13.695  1.00  0.00     0.032 C 
ATOM      6  C   UNL     1      11.851  24.923  15.949  1.00  0.00     0.015 C 
ATOM      7  C   UNL     1      11.921  25.545  14.520  1.00  0.00     0.006 C 
ATOM      8  C   UNL     1      10.713  24.988  13.701  1.00  0.00     0.011 C 
ATOM      9  C   UNL     1      11.863  27.107  14.591  1.00  0.00     0.092 C 
ATOM     10  C   UNL     1       9.364  25.474  14.218  1.00  0.00     0.009 C 
ATOM     11  C   UNL     1      10.452  27.709  14.709  1.00  0.00    -0.031 C 
ATOM     12  C   UNL     1      12.513  27.546  13.267  1.00  0.00     0.041 C 
ATOM     13  C   UNL     1      13.657  26.576  13.036  1.00  0.00     0.010 C 
ATOM     14  C   UNL     1       9.245  27.004  14.076  1.00  0.00     0.025 C 
ATOM     15  C   UNL     1      10.329  28.984  15.139  1.00  0.00     0.050 C 
ATOM     16  C   UNL     1       7.855  27.557  14.585  1.00  0.00    -0.013 C 
ATOM     17  C   UNL     1       9.056  29.715  15.100  1.00  0.00     0.159 C 
ATOM     18  C   UNL     1       7.870  29.107  14.402  1.00  0.00     0.070 C 
ATOM     19  C   UNL     1       6.677  26.949  13.731  1.00  0.00     0.042 C 
ATOM     20  C   UNL     1       7.655  27.191  16.089  1.00  0.00     0.013 C 
ATOM     21  O   UNL     1       9.000  30.884  15.568  1.00  0.00    -0.295 OA
ATOM     22  C   UNL     1       6.531  29.779  14.807  1.00  0.00     0.047 C 
ATOM     23  C   UNL     1       5.611  27.965  13.257  1.00  0.00     0.143 C 
ATOM     24  C   UNL     1       5.275  29.002  14.344  1.00  0.00     0.143 C 
BRANCH   9  25
ATOM     25  O   UNL     1      12.644  27.521  15.699  1.00  0.00    -0.385 OA
ATOM     26  H   UNL     1      13.277  26.805  15.963  1.00  0.00     0.211 HD
ENDBRANCH   9  25
BRANCH  23  27
ATOM     27  O   UNL     1       4.442  27.285  12.876  1.00  0.00    -0.390 OA
ATOM     28  H   UNL     1       3.704  27.643  13.432  1.00  0.00     0.211 HD
ENDBRANCH  23  27
BRANCH  24  29
ATOM     29  O   UNL     1       4.668  28.375  15.447  1.00  0.00    -0.390 OA
ATOM     30  H   UNL     1       4.921  28.893  16.256  1.00  0.00     0.211 HD
ENDBRANCH  24  29
ENDBRANCH   3   5
BRANCH   3  31
ATOM     31  O   UNL     1      15.210  23.768  13.382  1.00  0.00    -0.387 OA
ATOM     32  H   UNL     1      15.679  23.011  13.821  1.00  0.00     0.211 HD
ENDBRANCH   3  31
ENDBRANCH   2   3
BRANCH   2  33
ATOM     33  O   UNL     1      14.842  25.889  16.321  1.00  0.00    -0.390 OA
ATOM     34  H   UNL     1      15.179  26.808  16.493  1.00  0.00     0.211 HD
ENDBRANCH   2  33
ENDBRANCH   1   2
BRANCH   1  35
ATOM     35  C   UNL     1      17.984  25.605  14.630  1.00  0.00     0.037 C 
BRANCH  35  36
ATOM     36  C   UNL     1      19.361  24.877  14.639  1.00  0.00     0.059 C 
ATOM     37  C   UNL     1      20.500  25.854  14.296  1.00  0.00     0.042 C 
ATOM     38  C   UNL     1      19.646  24.215  16.003  1.00  0.00     0.042 C 
BRANCH  36  39
ATOM     39  O   UNL     1      19.354  23.885  13.638  1.00  0.00    -0.390 OA
ATOM     40  H   UNL     1      18.489  23.398  13.689  1.00  0.00     0.211 HD
ENDBRANCH  36  39
ENDBRANCH  35  36
ENDBRANCH   1  35
TORSDOF 11
ENDMDL
MODEL 5
REMARK VINA RESULT:    -5.081      3.140      6.282
REMARK INTER + INTRA:          -8.013
REMARK INTER:                  -7.748
REMARK INTRA:                  -0.265
REMARK UNBOUND:                -0.555
REMARK SMILES CC(C)(O)CC[C@H](O)[C@](C)(O)[C@@H]1CC[C@@]2(O)C3=CC(=O)[C@@H]4C[C@H](O)[C@H](O)C[C@@]4(C)[C@@H]3CC[C@@]12C
REMARK SMILES IDX 6 1 7 2 9 3 10 4 12 5 34 6 33 7 32 8 15 9 31 10 17 11 14 12
REMARK SMILES IDX 13 13 30 14 18 15 28 16 19 17 21 18 27 19 29 20 20 21 22 22
REMARK SMILES IDX 25 23 23 24 16 25 26 27 24 29 11 31 8 33 5 35 2 36 1 37 3 38
REMARK SMILES IDX 4 39
REMARK H PARENT 16 26 26 28 24 30 11 32 8 34 4 40
REMARK Flexibility Score: inf
ROOT
ATOM      1  C   UNL     1      10.477  27.484  14.517  1.00  0.00     0.038 C 
ENDROOT
BRANCH   1   2
ATOM      2  C   UNL     1      10.368  29.031  14.372  1.00  0.00     0.146 C 
BRANCH   2   3
ATOM      3  C   UNL     1       8.963  29.650  14.743  1.00  0.00     0.091 C 
ATOM      4  C   UNL     1       8.901  31.082  14.138  1.00  0.00     0.045 C 
BRANCH   3   5
ATOM      5  C   UNL     1       7.773  28.734  14.206  1.00  0.00     0.032 C 
ATOM      6  C   UNL     1       7.470  27.739  16.666  1.00  0.00     0.015 C 
ATOM      7  C   UNL     1       6.952  27.794  15.196  1.00  0.00     0.006 C 
ATOM      8  C   UNL     1       7.000  26.342  14.622  1.00  0.00     0.011 C 
ATOM      9  C   UNL     1       5.493  28.358  15.143  1.00  0.00     0.092 C 
ATOM     10  C   UNL     1       6.011  25.398  15.297  1.00  0.00     0.009 C 
ATOM     11  C   UNL     1       4.380  27.333  15.424  1.00  0.00    -0.031 C 
ATOM     12  C   UNL     1       5.370  28.885  13.702  1.00  0.00     0.041 C 
ATOM     13  C   UNL     1       6.717  29.506  13.381  1.00  0.00     0.010 C 
ATOM     14  C   UNL     1       4.560  25.857  15.047  1.00  0.00     0.025 C 
ATOM     15  C   UNL     1       3.153  27.791  15.758  1.00  0.00     0.050 C 
ATOM     16  C   UNL     1       3.494  24.902  15.713  1.00  0.00    -0.013 C 
ATOM     17  C   UNL     1       1.979  26.914  15.853  1.00  0.00     0.159 C 
ATOM     18  C   UNL     1       2.080  25.483  15.400  1.00  0.00     0.070 C 
ATOM     19  C   UNL     1       3.601  23.451  15.105  1.00  0.00     0.042 C 
ATOM     20  C   UNL     1       3.725  24.842  17.256  1.00  0.00     0.013 C 
ATOM     21  O   UNL     1       0.875  27.397  16.224  1.00  0.00    -0.295 OA
ATOM     22  C   UNL     1       0.926  24.601  15.947  1.00  0.00     0.047 C 
ATOM     23  C   UNL     1       2.255  22.795  14.716  1.00  0.00     0.143 C 
ATOM     24  C   UNL     1       1.151  23.083  15.750  1.00  0.00     0.143 C 
BRANCH   9  25
ATOM     25  O   UNL     1       5.402  29.419  16.078  1.00  0.00    -0.385 OA
ATOM     26  H   UNL     1       4.456  29.688  16.203  1.00  0.00     0.211 HD
ENDBRANCH   9  25
BRANCH  23  27
ATOM     27  O   UNL     1       2.423  21.408  14.578  1.00  0.00    -0.390 OA
ATOM     28  H   UNL     1       3.096  21.129  15.251  1.00  0.00     0.211 HD
ENDBRANCH  23  27
BRANCH  24  29
ATOM     29  O   UNL     1       1.467  22.483  16.982  1.00  0.00    -0.390 OA
ATOM     30  H   UNL     1       0.609  22.273  17.436  1.00  0.00     0.211 HD
ENDBRANCH  24  29
ENDBRANCH   3   5
BRANCH   3  31
ATOM     31  O   UNL     1       8.888  29.788  16.142  1.00  0.00    -0.387 OA
ATOM     32  H   UNL     1       7.935  29.727  16.411  1.00  0.00     0.211 HD
ENDBRANCH   3  31
ENDBRANCH   2   3
BRANCH   2  33
ATOM     33  O   UNL     1      11.388  29.642  15.129  1.00  0.00    -0.390 OA
ATOM     34  H   UNL     1      12.221  29.596  14.589  1.00  0.00     0.211 HD
ENDBRANCH   2  33
ENDBRANCH   1   2
BRANCH   1  35
ATOM     35  C   UNL     1      11.797  26.897  13.962  1.00  0.00     0.037 C 
BRANCH  35  36
ATOM     36  C   UNL     1      12.783  26.352  15.037  1.00  0.00     0.059 C 
ATOM     37  C   UNL     1      12.131  25.227  15.861  1.00  0.00     0.042 C 
ATOM     38  C   UNL     1      14.089  25.832  14.401  1.00  0.00     0.042 C 
BRANCH  36  39
ATOM     39  O   UNL     1      13.091  27.394  15.935  1.00  0.00    -0.390 OA
ATOM     40  H   UNL     1      12.396  27.408  16.645  1.00  0.00     0.211 HD
ENDBRANCH  36  39
ENDBRANCH  35  36
ENDBRANCH   1  35
TORSDOF 11
ENDMDL
MODEL 6
REMARK VINA RESULT:    -4.905      2.354      9.107
REMARK INTER + INTRA:          -7.753
REMARK INTER:                  -7.183
REMARK INTRA:                  -0.571
REMARK UNBOUND:                -0.555
REMARK SMILES CC(C)(O)CC[C@H](O)[C@](C)(O)[C@@H]1CC[C@@]2(O)C3=CC(=O)[C@@H]4C[C@H](O)[C@H](O)C[C@@]4(C)[C@@H]3CC[C@@]12C
REMARK SMILES IDX 6 1 7 2 9 3 10 4 12 5 34 6 33 7 32 8 15 9 31 10 17 11 14 12
REMARK SMILES IDX 13 13 30 14 18 15 28 16 19 17 21 18 27 19 29 20 20 21 22 22
REMARK SMILES IDX 25 23 23 24 16 25 26 27 24 29 11 31 8 33 5 35 2 36 1 37 3 38
REMARK SMILES IDX 4 39
REMARK H PARENT 16 26 26 28 24 30 11 32 8 34 4 40
REMARK Flexibility Score: inf
ROOT
ATOM      1  C   UNL     1       2.729  26.129  14.844  1.00  0.00     0.038 C 
ENDROOT
BRANCH   1   2
ATOM      2  C   UNL     1       2.684  27.343  15.819  1.00  0.00     0.146 C 
BRANCH   2   3
ATOM      3  C   UNL     1       3.735  28.486  15.528  1.00  0.00     0.091 C 
ATOM      4  C   UNL     1       3.215  29.791  16.196  1.00  0.00     0.045 C 
BRANCH   3   5
ATOM      5  C   UNL     1       5.182  28.086  16.068  1.00  0.00     0.032 C 
ATOM      6  C   UNL     1       5.833  27.252  13.616  1.00  0.00     0.015 C 
ATOM      7  C   UNL     1       6.294  27.511  15.083  1.00  0.00     0.006 C 
ATOM      8  C   UNL     1       6.793  26.153  15.671  1.00  0.00     0.011 C 
ATOM      9  C   UNL     1       7.436  28.581  15.125  1.00  0.00     0.092 C 
ATOM     10  C   UNL     1       8.063  25.641  15.000  1.00  0.00     0.009 C 
ATOM     11  C   UNL     1       8.851  28.044  14.848  1.00  0.00    -0.031 C 
ATOM     12  C   UNL     1       7.354  29.130  16.560  1.00  0.00     0.041 C 
ATOM     13  C   UNL     1       5.873  29.205  16.881  1.00  0.00     0.010 C 
ATOM     14  C   UNL     1       9.236  26.611  15.240  1.00  0.00     0.025 C 
ATOM     15  C   UNL     1       9.818  28.923  14.504  1.00  0.00     0.050 C 
ATOM     16  C   UNL     1      10.583  26.117  14.577  1.00  0.00    -0.013 C 
ATOM     17  C   UNL     1      11.235  28.548  14.412  1.00  0.00     0.159 C 
ATOM     18  C   UNL     1      11.677  27.188  14.879  1.00  0.00     0.070 C 
ATOM     19  C   UNL     1      11.025  24.738  15.199  1.00  0.00     0.042 C 
ATOM     20  C   UNL     1      10.390  25.960  13.036  1.00  0.00     0.013 C 
ATOM     21  O   UNL     1      12.078  29.405  14.032  1.00  0.00    -0.295 OA
ATOM     22  C   UNL     1      13.076  26.796  14.335  1.00  0.00     0.047 C 
ATOM     23  C   UNL     1      12.520  24.637  15.588  1.00  0.00     0.143 C 
ATOM     24  C   UNL     1      13.435  25.306  14.547  1.00  0.00     0.143 C 
BRANCH   9  25
ATOM     25  O   UNL     1       7.123  29.589  14.179  1.00  0.00    -0.385 OA
ATOM     26  H   UNL     1       6.144  29.624  14.023  1.00  0.00     0.211 HD
ENDBRANCH   9  25
BRANCH  23  27
ATOM     27  O   UNL     1      12.882  23.288  15.740  1.00  0.00    -0.390 OA
ATOM     28  H   UNL     1      13.535  23.081  15.024  1.00  0.00     0.211 HD
ENDBRANCH  23  27
BRANCH  24  29
ATOM     29  O   UNL     1      13.365  24.618  13.322  1.00  0.00    -0.390 OA
ATOM     30  H   UNL     1      12.953  23.734  13.505  1.00  0.00     0.211 HD
ENDBRANCH  24  29
ENDBRANCH   3   5
BRANCH   3  31
ATOM     31  O   UNL     1       3.772  28.717  14.139  1.00  0.00    -0.387 OA
ATOM     32  H   UNL     1       2.953  28.327  13.737  1.00  0.00     0.211 HD
ENDBRANCH   3  31
ENDBRANCH   2   3
BRANCH   2  33
ATOM     33  O   UNL     1       1.378  27.872  15.845  1.00  0.00    -0.390 OA
ATOM     34  H   UNL     1       1.372  28.662  15.243  1.00  0.00     0.211 HD
ENDBRANCH   2  33
ENDBRANCH   1   2
BRANCH   1  35
ATOM     35  C   UNL     1       3.417  24.877  15.439  1.00  0.00     0.037 C 
BRANCH  35  36
ATOM     36  C   UNL     1       3.700  23.731  14.422  1.00  0.00     0.059 C 
ATOM     37  C   UNL     1       5.006  22.996  14.774  1.00  0.00     0.042 C 
ATOM     38  C   UNL     1       2.538  22.717  14.369  1.00  0.00     0.042 C 
BRANCH  36  39
ATOM     39  O   UNL     1       3.878  24.296  13.144  1.00  0.00    -0.390 OA
ATOM     40  H   UNL     1       4.652  24.918  13.184  1.00  0.00     0.211 HD
ENDBRANCH  36  39
ENDBRANCH  35  36
ENDBRANCH   1  35
TORSDOF 11
ENDMDL
MODEL 7
REMARK VINA RESULT:    -4.838      1.775      3.573
REMARK INTER + INTRA:          -7.656
REMARK INTER:                  -7.427
REMARK INTRA:                  -0.229
REMARK UNBOUND:                -0.555
REMARK SMILES CC(C)(O)CC[C@H](O)[C@](C)(O)[C@@H]1CC[C@@]2(O)C3=CC(=O)[C@@H]4C[C@H](O)[C@H](O)C[C@@]4(C)[C@@H]3CC[C@@]12C
REMARK SMILES IDX 6 1 7 2 9 3 10 4 12 5 34 6 33 7 32 8 15 9 31 10 17 11 14 12
REMARK SMILES IDX 13 13 30 14 18 15 28 16 19 17 21 18 27 19 29 20 20 21 22 22
REMARK SMILES IDX 25 23 23 24 16 25 26 27 24 29 11 31 8 33 5 35 2 36 1 37 3 38
REMARK SMILES IDX 4 39
REMARK H PARENT 16 26 26 28 24 30 11 32 8 34 4 40
REMARK Flexibility Score: inf
ROOT
ATOM      1  C   UNL     1      15.049  23.075  14.796  1.00  0.00     0.038 C 
ENDROOT
BRANCH   1   2
ATOM      2  C   UNL     1      16.089  24.217  14.597  1.00  0.00     0.146 C 
BRANCH   2   3
ATOM      3  C   UNL     1      15.534  25.683  14.801  1.00  0.00     0.091 C 
ATOM      4  C   UNL     1      16.636  26.676  14.334  1.00  0.00     0.045 C 
BRANCH   3   5
ATOM      5  C   UNL     1      14.171  25.897  14.001  1.00  0.00     0.032 C 
ATOM      6  C   UNL     1      12.820  25.606  16.287  1.00  0.00     0.015 C 
ATOM      7  C   UNL     1      12.771  25.925  14.761  1.00  0.00     0.006 C 
ATOM      8  C   UNL     1      11.841  24.868  14.084  1.00  0.00     0.011 C 
ATOM      9  C   UNL     1      12.228  27.372  14.514  1.00  0.00     0.092 C 
ATOM     10  C   UNL     1      10.382  24.996  14.506  1.00  0.00     0.009 C 
ATOM     11  C   UNL     1      10.695  27.510  14.522  1.00  0.00    -0.031 C 
ATOM     12  C   UNL     1      12.780  27.725  13.122  1.00  0.00     0.041 C 
ATOM     13  C   UNL     1      14.180  27.139  13.080  1.00  0.00     0.010 C 
ATOM     14  C   UNL     1       9.802  26.353  14.058  1.00  0.00     0.025 C 
ATOM     15  C   UNL     1      10.160  28.741  14.686  1.00  0.00     0.050 C 
ATOM     16  C   UNL     1       8.284  26.529  14.458  1.00  0.00    -0.013 C 
ATOM     17  C   UNL     1       8.727  29.012  14.513  1.00  0.00     0.159 C 
ATOM     18  C   UNL     1       7.828  27.938  13.965  1.00  0.00     0.070 C 
ATOM     19  C   UNL     1       7.401  25.427  13.757  1.00  0.00     0.042 C 
ATOM     20  C   UNL     1       8.127  26.421  16.007  1.00  0.00     0.013 C 
ATOM     21  O   UNL     1       8.287  30.172  14.735  1.00  0.00    -0.295 OA
ATOM     22  C   UNL     1       6.327  28.221  14.239  1.00  0.00     0.047 C 
ATOM     23  C   UNL     1       6.099  25.943  13.099  1.00  0.00     0.143 C 
ATOM     24  C   UNL     1       5.401  27.013  13.956  1.00  0.00     0.143 C 
BRANCH   9  25
ATOM     25  O   UNL     1      12.781  28.220  15.507  1.00  0.00    -0.385 OA
ATOM     26  H   UNL     1      13.612  27.823  15.876  1.00  0.00     0.211 HD
ENDBRANCH   9  25
BRANCH  23  27
ATOM     27  O   UNL     1       5.221  24.869  12.875  1.00  0.00    -0.390 OA
ATOM     28  H   UNL     1       5.197  24.336  13.710  1.00  0.00     0.211 HD
ENDBRANCH  23  27
BRANCH  24  29
ATOM     29  O   UNL     1       4.959  26.456  15.169  1.00  0.00    -0.390 OA
ATOM     30  H   UNL     1       4.826  25.483  15.015  1.00  0.00     0.211 HD
ENDBRANCH  24  29
ENDBRANCH   3   5
BRANCH   3  31
ATOM     31  O   UNL     1      15.338  25.899  16.179  1.00  0.00    -0.387 OA
ATOM     32  H   UNL     1      15.621  25.082  16.666  1.00  0.00     0.211 HD
ENDBRANCH   3  31
ENDBRANCH   2   3
BRANCH   2  33
ATOM     33  O   UNL     1      17.197  23.991  15.438  1.00  0.00    -0.390 OA
ATOM     34  H   UNL     1      16.849  23.584  16.275  1.00  0.00     0.211 HD
ENDBRANCH   2  33
ENDBRANCH   1   2
BRANCH   1  35
ATOM     35  C   UNL     1      14.990  22.074  13.617  1.00  0.00     0.037 C 
BRANCH  35  36
ATOM     36  C   UNL     1      15.907  20.824  13.763  1.00  0.00     0.059 C 
ATOM     37  C   UNL     1      15.167  19.546  13.328  1.00  0.00     0.042 C 
ATOM     38  C   UNL     1      17.205  20.971  12.942  1.00  0.00     0.042 C 
BRANCH  36  39
ATOM     39  O   UNL     1      16.238  20.664  15.124  1.00  0.00    -0.390 OA
ATOM     40  H   UNL     1      16.026  19.730  15.388  1.00  0.00     0.211 HD
ENDBRANCH  36  39
ENDBRANCH  35  36
ENDBRANCH   1  35
TORSDOF 11
ENDMDL
MODEL 8
REMARK VINA RESULT:    -4.834      2.666      5.528
REMARK INTER + INTRA:          -7.650
REMARK INTER:                  -7.048
REMARK INTRA:                  -0.601
REMARK UNBOUND:                -0.555
REMARK SMILES CC(C)(O)CC[C@H](O)[C@](C)(O)[C@@H]1CC[C@@]2(O)C3=CC(=O)[C@@H]4C[C@H](O)[C@H](O)C[C@@]4(C)[C@@H]3CC[C@@]12C
REMARK SMILES IDX 6 1 7 2 9 3 10 4 12 5 34 6 33 7 32 8 15 9 31 10 17 11 14 12
REMARK SMILES IDX 13 13 30 14 18 15 28 16 19 17 21 18 27 19 29 20 20 21 22 22
REMARK SMILES IDX 25 23 23 24 16 25 26 27 24 29 11 31 8 33 5 35 2 36 1 37 3 38
REMARK SMILES IDX 4 39
REMARK H PARENT 16 26 26 28 24 30 11 32 8 34 4 40
REMARK Flexibility Score: inf
ROOT
ATOM      1  C   UNL     1      12.317  26.767  15.147  1.00  0.00     0.038 C 
ENDROOT
BRANCH   1   2
ATOM      2  C   UNL     1      12.153  28.140  14.429  1.00  0.00     0.146 C 
BRANCH   2   3
ATOM      3  C   UNL     1      10.700  28.759  14.473  1.00  0.00     0.091 C 
ATOM      4  C   UNL     1      10.564  29.737  13.271  1.00  0.00     0.045 C 
BRANCH   3   5
ATOM      5  C   UNL     1       9.588  27.616  14.430  1.00  0.00     0.032 C 
ATOM      6  C   UNL     1       8.014  29.132  15.965  1.00  0.00     0.015 C 
ATOM      7  C   UNL     1       8.175  27.820  15.138  1.00  0.00     0.006 C 
ATOM      8  C   UNL     1       7.952  26.616  16.109  1.00  0.00     0.011 C 
ATOM      9  C   UNL     1       7.145  27.776  13.962  1.00  0.00     0.092 C 
ATOM     10  C   UNL     1       6.520  26.520  16.624  1.00  0.00     0.009 C 
ATOM     11  C   UNL     1       5.736  27.283  14.338  1.00  0.00    -0.031 C 
ATOM     12  C   UNL     1       7.791  26.802  12.961  1.00  0.00     0.041 C 
ATOM     13  C   UNL     1       9.278  27.104  13.005  1.00  0.00     0.010 C 
ATOM     14  C   UNL     1       5.539  26.259  15.463  1.00  0.00     0.025 C 
ATOM     15  C   UNL     1       4.712  27.557  13.500  1.00  0.00     0.050 C 
ATOM     16  C   UNL     1       4.041  26.135  15.947  1.00  0.00    -0.013 C 
ATOM     17  C   UNL     1       3.376  26.969  13.662  1.00  0.00     0.159 C 
ATOM     18  C   UNL     1       3.157  25.889  14.685  1.00  0.00     0.070 C 
ATOM     19  C   UNL     1       3.882  24.915  16.933  1.00  0.00     0.042 C 
ATOM     20  C   UNL     1       3.604  27.450  16.666  1.00  0.00     0.013 C 
ATOM     21  O   UNL     1       2.452  27.311  12.875  1.00  0.00    -0.295 OA
ATOM     22  C   UNL     1       1.657  25.684  15.024  1.00  0.00     0.047 C 
ATOM     23  C   UNL     1       2.666  23.997  16.660  1.00  0.00     0.143 C 
ATOM     24  C   UNL     1       1.412  24.799  16.270  1.00  0.00     0.143 C 
BRANCH   9  25
ATOM     25  O   UNL     1       7.055  29.079  13.412  1.00  0.00    -0.385 OA
ATOM     26  H   UNL     1       7.611  29.148  12.594  1.00  0.00     0.211 HD
ENDBRANCH   9  25
BRANCH  23  27
ATOM     27  O   UNL     1       2.395  23.217  17.796  1.00  0.00    -0.390 OA
ATOM     28  H   UNL     1       1.526  22.766  17.637  1.00  0.00     0.211 HD
ENDBRANCH  23  27
BRANCH  24  29
ATOM     29  O   UNL     1       0.988  25.598  17.347  1.00  0.00    -0.390 OA
ATOM     30  H   UNL     1       0.345  25.058  17.878  1.00  0.00     0.211 HD
ENDBRANCH  24  29
ENDBRANCH   3   5
BRANCH   3  31
ATOM     31  O   UNL     1      10.575  29.526  15.648  1.00  0.00    -0.387 OA
ATOM     32  H   UNL     1      11.387  30.089  15.739  1.00  0.00     0.211 HD
ENDBRANCH   3  31
ENDBRANCH   2   3
BRANCH   2  33
ATOM     33  O   UNL     1      13.091  29.053  14.949  1.00  0.00    -0.390 OA
ATOM     34  H   UNL     1      13.261  29.731  14.243  1.00  0.00     0.211 HD
ENDBRANCH   2  33
ENDBRANCH   1   2
BRANCH   1  35
ATOM     35  C   UNL     1      12.527  25.578  14.179  1.00  0.00     0.037 C 
BRANCH  35  36
ATOM     36  C   UNL     1      11.955  24.215  14.671  1.00  0.00     0.059 C 
ATOM     37  C   UNL     1      11.509  24.307  16.142  1.00  0.00     0.042 C 
ATOM     38  C   UNL     1      10.768  23.749  13.803  1.00  0.00     0.042 C 
BRANCH  36  39
ATOM     39  O   UNL     1      12.978  23.249  14.611  1.00  0.00    -0.390 OA
ATOM     40  H   UNL     1      13.026  22.790  15.491  1.00  0.00     0.211 HD
ENDBRANCH  36  39
ENDBRANCH  35  36
ENDBRANCH   1  35
TORSDOF 11
ENDMDL
MODEL 9
REMARK VINA RESULT:    -4.225      2.401      3.484
REMARK INTER + INTRA:          -6.755
REMARK INTER:                  -6.420
REMARK INTRA:                  -0.336
REMARK UNBOUND:                -0.555
REMARK SMILES CC(C)(O)CC[C@H](O)[C@](C)(O)[C@@H]1CC[C@@]2(O)C3=CC(=O)[C@@H]4C[C@H](O)[C@H](O)C[C@@]4(C)[C@@H]3CC[C@@]12C
REMARK SMILES IDX 6 1 7 2 9 3 10 4 12 5 34 6 33 7 32 8 15 9 31 10 17 11 14 12
REMARK SMILES IDX 13 13 30 14 18 15 28 16 19 17 21 18 27 19 29 20 20 21 22 22
REMARK SMILES IDX 25 23 23 24 16 25 26 27 24 29 11 31 8 33 5 35 2 36 1 37 3 38
REMARK SMILES IDX 4 39
REMARK H PARENT 16 26 26 28 24 30 11 32 8 34 4 40
REMARK Flexibility Score: inf
ROOT
ATOM      1  C   UNL     1      18.116  24.970  15.817  1.00  0.00     0.038 C 
ENDROOT
BRANCH   1   2
ATOM      2  C   UNL     1      16.836  25.105  14.939  1.00  0.00     0.146 C 
BRANCH   2   3
ATOM      3  C   UNL     1      16.346  26.584  14.678  1.00  0.00     0.091 C 
ATOM      4  C   UNL     1      17.455  27.315  13.868  1.00  0.00     0.045 C 
BRANCH   3   5
ATOM      5  C   UNL     1      14.950  26.598  13.906  1.00  0.00     0.032 C 
ATOM      6  C   UNL     1      13.712  26.009  16.199  1.00  0.00     0.015 C 
ATOM      7  C   UNL     1      13.580  26.368  14.687  1.00  0.00     0.006 C 
ATOM      8  C   UNL     1      12.823  25.196  13.985  1.00  0.00     0.011 C 
ATOM      9  C   UNL     1      12.802  27.713  14.503  1.00  0.00     0.092 C 
ATOM     10  C   UNL     1      11.372  25.066  14.433  1.00  0.00     0.009 C 
ATOM     11  C   UNL     1      11.268  27.596  14.538  1.00  0.00    -0.031 C 
ATOM     12  C   UNL     1      13.259  28.200  13.117  1.00  0.00     0.041 C 
ATOM     13  C   UNL     1      14.735  27.855  13.032  1.00  0.00     0.010 C 
ATOM     14  C   UNL     1      10.567  26.323  14.045  1.00  0.00     0.025 C 
ATOM     15  C   UNL     1      10.541  28.715  14.756  1.00  0.00     0.050 C 
ATOM     16  C   UNL     1       9.050  26.233  14.473  1.00  0.00    -0.013 C 
ATOM     17  C   UNL     1       9.079  28.751  14.614  1.00  0.00     0.159 C 
ATOM     18  C   UNL     1       8.358  27.562  14.040  1.00  0.00     0.070 C 
ATOM     19  C   UNL     1       8.346  25.024  13.745  1.00  0.00     0.042 C 
ATOM     20  C   UNL     1       8.944  26.047  16.019  1.00  0.00     0.013 C 
ATOM     21  O   UNL     1       8.459  29.814  14.886  1.00  0.00    -0.295 OA
ATOM     22  C   UNL     1       6.837  27.584  14.346  1.00  0.00     0.047 C 
ATOM     23  C   UNL     1       6.963  25.340  13.125  1.00  0.00     0.143 C 
ATOM     24  C   UNL     1       6.116  26.251  14.033  1.00  0.00     0.143 C 
BRANCH   9  25
ATOM     25  O   UNL     1      13.228  28.606  15.518  1.00  0.00    -0.385 OA
ATOM     26  H   UNL     1      13.195  28.161  16.404  1.00  0.00     0.211 HD
ENDBRANCH   9  25
BRANCH  23  27
ATOM     27  O   UNL     1       6.270  24.144  12.875  1.00  0.00    -0.390 OA
ATOM     28  H   UNL     1       6.918  23.513  12.469  1.00  0.00     0.211 HD
ENDBRANCH  23  27
BRANCH  24  29
ATOM     29  O   UNL     1       5.798  25.586  15.230  1.00  0.00    -0.390 OA
ATOM     30  H   UNL     1       6.041  24.630  15.110  1.00  0.00     0.211 HD
ENDBRANCH  24  29
ENDBRANCH   3   5
BRANCH   3  31
ATOM     31  O   UNL     1      16.233  27.245  15.916  1.00  0.00    -0.387 OA
ATOM     32  H   UNL     1      15.738  26.653  16.541  1.00  0.00     0.211 HD
ENDBRANCH   3  31
ENDBRANCH   2   3
BRANCH   2  33
ATOM     33  O   UNL     1      17.036  24.432  13.718  1.00  0.00    -0.390 OA
ATOM     34  H   UNL     1      17.741  23.749  13.873  1.00  0.00     0.211 HD
ENDBRANCH   2  33
ENDBRANCH   1   2
BRANCH   1  35
ATOM     35  C   UNL     1      19.384  24.588  15.016  1.00  0.00     0.037 C 
BRANCH  35  36
ATOM     36  C   UNL     1      19.938  23.159  15.296  1.00  0.00     0.059 C 
ATOM     37  C   UNL     1      21.044  22.793  14.290  1.00  0.00     0.042 C 
ATOM     38  C   UNL     1      20.487  23.034  16.732  1.00  0.00     0.042 C 
BRANCH  36  39
ATOM     39  O   UNL     1      18.896  22.228  15.118  1.00  0.00    -0.390 OA
ATOM     40  H   UNL     1      18.035  22.725  15.095  1.00  0.00     0.211 HD
ENDBRANCH  36  39
ENDBRANCH  35  36
ENDBRANCH   1  35
TORSDOF 11
ENDMDL
