MODEL 1
REMARK VINA RESULT:    -4.953      0.000      0.000
REMARK INTER + INTRA:          -9.132
REMARK INTER:                  -8.428
REMARK INTRA:                  -0.704
REMARK UNBOUND:                -0.704
REMARK SMILES CCCCCCCCCCCCCC(=O)[O-]
REMARK SMILES IDX 8 1 9 2 10 3 11 4 12 5 13 6 14 7 15 8 16 9 7 10 6 11 5 12
REMARK SMILES IDX 4 13 3 14 2 15 1 16
REMARK H PARENT
REMARK Flexibility Score: inf
ROOT
ATOM      1  C   UNL     1       5.784  -7.493 -22.141  1.00  0.00     0.000 C 
ENDROOT
BRANCH   1   2
ATOM      2  C   UNL     1       5.925  -9.013 -22.319  1.00  0.00     0.000 C 
BRANCH   2   3
ATOM      3  C   UNL     1       6.999  -9.391 -23.351  1.00  0.00     0.000 C 
BRANCH   3   4
ATOM      4  C   UNL     1       6.719 -10.773 -23.953  1.00  0.00     0.000 C 
BRANCH   4   5
ATOM      5  C   UNL     1       5.384 -11.334 -23.444  1.00  0.00     0.006 C 
BRANCH   5   6
ATOM      6  C   UNL     1       5.555 -12.680 -22.726  1.00  0.00     0.053 C 
BRANCH   6   7
ATOM      7  C   UNL     1       4.349 -13.029 -21.908  1.00  0.00     0.041 C 
ATOM      8  O   UNL     1       4.099 -14.231 -21.629  1.00  0.00    -0.550 OA
ATOM      9  O   UNL     1       3.519 -12.024 -21.429  1.00  0.00    -0.550 OA
ENDBRANCH   6   7
ENDBRANCH   5   6
ENDBRANCH   4   5
ENDBRANCH   3   4
ENDBRANCH   2   3
ENDBRANCH   1   2
BRANCH   1  10
ATOM     10  C   UNL     1       4.402  -7.085 -21.607  1.00  0.00     0.000 C 
BRANCH  10  11
ATOM     11  C   UNL     1       4.394  -7.064 -20.072  1.00  0.00    -0.000 C 
BRANCH  11  12
ATOM     12  C   UNL     1       3.068  -6.546 -19.489  1.00  0.00    -0.000 C 
BRANCH  12  13
ATOM     13  C   UNL     1       3.217  -5.624 -18.264  1.00  0.00    -0.000 C 
BRANCH  13  14
ATOM     14  C   UNL     1       3.186  -4.120 -18.609  1.00  0.00    -0.000 C 
BRANCH  14  15
ATOM     15  C   UNL     1       4.594  -3.525 -18.754  1.00  0.00    -0.003 C 
ATOM     16  C   UNL     1       5.546  -4.101 -17.710  1.00  0.00     0.004 C 
ENDBRANCH  14  15
ENDBRANCH  13  14
ENDBRANCH  12  13
ENDBRANCH  11  12
ENDBRANCH  10  11
ENDBRANCH   1  10
TORSDOF 12
ENDMDL
MODEL 2
REMARK VINA RESULT:    -4.936      3.668      8.197
REMARK INTER + INTRA:          -9.103
REMARK INTER:                  -8.587
REMARK INTRA:                  -0.516
REMARK UNBOUND:                -0.704
REMARK SMILES CCCCCCCCCCCCCC(=O)[O-]
REMARK SMILES IDX 8 1 9 2 10 3 11 4 12 5 13 6 14 7 15 8 16 9 7 10 6 11 5 12
REMARK SMILES IDX 4 13 3 14 2 15 1 16
REMARK H PARENT
REMARK Flexibility Score: inf
ROOT
ATOM      1  C   UNL     1       6.020  -8.906 -22.133  1.00  0.00     0.000 C 
ENDROOT
BRANCH   1   2
ATOM      2  C   UNL     1       5.510  -7.458 -22.049  1.00  0.00     0.000 C 
BRANCH   2   3
ATOM      3  C   UNL     1       4.421  -7.275 -20.980  1.00  0.00     0.000 C 
BRANCH   3   4
ATOM      4  C   UNL     1       4.651  -5.988 -20.178  1.00  0.00     0.000 C 
BRANCH   4   5
ATOM      5  C   UNL     1       3.839  -6.000 -18.875  1.00  0.00     0.006 C 
BRANCH   5   6
ATOM      6  C   UNL     1       3.508  -4.584 -18.384  1.00  0.00     0.053 C 
BRANCH   6   7
ATOM      7  C   UNL     1       4.737  -3.733 -18.278  1.00  0.00     0.041 C 
ATOM      8  O   UNL     1       4.858  -2.702 -18.990  1.00  0.00    -0.550 OA
ATOM      9  O   UNL     1       5.736  -4.063 -17.371  1.00  0.00    -0.550 OA
ENDBRANCH   6   7
ENDBRANCH   5   6
ENDBRANCH   4   5
ENDBRANCH   3   4
ENDBRANCH   2   3
ENDBRANCH   1   2
BRANCH   1  10
ATOM     10  C   UNL     1       7.079  -9.099 -23.229  1.00  0.00     0.000 C 
BRANCH  10  11
ATOM     11  C   UNL     1       6.873 -10.434 -23.959  1.00  0.00    -0.000 C 
BRANCH  11  12
ATOM     12  C   UNL     1       5.566 -11.138 -23.558  1.00  0.00    -0.000 C 
BRANCH  12  13
ATOM     13  C   UNL     1       5.709 -12.641 -23.250  1.00  0.00    -0.000 C 
BRANCH  13  14
ATOM     14  C   UNL     1       4.878 -13.109 -22.037  1.00  0.00    -0.000 C 
BRANCH  14  15
ATOM     15  C   UNL     1       5.164 -14.571 -21.663  1.00  0.00    -0.003 C 
ATOM     16  C   UNL     1       3.973 -15.467 -21.990  1.00  0.00     0.004 C 
ENDBRANCH  14  15
ENDBRANCH  13  14
ENDBRANCH  12  13
ENDBRANCH  11  12
ENDBRANCH  10  11
ENDBRANCH   1  10
TORSDOF 12
ENDMDL
MODEL 3
REMARK VINA RESULT:    -4.851      3.237      7.607
REMARK INTER + INTRA:          -8.958
REMARK INTER:                  -8.212
REMARK INTRA:                  -0.746
REMARK UNBOUND:                -0.704
REMARK SMILES CCCCCCCCCCCCCC(=O)[O-]
REMARK SMILES IDX 8 1 9 2 10 3 11 4 12 5 13 6 14 7 15 8 16 9 7 10 6 11 5 12
REMARK SMILES IDX 4 13 3 14 2 15 1 16
REMARK H PARENT
REMARK Flexibility Score: inf
ROOT
ATOM      1  C   UNL     1       5.936  -7.757 -22.536  1.00  0.00     0.000 C 
ENDROOT
BRANCH   1   2
ATOM      2  C   UNL     1       4.971  -6.908 -21.693  1.00  0.00     0.000 C 
BRANCH   2   3
ATOM      3  C   UNL     1       5.556  -5.534 -21.328  1.00  0.00     0.000 C 
BRANCH   3   4
ATOM      4  C   UNL     1       4.931  -4.999 -20.034  1.00  0.00     0.000 C 
BRANCH   4   5
ATOM      5  C   UNL     1       4.062  -6.070 -19.358  1.00  0.00     0.006 C 
BRANCH   5   6
ATOM      6  C   UNL     1       3.256  -5.506 -18.181  1.00  0.00     0.053 C 
BRANCH   6   7
ATOM      7  C   UNL     1       2.023  -4.794 -18.645  1.00  0.00     0.041 C 
ATOM      8  O   UNL     1       1.438  -5.157 -19.699  1.00  0.00    -0.550 OA
ATOM      9  O   UNL     1       1.501  -3.746 -17.896  1.00  0.00    -0.550 OA
ENDBRANCH   6   7
ENDBRANCH   5   6
ENDBRANCH   4   5
ENDBRANCH   3   4
ENDBRANCH   2   3
ENDBRANCH   1   2
BRANCH   1  10
ATOM     10  C   UNL     1       5.746  -9.265 -22.314  1.00  0.00     0.000 C 
BRANCH  10  11
ATOM     11  C   UNL     1       6.584 -10.075 -23.315  1.00  0.00    -0.000 C 
BRANCH  11  12
ATOM     12  C   UNL     1       5.887 -11.369 -23.766  1.00  0.00    -0.000 C 
BRANCH  12  13
ATOM     13  C   UNL     1       4.381 -11.438 -23.447  1.00  0.00    -0.000 C 
BRANCH  13  14
ATOM     14  C   UNL     1       3.955 -12.741 -22.736  1.00  0.00    -0.000 C 
BRANCH  14  15
ATOM     15  C   UNL     1       4.920 -13.132 -21.607  1.00  0.00    -0.003 C 
ATOM     16  C   UNL     1       5.470 -14.539 -21.815  1.00  0.00     0.004 C 
ENDBRANCH  14  15
ENDBRANCH  13  14
ENDBRANCH  12  13
ENDBRANCH  11  12
ENDBRANCH  10  11
ENDBRANCH   1  10
TORSDOF 12
ENDMDL
MODEL 4
REMARK VINA RESULT:    -4.848      1.506      2.302
REMARK INTER + INTRA:          -8.953
REMARK INTER:                  -8.207
REMARK INTRA:                  -0.746
REMARK UNBOUND:                -0.704
REMARK SMILES CCCCCCCCCCCCCC(=O)[O-]
REMARK SMILES IDX 8 1 9 2 10 3 11 4 12 5 13 6 14 7 15 8 16 9 7 10 6 11 5 12
REMARK SMILES IDX 4 13 3 14 2 15 1 16
REMARK H PARENT
REMARK Flexibility Score: inf
ROOT
ATOM      1  C   UNL     1       4.585  -8.877 -21.484  1.00  0.00     0.000 C 
ENDROOT
BRANCH   1   2
ATOM      2  C   UNL     1       4.165 -10.210 -22.124  1.00  0.00     0.000 C 
BRANCH   2   3
ATOM      3  C   UNL     1       5.289 -10.848 -22.954  1.00  0.00     0.000 C 
BRANCH   3   4
ATOM      4  C   UNL     1       5.051 -12.352 -23.135  1.00  0.00     0.000 C 
BRANCH   4   5
ATOM      5  C   UNL     1       4.846 -13.043 -21.778  1.00  0.00     0.006 C 
BRANCH   5   6
ATOM      6  C   UNL     1       5.273 -14.517 -21.807  1.00  0.00     0.053 C 
BRANCH   6   7
ATOM      7  C   UNL     1       4.101 -15.430 -21.996  1.00  0.00     0.041 C 
ATOM      8  O   UNL     1       4.279 -16.664 -22.168  1.00  0.00    -0.550 OA
ATOM      9  O   UNL     1       2.809 -14.921 -21.952  1.00  0.00    -0.550 OA
ENDBRANCH   6   7
ENDBRANCH   5   6
ENDBRANCH   4   5
ENDBRANCH   3   4
ENDBRANCH   2   3
ENDBRANCH   1   2
BRANCH   1  10
ATOM     10  C   UNL     1       5.804  -8.247 -22.173  1.00  0.00     0.000 C 
BRANCH  10  11
ATOM     11  C   UNL     1       5.515  -6.792 -22.574  1.00  0.00    -0.000 C 
BRANCH  11  12
ATOM     12  C   UNL     1       4.387  -6.158 -21.743  1.00  0.00    -0.000 C 
BRANCH  12  13
ATOM     13  C   UNL     1       4.864  -5.247 -20.595  1.00  0.00    -0.000 C 
BRANCH  13  14
ATOM     14  C   UNL     1       4.427  -5.728 -19.195  1.00  0.00    -0.000 C 
BRANCH  14  15
ATOM     15  C   UNL     1       4.638  -4.655 -18.117  1.00  0.00    -0.003 C 
ATOM     16  C   UNL     1       5.562  -3.547 -18.615  1.00  0.00     0.004 C 
ENDBRANCH  14  15
ENDBRANCH  13  14
ENDBRANCH  12  13
ENDBRANCH  11  12
ENDBRANCH  10  11
ENDBRANCH   1  10
TORSDOF 12
ENDMDL
MODEL 5
REMARK VINA RESULT:    -4.767      3.134      7.766
REMARK INTER + INTRA:          -8.816
REMARK INTER:                  -8.007
REMARK INTRA:                  -0.809
REMARK UNBOUND:                -0.704
REMARK SMILES CCCCCCCCCCCCCC(=O)[O-]
REMARK SMILES IDX 8 1 9 2 10 3 11 4 12 5 13 6 14 7 15 8 16 9 7 10 6 11 5 12
REMARK SMILES IDX 4 13 3 14 2 15 1 16
REMARK H PARENT
REMARK Flexibility Score: inf
ROOT
ATOM      1  C   UNL     1       5.554  -9.626 -22.427  1.00  0.00     0.000 C 
ENDROOT
BRANCH   1   2
ATOM      2  C   UNL     1       6.260  -8.289 -22.707  1.00  0.00     0.000 C 
BRANCH   2   3
ATOM      3  C   UNL     1       5.562  -7.098 -22.032  1.00  0.00     0.000 C 
BRANCH   3   4
ATOM      4  C   UNL     1       4.124  -7.457 -21.636  1.00  0.00     0.000 C 
BRANCH   4   5
ATOM      5  C   UNL     1       3.564  -6.447 -20.624  1.00  0.00     0.006 C 
BRANCH   5   6
ATOM      6  C   UNL     1       4.674  -5.725 -19.850  1.00  0.00     0.053 C 
BRANCH   6   7
ATOM      7  C   UNL     1       4.188  -5.220 -18.526  1.00  0.00     0.041 C 
ATOM      8  O   UNL     1       4.769  -4.256 -17.962  1.00  0.00    -0.550 OA
ATOM      9  O   UNL     1       3.073  -5.795 -17.929  1.00  0.00    -0.550 OA
ENDBRANCH   6   7
ENDBRANCH   5   6
ENDBRANCH   4   5
ENDBRANCH   3   4
ENDBRANCH   2   3
ENDBRANCH   1   2
BRANCH   1  10
ATOM     10  C   UNL     1       6.020 -10.750 -23.364  1.00  0.00     0.000 C 
BRANCH  10  11
ATOM     11  C   UNL     1       4.890 -11.762 -23.607  1.00  0.00    -0.000 C 
BRANCH  11  12
ATOM     12  C   UNL     1       3.963 -11.925 -22.392  1.00  0.00    -0.000 C 
BRANCH  12  13
ATOM     13  C   UNL     1       3.891 -13.354 -21.820  1.00  0.00    -0.000 C 
BRANCH  13  14
ATOM     14  C   UNL     1       5.267 -14.036 -21.674  1.00  0.00    -0.000 C 
BRANCH  14  15
ATOM     15  C   UNL     1       5.242 -15.505 -22.124  1.00  0.00    -0.003 C 
ATOM     16  C   UNL     1       3.826 -16.071 -22.078  1.00  0.00     0.004 C 
ENDBRANCH  14  15
ENDBRANCH  13  14
ENDBRANCH  12  13
ENDBRANCH  11  12
ENDBRANCH  10  11
ENDBRANCH   1  10
TORSDOF 12
ENDMDL
MODEL 6
REMARK VINA RESULT:    -4.755      3.677      7.352
REMARK INTER + INTRA:          -8.794
REMARK INTER:                  -7.626
REMARK INTRA:                  -1.168
REMARK UNBOUND:                -0.704
REMARK SMILES CCCCCCCCCCCCCC(=O)[O-]
REMARK SMILES IDX 8 1 9 2 10 3 11 4 12 5 13 6 14 7 15 8 16 9 7 10 6 11 5 12
REMARK SMILES IDX 4 13 3 14 2 15 1 16
REMARK H PARENT
REMARK Flexibility Score: inf
ROOT
ATOM      1  C   UNL     1       6.247  -7.888 -22.606  1.00  0.00     0.000 C 
ENDROOT
BRANCH   1   2
ATOM      2  C   UNL     1       5.180  -7.000 -21.944  1.00  0.00     0.000 C 
BRANCH   2   3
ATOM      3  C   UNL     1       3.892  -7.770 -21.613  1.00  0.00     0.000 C 
BRANCH   3   4
ATOM      4  C   UNL     1       3.419  -7.459 -20.188  1.00  0.00     0.000 C 
BRANCH   4   5
ATOM      5  C   UNL     1       4.333  -6.421 -19.519  1.00  0.00     0.006 C 
BRANCH   5   6
ATOM      6  C   UNL     1       3.585  -5.572 -18.483  1.00  0.00     0.053 C 
BRANCH   6   7
ATOM      7  C   UNL     1       4.149  -4.187 -18.390  1.00  0.00     0.041 C 
ATOM      8  O   UNL     1       3.472  -3.199 -18.777  1.00  0.00    -0.550 OA
ATOM      9  O   UNL     1       5.412  -3.985 -17.847  1.00  0.00    -0.550 OA
ENDBRANCH   6   7
ENDBRANCH   5   6
ENDBRANCH   4   5
ENDBRANCH   3   4
ENDBRANCH   2   3
ENDBRANCH   1   2
BRANCH   1  10
ATOM     10  C   UNL     1       5.917  -9.385 -22.506  1.00  0.00     0.000 C 
BRANCH  10  11
ATOM     11  C   UNL     1       6.618 -10.174 -23.622  1.00  0.00    -0.000 C 
BRANCH  11  12
ATOM     12  C   UNL     1       6.080 -11.608 -23.767  1.00  0.00    -0.000 C 
BRANCH  12  13
ATOM     13  C   UNL     1       4.736 -11.868 -23.061  1.00  0.00    -0.000 C 
BRANCH  13  14
ATOM     14  C   UNL     1       3.506 -11.685 -23.976  1.00  0.00    -0.000 C 
BRANCH  14  15
ATOM     15  C   UNL     1       2.419 -10.815 -23.327  1.00  0.00    -0.003 C 
ATOM     16  C   UNL     1       2.355 -11.047 -21.820  1.00  0.00     0.004 C 
ENDBRANCH  14  15
ENDBRANCH  13  14
ENDBRANCH  12  13
ENDBRANCH  11  12
ENDBRANCH  10  11
ENDBRANCH   1  10
TORSDOF 12
ENDMDL
MODEL 7
REMARK VINA RESULT:    -4.747      3.517      7.915
REMARK INTER + INTRA:          -8.782
REMARK INTER:                  -7.820
REMARK INTRA:                  -0.962
REMARK UNBOUND:                -0.704
REMARK SMILES CCCCCCCCCCCCCC(=O)[O-]
REMARK SMILES IDX 8 1 9 2 10 3 11 4 12 5 13 6 14 7 15 8 16 9 7 10 6 11 5 12
REMARK SMILES IDX 4 13 3 14 2 15 1 16
REMARK H PARENT
REMARK Flexibility Score: inf
ROOT
ATOM      1  C   UNL     1       4.005  -7.538 -21.382  1.00  0.00     0.000 C 
ENDROOT
BRANCH   1   2
ATOM      2  C   UNL     1       4.175  -7.108 -19.916  1.00  0.00     0.000 C 
BRANCH   2   3
ATOM      3  C   UNL     1       2.929  -6.404 -19.357  1.00  0.00     0.000 C 
BRANCH   3   4
ATOM      4  C   UNL     1       3.321  -5.307 -18.359  1.00  0.00     0.000 C 
BRANCH   4   5
ATOM      5  C   UNL     1       4.819  -4.986 -18.456  1.00  0.00     0.006 C 
BRANCH   5   6
ATOM      6  C   UNL     1       5.080  -3.486 -18.650  1.00  0.00     0.053 C 
BRANCH   6   7
ATOM      7  C   UNL     1       4.376  -2.953 -19.860  1.00  0.00     0.041 C 
ATOM      8  O   UNL     1       3.647  -1.931 -19.771  1.00  0.00    -0.550 OA
ATOM      9  O   UNL     1       4.549  -3.569 -21.093  1.00  0.00    -0.550 OA
ENDBRANCH   6   7
ENDBRANCH   5   6
ENDBRANCH   4   5
ENDBRANCH   3   4
ENDBRANCH   2   3
ENDBRANCH   1   2
BRANCH   1  10
ATOM     10  C   UNL     1       5.050  -6.903 -22.311  1.00  0.00     0.000 C 
BRANCH  10  11
ATOM     11  C   UNL     1       6.238  -7.853 -22.528  1.00  0.00    -0.000 C 
BRANCH  11  12
ATOM     12  C   UNL     1       5.828  -9.335 -22.501  1.00  0.00    -0.000 C 
BRANCH  12  13
ATOM     13  C   UNL     1       6.539 -10.221 -23.542  1.00  0.00    -0.000 C 
BRANCH  13  14
ATOM     14  C   UNL     1       5.880 -11.603 -23.737  1.00  0.00    -0.000 C 
BRANCH  14  15
ATOM     15  C   UNL     1       4.563 -11.737 -22.958  1.00  0.00    -0.003 C 
ATOM     16  C   UNL     1       3.364 -11.748 -23.901  1.00  0.00     0.004 C 
ENDBRANCH  14  15
ENDBRANCH  13  14
ENDBRANCH  12  13
ENDBRANCH  11  12
ENDBRANCH  10  11
ENDBRANCH   1  10
TORSDOF 12
ENDMDL
MODEL 8
REMARK VINA RESULT:    -4.733      3.418      7.627
REMARK INTER + INTRA:          -8.757
REMARK INTER:                  -7.547
REMARK INTRA:                  -1.209
REMARK UNBOUND:                -0.704
REMARK SMILES CCCCCCCCCCCCCC(=O)[O-]
REMARK SMILES IDX 8 1 9 2 10 3 11 4 12 5 13 6 14 7 15 8 16 9 7 10 6 11 5 12
REMARK SMILES IDX 4 13 3 14 2 15 1 16
REMARK H PARENT
REMARK Flexibility Score: inf
ROOT
ATOM      1  C   UNL     1       3.102  -6.550 -19.738  1.00  0.00     0.000 C 
ENDROOT
BRANCH   1   2
ATOM      2  C   UNL     1       3.308  -5.629 -18.524  1.00  0.00     0.000 C 
BRANCH   2   3
ATOM      3  C   UNL     1       4.751  -5.114 -18.410  1.00  0.00     0.000 C 
BRANCH   3   4
ATOM      4  C   UNL     1       4.789  -3.581 -18.435  1.00  0.00     0.000 C 
BRANCH   4   5
ATOM      5  C   UNL     1       3.645  -3.016 -19.290  1.00  0.00     0.006 C 
BRANCH   5   6
ATOM      6  C   UNL     1       4.137  -2.497 -20.647  1.00  0.00     0.053 C 
BRANCH   6   7
ATOM      7  C   UNL     1       3.968  -3.521 -21.727  1.00  0.00     0.041 C 
ATOM      8  O   UNL     1       4.977  -4.027 -22.286  1.00  0.00    -0.550 OA
ATOM      9  O   UNL     1       2.696  -3.941 -22.095  1.00  0.00    -0.550 OA
ENDBRANCH   6   7
ENDBRANCH   5   6
ENDBRANCH   4   5
ENDBRANCH   3   4
ENDBRANCH   2   3
ENDBRANCH   1   2
BRANCH   1  10
ATOM     10  C   UNL     1       4.417  -7.155 -20.253  1.00  0.00     0.000 C 
BRANCH  10  11
ATOM     11  C   UNL     1       4.341  -7.420 -21.764  1.00  0.00    -0.000 C 
BRANCH  11  12
ATOM     12  C   UNL     1       5.728  -7.547 -22.417  1.00  0.00    -0.000 C 
BRANCH  12  13
ATOM     13  C   UNL     1       6.262  -8.989 -22.525  1.00  0.00    -0.000 C 
BRANCH  13  14
ATOM     14  C   UNL     1       5.153 -10.063 -22.548  1.00  0.00    -0.000 C 
BRANCH  14  15
ATOM     15  C   UNL     1       5.502 -11.242 -23.469  1.00  0.00    -0.003 C 
ATOM     16  C   UNL     1       6.859 -11.038 -24.136  1.00  0.00     0.004 C 
ENDBRANCH  14  15
ENDBRANCH  13  14
ENDBRANCH  12  13
ENDBRANCH  11  12
ENDBRANCH  10  11
ENDBRANCH   1  10
TORSDOF 12
ENDMDL
MODEL 9
REMARK VINA RESULT:    -4.652      1.401      1.940
REMARK INTER + INTRA:          -8.620
REMARK INTER:                  -7.944
REMARK INTRA:                  -0.676
REMARK UNBOUND:                -0.704
REMARK SMILES CCCCCCCCCCCCCC(=O)[O-]
REMARK SMILES IDX 8 1 9 2 10 3 11 4 12 5 13 6 14 7 15 8 16 9 7 10 6 11 5 12
REMARK SMILES IDX 4 13 3 14 2 15 1 16
REMARK H PARENT
REMARK Flexibility Score: inf
ROOT
ATOM      1  C   UNL     1       6.229  -7.833 -22.508  1.00  0.00     0.000 C 
ENDROOT
BRANCH   1   2
ATOM      2  C   UNL     1       6.036  -9.358 -22.539  1.00  0.00     0.000 C 
BRANCH   2   3
ATOM      3  C   UNL     1       6.882 -10.040 -23.626  1.00  0.00     0.000 C 
BRANCH   3   4
ATOM      4  C   UNL     1       6.260 -11.377 -24.046  1.00  0.00     0.000 C 
BRANCH   4   5
ATOM      5  C   UNL     1       5.077 -11.742 -23.138  1.00  0.00     0.006 C 
BRANCH   5   6
ATOM      6  C   UNL     1       3.767 -11.889 -23.924  1.00  0.00     0.053 C 
BRANCH   6   7
ATOM      7  C   UNL     1       2.692 -12.524 -23.095  1.00  0.00     0.041 C 
ATOM      8  O   UNL     1       2.991 -13.340 -22.184  1.00  0.00    -0.550 OA
ATOM      9  O   UNL     1       1.360 -12.190 -23.309  1.00  0.00    -0.550 OA
ENDBRANCH   6   7
ENDBRANCH   5   6
ENDBRANCH   4   5
ENDBRANCH   3   4
ENDBRANCH   2   3
ENDBRANCH   1   2
BRANCH   1  10
ATOM     10  C   UNL     1       4.957  -7.084 -22.083  1.00  0.00     0.000 C 
BRANCH  10  11
ATOM     11  C   UNL     1       5.275  -5.622 -21.736  1.00  0.00    -0.000 C 
BRANCH  11  12
ATOM     12  C   UNL     1       4.927  -5.265 -20.281  1.00  0.00    -0.000 C 
BRANCH  12  13
ATOM     13  C   UNL     1       4.204  -6.378 -19.498  1.00  0.00    -0.000 C 
BRANCH  13  14
ATOM     14  C   UNL     1       3.276  -5.851 -18.382  1.00  0.00    -0.000 C 
BRANCH  14  15
ATOM     15  C   UNL     1       2.161  -4.947 -18.928  1.00  0.00    -0.003 C 
ATOM     16  C   UNL     1       2.167  -3.586 -18.238  1.00  0.00     0.004 C 
ENDBRANCH  14  15
ENDBRANCH  13  14
ENDBRANCH  12  13
ENDBRANCH  11  12
ENDBRANCH  10  11
ENDBRANCH   1  10
TORSDOF 12
ENDMDL
