MODEL 1
REMARK VINA RESULT:    74.444      0.000      0.000
REMARK INTER + INTRA:         121.257
REMARK INTER:                 122.317
REMARK INTRA:                  -1.059
REMARK UNBOUND:                -1.059
REMARK SMILES C[C@H]1O[C@@H](OC[C@H]2O[C@@H](Oc3c(-c4ccc(O)c(O)c4)oc4cc(O)cc(O)c4c3=O)[C@H](O)[C@@H](O)[C@@H]2O)[C@@H](O)[C@@H](O)[C@H]1O
REMARK SMILES IDX 7 1 36 2 34 3 32 4 9 5 8 6 6 7 5 8 4 9 1 10 2 11 42 12 3 13
REMARK SMILES IDX 40 14 38 15 43 16 41 18 39 20 37 22 35 24 10 26 11 27 12 28
REMARK SMILES IDX 30 29 21 30 29 31 31 32 22 33 27 34 23 35 26 36 24 37 13 38
REMARK SMILES IDX 20 39 14 40 18 41 15 42 16 43 19 44 17 46 28 48 25 50 33 52
REMARK H PARENT 43 17 41 19 39 21 37 23 35 25 19 45 17 47 28 49 25 51 33 53
REMARK Flexibility Score: inf
ROOT
ATOM      1  C   UNL     1       9.030  13.941  25.425  1.00  0.00     0.180 C 
ATOM      2  C   UNL     1      10.063  14.493  24.390  1.00  0.00     0.177 C 
ATOM      3  C   UNL     1      11.496  14.063  24.755  1.00  0.00     0.180 C 
ATOM      4  C   UNL     1      11.727  14.213  26.270  1.00  0.00     0.214 C 
ATOM      5  C   UNL     1      10.624  13.480  27.083  1.00  0.00     0.339 C 
ATOM      6  O   UNL     1       9.595  12.948  26.264  1.00  0.00    -0.332 OA
ENDROOT
BRANCH   1   7
ATOM      7  C   UNL     1       7.772  13.361  24.714  1.00  0.00     0.198 C 
BRANCH   7   8
ATOM      8  O   UNL     1       6.877  12.744  25.624  1.00  0.00    -0.347 OA
BRANCH   8   9
ATOM      9  C   UNL     1       5.539  13.206  25.496  1.00  0.00     0.281 C 
ATOM     10  C   UNL     1       3.406  14.724  28.076  1.00  0.00     0.041 C 
ATOM     11  C   UNL     1       3.736  14.005  26.769  1.00  0.00     0.150 C 
ATOM     12  C   UNL     1       2.869  12.748  26.592  1.00  0.00     0.174 C 
ATOM     13  O   UNL     1       5.104  13.625  26.782  1.00  0.00    -0.344 OA
ATOM     14  C   UNL     1       3.162  12.207  25.178  1.00  0.00     0.179 C 
ATOM     15  C   UNL     1       4.684  12.013  24.958  1.00  0.00     0.202 C 
BRANCH  12  16
ATOM     16  O   UNL     1       3.214  11.824  27.591  1.00  0.00    -0.388 OA
ATOM     17  H   UNL     1       4.201  11.793  27.679  1.00  0.00     0.211 HD
ENDBRANCH  12  16
BRANCH  14  18
ATOM     18  O   UNL     1       2.417  11.055  24.872  1.00  0.00    -0.387 OA
ATOM     19  H   UNL     1       2.197  10.568  25.713  1.00  0.00     0.211 HD
ENDBRANCH  14  18
BRANCH  15  20
ATOM     20  O   UNL     1       5.144  10.795  25.488  1.00  0.00    -0.385 OA
ATOM     21  H   UNL     1       6.071  10.934  25.803  1.00  0.00     0.211 HD
ENDBRANCH  15  20
ENDBRANCH   8   9
ENDBRANCH   7   8
ENDBRANCH   1   7
BRANCH   2  22
ATOM     22  O   UNL     1       9.976  15.900  24.360  1.00  0.00    -0.387 OA
ATOM     23  H   UNL     1      10.236  16.198  23.448  1.00  0.00     0.211 HD
ENDBRANCH   2  22
BRANCH   3  24
ATOM     24  O   UNL     1      11.693  12.724  24.366  1.00  0.00    -0.387 OA
ATOM     25  H   UNL     1      12.428  12.720  23.693  1.00  0.00     0.211 HD
ENDBRANCH   3  24
BRANCH   5  26
ATOM     26  O   UNL     1      11.245  12.395  27.778  1.00  0.00    -0.454 OA
BRANCH  26  27
ATOM     27  C   UNL     1      11.178  12.086  29.153  1.00  0.00     0.214 A 
ATOM     28  C   UNL     1      11.985  12.832  30.030  1.00  0.00     0.180 A 
ATOM     29  C   UNL     1      10.326  11.104  29.704  1.00  0.00     0.239 A 
ATOM     30  O   UNL     1      11.836  12.716  31.346  1.00  0.00    -0.452 OA
ATOM     31  C   UNL     1      10.195  11.002  31.107  1.00  0.00     0.111 A 
ATOM     32  O   UNL     1       9.679  10.325  28.952  1.00  0.00    -0.285 OA
ATOM     33  C   UNL     1      10.978  11.870  31.904  1.00  0.00     0.146 A 
ATOM     34  C   UNL     1       9.315  10.096  31.742  1.00  0.00     0.134 A 
ATOM     35  C   UNL     1      10.872  11.848  33.296  1.00  0.00     0.094 A 
ATOM     36  C   UNL     1       9.211  10.102  33.142  1.00  0.00     0.093 A 
ATOM     37  C   UNL     1       9.976  10.982  33.919  1.00  0.00     0.123 A 
BRANCH  28  38
ATOM     38  C   UNL     1      13.031  13.730  29.516  1.00  0.00     0.025 A 
ATOM     39  C   UNL     1      13.216  15.000  30.088  1.00  0.00     0.062 A 
ATOM     40  C   UNL     1      13.900  13.288  28.512  1.00  0.00     0.016 A 
ATOM     41  C   UNL     1      14.250  15.837  29.630  1.00  0.00     0.158 A 
ATOM     42  C   UNL     1      14.906  14.121  28.032  1.00  0.00     0.051 A 
ATOM     43  C   UNL     1      15.095  15.395  28.596  1.00  0.00     0.157 A 
BRANCH  41  44
ATOM     44  O   UNL     1      14.459  17.089  30.207  1.00  0.00    -0.504 OA
ATOM     45  H   UNL     1      13.728  17.790  30.222  1.00  0.00     0.293 HD
ENDBRANCH  41  44
BRANCH  43  46
ATOM     46  O   UNL     1      16.124  16.214  28.145  1.00  0.00    -0.504 OA
ATOM     47  H   UNL     1      16.249  17.153  28.521  1.00  0.00     0.293 HD
ENDBRANCH  43  46
ENDBRANCH  28  38
BRANCH  34  48
ATOM     48  O   UNL     1       8.533   9.205  31.001  1.00  0.00    -0.507 OA
ATOM     49  H   UNL     1       8.106   8.389  31.423  1.00  0.00     0.293 HD
ENDBRANCH  34  48
BRANCH  37  50
ATOM     50  O   UNL     1       9.855  11.011  35.306  1.00  0.00    -0.508 OA
ATOM     51  H   UNL     1       9.160  10.437  35.788  1.00  0.00     0.293 HD
ENDBRANCH  37  50
ENDBRANCH  26  27
ENDBRANCH   5  26
BRANCH   4  52
ATOM     52  O   UNL     1      11.729  15.579  26.611  1.00  0.00    -0.384 OA
ATOM     53  H   UNL     1      12.603  15.955  26.315  1.00  0.00     0.211 HD
ENDBRANCH   4  52
TORSDOF 16
ENDMDL
