MODEL 1
REMARK VINA RESULT:    -4.267      0.000      0.000
REMARK INTER + INTRA:          -4.669
REMARK INTER:                  -4.641
REMARK INTRA:                  -0.028
REMARK UNBOUND:                -0.028
REMARK SMILES COc1ccccc1O
REMARK SMILES IDX 3 1 4 2 5 3 6 4 7 5 8 6 2 7 1 8 9 9
REMARK H PARENT 9 10
REMARK Flexibility Score: inf
ROOT
ATOM      1  C   UNL     1      29.644  15.290 -16.872  1.00  0.00     0.160 A 
ATOM      2  C   UNL     1      29.669  14.934 -15.509  1.00  0.00     0.050 A 
ATOM      3  C   UNL     1      29.240  13.667 -15.103  1.00  0.00     0.004 A 
ATOM      4  C   UNL     1      28.781  12.746 -16.047  1.00  0.00     0.004 A 
ATOM      5  C   UNL     1      28.753  13.089 -17.402  1.00  0.00     0.050 A 
ATOM      6  C   UNL     1      29.183  14.359 -17.817  1.00  0.00     0.157 A 
ENDROOT
BRANCH   1   7
ATOM      7  O   UNL     1      30.066  16.549 -17.325  1.00  0.00    -0.493 OA
ATOM      8  C   UNL     1      30.125  17.718 -16.512  1.00  0.00     0.278 C 
ENDBRANCH   1   7
BRANCH   6   9
ATOM      9  O   UNL     1      29.154  14.703 -19.167  1.00  0.00    -0.504 OA
ATOM     10  H   UNL     1      29.958  14.562 -19.768  1.00  0.00     0.293 HD
ENDBRANCH   6   9
TORSDOF 2
ENDMDL
MODEL 2
REMARK VINA RESULT:    -4.224     18.773     19.156
REMARK INTER + INTRA:          -4.622
REMARK INTER:                  -4.586
REMARK INTRA:                  -0.036
REMARK UNBOUND:                -0.028
REMARK SMILES COc1ccccc1O
REMARK SMILES IDX 3 1 4 2 5 3 6 4 7 5 8 6 2 7 1 8 9 9
REMARK H PARENT 9 10
REMARK Flexibility Score: inf
ROOT
ATOM      1  C   UNL     1      11.382   7.848 -17.293  1.00  0.00     0.160 A 
ATOM      2  C   UNL     1      10.911   8.173 -16.005  1.00  0.00     0.050 A 
ATOM      3  C   UNL     1      11.383   7.481 -14.886  1.00  0.00     0.004 A 
ATOM      4  C   UNL     1      12.325   6.462 -15.038  1.00  0.00     0.004 A 
ATOM      5  C   UNL     1      12.798   6.132 -16.311  1.00  0.00     0.050 A 
ATOM      6  C   UNL     1      12.329   6.823 -17.439  1.00  0.00     0.157 A 
ENDROOT
BRANCH   1   7
ATOM      7  O   UNL     1      10.936   8.517 -18.443  1.00  0.00    -0.493 OA
ATOM      8  C   UNL     1      10.877   9.934 -18.579  1.00  0.00     0.278 C 
ENDBRANCH   1   7
BRANCH   6   9
ATOM      9  O   UNL     1      12.799   6.494 -18.709  1.00  0.00    -0.504 OA
ATOM     10  H   UNL     1      12.786   5.540 -19.049  1.00  0.00     0.293 HD
ENDBRANCH   6   9
TORSDOF 2
ENDMDL
MODEL 3
REMARK VINA RESULT:    -4.198     20.578     21.990
REMARK INTER + INTRA:          -4.595
REMARK INTER:                  -4.568
REMARK INTRA:                  -0.027
REMARK UNBOUND:                -0.028
REMARK SMILES COc1ccccc1O
REMARK SMILES IDX 3 1 4 2 5 3 6 4 7 5 8 6 2 7 1 8 9 9
REMARK H PARENT 9 10
REMARK Flexibility Score: inf
ROOT
ATOM      1  C   UNL     1      13.720  -0.304 -12.779  1.00  0.00     0.160 A 
ATOM      2  C   UNL     1      14.076  -0.557 -14.118  1.00  0.00     0.050 A 
ATOM      3  C   UNL     1      15.409  -0.453 -14.525  1.00  0.00     0.004 A 
ATOM      4  C   UNL     1      16.397  -0.096 -13.606  1.00  0.00     0.004 A 
ATOM      5  C   UNL     1      16.054   0.157 -12.275  1.00  0.00     0.050 A 
ATOM      6  C   UNL     1      14.718   0.054 -11.859  1.00  0.00     0.157 A 
ENDROOT
BRANCH   1   7
ATOM      7  O   UNL     1      12.395  -0.397 -12.326  1.00  0.00    -0.493 OA
ATOM      8  C   UNL     1      11.297  -0.821 -13.130  1.00  0.00     0.278 C 
ENDBRANCH   1   7
BRANCH   6   9
ATOM      9  O   UNL     1      14.375   0.308 -10.532  1.00  0.00    -0.504 OA
ATOM     10  H   UNL     1      13.784  -0.326 -10.007  1.00  0.00     0.293 HD
ENDBRANCH   6   9
TORSDOF 2
ENDMDL
MODEL 4
REMARK VINA RESULT:    -3.998      1.832      3.454
REMARK INTER + INTRA:          -4.377
REMARK INTER:                  -4.350
REMARK INTRA:                  -0.027
REMARK UNBOUND:                -0.028
REMARK SMILES COc1ccccc1O
REMARK SMILES IDX 3 1 4 2 5 3 6 4 7 5 8 6 2 7 1 8 9 9
REMARK H PARENT 9 10
REMARK Flexibility Score: inf
ROOT
ATOM      1  C   UNL     1      30.209  12.889 -17.735  1.00  0.00     0.160 A 
ATOM      2  C   UNL     1      30.743  12.598 -16.464  1.00  0.00     0.050 A 
ATOM      3  C   UNL     1      30.750  13.573 -15.462  1.00  0.00     0.004 A 
ATOM      4  C   UNL     1      30.228  14.843 -15.716  1.00  0.00     0.004 A 
ATOM      5  C   UNL     1      29.696  15.141 -16.973  1.00  0.00     0.050 A 
ATOM      6  C   UNL     1      29.685  14.167 -17.984  1.00  0.00     0.157 A 
ENDROOT
BRANCH   1   7
ATOM      7  O   UNL     1      30.182  11.941 -18.770  1.00  0.00    -0.493 OA
ATOM      8  C   UNL     1      30.822  10.670 -18.715  1.00  0.00     0.278 C 
ENDBRANCH   1   7
BRANCH   6   9
ATOM      9  O   UNL     1      29.156  14.464 -19.239  1.00  0.00    -0.504 OA
ATOM     10  H   UNL     1      28.969  13.738 -19.920  1.00  0.00     0.293 HD
ENDBRANCH   6   9
TORSDOF 2
ENDMDL
MODEL 5
REMARK VINA RESULT:    -3.957      1.160      2.390
REMARK INTER + INTRA:          -4.333
REMARK INTER:                  -4.290
REMARK INTRA:                  -0.042
REMARK UNBOUND:                -0.028
REMARK SMILES COc1ccccc1O
REMARK SMILES IDX 3 1 4 2 5 3 6 4 7 5 8 6 2 7 1 8 9 9
REMARK H PARENT 9 10
REMARK Flexibility Score: inf
ROOT
ATOM      1  C   UNL     1      29.877  15.414 -16.608  1.00  0.00     0.160 A 
ATOM      2  C   UNL     1      29.385  14.573 -17.626  1.00  0.00     0.050 A 
ATOM      3  C   UNL     1      28.819  13.336 -17.307  1.00  0.00     0.004 A 
ATOM      4  C   UNL     1      28.737  12.925 -15.975  1.00  0.00     0.004 A 
ATOM      5  C   UNL     1      29.220  13.752 -14.958  1.00  0.00     0.050 A 
ATOM      6  C   UNL     1      29.790  14.995 -15.271  1.00  0.00     0.157 A 
ENDROOT
BRANCH   1   7
ATOM      7  O   UNL     1      30.453  16.664 -16.882  1.00  0.00    -0.493 OA
ATOM      8  C   UNL     1      29.713  17.864 -17.090  1.00  0.00     0.278 C 
ENDBRANCH   1   7
BRANCH   6   9
ATOM      9  O   UNL     1      30.274  15.820 -14.257  1.00  0.00    -0.504 OA
ATOM     10  H   UNL     1      31.071  16.429 -14.404  1.00  0.00     0.293 HD
ENDBRANCH   6   9
TORSDOF 2
ENDMDL
MODEL 6
REMARK VINA RESULT:    -3.927     20.976     21.698
REMARK INTER + INTRA:          -4.300
REMARK INTER:                  -4.270
REMARK INTRA:                  -0.030
REMARK UNBOUND:                -0.028
REMARK SMILES COc1ccccc1O
REMARK SMILES IDX 3 1 4 2 5 3 6 4 7 5 8 6 2 7 1 8 9 9
REMARK H PARENT 9 10
REMARK Flexibility Score: inf
ROOT
ATOM      1  C   UNL     1      15.941  -0.898 -12.207  1.00  0.00     0.160 A 
ATOM      2  C   UNL     1      16.061  -1.471 -13.489  1.00  0.00     0.050 A 
ATOM      3  C   UNL     1      14.969  -1.480 -14.362  1.00  0.00     0.004 A 
ATOM      4  C   UNL     1      13.752  -0.921 -13.968  1.00  0.00     0.004 A 
ATOM      5  C   UNL     1      13.623  -0.350 -12.699  1.00  0.00     0.050 A 
ATOM      6  C   UNL     1      14.715  -0.337 -11.818  1.00  0.00     0.157 A 
ENDROOT
BRANCH   1   7
ATOM      7  O   UNL     1      17.010  -0.866 -11.299  1.00  0.00    -0.493 OA
ATOM      8  C   UNL     1      18.025  -1.863 -11.214  1.00  0.00     0.278 C 
ENDBRANCH   1   7
BRANCH   6   9
ATOM      9  O   UNL     1      14.587   0.232 -10.551  1.00  0.00    -0.504 OA
ATOM     10  H   UNL     1      15.178  -0.055  -9.780  1.00  0.00     0.293 HD
ENDBRANCH   6   9
TORSDOF 2
ENDMDL
MODEL 7
REMARK VINA RESULT:    -3.896      1.603      1.702
REMARK INTER + INTRA:          -4.265
REMARK INTER:                  -4.219
REMARK INTRA:                  -0.046
REMARK UNBOUND:                -0.028
REMARK SMILES COc1ccccc1O
REMARK SMILES IDX 3 1 4 2 5 3 6 4 7 5 8 6 2 7 1 8 9 9
REMARK H PARENT 9 10
REMARK Flexibility Score: inf
ROOT
ATOM      1  C   UNL     1      30.034  14.241 -16.927  1.00  0.00     0.160 A 
ATOM      2  C   UNL     1      30.632  13.450 -15.926  1.00  0.00     0.050 A 
ATOM      3  C   UNL     1      30.998  12.129 -16.196  1.00  0.00     0.004 A 
ATOM      4  C   UNL     1      30.771  11.583 -17.461  1.00  0.00     0.004 A 
ATOM      5  C   UNL     1      30.179  12.360 -18.461  1.00  0.00     0.050 A 
ATOM      6  C   UNL     1      29.810  13.687 -18.197  1.00  0.00     0.157 A 
ENDROOT
BRANCH   1   7
ATOM      7  O   UNL     1      29.652  15.572 -16.700  1.00  0.00    -0.493 OA
ATOM      8  C   UNL     1      30.559  16.667 -16.613  1.00  0.00     0.278 C 
ENDBRANCH   1   7
BRANCH   6   9
ATOM      9  O   UNL     1      29.219  14.463 -19.193  1.00  0.00    -0.504 OA
ATOM     10  H   UNL     1      29.302  14.221 -20.174  1.00  0.00     0.293 HD
ENDBRANCH   6   9
TORSDOF 2
ENDMDL
MODEL 8
REMARK VINA RESULT:    -3.828      2.159      3.682
REMARK INTER + INTRA:          -4.191
REMARK INTER:                  -4.145
REMARK INTRA:                  -0.046
REMARK UNBOUND:                -0.028
REMARK SMILES COc1ccccc1O
REMARK SMILES IDX 3 1 4 2 5 3 6 4 7 5 8 6 2 7 1 8 9 9
REMARK H PARENT 9 10
REMARK Flexibility Score: inf
ROOT
ATOM      1  C   UNL     1      29.235  13.834 -14.832  1.00  0.00     0.160 A 
ATOM      2  C   UNL     1      28.711  12.929 -15.777  1.00  0.00     0.050 A 
ATOM      3  C   UNL     1      28.776  13.219 -17.142  1.00  0.00     0.004 A 
ATOM      4  C   UNL     1      29.360  14.410 -17.579  1.00  0.00     0.004 A 
ATOM      5  C   UNL     1      29.883  15.314 -16.650  1.00  0.00     0.050 A 
ATOM      6  C   UNL     1      29.821  15.029 -15.278  1.00  0.00     0.157 A 
ENDROOT
BRANCH   1   7
ATOM      7  O   UNL     1      29.191  13.584 -13.452  1.00  0.00    -0.493 OA
ATOM      8  C   UNL     1      28.014  13.669 -12.654  1.00  0.00     0.278 C 
ENDBRANCH   1   7
BRANCH   6   9
ATOM      9  O   UNL     1      30.341  15.930 -14.350  1.00  0.00    -0.504 OA
ATOM     10  H   UNL     1      31.317  16.203 -14.365  1.00  0.00     0.293 HD
ENDBRANCH   6   9
TORSDOF 2
ENDMDL
MODEL 9
REMARK VINA RESULT:    -3.713      4.426      5.475
REMARK INTER + INTRA:          -4.067
REMARK INTER:                  -4.034
REMARK INTRA:                  -0.033
REMARK UNBOUND:                -0.028
REMARK SMILES COc1ccccc1O
REMARK SMILES IDX 3 1 4 2 5 3 6 4 7 5 8 6 2 7 1 8 9 9
REMARK H PARENT 9 10
REMARK Flexibility Score: inf
ROOT
ATOM      1  C   UNL     1      27.793  14.615 -12.404  1.00  0.00     0.160 A 
ATOM      2  C   UNL     1      28.441  13.431 -11.997  1.00  0.00     0.050 A 
ATOM      3  C   UNL     1      27.760  12.483 -11.230  1.00  0.00     0.004 A 
ATOM      4  C   UNL     1      26.431  12.703 -10.860  1.00  0.00     0.004 A 
ATOM      5  C   UNL     1      25.780  13.873 -11.259  1.00  0.00     0.050 A 
ATOM      6  C   UNL     1      26.457  14.830 -12.030  1.00  0.00     0.157 A 
ENDROOT
BRANCH   1   7
ATOM      7  O   UNL     1      28.438  15.594 -13.175  1.00  0.00    -0.493 OA
ATOM      8  C   UNL     1      29.299  15.314 -14.276  1.00  0.00     0.278 C 
ENDBRANCH   1   7
BRANCH   6   9
ATOM      9  O   UNL     1      25.809  15.998 -12.428  1.00  0.00    -0.504 OA
ATOM     10  H   UNL     1      25.905  16.364 -13.368  1.00  0.00     0.293 HD
ENDBRANCH   6   9
TORSDOF 2
ENDMDL
