MODEL 1
REMARK VINA RESULT:    10.545      0.000      0.000
REMARK INTER + INTRA:          13.060
REMARK INTER:                  13.011
REMARK INTRA:                   0.049
REMARK UNBOUND:                 0.049
REMARK SMILES O=c1c(O)c(-c2cc(O)c(O)c(O)c2)oc2cc(O)cc(O)c12
REMARK SMILES IDX 5 1 3 2 2 3 1 4 23 5 21 6 20 7 18 8 17 9 16 10 15 11 6 12
REMARK SMILES IDX 7 13 8 14 14 15 10 16 12 17 9 18 11 20 13 22 4 24 22 26
REMARK SMILES IDX 19 28
REMARK H PARENT 9 19 11 21 13 23 4 25 22 27 19 29
REMARK Flexibility Score: inf
ROOT
ATOM      1  C   UNL     1     -36.706 -35.288 -34.648  1.00  0.00     0.180 A 
ATOM      2  C   UNL     1     -35.313 -35.366 -34.836  1.00  0.00     0.208 A 
ATOM      3  C   UNL     1     -34.815 -35.612 -36.125  1.00  0.00     0.238 A 
ATOM      4  O   UNL     1     -33.569 -35.696 -36.303  1.00  0.00    -0.285 OA
ATOM      5  C   UNL     1     -35.712 -35.754 -37.203  1.00  0.00     0.111 A 
ATOM      6  C   UNL     1     -35.292 -36.001 -38.533  1.00  0.00     0.134 A 
ATOM      7  C   UNL     1     -36.247 -36.122 -39.554  1.00  0.00     0.093 A 
ATOM      8  C   UNL     1     -37.609 -36.001 -39.272  1.00  0.00     0.123 A 
ATOM      9  C   UNL     1     -38.031 -35.759 -37.960  1.00  0.00     0.094 A 
ATOM     10  C   UNL     1     -37.095 -35.637 -36.929  1.00  0.00     0.146 A 
ATOM     11  O   UNL     1     -37.522 -35.412 -35.692  1.00  0.00    -0.452 OA
ENDROOT
BRANCH   1  12
ATOM     12  C   UNL     1     -37.308 -35.049 -33.317  1.00  0.00     0.029 A 
ATOM     13  C   UNL     1     -38.421 -34.203 -33.204  1.00  0.00     0.062 A 
ATOM     14  C   UNL     1     -39.028 -33.972 -31.964  1.00  0.00     0.162 A 
ATOM     15  C   UNL     1     -36.827 -35.699 -32.170  1.00  0.00     0.062 A 
ATOM     16  C   UNL     1     -38.522 -34.612 -30.808  1.00  0.00     0.200 A 
ATOM     17  C   UNL     1     -37.425 -35.478 -30.924  1.00  0.00     0.162 A 
BRANCH  14  18
ATOM     18  O   UNL     1     -40.124 -33.107 -31.929  1.00  0.00    -0.504 OA
ATOM     19  H   UNL     1     -41.003 -33.324 -31.480  1.00  0.00     0.293 HD
ENDBRANCH  14  18
BRANCH  16  20
ATOM     20  O   UNL     1     -39.077 -34.421 -29.540  1.00  0.00    -0.502 OA
ATOM     21  H   UNL     1     -39.215 -35.159 -28.866  1.00  0.00     0.293 HD
ENDBRANCH  16  20
BRANCH  17  22
ATOM     22  O   UNL     1     -36.935 -36.121 -29.787  1.00  0.00    -0.504 OA
ATOM     23  H   UNL     1     -35.980 -36.459 -29.739  1.00  0.00     0.293 HD
ENDBRANCH  17  22
ENDBRANCH   1  12
BRANCH   2  24
ATOM     24  O   UNL     1     -34.444 -35.171 -33.760  1.00  0.00    -0.502 OA
ATOM     25  H   UNL     1     -33.576 -34.657 -33.849  1.00  0.00     0.293 HD
ENDBRANCH   2  24
BRANCH   6  26
ATOM     26  O   UNL     1     -33.937 -36.125 -38.847  1.00  0.00    -0.507 OA
ATOM     27  H   UNL     1     -33.269 -36.498 -38.184  1.00  0.00     0.293 HD
ENDBRANCH   6  26
BRANCH   8  28
ATOM     28  O   UNL     1     -38.537 -36.125 -40.303  1.00  0.00    -0.508 OA
ATOM     29  H   UNL     1     -38.476 -35.561 -41.143  1.00  0.00     0.293 HD
ENDBRANCH   8  28
TORSDOF 7
ENDMDL
MODEL 2
REMARK VINA RESULT:    10.547      2.893      5.232
REMARK INTER + INTRA:          13.063
REMARK INTER:                  12.621
REMARK INTRA:                   0.441
REMARK UNBOUND:                 0.049
REMARK SMILES O=c1c(O)c(-c2cc(O)c(O)c(O)c2)oc2cc(O)cc(O)c12
REMARK SMILES IDX 5 1 3 2 2 3 1 4 23 5 21 6 20 7 18 8 17 9 16 10 15 11 6 12
REMARK SMILES IDX 7 13 8 14 14 15 10 16 12 17 9 18 11 20 13 22 4 24 22 26
REMARK SMILES IDX 19 28
REMARK H PARENT 9 19 11 21 13 23 4 25 22 27 19 29
REMARK Flexibility Score: inf
ROOT
ATOM      1  C   UNL     1     -34.289 -36.097 -34.737  1.00  0.00     0.180 A 
ATOM      2  C   UNL     1     -35.562 -36.063 -34.136  1.00  0.00     0.208 A 
ATOM      3  C   UNL     1     -36.699 -36.022 -34.958  1.00  0.00     0.238 A 
ATOM      4  O   UNL     1     -37.844 -35.979 -34.432  1.00  0.00    -0.285 OA
ATOM      5  C   UNL     1     -36.546 -36.036 -36.360  1.00  0.00     0.111 A 
ATOM      6  C   UNL     1     -37.640 -35.999 -37.259  1.00  0.00     0.134 A 
ATOM      7  C   UNL     1     -37.406 -36.025 -38.642  1.00  0.00     0.093 A 
ATOM      8  C   UNL     1     -36.104 -36.088 -39.142  1.00  0.00     0.123 A 
ATOM      9  C   UNL     1     -35.019 -36.122 -38.260  1.00  0.00     0.094 A 
ATOM     10  C   UNL     1     -35.231 -36.095 -36.878  1.00  0.00     0.146 A 
ATOM     11  O   UNL     1     -34.184 -36.125 -36.062  1.00  0.00    -0.452 OA
ENDROOT
BRANCH   1  12
ATOM     12  C   UNL     1     -33.043 -36.124 -33.938  1.00  0.00     0.029 A 
ATOM     13  C   UNL     1     -31.802 -36.116 -34.591  1.00  0.00     0.062 A 
ATOM     14  C   UNL     1     -30.605 -36.120 -33.867  1.00  0.00     0.162 A 
ATOM     15  C   UNL     1     -33.074 -36.097 -32.535  1.00  0.00     0.062 A 
ATOM     16  C   UNL     1     -30.644 -36.116 -32.453  1.00  0.00     0.200 A 
ATOM     17  C   UNL     1     -31.884 -36.099 -31.797  1.00  0.00     0.162 A 
BRANCH  14  18
ATOM     18  O   UNL     1     -29.409 -36.125 -34.588  1.00  0.00    -0.504 OA
ATOM     19  H   UNL     1     -29.088 -36.903 -35.147  1.00  0.00     0.293 HD
ENDBRANCH  14  18
BRANCH  16  20
ATOM     20  O   UNL     1     -29.487 -36.125 -31.669  1.00  0.00    -0.502 OA
ATOM     21  H   UNL     1     -28.591 -35.781 -31.980  1.00  0.00     0.293 HD
ENDBRANCH  16  20
BRANCH  17  22
ATOM     22  O   UNL     1     -31.923 -36.080 -30.403  1.00  0.00    -0.504 OA
ATOM     23  H   UNL     1     -32.086 -35.221 -29.889  1.00  0.00     0.293 HD
ENDBRANCH  17  22
ENDBRANCH   1  12
BRANCH   2  24
ATOM     24  O   UNL     1     -35.687 -36.101 -32.745  1.00  0.00    -0.502 OA
ATOM     25  H   UNL     1     -36.464 -36.558 -32.283  1.00  0.00     0.293 HD
ENDBRANCH   2  24
BRANCH   6  26
ATOM     26  O   UNL     1     -38.953 -35.939 -36.789  1.00  0.00    -0.507 OA
ATOM     27  H   UNL     1     -39.698 -36.473 -37.221  1.00  0.00     0.293 HD
ENDBRANCH   6  26
BRANCH   8  28
ATOM     28  O   UNL     1     -35.898 -36.113 -40.519  1.00  0.00    -0.508 OA
ATOM     29  H   UNL     1     -35.742 -36.981 -41.017  1.00  0.00     0.293 HD
ENDBRANCH   8  28
TORSDOF 7
ENDMDL
MODEL 3
REMARK VINA RESULT:    12.523      1.446      2.961
REMARK INTER + INTRA:          15.500
REMARK INTER:                  15.048
REMARK INTRA:                   0.452
REMARK UNBOUND:                 0.049
REMARK SMILES O=c1c(O)c(-c2cc(O)c(O)c(O)c2)oc2cc(O)cc(O)c12
REMARK SMILES IDX 5 1 3 2 2 3 1 4 23 5 21 6 20 7 18 8 17 9 16 10 15 11 6 12
REMARK SMILES IDX 7 13 8 14 14 15 10 16 12 17 9 18 11 20 13 22 4 24 22 26
REMARK SMILES IDX 19 28
REMARK H PARENT 9 19 11 21 13 23 4 25 22 27 19 29
REMARK Flexibility Score: inf
ROOT
ATOM      1  C   UNL     1     -37.206 -35.842 -35.504  1.00  0.00     0.180 A 
ATOM      2  C   UNL     1     -38.308 -35.963 -36.372  1.00  0.00     0.208 A 
ATOM      3  C   UNL     1     -38.078 -36.020 -37.756  1.00  0.00     0.238 A 
ATOM      4  O   UNL     1     -39.058 -36.116 -38.545  1.00  0.00    -0.285 OA
ATOM      5  C   UNL     1     -36.756 -35.974 -38.245  1.00  0.00     0.111 A 
ATOM      6  C   UNL     1     -36.438 -36.028 -39.625  1.00  0.00     0.134 A 
ATOM      7  C   UNL     1     -35.096 -35.987 -40.032  1.00  0.00     0.093 A 
ATOM      8  C   UNL     1     -34.069 -35.894 -39.090  1.00  0.00     0.123 A 
ATOM      9  C   UNL     1     -34.376 -35.838 -37.726  1.00  0.00     0.094 A 
ATOM     10  C   UNL     1     -35.708 -35.876 -37.301  1.00  0.00     0.146 A 
ATOM     11  O   UNL     1     -35.972 -35.818 -36.001  1.00  0.00    -0.452 OA
ENDROOT
BRANCH   1  12
ATOM     12  C   UNL     1     -37.368 -35.760 -34.035  1.00  0.00     0.029 A 
ATOM     13  C   UNL     1     -38.639 -35.521 -33.492  1.00  0.00     0.062 A 
ATOM     14  C   UNL     1     -38.832 -35.457 -32.108  1.00  0.00     0.162 A 
ATOM     15  C   UNL     1     -36.286 -35.975 -33.167  1.00  0.00     0.062 A 
ATOM     16  C   UNL     1     -37.732 -35.653 -31.240  1.00  0.00     0.200 A 
ATOM     17  C   UNL     1     -36.465 -35.916 -31.780  1.00  0.00     0.162 A 
BRANCH  14  18
ATOM     18  O   UNL     1     -40.125 -35.203 -31.643  1.00  0.00    -0.504 OA
ATOM     19  H   UNL     1     -40.630 -35.811 -31.015  1.00  0.00     0.293 HD
ENDBRANCH  14  18
BRANCH  16  20
ATOM     20  O   UNL     1     -37.855 -35.597 -29.849  1.00  0.00    -0.502 OA
ATOM     21  H   UNL     1     -38.245 -34.814 -29.346  1.00  0.00     0.293 HD
ENDBRANCH  16  20
BRANCH  17  22
ATOM     22  O   UNL     1     -35.384 -36.124 -30.924  1.00  0.00    -0.504 OA
ATOM     23  H   UNL     1     -35.515 -36.453 -29.974  1.00  0.00     0.293 HD
ENDBRANCH  17  22
ENDBRANCH   1  12
BRANCH   2  24
ATOM     24  O   UNL     1     -39.604 -36.057 -35.860  1.00  0.00    -0.502 OA
ATOM     25  H   UNL     1     -40.425 -35.876 -36.424  1.00  0.00     0.293 HD
ENDBRANCH   2  24
BRANCH   6  26
ATOM     26  O   UNL     1     -37.442 -36.124 -40.590  1.00  0.00    -0.507 OA
ATOM     27  H   UNL     1     -38.236 -35.495 -40.596  1.00  0.00     0.293 HD
ENDBRANCH   6  26
BRANCH   8  28
ATOM     28  O   UNL     1     -32.745 -35.854 -39.520  1.00  0.00    -0.508 OA
ATOM     29  H   UNL     1     -32.165 -36.685 -39.530  1.00  0.00     0.293 HD
ENDBRANCH   8  28
TORSDOF 7
ENDMDL
MODEL 4
REMARK VINA RESULT:    12.701      3.101      6.081
REMARK INTER + INTRA:          15.720
REMARK INTER:                  15.279
REMARK INTRA:                   0.442
REMARK UNBOUND:                 0.049
REMARK SMILES O=c1c(O)c(-c2cc(O)c(O)c(O)c2)oc2cc(O)cc(O)c12
REMARK SMILES IDX 5 1 3 2 2 3 1 4 23 5 21 6 20 7 18 8 17 9 16 10 15 11 6 12
REMARK SMILES IDX 7 13 8 14 14 15 10 16 12 17 9 18 11 20 13 22 4 24 22 26
REMARK SMILES IDX 19 28
REMARK H PARENT 9 19 11 21 13 23 4 25 22 27 19 29
REMARK Flexibility Score: inf
ROOT
ATOM      1  C   UNL     1     -34.211 -35.963 -34.299  1.00  0.00     0.180 A 
ATOM      2  C   UNL     1     -34.498 -36.048 -35.675  1.00  0.00     0.208 A 
ATOM      3  C   UNL     1     -35.839 -36.038 -36.091  1.00  0.00     0.238 A 
ATOM      4  O   UNL     1     -36.108 -36.125 -37.320  1.00  0.00    -0.285 OA
ATOM      5  C   UNL     1     -36.865 -35.923 -35.131  1.00  0.00     0.111 A 
ATOM      6  C   UNL     1     -38.241 -35.903 -35.466  1.00  0.00     0.134 A 
ATOM      7  C   UNL     1     -39.202 -35.777 -34.452  1.00  0.00     0.093 A 
ATOM      8  C   UNL     1     -38.817 -35.671 -33.115  1.00  0.00     0.123 A 
ATOM      9  C   UNL     1     -37.459 -35.693 -32.776  1.00  0.00     0.094 A 
ATOM     10  C   UNL     1     -36.486 -35.819 -33.772  1.00  0.00     0.146 A 
ATOM     11  O   UNL     1     -35.205 -35.841 -33.424  1.00  0.00    -0.452 OA
ENDROOT
BRANCH   1  12
ATOM     12  C   UNL     1     -32.824 -35.985 -33.782  1.00  0.00     0.029 A 
ATOM     13  C   UNL     1     -32.603 -36.018 -32.397  1.00  0.00     0.062 A 
ATOM     14  C   UNL     1     -31.306 -36.060 -31.875  1.00  0.00     0.162 A 
ATOM     15  C   UNL     1     -31.722 -36.036 -34.650  1.00  0.00     0.062 A 
ATOM     16  C   UNL     1     -30.199 -36.087 -32.756  1.00  0.00     0.200 A 
ATOM     17  C   UNL     1     -30.418 -36.080 -34.141  1.00  0.00     0.162 A 
BRANCH  14  18
ATOM     18  O   UNL     1     -31.165 -36.077 -30.486  1.00  0.00    -0.504 OA
ATOM     19  H   UNL     1     -30.437 -36.578 -29.996  1.00  0.00     0.293 HD
ENDBRANCH  14  18
BRANCH  16  20
ATOM     20  O   UNL     1     -28.878 -36.125 -32.301  1.00  0.00    -0.502 OA
ATOM     21  H   UNL     1     -28.610 -36.384 -31.363  1.00  0.00     0.293 HD
ENDBRANCH  16  20
BRANCH  17  22
ATOM     22  O   UNL     1     -29.328 -36.122 -35.009  1.00  0.00    -0.504 OA
ATOM     23  H   UNL     1     -29.378 -35.729 -35.943  1.00  0.00     0.293 HD
ENDBRANCH  17  22
ENDBRANCH   1  12
BRANCH   2  24
ATOM     24  O   UNL     1     -33.461 -36.110 -36.610  1.00  0.00    -0.502 OA
ATOM     25  H   UNL     1     -33.631 -36.179 -37.606  1.00  0.00     0.293 HD
ENDBRANCH   2  24
BRANCH   6  26
ATOM     26  O   UNL     1     -38.658 -36.004 -36.795  1.00  0.00    -0.507 OA
ATOM     27  H   UNL     1     -38.847 -35.184 -37.358  1.00  0.00     0.293 HD
ENDBRANCH   6  26
BRANCH   8  28
ATOM     28  O   UNL     1     -39.791 -35.547 -32.127  1.00  0.00    -0.508 OA
ATOM     29  H   UNL     1     -40.438 -36.300 -31.922  1.00  0.00     0.293 HD
ENDBRANCH   8  28
TORSDOF 7
ENDMDL
