MODEL 1
REMARK VINA RESULT:    -4.429      0.000      0.000
REMARK INTER + INTRA:          -7.284
REMARK INTER:                  -6.112
REMARK INTRA:                  -1.172
REMARK UNBOUND:                -1.172
REMARK SMILES CCCCc1cccc(O)c1CCCC
REMARK SMILES IDX 5 1 11 2 9 3 8 4 7 5 6 6 4 7 3 8 2 9 1 10 12 11 13 12 14 13
REMARK SMILES IDX 15 14 10 15
REMARK H PARENT 10 16
REMARK Flexibility Score: inf
ROOT
ATOM      1  C   UNL     1     172.589 173.369 150.395  1.00  0.00    -0.041 A 
ATOM      2  C   UNL     1     171.869 172.139 150.417  1.00  0.00    -0.003 A 
ATOM      3  C   UNL     1     170.603 172.096 151.044  1.00  0.00     0.119 A 
ATOM      4  C   UNL     1     170.050 173.255 151.601  1.00  0.00     0.046 A 
ATOM      5  C   UNL     1     170.747 174.458 151.557  1.00  0.00     0.004 A 
ATOM      6  C   UNL     1     172.006 174.515 150.963  1.00  0.00     0.004 A 
ENDROOT
BRANCH   1   7
ATOM      7  C   UNL     1     173.966 173.520 149.772  1.00  0.00     0.036 C 
BRANCH   7   8
ATOM      8  C   UNL     1     175.002 174.053 150.773  1.00  0.00     0.004 C 
BRANCH   8   9
ATOM      9  C   UNL     1     175.009 173.265 152.090  1.00  0.00    -0.003 C 
ATOM     10  C   UNL     1     175.395 174.159 153.264  1.00  0.00     0.004 C 
ENDBRANCH   8   9
ENDBRANCH   7   8
ENDBRANCH   1   7
BRANCH   2  11
ATOM     11  C   UNL     1     172.447 170.858 149.850  1.00  0.00     0.040 C 
BRANCH  11  12
ATOM     12  C   UNL     1     173.336 170.160 150.889  1.00  0.00     0.005 C 
BRANCH  12  13
ATOM     13  C   UNL     1     174.474 169.354 150.243  1.00  0.00    -0.003 C 
ATOM     14  C   UNL     1     175.763 170.163 150.104  1.00  0.00     0.004 C 
ENDBRANCH  12  13
ENDBRANCH  11  12
ENDBRANCH   2  11
BRANCH   3  15
ATOM     15  O   UNL     1     169.894 170.895 151.118  1.00  0.00    -0.508 OA
ATOM     16  H   UNL     1     169.183 170.739 151.822  1.00  0.00     0.293 HD
ENDBRANCH   3  15
TORSDOF 7
ENDMDL
MODEL 2
REMARK VINA RESULT:    -4.397      1.856      4.323
REMARK INTER + INTRA:          -7.239
REMARK INTER:                  -6.493
REMARK INTRA:                  -0.746
REMARK UNBOUND:                -1.172
REMARK SMILES CCCCc1cccc(O)c1CCCC
REMARK SMILES IDX 5 1 11 2 9 3 8 4 7 5 6 6 4 7 3 8 2 9 1 10 12 11 13 12 14 13
REMARK SMILES IDX 15 14 10 15
REMARK H PARENT 10 16
REMARK Flexibility Score: inf
ROOT
ATOM      1  C   UNL     1     174.299 173.908 152.084  1.00  0.00    -0.041 A 
ATOM      2  C   UNL     1     172.943 174.054 152.499  1.00  0.00    -0.003 A 
ATOM      3  C   UNL     1     172.598 173.760 153.837  1.00  0.00     0.119 A 
ATOM      4  C   UNL     1     173.584 173.367 154.750  1.00  0.00     0.046 A 
ATOM      5  C   UNL     1     174.909 173.246 154.347  1.00  0.00     0.004 A 
ATOM      6  C   UNL     1     175.264 173.511 153.026  1.00  0.00     0.004 A 
ENDROOT
BRANCH   1   7
ATOM      7  C   UNL     1     174.772 174.171 150.665  1.00  0.00     0.036 C 
BRANCH   7   8
ATOM      8  C   UNL     1     174.397 173.032 149.705  1.00  0.00     0.004 C 
BRANCH   8   9
ATOM      9  C   UNL     1     174.947 171.673 150.160  1.00  0.00    -0.003 C 
ATOM     10  C   UNL     1     173.821 170.666 150.370  1.00  0.00     0.004 C 
ENDBRANCH   8   9
ENDBRANCH   7   8
ENDBRANCH   1   7
BRANCH   2  11
ATOM     11  C   UNL     1     171.844 174.450 151.532  1.00  0.00     0.040 C 
BRANCH  11  12
ATOM     12  C   UNL     1     171.200 173.205 150.907  1.00  0.00     0.005 C 
BRANCH  12  13
ATOM     13  C   UNL     1     169.714 173.065 151.271  1.00  0.00    -0.003 C 
ATOM     14  C   UNL     1     168.844 174.138 150.619  1.00  0.00     0.004 C 
ENDBRANCH  12  13
ENDBRANCH  11  12
ENDBRANCH   2  11
BRANCH   3  15
ATOM     15  O   UNL     1     171.271 173.854 154.261  1.00  0.00    -0.508 OA
ATOM     16  H   UNL     1     170.498 173.765 153.612  1.00  0.00     0.293 HD
ENDBRANCH   3  15
TORSDOF 7
ENDMDL
MODEL 3
REMARK VINA RESULT:    -4.396      1.046      3.839
REMARK INTER + INTRA:          -7.238
REMARK INTER:                  -5.854
REMARK INTRA:                  -1.384
REMARK UNBOUND:                -1.172
REMARK SMILES CCCCc1cccc(O)c1CCCC
REMARK SMILES IDX 5 1 11 2 9 3 8 4 7 5 6 6 4 7 3 8 2 9 1 10 12 11 13 12 14 13
REMARK SMILES IDX 15 14 10 15
REMARK H PARENT 10 16
REMARK Flexibility Score: inf
ROOT
ATOM      1  C   UNL     1     174.178 172.011 150.179  1.00  0.00    -0.041 A 
ATOM      2  C   UNL     1     172.929 171.394 150.480  1.00  0.00    -0.003 A 
ATOM      3  C   UNL     1     172.878 169.992 150.648  1.00  0.00     0.119 A 
ATOM      4  C   UNL     1     174.047 169.227 150.558  1.00  0.00     0.046 A 
ATOM      5  C   UNL     1     175.267 169.836 150.285  1.00  0.00     0.004 A 
ATOM      6  C   UNL     1     175.334 171.214 150.095  1.00  0.00     0.004 A 
ENDROOT
BRANCH   1   7
ATOM      7  C   UNL     1     174.340 173.504 149.953  1.00  0.00     0.036 C 
BRANCH   7   8
ATOM      8  C   UNL     1     175.244 174.158 151.009  1.00  0.00     0.004 C 
BRANCH   8   9
ATOM      9  C   UNL     1     174.607 174.169 152.405  1.00  0.00    -0.003 C 
ATOM     10  C   UNL     1     175.422 173.334 153.388  1.00  0.00     0.004 C 
ENDBRANCH   8   9
ENDBRANCH   7   8
ENDBRANCH   1   7
BRANCH   2  11
ATOM     11  C   UNL     1     171.639 172.186 150.559  1.00  0.00     0.040 C 
BRANCH  11  12
ATOM     12  C   UNL     1     171.359 172.622 152.004  1.00  0.00     0.005 C 
BRANCH  12  13
ATOM     13  C   UNL     1     170.670 173.993 152.083  1.00  0.00    -0.003 C 
ATOM     14  C   UNL     1     171.282 175.015 151.126  1.00  0.00     0.004 C 
ENDBRANCH  12  13
ENDBRANCH  11  12
ENDBRANCH   2  11
BRANCH   3  15
ATOM     15  O   UNL     1     171.662 169.356 150.902  1.00  0.00    -0.508 OA
ATOM     16  H   UNL     1     171.613 168.369 151.124  1.00  0.00     0.293 HD
ENDBRANCH   3  15
TORSDOF 7
ENDMDL
MODEL 4
REMARK VINA RESULT:    -4.323      2.676      4.893
REMARK INTER + INTRA:          -7.137
REMARK INTER:                  -6.062
REMARK INTRA:                  -1.075
REMARK UNBOUND:                -1.172
REMARK SMILES CCCCc1cccc(O)c1CCCC
REMARK SMILES IDX 5 1 11 2 9 3 8 4 7 5 6 6 4 7 3 8 2 9 1 10 12 11 13 12 14 13
REMARK SMILES IDX 15 14 10 15
REMARK H PARENT 10 16
REMARK Flexibility Score: inf
ROOT
ATOM      1  C   UNL     1     174.512 171.640 153.726  1.00  0.00    -0.041 A 
ATOM      2  C   UNL     1     173.845 172.900 153.728  1.00  0.00    -0.003 A 
ATOM      3  C   UNL     1     173.454 173.468 154.962  1.00  0.00     0.119 A 
ATOM      4  C   UNL     1     173.753 172.818 156.165  1.00  0.00     0.046 A 
ATOM      5  C   UNL     1     174.423 171.599 156.159  1.00  0.00     0.004 A 
ATOM      6  C   UNL     1     174.797 171.013 154.952  1.00  0.00     0.004 A 
ENDROOT
BRANCH   1   7
ATOM      7  C   UNL     1     174.951 170.930 152.457  1.00  0.00     0.036 C 
BRANCH   7   8
ATOM      8  C   UNL     1     173.817 170.106 151.829  1.00  0.00     0.004 C 
BRANCH   8   9
ATOM      9  C   UNL     1     174.176 169.577 150.433  1.00  0.00    -0.003 C 
ATOM     10  C   UNL     1     175.569 170.036 150.013  1.00  0.00     0.004 C 
ENDBRANCH   8   9
ENDBRANCH   7   8
ENDBRANCH   1   7
BRANCH   2  11
ATOM     11  C   UNL     1     173.481 173.620 152.445  1.00  0.00     0.040 C 
BRANCH  11  12
ATOM     12  C   UNL     1     174.727 174.249 151.805  1.00  0.00     0.005 C 
BRANCH  12  13
ATOM     13  C   UNL     1     174.841 173.935 150.305  1.00  0.00    -0.003 C 
ATOM     14  C   UNL     1     173.529 173.425 149.709  1.00  0.00     0.004 C 
ENDBRANCH  12  13
ENDBRANCH  11  12
ENDBRANCH   2  11
BRANCH   3  15
ATOM     15  O   UNL     1     172.763 174.680 154.992  1.00  0.00    -0.508 OA
ATOM     16  H   UNL     1     172.903 175.390 154.284  1.00  0.00     0.293 HD
ENDBRANCH   3  15
TORSDOF 7
ENDMDL
MODEL 5
REMARK VINA RESULT:    -4.315      1.430      3.552
REMARK INTER + INTRA:          -7.127
REMARK INTER:                  -5.971
REMARK INTRA:                  -1.156
REMARK UNBOUND:                -1.172
REMARK SMILES CCCCc1cccc(O)c1CCCC
REMARK SMILES IDX 5 1 11 2 9 3 8 4 7 5 6 6 4 7 3 8 2 9 1 10 12 11 13 12 14 13
REMARK SMILES IDX 15 14 10 15
REMARK H PARENT 10 16
REMARK Flexibility Score: inf
ROOT
ATOM      1  C   UNL     1     171.382 171.815 150.698  1.00  0.00    -0.041 A 
ATOM      2  C   UNL     1     171.317 173.184 151.093  1.00  0.00    -0.003 A 
ATOM      3  C   UNL     1     170.151 173.657 151.738  1.00  0.00     0.119 A 
ATOM      4  C   UNL     1     169.094 172.783 152.017  1.00  0.00     0.046 A 
ATOM      5  C   UNL     1     169.171 171.444 151.649  1.00  0.00     0.004 A 
ATOM      6  C   UNL     1     170.302 170.964 150.993  1.00  0.00     0.004 A 
ENDROOT
BRANCH   1   7
ATOM      7  C   UNL     1     172.574 171.210 149.976  1.00  0.00     0.036 C 
BRANCH   7   8
ATOM      8  C   UNL     1     173.492 170.426 150.925  1.00  0.00     0.004 C 
BRANCH   8   9
ATOM      9  C   UNL     1     174.457 169.496 150.177  1.00  0.00    -0.003 C 
ATOM     10  C   UNL     1     175.853 170.105 150.092  1.00  0.00     0.004 C 
ENDBRANCH   8   9
ENDBRANCH   7   8
ENDBRANCH   1   7
BRANCH   2  11
ATOM     11  C   UNL     1     172.429 174.165 150.783  1.00  0.00     0.040 C 
BRANCH  11  12
ATOM     12  C   UNL     1     173.463 174.187 151.919  1.00  0.00     0.005 C 
BRANCH  12  13
ATOM     13  C   UNL     1     174.889 173.902 151.424  1.00  0.00    -0.003 C 
ATOM     14  C   UNL     1     175.007 173.969 149.902  1.00  0.00     0.004 C 
ENDBRANCH  12  13
ENDBRANCH  11  12
ENDBRANCH   2  11
BRANCH   3  15
ATOM     15  O   UNL     1     170.042 175.001 152.099  1.00  0.00    -0.508 OA
ATOM     16  H   UNL     1     169.691 175.698 151.454  1.00  0.00     0.293 HD
ENDBRANCH   3  15
TORSDOF 7
ENDMDL
MODEL 6
REMARK VINA RESULT:    -4.311      2.240      4.938
REMARK INTER + INTRA:          -7.122
REMARK INTER:                  -5.864
REMARK INTRA:                  -1.257
REMARK UNBOUND:                -1.172
REMARK SMILES CCCCc1cccc(O)c1CCCC
REMARK SMILES IDX 5 1 11 2 9 3 8 4 7 5 6 6 4 7 3 8 2 9 1 10 12 11 13 12 14 13
REMARK SMILES IDX 15 14 10 15
REMARK H PARENT 10 16
REMARK Flexibility Score: inf
ROOT
ATOM      1  C   UNL     1     174.692 171.278 151.647  1.00  0.00    -0.041 A 
ATOM      2  C   UNL     1     174.726 172.681 151.901  1.00  0.00    -0.003 A 
ATOM      3  C   UNL     1     174.701 173.137 153.239  1.00  0.00     0.119 A 
ATOM      4  C   UNL     1     174.682 172.221 154.297  1.00  0.00     0.046 A 
ATOM      5  C   UNL     1     174.672 170.853 154.045  1.00  0.00     0.004 A 
ATOM      6  C   UNL     1     174.673 170.385 152.732  1.00  0.00     0.004 A 
ENDROOT
BRANCH   1   7
ATOM      7  C   UNL     1     174.688 170.682 150.250  1.00  0.00     0.036 C 
BRANCH   7   8
ATOM      8  C   UNL     1     173.591 169.621 150.073  1.00  0.00     0.004 C 
BRANCH   8   9
ATOM      9  C   UNL     1     172.236 170.231 149.690  1.00  0.00    -0.003 C 
ATOM     10  C   UNL     1     171.208 170.027 150.798  1.00  0.00     0.004 C 
ENDBRANCH   8   9
ENDBRANCH   7   8
ENDBRANCH   1   7
BRANCH   2  11
ATOM     11  C   UNL     1     174.718 173.702 150.781  1.00  0.00     0.040 C 
BRANCH  11  12
ATOM     12  C   UNL     1     173.345 173.741 150.094  1.00  0.00     0.005 C 
BRANCH  12  13
ATOM     13  C   UNL     1     172.300 174.517 150.911  1.00  0.00    -0.003 C 
ATOM     14  C   UNL     1     171.154 173.629 151.396  1.00  0.00     0.004 C 
ENDBRANCH  12  13
ENDBRANCH  11  12
ENDBRANCH   2  11
BRANCH   3  15
ATOM     15  O   UNL     1     174.691 174.505 153.517  1.00  0.00    -0.508 OA
ATOM     16  H   UNL     1     173.855 175.065 153.403  1.00  0.00     0.293 HD
ENDBRANCH   3  15
TORSDOF 7
ENDMDL
MODEL 7
REMARK VINA RESULT:    -4.276      2.037      3.732
REMARK INTER + INTRA:          -7.073
REMARK INTER:                  -6.192
REMARK INTRA:                  -0.881
REMARK UNBOUND:                -1.172
REMARK SMILES CCCCc1cccc(O)c1CCCC
REMARK SMILES IDX 5 1 11 2 9 3 8 4 7 5 6 6 4 7 3 8 2 9 1 10 12 11 13 12 14 13
REMARK SMILES IDX 15 14 10 15
REMARK H PARENT 10 16
REMARK Flexibility Score: inf
ROOT
ATOM      1  C   UNL     1     174.634 172.691 151.563  1.00  0.00    -0.041 A 
ATOM      2  C   UNL     1     174.527 171.522 152.374  1.00  0.00    -0.003 A 
ATOM      3  C   UNL     1     174.901 171.594 153.735  1.00  0.00     0.119 A 
ATOM      4  C   UNL     1     175.334 172.806 154.286  1.00  0.00     0.046 A 
ATOM      5  C   UNL     1     175.416 173.948 153.497  1.00  0.00     0.004 A 
ATOM      6  C   UNL     1     175.073 173.892 152.147  1.00  0.00     0.004 A 
ENDROOT
BRANCH   1   7
ATOM      7  C   UNL     1     174.285 172.717 150.086  1.00  0.00     0.036 C 
BRANCH   7   8
ATOM      8  C   UNL     1     173.161 173.716 149.771  1.00  0.00     0.004 C 
BRANCH   8   9
ATOM      9  C   UNL     1     171.930 173.519 150.667  1.00  0.00    -0.003 C 
ATOM     10  C   UNL     1     171.440 174.850 151.229  1.00  0.00     0.004 C 
ENDBRANCH   8   9
ENDBRANCH   7   8
ENDBRANCH   1   7
BRANCH   2  11
ATOM     11  C   UNL     1     174.089 170.187 151.806  1.00  0.00     0.040 C 
BRANCH  11  12
ATOM     12  C   UNL     1     175.302 169.390 151.303  1.00  0.00     0.005 C 
BRANCH  12  13
ATOM     13  C   UNL     1     175.267 169.163 149.784  1.00  0.00    -0.003 C 
ATOM     14  C   UNL     1     174.618 167.833 149.402  1.00  0.00     0.004 C 
ENDBRANCH  12  13
ENDBRANCH  11  12
ENDBRANCH   2  11
BRANCH   3  15
ATOM     15  O   UNL     1     174.847 170.456 154.542  1.00  0.00    -0.508 OA
ATOM     16  H   UNL     1     174.350 170.453 155.424  1.00  0.00     0.293 HD
ENDBRANCH   3  15
TORSDOF 7
ENDMDL
MODEL 8
REMARK VINA RESULT:    -4.224      2.714      4.221
REMARK INTER + INTRA:          -7.001
REMARK INTER:                  -6.056
REMARK INTRA:                  -0.945
REMARK UNBOUND:                -1.172
REMARK SMILES CCCCc1cccc(O)c1CCCC
REMARK SMILES IDX 5 1 11 2 9 3 8 4 7 5 6 6 4 7 3 8 2 9 1 10 12 11 13 12 14 13
REMARK SMILES IDX 15 14 10 15
REMARK H PARENT 10 16
REMARK Flexibility Score: inf
ROOT
ATOM      1  C   UNL     1     174.714 170.884 151.872  1.00  0.00    -0.041 A 
ATOM      2  C   UNL     1     174.771 169.516 152.270  1.00  0.00    -0.003 A 
ATOM      3  C   UNL     1     174.863 169.204 153.645  1.00  0.00     0.119 A 
ATOM      4  C   UNL     1     174.861 170.225 154.603  1.00  0.00     0.046 A 
ATOM      5  C   UNL     1     174.784 171.557 154.212  1.00  0.00     0.004 A 
ATOM      6  C   UNL     1     174.714 171.885 152.859  1.00  0.00     0.004 A 
ENDROOT
BRANCH   1   7
ATOM      7  C   UNL     1     174.640 171.330 150.422  1.00  0.00     0.036 C 
BRANCH   7   8
ATOM      8  C   UNL     1     173.294 171.990 150.085  1.00  0.00     0.004 C 
BRANCH   8   9
ATOM      9  C   UNL     1     173.438 173.480 149.743  1.00  0.00    -0.003 C 
ATOM     10  C   UNL     1     174.896 173.923 149.822  1.00  0.00     0.004 C 
ENDBRANCH   8   9
ENDBRANCH   7   8
ENDBRANCH   1   7
BRANCH   2  11
ATOM     11  C   UNL     1     174.804 168.385 151.261  1.00  0.00     0.040 C 
BRANCH  11  12
ATOM     12  C   UNL     1     173.378 167.965 150.873  1.00  0.00     0.005 C 
BRANCH  12  13
ATOM     13  C   UNL     1     173.251 167.622 149.381  1.00  0.00    -0.003 C 
ATOM     14  C   UNL     1     174.608 167.442 148.701  1.00  0.00     0.004 C 
ENDBRANCH  12  13
ENDBRANCH  11  12
ENDBRANCH   2  11
BRANCH   3  15
ATOM     15  O   UNL     1     174.963 167.875 154.061  1.00  0.00    -0.508 OA
ATOM     16  H   UNL     1     174.443 167.526 154.858  1.00  0.00     0.293 HD
ENDBRANCH   3  15
TORSDOF 7
ENDMDL
MODEL 9
REMARK VINA RESULT:    -4.184      3.052      5.451
REMARK INTER + INTRA:          -6.946
REMARK INTER:                  -6.357
REMARK INTRA:                  -0.589
REMARK UNBOUND:                -1.172
REMARK SMILES CCCCc1cccc(O)c1CCCC
REMARK SMILES IDX 5 1 11 2 9 3 8 4 7 5 6 6 4 7 3 8 2 9 1 10 12 11 13 12 14 13
REMARK SMILES IDX 15 14 10 15
REMARK H PARENT 10 16
REMARK Flexibility Score: inf
ROOT
ATOM      1  C   UNL     1     174.669 171.511 151.659  1.00  0.00    -0.041 A 
ATOM      2  C   UNL     1     174.903 172.416 152.735  1.00  0.00    -0.003 A 
ATOM      3  C   UNL     1     175.049 173.794 152.454  1.00  0.00     0.119 A 
ATOM      4  C   UNL     1     174.926 174.264 151.142  1.00  0.00     0.046 A 
ATOM      5  C   UNL     1     174.676 173.380 150.098  1.00  0.00     0.004 A 
ATOM      6  C   UNL     1     174.552 172.016 150.352  1.00  0.00     0.004 A 
ENDROOT
BRANCH   1   7
ATOM      7  C   UNL     1     174.524 170.011 151.845  1.00  0.00     0.036 C 
BRANCH   7   8
ATOM      8  C   UNL     1     175.140 169.218 150.682  1.00  0.00     0.004 C 
BRANCH   8   9
ATOM      9  C   UNL     1     174.207 168.115 150.162  1.00  0.00    -0.003 C 
ATOM     10  C   UNL     1     174.741 167.509 148.868  1.00  0.00     0.004 C 
ENDBRANCH   8   9
ENDBRANCH   7   8
ENDBRANCH   1   7
BRANCH   2  11
ATOM     11  C   UNL     1     175.069 171.941 154.165  1.00  0.00     0.040 C 
BRANCH  11  12
ATOM     12  C   UNL     1     173.734 172.022 154.920  1.00  0.00     0.005 C 
BRANCH  12  13
ATOM     13  C   UNL     1     173.785 173.004 156.100  1.00  0.00    -0.003 C 
ATOM     14  C   UNL     1     174.123 172.317 157.423  1.00  0.00     0.004 C 
ENDBRANCH  12  13
ENDBRANCH  11  12
ENDBRANCH   2  11
BRANCH   3  15
ATOM     15  O   UNL     1     175.320 174.698 153.483  1.00  0.00    -0.508 OA
ATOM     16  H   UNL     1     176.161 174.631 154.043  1.00  0.00     0.293 HD
ENDBRANCH   3  15
TORSDOF 7
ENDMDL
