MODEL 1
REMARK VINA RESULT:    -4.077      0.000      0.000
REMARK INTER + INTRA:          -7.530
REMARK INTER:                  -6.580
REMARK INTRA:                  -0.951
REMARK UNBOUND:                -0.951
REMARK SMILES CCCCCCCCCCCCO
REMARK SMILES IDX 7 1 6 2 5 3 4 4 3 5 2 6 1 7 8 8 9 9 10 10 11 11 12 12 13 13
REMARK H PARENT 13 14
REMARK Flexibility Score: inf
ROOT
ATOM      1  C   UNL     1     180.651 177.693 184.026  1.00  0.00     0.000 C 
ENDROOT
BRANCH   1   2
ATOM      2  C   UNL     1     180.735 178.570 185.289  1.00  0.00    -0.000 C 
BRANCH   2   3
ATOM      3  C   UNL     1     179.587 179.585 185.463  1.00  0.00    -0.000 C 
BRANCH   3   4
ATOM      4  C   UNL     1     179.978 180.900 186.161  1.00  0.00    -0.000 C 
BRANCH   4   5
ATOM      5  C   UNL     1     181.492 181.034 186.377  1.00  0.00    -0.000 C 
BRANCH   5   6
ATOM      6  C   UNL     1     181.827 181.135 187.869  1.00  0.00    -0.003 C 
ATOM      7  C   UNL     1     182.709 179.973 188.317  1.00  0.00     0.004 C 
ENDBRANCH   5   6
ENDBRANCH   4   5
ENDBRANCH   3   4
ENDBRANCH   2   3
ENDBRANCH   1   2
BRANCH   1   8
ATOM      8  C   UNL     1     181.833 177.914 183.067  1.00  0.00     0.000 C 
BRANCH   8   9
ATOM      9  C   UNL     1     181.431 178.697 181.807  1.00  0.00     0.000 C 
BRANCH   9  10
ATOM     10  C   UNL     1     181.366 180.213 182.045  1.00  0.00     0.002 C 
BRANCH  10  11
ATOM     11  C   UNL     1     180.151 180.828 181.336  1.00  0.00     0.028 C 
BRANCH  11  12
ATOM     12  C   UNL     1     179.385 181.786 182.251  1.00  0.00     0.156 C 
BRANCH  12  13
ATOM     13  O   UNL     1     178.224 181.169 182.732  1.00  0.00    -0.396 OA
ATOM     14  H   UNL     1     178.125 181.465 183.674  1.00  0.00     0.210 HD
ENDBRANCH  12  13
ENDBRANCH  11  12
ENDBRANCH  10  11
ENDBRANCH   9  10
ENDBRANCH   8   9
ENDBRANCH   1   8
TORSDOF 11
ENDMDL
MODEL 2
REMARK VINA RESULT:    -3.994      2.925      4.758
REMARK INTER + INTRA:          -7.396
REMARK INTER:                  -6.444
REMARK INTRA:                  -0.952
REMARK UNBOUND:                -0.951
REMARK SMILES CCCCCCCCCCCCO
REMARK SMILES IDX 7 1 6 2 5 3 4 4 3 5 2 6 1 7 8 8 9 9 10 10 11 11 12 12 13 13
REMARK H PARENT 13 14
REMARK Flexibility Score: inf
ROOT
ATOM      1  C   UNL     1     181.915 179.093 185.225  1.00  0.00     0.000 C 
ENDROOT
BRANCH   1   2
ATOM      2  C   UNL     1     181.693 179.961 186.476  1.00  0.00    -0.000 C 
BRANCH   2   3
ATOM      3  C   UNL     1     180.686 181.117 186.305  1.00  0.00    -0.000 C 
BRANCH   3   4
ATOM      4  C   UNL     1     180.740 181.834 184.943  1.00  0.00    -0.000 C 
BRANCH   4   5
ATOM      5  C   UNL     1     179.350 182.051 184.327  1.00  0.00    -0.000 C 
BRANCH   5   6
ATOM      6  C   UNL     1     179.081 181.035 183.211  1.00  0.00    -0.003 C 
ATOM      7  C   UNL     1     180.233 180.996 182.211  1.00  0.00     0.004 C 
ENDBRANCH   5   6
ENDBRANCH   4   5
ENDBRANCH   3   4
ENDBRANCH   2   3
ENDBRANCH   1   2
BRANCH   1   8
ATOM      8  C   UNL     1     180.729 178.162 184.924  1.00  0.00     0.000 C 
BRANCH   8   9
ATOM      9  C   UNL     1     180.784 177.574 183.505  1.00  0.00     0.000 C 
BRANCH   9  10
ATOM     10  C   UNL     1     181.559 176.250 183.442  1.00  0.00     0.002 C 
BRANCH  10  11
ATOM     11  C   UNL     1     181.265 175.505 182.131  1.00  0.00     0.028 C 
BRANCH  11  12
ATOM     12  C   UNL     1     181.740 174.052 182.186  1.00  0.00     0.156 C 
BRANCH  12  13
ATOM     13  O   UNL     1     182.296 173.773 183.441  1.00  0.00    -0.396 OA
ATOM     14  H   UNL     1     181.536 173.740 184.077  1.00  0.00     0.210 HD
ENDBRANCH  12  13
ENDBRANCH  11  12
ENDBRANCH  10  11
ENDBRANCH   9  10
ENDBRANCH   8   9
ENDBRANCH   1   8
TORSDOF 11
ENDMDL
MODEL 3
REMARK VINA RESULT:    -3.986      4.010      5.818
REMARK INTER + INTRA:          -7.384
REMARK INTER:                  -6.682
REMARK INTRA:                  -0.702
REMARK UNBOUND:                -0.951
REMARK SMILES CCCCCCCCCCCCO
REMARK SMILES IDX 7 1 6 2 5 3 4 4 3 5 2 6 1 7 8 8 9 9 10 10 11 11 12 12 13 13
REMARK H PARENT 13 14
REMARK Flexibility Score: inf
ROOT
ATOM      1  C   UNL     1     182.043 176.948 183.315  1.00  0.00     0.000 C 
ENDROOT
BRANCH   1   2
ATOM      2  C   UNL     1     180.762 177.185 184.135  1.00  0.00    -0.000 C 
BRANCH   2   3
ATOM      3  C   UNL     1     180.650 178.575 184.794  1.00  0.00    -0.000 C 
BRANCH   3   4
ATOM      4  C   UNL     1     179.465 179.433 184.313  1.00  0.00    -0.000 C 
BRANCH   4   5
ATOM      5  C   UNL     1     179.901 180.800 183.768  1.00  0.00    -0.000 C 
BRANCH   5   6
ATOM      6  C   UNL     1     179.527 180.945 182.288  1.00  0.00    -0.003 C 
ATOM      7  C   UNL     1     180.403 180.058 181.408  1.00  0.00     0.004 C 
ENDBRANCH   5   6
ENDBRANCH   4   5
ENDBRANCH   3   4
ENDBRANCH   2   3
ENDBRANCH   1   2
BRANCH   1   8
ATOM      8  C   UNL     1     181.754 176.497 181.874  1.00  0.00     0.000 C 
BRANCH   8   9
ATOM      9  C   UNL     1     181.253 175.045 181.799  1.00  0.00     0.000 C 
BRANCH   9  10
ATOM     10  C   UNL     1     182.158 174.065 182.558  1.00  0.00     0.002 C 
BRANCH  10  11
ATOM     11  C   UNL     1     182.484 172.838 181.694  1.00  0.00     0.028 C 
BRANCH  11  12
ATOM     12  C   UNL     1     181.352 172.516 180.716  1.00  0.00     0.156 C 
BRANCH  12  13
ATOM     13  O   UNL     1     180.884 171.214 180.934  1.00  0.00    -0.396 OA
ATOM     14  H   UNL     1     181.538 170.784 181.544  1.00  0.00     0.210 HD
ENDBRANCH  12  13
ENDBRANCH  11  12
ENDBRANCH  10  11
ENDBRANCH   9  10
ENDBRANCH   8   9
ENDBRANCH   1   8
TORSDOF 11
ENDMDL
MODEL 4
REMARK VINA RESULT:    -3.964      3.982      5.596
REMARK INTER + INTRA:          -7.348
REMARK INTER:                  -6.559
REMARK INTRA:                  -0.788
REMARK UNBOUND:                -0.951
REMARK SMILES CCCCCCCCCCCCO
REMARK SMILES IDX 7 1 6 2 5 3 4 4 3 5 2 6 1 7 8 8 9 9 10 10 11 11 12 12 13 13
REMARK H PARENT 13 14
REMARK Flexibility Score: inf
ROOT
ATOM      1  C   UNL     1     182.145 177.657 182.597  1.00  0.00     0.000 C 
ENDROOT
BRANCH   1   2
ATOM      2  C   UNL     1     181.355 178.338 181.465  1.00  0.00    -0.000 C 
BRANCH   2   3
ATOM      3  C   UNL     1     180.883 179.775 181.764  1.00  0.00    -0.000 C 
BRANCH   3   4
ATOM      4  C   UNL     1     180.797 180.137 183.258  1.00  0.00    -0.000 C 
BRANCH   4   5
ATOM      5  C   UNL     1     179.432 179.803 183.876  1.00  0.00    -0.000 C 
BRANCH   5   6
ATOM      6  C   UNL     1     179.575 179.437 185.357  1.00  0.00    -0.003 C 
ATOM      7  C   UNL     1     181.043 179.305 185.754  1.00  0.00     0.004 C 
ENDBRANCH   5   6
ENDBRANCH   4   5
ENDBRANCH   3   4
ENDBRANCH   2   3
ENDBRANCH   1   2
BRANCH   1   8
ATOM      8  C   UNL     1     181.351 176.538 183.291  1.00  0.00     0.000 C 
BRANCH   8   9
ATOM      9  C   UNL     1     182.004 175.157 183.120  1.00  0.00     0.000 C 
BRANCH   9  10
ATOM     10  C   UNL     1     181.387 174.347 181.971  1.00  0.00     0.002 C 
BRANCH  10  11
ATOM     11  C   UNL     1     182.148 173.031 181.757  1.00  0.00     0.028 C 
BRANCH  11  12
ATOM     12  C   UNL     1     181.579 172.230 180.585  1.00  0.00     0.156 C 
BRANCH  12  13
ATOM     13  O   UNL     1     180.911 171.093 181.057  1.00  0.00    -0.396 OA
ATOM     14  H   UNL     1     181.582 170.573 181.571  1.00  0.00     0.210 HD
ENDBRANCH  12  13
ENDBRANCH  11  12
ENDBRANCH  10  11
ENDBRANCH   9  10
ENDBRANCH   8   9
ENDBRANCH   1   8
TORSDOF 11
ENDMDL
MODEL 5
REMARK VINA RESULT:    -3.951      1.535      2.453
REMARK INTER + INTRA:          -7.327
REMARK INTER:                  -6.136
REMARK INTRA:                  -1.192
REMARK UNBOUND:                -0.951
REMARK SMILES CCCCCCCCCCCCO
REMARK SMILES IDX 7 1 6 2 5 3 4 4 3 5 2 6 1 7 8 8 9 9 10 10 11 11 12 12 13 13
REMARK H PARENT 13 14
REMARK Flexibility Score: inf
ROOT
ATOM      1  C   UNL     1     182.622 179.154 185.093  1.00  0.00     0.000 C 
ENDROOT
BRANCH   1   2
ATOM      2  C   UNL     1     182.896 180.655 184.890  1.00  0.00    -0.000 C 
BRANCH   2   3
ATOM      3  C   UNL     1     182.213 181.592 185.907  1.00  0.00    -0.000 C 
BRANCH   3   4
ATOM      4  C   UNL     1     182.952 181.753 187.247  1.00  0.00    -0.000 C 
BRANCH   4   5
ATOM      5  C   UNL     1     182.274 180.994 188.397  1.00  0.00    -0.000 C 
BRANCH   5   6
ATOM      6  C   UNL     1     183.075 179.745 188.778  1.00  0.00    -0.003 C 
ATOM      7  C   UNL     1     184.505 179.824 188.251  1.00  0.00     0.004 C 
ENDBRANCH   5   6
ENDBRANCH   4   5
ENDBRANCH   3   4
ENDBRANCH   2   3
ENDBRANCH   1   2
BRANCH   1   8
ATOM      8  C   UNL     1     181.163 178.861 185.480  1.00  0.00     0.000 C 
BRANCH   8   9
ATOM      9  C   UNL     1     180.287 178.520 184.264  1.00  0.00     0.000 C 
BRANCH   9  10
ATOM     10  C   UNL     1     179.222 179.590 183.982  1.00  0.00     0.002 C 
BRANCH  10  11
ATOM     11  C   UNL     1     179.695 180.558 182.888  1.00  0.00     0.028 C 
BRANCH  11  12
ATOM     12  C   UNL     1     179.019 181.925 183.009  1.00  0.00     0.156 C 
BRANCH  12  13
ATOM     13  O   UNL     1     177.867 181.967 182.214  1.00  0.00    -0.396 OA
ATOM     14  H   UNL     1     177.111 182.143 182.833  1.00  0.00     0.210 HD
ENDBRANCH  12  13
ENDBRANCH  11  12
ENDBRANCH  10  11
ENDBRANCH   9  10
ENDBRANCH   8   9
ENDBRANCH   1   8
TORSDOF 11
ENDMDL
MODEL 6
REMARK VINA RESULT:    -3.923      1.930      3.305
REMARK INTER + INTRA:          -7.281
REMARK INTER:                  -6.343
REMARK INTRA:                  -0.938
REMARK UNBOUND:                -0.951
REMARK SMILES CCCCCCCCCCCCO
REMARK SMILES IDX 7 1 6 2 5 3 4 4 3 5 2 6 1 7 8 8 9 9 10 10 11 11 12 12 13 13
REMARK H PARENT 13 14
REMARK Flexibility Score: inf
ROOT
ATOM      1  C   UNL     1     180.500 179.853 181.953  1.00  0.00     0.000 C 
ENDROOT
BRANCH   1   2
ATOM      2  C   UNL     1     181.346 178.858 182.767  1.00  0.00    -0.000 C 
BRANCH   2   3
ATOM      3  C   UNL     1     180.577 178.068 183.846  1.00  0.00    -0.000 C 
BRANCH   3   4
ATOM      4  C   UNL     1     180.670 178.645 185.270  1.00  0.00    -0.000 C 
BRANCH   4   5
ATOM      5  C   UNL     1     179.517 179.603 185.602  1.00  0.00    -0.000 C 
BRANCH   5   6
ATOM      6  C   UNL     1     180.051 180.949 186.107  1.00  0.00    -0.003 C 
ATOM      7  C   UNL     1     181.576 180.985 186.075  1.00  0.00     0.004 C 
ENDBRANCH   5   6
ENDBRANCH   4   5
ENDBRANCH   3   4
ENDBRANCH   2   3
ENDBRANCH   1   2
BRANCH   1   8
ATOM      8  C   UNL     1     180.674 181.307 182.421  1.00  0.00     0.000 C 
BRANCH   8   9
ATOM      9  C   UNL     1     179.756 182.284 181.669  1.00  0.00     0.000 C 
BRANCH   9  10
ATOM     10  C   UNL     1     179.404 183.527 182.499  1.00  0.00     0.002 C 
BRANCH  10  11
ATOM     11  C   UNL     1     177.887 183.631 182.713  1.00  0.00     0.028 C 
BRANCH  11  12
ATOM     12  C   UNL     1     177.534 184.683 183.766  1.00  0.00     0.156 C 
BRANCH  12  13
ATOM     13  O   UNL     1     176.260 185.208 183.515  1.00  0.00    -0.396 OA
ATOM     14  H   UNL     1     175.933 184.755 182.694  1.00  0.00     0.210 HD
ENDBRANCH  12  13
ENDBRANCH  11  12
ENDBRANCH  10  11
ENDBRANCH   9  10
ENDBRANCH   8   9
ENDBRANCH   1   8
TORSDOF 11
ENDMDL
MODEL 7
REMARK VINA RESULT:    -3.905      1.838      2.625
REMARK INTER + INTRA:          -7.253
REMARK INTER:                  -6.428
REMARK INTRA:                  -0.825
REMARK UNBOUND:                -0.951
REMARK SMILES CCCCCCCCCCCCO
REMARK SMILES IDX 7 1 6 2 5 3 4 4 3 5 2 6 1 7 8 8 9 9 10 10 11 11 12 12 13 13
REMARK H PARENT 13 14
REMARK Flexibility Score: inf
ROOT
ATOM      1  C   UNL     1     180.447 179.529 183.290  1.00  0.00     0.000 C 
ENDROOT
BRANCH   1   2
ATOM      2  C   UNL     1     179.398 179.461 184.415  1.00  0.00    -0.000 C 
BRANCH   2   3
ATOM      3  C   UNL     1     179.949 179.674 185.840  1.00  0.00    -0.000 C 
BRANCH   3   4
ATOM      4  C   UNL     1     180.329 181.126 186.184  1.00  0.00    -0.000 C 
BRANCH   4   5
ATOM      5  C   UNL     1     181.763 181.258 186.717  1.00  0.00    -0.000 C 
BRANCH   5   6
ATOM      6  C   UNL     1     182.342 179.884 187.075  1.00  0.00    -0.003 C 
ATOM      7  C   UNL     1     182.898 179.874 188.497  1.00  0.00     0.004 C 
ENDBRANCH   5   6
ENDBRANCH   4   5
ENDBRANCH   3   4
ENDBRANCH   2   3
ENDBRANCH   1   2
BRANCH   1   8
ATOM      8  C   UNL     1     180.037 180.473 182.148  1.00  0.00     0.000 C 
BRANCH   8   9
ATOM      9  C   UNL     1     178.986 181.507 182.585  1.00  0.00     0.000 C 
BRANCH   9  10
ATOM     10  C   UNL     1     179.581 182.907 182.793  1.00  0.00     0.002 C 
BRANCH  10  11
ATOM     11  C   UNL     1     178.548 183.995 182.467  1.00  0.00     0.028 C 
BRANCH  11  12
ATOM     12  C   UNL     1     177.707 184.364 183.690  1.00  0.00     0.156 C 
BRANCH  12  13
ATOM     13  O   UNL     1     176.497 184.944 183.286  1.00  0.00    -0.396 OA
ATOM     14  H   UNL     1     175.784 184.308 183.556  1.00  0.00     0.210 HD
ENDBRANCH  12  13
ENDBRANCH  11  12
ENDBRANCH  10  11
ENDBRANCH   9  10
ENDBRANCH   8   9
ENDBRANCH   1   8
TORSDOF 11
ENDMDL
MODEL 8
REMARK VINA RESULT:    -3.859      2.030      3.679
REMARK INTER + INTRA:          -7.178
REMARK INTER:                  -5.761
REMARK INTRA:                  -1.417
REMARK UNBOUND:                -0.951
REMARK SMILES CCCCCCCCCCCCO
REMARK SMILES IDX 7 1 6 2 5 3 4 4 3 5 2 6 1 7 8 8 9 9 10 10 11 11 12 12 13 13
REMARK H PARENT 13 14
REMARK Flexibility Score: inf
ROOT
ATOM      1  C   UNL     1     181.460 181.860 182.453  1.00  0.00     0.000 C 
ENDROOT
BRANCH   1   2
ATOM      2  C   UNL     1     182.360 181.442 183.630  1.00  0.00    -0.000 C 
BRANCH   2   3
ATOM      3  C   UNL     1     181.973 182.039 184.998  1.00  0.00    -0.000 C 
BRANCH   3   4
ATOM      4  C   UNL     1     181.181 181.095 185.922  1.00  0.00    -0.000 C 
BRANCH   4   5
ATOM      5  C   UNL     1     181.583 179.622 185.756  1.00  0.00    -0.000 C 
BRANCH   5   6
ATOM      6  C   UNL     1     180.393 178.780 185.281  1.00  0.00    -0.003 C 
ATOM      7  C   UNL     1     180.833 177.725 184.269  1.00  0.00     0.004 C 
ENDBRANCH   5   6
ENDBRANCH   4   5
ENDBRANCH   3   4
ENDBRANCH   2   3
ENDBRANCH   1   2
BRANCH   1   8
ATOM      8  C   UNL     1     180.316 180.866 182.194  1.00  0.00     0.000 C 
BRANCH   8   9
ATOM      9  C   UNL     1     178.982 181.330 182.802  1.00  0.00     0.000 C 
BRANCH   9  10
ATOM     10  C   UNL     1     178.780 182.849 182.700  1.00  0.00     0.002 C 
BRANCH  10  11
ATOM     11  C   UNL     1     178.601 183.472 184.092  1.00  0.00     0.028 C 
BRANCH  11  12
ATOM     12  C   UNL     1     177.922 184.841 184.018  1.00  0.00     0.156 C 
BRANCH  12  13
ATOM     13  O   UNL     1     176.743 184.755 183.267  1.00  0.00    -0.396 OA
ATOM     14  H   UNL     1     176.528 185.682 182.986  1.00  0.00     0.210 HD
ENDBRANCH  12  13
ENDBRANCH  11  12
ENDBRANCH  10  11
ENDBRANCH   9  10
ENDBRANCH   8   9
ENDBRANCH   1   8
TORSDOF 11
ENDMDL
MODEL 9
REMARK VINA RESULT:    -3.810      2.927      5.026
REMARK INTER + INTRA:          -7.099
REMARK INTER:                  -5.569
REMARK INTRA:                  -1.530
REMARK UNBOUND:                -0.951
REMARK SMILES CCCCCCCCCCCCO
REMARK SMILES IDX 7 1 6 2 5 3 4 4 3 5 2 6 1 7 8 8 9 9 10 10 11 11 12 12 13 13
REMARK H PARENT 13 14
REMARK Flexibility Score: inf
ROOT
ATOM      1  C   UNL     1     180.381 180.153 184.716  1.00  0.00     0.000 C 
ENDROOT
BRANCH   1   2
ATOM      2  C   UNL     1     179.392 180.171 183.536  1.00  0.00    -0.000 C 
BRANCH   2   3
ATOM      3  C   UNL     1     179.907 180.862 182.257  1.00  0.00    -0.000 C 
BRANCH   3   4
ATOM      4  C   UNL     1     180.334 179.909 181.126  1.00  0.00    -0.000 C 
BRANCH   4   5
ATOM      5  C   UNL     1     181.847 179.645 181.108  1.00  0.00    -0.000 C 
BRANCH   5   6
ATOM      6  C   UNL     1     182.608 180.768 181.821  1.00  0.00    -0.003 C 
ATOM      7  C   UNL     1     183.594 180.206 182.841  1.00  0.00     0.004 C 
ENDBRANCH   5   6
ENDBRANCH   4   5
ENDBRANCH   3   4
ENDBRANCH   2   3
ENDBRANCH   1   2
BRANCH   1   8
ATOM      8  C   UNL     1     180.692 178.732 185.213  1.00  0.00     0.000 C 
BRANCH   8   9
ATOM      9  C   UNL     1     180.487 177.667 184.124  1.00  0.00     0.000 C 
BRANCH   9  10
ATOM     10  C   UNL     1     181.799 176.991 183.700  1.00  0.00     0.002 C 
BRANCH  10  11
ATOM     11  C   UNL     1     181.584 176.101 182.467  1.00  0.00     0.028 C 
BRANCH  11  12
ATOM     12  C   UNL     1     182.532 174.900 182.462  1.00  0.00     0.156 C 
BRANCH  12  13
ATOM     13  O   UNL     1     182.109 173.948 183.399  1.00  0.00    -0.396 OA
ATOM     14  H   UNL     1     181.298 174.326 183.829  1.00  0.00     0.210 HD
ENDBRANCH  12  13
ENDBRANCH  11  12
ENDBRANCH  10  11
ENDBRANCH   9  10
ENDBRANCH   8   9
ENDBRANCH   1   8
TORSDOF 11
ENDMDL
