MODEL 1
REMARK VINA RESULT:    -3.511      0.000      0.000
REMARK INTER + INTRA:          -5.655
REMARK INTER:                  -5.358
REMARK INTRA:                  -0.296
REMARK UNBOUND:                -0.296
REMARK SMILES CC1=CCC[C@@H](C)C(=O)C[C@H](C(C)C)C(=O)C1
REMARK SMILES IDX 8 1 9 2 6 3 7 4 5 5 4 6 3 7 2 8 1 9 10 11 11 12 15 13 16 14
REMARK SMILES IDX 17 15 12 17 13 18 14 19
REMARK H PARENT
REMARK Flexibility Score: 70.00
ROOT
ATOM      1  C   UNL     1     132.435 121.188  98.781  1.00  0.00     0.136 C 
ATOM      2  O   UNL     1     133.092 121.304  97.758  1.00  0.00    -0.299 OA
ENDROOT
BRANCH   1   3
ATOM      3  C   UNL     1     132.133 119.786  99.292  1.00  0.00     0.053 C 
ATOM      4  C   UNL     1     133.399 118.995  99.654  1.00  0.00     0.016 C 
BRANCH   3   5
ATOM      5  C   UNL     1     131.153 119.010  98.378  1.00  0.00     0.015 C 
BRANCH   5   6
ATOM      6  C   UNL     1     129.669 119.419  98.492  1.00  0.00     0.028 C 
BRANCH   6   7
ATOM      7  C   UNL     1     129.234 119.482  99.933  1.00  0.00    -0.028 C 
ATOM      8  C   UNL     1     128.703 120.577 100.528  1.00  0.00    -0.070 CG0
ATOM      9  C   UNL     1     128.384 120.498 102.000  1.00  0.00     0.039 C 
ATOM     10  G   UNL     1     128.404 121.866  99.774  1.00  0.00     0.000 G0
ENDBRANCH   6   7
ENDBRANCH   5   6
ENDBRANCH   3   5
ENDBRANCH   1   3
BRANCH   1  11
ATOM     11  C   UNL     1     131.936 122.445  99.465  1.00  0.00     0.087 C 
BRANCH  11  12
ATOM     12  C   UNL     1     130.597 122.994  98.898  1.00  0.00     0.066 C 
BRANCH  12  13
ATOM     13  C   UNL     1     129.495 122.887  99.942  1.00  0.00     0.140 C 
ATOM     14  O   UNL     1     129.466 123.673 100.880  1.00  0.00    -0.299 OA
BRANCH  13  15
ATOM     15  C   UNL     1     128.396 121.864  99.795  1.00  0.00     0.106 CG0
ATOM     16  G   UNL     1     128.707 120.565 100.525  1.00  0.00     0.000 G0
ENDBRANCH  13  15
ENDBRANCH  12  13
BRANCH  12  17
ATOM     17  C   UNL     1     130.681 124.437  98.295  1.00  0.00    -0.006 C 
ATOM     18  C   UNL     1     129.444 124.739  97.429  1.00  0.00     0.008 C 
ATOM     19  C   UNL     1     131.946 124.652  97.445  1.00  0.00     0.008 C 
ENDBRANCH  12  17
ENDBRANCH  11  12
ENDBRANCH   1  11
TORSDOF 1
ENDMDL
MODEL 2
REMARK VINA RESULT:    -3.174     12.331     14.563
REMARK INTER + INTRA:          -5.141
REMARK INTER:                  -5.058
REMARK INTRA:                  -0.082
REMARK UNBOUND:                -0.296
REMARK SMILES CC1=CCC[C@@H](C)C(=O)C[C@H](C(C)C)C(=O)C1
REMARK SMILES IDX 8 1 9 2 6 3 7 4 5 5 4 6 3 7 2 8 1 9 10 11 11 12 15 13 16 14
REMARK SMILES IDX 17 15 12 17 13 18 14 19
REMARK H PARENT
REMARK Flexibility Score: 70.00
ROOT
ATOM      1  C   UNL     1     120.990 125.337 108.629  1.00  0.00     0.136 C 
ATOM      2  O   UNL     1     121.764 124.443 108.938  1.00  0.00    -0.299 OA
ENDROOT
BRANCH   1   3
ATOM      3  C   UNL     1     121.410 126.316 107.542  1.00  0.00     0.053 C 
ATOM      4  C   UNL     1     120.574 127.604 107.539  1.00  0.00     0.016 C 
BRANCH   3   5
ATOM      5  C   UNL     1     121.534 125.650 106.149  1.00  0.00     0.015 C 
BRANCH   5   6
ATOM      6  C   UNL     1     120.246 124.997 105.604  1.00  0.00     0.028 C 
BRANCH   6   7
ATOM      7  C   UNL     1     120.361 123.495 105.602  1.00  0.00    -0.028 C 
ATOM      8  C   UNL     1     119.454 122.654 106.156  1.00  0.00    -0.070 CG0
ATOM      9  C   UNL     1     119.752 121.176 106.130  1.00  0.00     0.039 C 
ATOM     10  G   UNL     1     118.154 123.137 106.785  1.00  0.00     0.000 G0
ENDBRANCH   6   7
ENDBRANCH   5   6
ENDBRANCH   3   5
ENDBRANCH   1   3
BRANCH   1  11
ATOM     11  C   UNL     1     119.668 125.434 109.365  1.00  0.00     0.087 C 
BRANCH  11  12
ATOM     12  C   UNL     1     118.423 125.125 108.488  1.00  0.00     0.066 C 
BRANCH  12  13
ATOM     13  C   UNL     1     118.335 123.633 108.198  1.00  0.00     0.140 C 
ATOM     14  O   UNL     1     118.363 122.831 109.121  1.00  0.00    -0.299 OA
BRANCH  13  15
ATOM     15  C   UNL     1     118.145 123.136 106.786  1.00  0.00     0.106 CG0
ATOM     16  G   UNL     1     119.442 122.636 106.164  1.00  0.00     0.000 G0
ENDBRANCH  13  15
ENDBRANCH  12  13
BRANCH  12  17
ATOM     17  C   UNL     1     117.071 125.684 109.045  1.00  0.00    -0.006 C 
ATOM     18  C   UNL     1     115.986 125.676 107.952  1.00  0.00     0.008 C 
ATOM     19  C   UNL     1     117.204 127.113 109.602  1.00  0.00     0.008 C 
ENDBRANCH  12  17
ENDBRANCH  11  12
ENDBRANCH   1  11
TORSDOF 1
ENDMDL
MODEL 3
REMARK VINA RESULT:    -3.116      1.836      4.280
REMARK INTER + INTRA:          -5.053
REMARK INTER:                  -4.791
REMARK INTRA:                  -0.262
REMARK UNBOUND:                -0.296
REMARK SMILES CC1=CCC[C@@H](C)C(=O)C[C@H](C(C)C)C(=O)C1
REMARK SMILES IDX 8 1 9 2 6 3 7 4 5 5 4 6 3 7 2 8 1 9 10 11 11 12 15 13 16 14
REMARK SMILES IDX 17 15 12 17 13 18 14 19
REMARK H PARENT
REMARK Flexibility Score: 70.00
ROOT
ATOM      1  C   UNL     1     130.565 122.510  98.783  1.00  0.00     0.136 C 
ATOM      2  O   UNL     1     131.748 122.794  98.671  1.00  0.00    -0.299 OA
ENDROOT
BRANCH   1   3
ATOM      3  C   UNL     1     129.565 123.641  98.985  1.00  0.00     0.053 C 
ATOM      4  C   UNL     1     129.546 124.639  97.818  1.00  0.00     0.016 C 
BRANCH   3   5
ATOM      5  C   UNL     1     129.688 124.310 100.377  1.00  0.00     0.015 C 
BRANCH   5   6
ATOM      6  C   UNL     1     129.224 123.453 101.573  1.00  0.00     0.028 C 
BRANCH   6   7
ATOM      7  C   UNL     1     127.895 122.803 101.290  1.00  0.00    -0.028 C 
ATOM      8  C   UNL     1     127.658 121.472 101.368  1.00  0.00    -0.070 CG0
ATOM      9  C   UNL     1     126.288 120.973 100.984  1.00  0.00     0.039 C 
ATOM     10  G   UNL     1     128.706 120.470 101.835  1.00  0.00     0.000 G0
ENDBRANCH   6   7
ENDBRANCH   5   6
ENDBRANCH   3   5
ENDBRANCH   1   3
BRANCH   1  11
ATOM     11  C   UNL     1     130.166 121.049  98.741  1.00  0.00     0.087 C 
BRANCH  11  12
ATOM     12  C   UNL     1     130.574 120.238 100.003  1.00  0.00     0.066 C 
BRANCH  12  13
ATOM     13  C   UNL     1     129.338 119.696 100.708  1.00  0.00     0.140 C 
ATOM     14  O   UNL     1     128.886 118.604 100.389  1.00  0.00    -0.299 OA
BRANCH  13  15
ATOM     15  C   UNL     1     128.705 120.461 101.843  1.00  0.00     0.106 CG0
ATOM     16  G   UNL     1     127.669 121.468 101.362  1.00  0.00     0.000 G0
ENDBRANCH  13  15
ENDBRANCH  12  13
BRANCH  12  17
ATOM     17  C   UNL     1     131.631 119.112  99.747  1.00  0.00    -0.006 C 
ATOM     18  C   UNL     1     132.498 118.883 101.000  1.00  0.00     0.008 C 
ATOM     19  C   UNL     1     132.555 119.425  98.556  1.00  0.00     0.008 C 
ENDBRANCH  12  17
ENDBRANCH  11  12
ENDBRANCH   1  11
TORSDOF 1
ENDMDL
MODEL 4
REMARK VINA RESULT:    -2.984      1.793      4.122
REMARK INTER + INTRA:          -4.850
REMARK INTER:                  -4.616
REMARK INTRA:                  -0.234
REMARK UNBOUND:                -0.296
REMARK SMILES CC1=CCC[C@@H](C)C(=O)C[C@H](C(C)C)C(=O)C1
REMARK SMILES IDX 8 1 9 2 6 3 7 4 5 5 4 6 3 7 2 8 1 9 10 11 11 12 15 13 16 14
REMARK SMILES IDX 17 15 12 17 13 18 14 19
REMARK H PARENT
REMARK Flexibility Score: 70.00
ROOT
ATOM      1  C   UNL     1     132.352 120.526  99.063  1.00  0.00     0.136 C 
ATOM      2  O   UNL     1     133.181 120.269  99.923  1.00  0.00    -0.299 OA
ENDROOT
BRANCH   1   3
ATOM      3  C   UNL     1     132.610 121.709  98.140  1.00  0.00     0.053 C 
ATOM      4  C   UNL     1     134.007 121.677  97.501  1.00  0.00     0.016 C 
BRANCH   3   5
ATOM      5  C   UNL     1     132.253 123.068  98.790  1.00  0.00     0.015 C 
BRANCH   5   6
ATOM      6  C   UNL     1     130.825 123.585  98.516  1.00  0.00     0.028 C 
BRANCH   6   7
ATOM      7  C   UNL     1     130.018 123.643  99.788  1.00  0.00    -0.028 C 
ATOM      8  C   UNL     1     129.058 122.751 100.130  1.00  0.00    -0.070 CG0
ATOM      9  C   UNL     1     128.293 122.990 101.407  1.00  0.00     0.039 C 
ATOM     10  G   UNL     1     128.734 121.521  99.293  1.00  0.00     0.000 G0
ENDBRANCH   6   7
ENDBRANCH   5   6
ENDBRANCH   3   5
ENDBRANCH   1   3
BRANCH   1  11
ATOM     11  C   UNL     1     131.105 119.669  98.982  1.00  0.00     0.087 C 
BRANCH  11  12
ATOM     12  C   UNL     1     130.274 119.623 100.295  1.00  0.00     0.066 C 
BRANCH  12  13
ATOM     13  C   UNL     1     128.888 120.209 100.066  1.00  0.00     0.140 C 
ATOM     14  O   UNL     1     127.909 119.663 100.556  1.00  0.00    -0.299 OA
BRANCH  13  15
ATOM     15  C   UNL     1     128.716 121.496  99.297  1.00  0.00     0.106 CG0
ATOM     16  G   UNL     1     129.072 122.722 100.127  1.00  0.00     0.000 G0
ENDBRANCH  13  15
ENDBRANCH  12  13
BRANCH  12  17
ATOM     17  C   UNL     1     130.199 118.216 100.977  1.00  0.00    -0.006 C 
ATOM     18  C   UNL     1     130.598 118.308 102.462  1.00  0.00     0.008 C 
ATOM     19  C   UNL     1     131.097 117.173 100.286  1.00  0.00     0.008 C 
ENDBRANCH  12  17
ENDBRANCH  11  12
ENDBRANCH   1  11
TORSDOF 1
ENDMDL
MODEL 5
REMARK VINA RESULT:    -2.924      1.957      2.813
REMARK INTER + INTRA:          -4.759
REMARK INTER:                  -4.865
REMARK INTRA:                   0.106
REMARK UNBOUND:                -0.296
REMARK SMILES CC1=CCC[C@@H](C)C(=O)C[C@H](C(C)C)C(=O)C1
REMARK SMILES IDX 8 1 9 2 6 3 7 4 5 5 4 6 3 7 2 8 1 9 10 11 11 12 15 13 16 14
REMARK SMILES IDX 17 15 12 17 13 18 14 19
REMARK H PARENT
REMARK Flexibility Score: 70.00
ROOT
ATOM      1  C   UNL     1     131.835 120.405  98.775  1.00  0.00     0.136 C 
ATOM      2  O   UNL     1     132.083 119.394  98.136  1.00  0.00    -0.299 OA
ENDROOT
BRANCH   1   3
ATOM      3  C   UNL     1     130.500 120.493  99.502  1.00  0.00     0.053 C 
ATOM      4  C   UNL     1     130.207 119.258 100.367  1.00  0.00     0.016 C 
BRANCH   3   5
ATOM      5  C   UNL     1     129.331 120.890  98.567  1.00  0.00     0.015 C 
BRANCH   5   6
ATOM      6  C   UNL     1     128.850 122.352  98.684  1.00  0.00     0.028 C 
BRANCH   6   7
ATOM      7  C   UNL     1     128.772 122.781 100.126  1.00  0.00    -0.028 C 
ATOM      8  C   UNL     1     129.607 123.677 100.707  1.00  0.00    -0.070 CG0
ATOM      9  C   UNL     1     129.439 123.947 102.181  1.00  0.00     0.039 C 
ATOM     10  G   UNL     1     130.687 124.423  99.936  1.00  0.00     0.000 G0
ENDBRANCH   6   7
ENDBRANCH   5   6
ENDBRANCH   3   5
ENDBRANCH   1   3
BRANCH   1  11
ATOM     11  C   UNL     1     132.858 121.523  98.785  1.00  0.00     0.087 C 
BRANCH  11  12
ATOM     12  C   UNL     1     132.272 122.930  98.485  1.00  0.00     0.066 C 
BRANCH  12  13
ATOM     13  C   UNL     1     131.964 123.665  99.782  1.00  0.00     0.140 C 
ATOM     14  O   UNL     1     132.788 123.673 100.687  1.00  0.00    -0.299 OA
BRANCH  13  15
ATOM     15  C   UNL     1     130.680 124.441  99.938  1.00  0.00     0.106 CG0
ATOM     16  G   UNL     1     129.629 123.676 100.730  1.00  0.00     0.000 G0
ENDBRANCH  13  15
ENDBRANCH  12  13
BRANCH  12  17
ATOM     17  C   UNL     1     133.133 123.808  97.516  1.00  0.00    -0.006 C 
ATOM     18  C   UNL     1     132.283 124.937  96.902  1.00  0.00     0.008 C 
ATOM     19  C   UNL     1     133.766 122.989  96.377  1.00  0.00     0.008 C 
ENDBRANCH  12  17
ENDBRANCH  11  12
ENDBRANCH   1  11
TORSDOF 1
ENDMDL
MODEL 6
REMARK VINA RESULT:    -2.918     14.522     16.670
REMARK INTER + INTRA:          -4.749
REMARK INTER:                  -4.450
REMARK INTRA:                  -0.299
REMARK UNBOUND:                -0.296
REMARK SMILES CC1=CCC[C@@H](C)C(=O)C[C@H](C(C)C)C(=O)C1
REMARK SMILES IDX 8 1 9 2 6 3 7 4 5 5 4 6 3 7 2 8 1 9 10 11 11 12 15 13 16 14
REMARK SMILES IDX 17 15 12 17 13 18 14 19
REMARK H PARENT
REMARK Flexibility Score: 70.00
ROOT
ATOM      1  C   UNL     1     115.730 122.774 107.090  1.00  0.00     0.136 C 
ATOM      2  O   UNL     1     114.572 122.441 106.893  1.00  0.00    -0.299 OA
ENDROOT
BRANCH   1   3
ATOM      3  C   UNL     1     116.677 121.762 107.723  1.00  0.00     0.053 C 
ATOM      4  C   UNL     1     116.816 120.474 106.898  1.00  0.00     0.016 C 
BRANCH   3   5
ATOM      5  C   UNL     1     116.375 121.513 109.222  1.00  0.00     0.015 C 
BRANCH   5   6
ATOM      6  C   UNL     1     117.109 122.440 110.214  1.00  0.00     0.028 C 
BRANCH   6   7
ATOM      7  C   UNL     1     118.542 122.651 109.799  1.00  0.00    -0.028 C 
ATOM      8  C   UNL     1     119.073 123.848 109.451  1.00  0.00    -0.070 CG0
ATOM      9  C   UNL     1     120.509 123.878 108.993  1.00  0.00     0.039 C 
ATOM     10  G   UNL     1     118.291 125.152 109.519  1.00  0.00     0.000 G0
ENDBRANCH   6   7
ENDBRANCH   5   6
ENDBRANCH   3   5
ENDBRANCH   1   3
BRANCH   1  11
ATOM     11  C   UNL     1     116.151 124.181 106.717  1.00  0.00     0.087 C 
BRANCH  11  12
ATOM     12  C   UNL     1     116.224 125.166 107.917  1.00  0.00     0.066 C 
BRANCH  12  13
ATOM     13  C   UNL     1     117.670 125.541 108.209  1.00  0.00     0.140 C 
ATOM     14  O   UNL     1     118.305 126.197 107.394  1.00  0.00    -0.299 OA
BRANCH  13  15
ATOM     15  C   UNL     1     118.308 125.171 109.525  1.00  0.00     0.106 CG0
ATOM     16  G   UNL     1     119.066 123.852 109.455  1.00  0.00     0.000 G0
ENDBRANCH  13  15
ENDBRANCH  12  13
BRANCH  12  17
ATOM     17  C   UNL     1     115.316 126.435 107.783  1.00  0.00    -0.006 C 
ATOM     18  C   UNL     1     115.048 127.062 109.163  1.00  0.00     0.008 C 
ATOM     19  C   UNL     1     113.967 126.130 107.106  1.00  0.00     0.008 C 
ENDBRANCH  12  17
ENDBRANCH  11  12
ENDBRANCH   1  11
TORSDOF 1
ENDMDL
MODEL 7
REMARK VINA RESULT:    -2.877     13.968     16.282
REMARK INTER + INTRA:          -4.687
REMARK INTER:                  -4.486
REMARK INTRA:                  -0.201
REMARK UNBOUND:                -0.296
REMARK SMILES CC1=CCC[C@@H](C)C(=O)C[C@H](C(C)C)C(=O)C1
REMARK SMILES IDX 8 1 9 2 6 3 7 4 5 5 4 6 3 7 2 8 1 9 10 11 11 12 15 13 16 14
REMARK SMILES IDX 17 15 12 17 13 18 14 19
REMARK H PARENT
REMARK Flexibility Score: 70.00
ROOT
ATOM      1  C   UNL     1     117.736 125.233 109.955  1.00  0.00     0.136 C 
ATOM      2  O   UNL     1     117.438 126.093 110.770  1.00  0.00    -0.299 OA
ENDROOT
BRANCH   1   3
ATOM      3  C   UNL     1     119.179 125.157 109.478  1.00  0.00     0.053 C 
ATOM      4  C   UNL     1     120.191 125.122 110.633  1.00  0.00     0.016 C 
BRANCH   3   5
ATOM      5  C   UNL     1     119.510 126.209 108.391  1.00  0.00     0.015 C 
BRANCH   5   6
ATOM      6  C   UNL     1     119.722 125.654 106.967  1.00  0.00     0.028 C 
BRANCH   6   7
ATOM      7  C   UNL     1     119.845 124.153 106.984  1.00  0.00    -0.028 C 
ATOM      8  C   UNL     1     118.862 123.296 106.618  1.00  0.00    -0.070 CG0
ATOM      9  C   UNL     1     119.122 121.818 106.760  1.00  0.00     0.039 C 
ATOM     10  G   UNL     1     117.523 123.762 106.062  1.00  0.00     0.000 G0
ENDBRANCH   6   7
ENDBRANCH   5   6
ENDBRANCH   3   5
ENDBRANCH   1   3
BRANCH   1  11
ATOM     11  C   UNL     1     116.646 124.311 109.448  1.00  0.00     0.087 C 
BRANCH  11  12
ATOM     12  C   UNL     1     116.079 124.696 108.053  1.00  0.00     0.066 C 
BRANCH  12  13
ATOM     13  C   UNL     1     116.390 123.608 107.035  1.00  0.00     0.140 C 
ATOM     14  O   UNL     1     115.681 122.613 106.972  1.00  0.00    -0.299 OA
BRANCH  13  15
ATOM     15  C   UNL     1     117.525 123.776 106.055  1.00  0.00     0.106 CG0
ATOM     16  G   UNL     1     118.852 123.275 106.609  1.00  0.00     0.000 G0
ENDBRANCH  13  15
ENDBRANCH  12  13
BRANCH  12  17
ATOM     17  C   UNL     1     114.561 125.077 108.042  1.00  0.00    -0.006 C 
ATOM     18  C   UNL     1     114.340 126.415 107.312  1.00  0.00     0.008 C 
ATOM     19  C   UNL     1     113.965 125.180 109.458  1.00  0.00     0.008 C 
ENDBRANCH  12  17
ENDBRANCH  11  12
ENDBRANCH   1  11
TORSDOF 1
ENDMDL
MODEL 8
REMARK VINA RESULT:    -2.853      1.835      4.241
REMARK INTER + INTRA:          -4.651
REMARK INTER:                  -4.416
REMARK INTRA:                  -0.235
REMARK UNBOUND:                -0.296
REMARK SMILES CC1=CCC[C@@H](C)C(=O)C[C@H](C(C)C)C(=O)C1
REMARK SMILES IDX 8 1 9 2 6 3 7 4 5 5 4 6 3 7 2 8 1 9 10 11 11 12 15 13 16 14
REMARK SMILES IDX 17 15 12 17 13 18 14 19
REMARK H PARENT
REMARK Flexibility Score: 70.00
ROOT
ATOM      1  C   UNL     1     128.005 122.029 100.255  1.00  0.00     0.136 C 
ATOM      2  O   UNL     1     128.040 123.138 100.767  1.00  0.00    -0.299 OA
ENDROOT
BRANCH   1   3
ATOM      3  C   UNL     1     127.006 121.014 100.794  1.00  0.00     0.053 C 
ATOM      4  C   UNL     1     125.547 121.394 100.497  1.00  0.00     0.016 C 
BRANCH   3   5
ATOM      5  C   UNL     1     127.264 120.643 102.275  1.00  0.00     0.015 C 
BRANCH   5   6
ATOM      6  C   UNL     1     128.672 120.096 102.590  1.00  0.00     0.028 C 
BRANCH   6   7
ATOM      7  C   UNL     1     128.919 118.794 101.872  1.00  0.00    -0.028 C 
ATOM      8  C   UNL     1     129.994 118.541 101.087  1.00  0.00    -0.070 CG0
ATOM      9  C   UNL     1     130.058 117.210 100.382  1.00  0.00     0.039 C 
ATOM     10  G   UNL     1     131.134 119.533 100.900  1.00  0.00     0.000 G0
ENDBRANCH   6   7
ENDBRANCH   5   6
ENDBRANCH   3   5
ENDBRANCH   1   3
BRANCH   1  11
ATOM     11  C   UNL     1     128.975 121.721  99.133  1.00  0.00     0.087 C 
BRANCH  11  12
ATOM     12  C   UNL     1     130.469 121.715  99.562  1.00  0.00     0.066 C 
BRANCH  12  13
ATOM     13  C   UNL     1     131.011 120.292  99.578  1.00  0.00     0.140 C 
ATOM     14  O   UNL     1     131.392 119.775  98.537  1.00  0.00    -0.299 OA
BRANCH  13  15
ATOM     15  C   UNL     1     131.146 119.538 100.877  1.00  0.00     0.106 CG0
ATOM     16  G   UNL     1     130.013 118.544 101.095  1.00  0.00     0.000 G0
ENDBRANCH  13  15
ENDBRANCH  12  13
BRANCH  12  17
ATOM     17  C   UNL     1     131.393 122.674  98.739  1.00  0.00    -0.006 C 
ATOM     18  C   UNL     1     132.793 122.762  99.376  1.00  0.00     0.008 C 
ATOM     19  C   UNL     1     130.814 124.095  98.616  1.00  0.00     0.008 C 
ENDBRANCH  12  17
ENDBRANCH  11  12
ENDBRANCH   1  11
TORSDOF 1
ENDMDL
MODEL 9
REMARK VINA RESULT:    -2.727      7.321     10.057
REMARK INTER + INTRA:          -4.458
REMARK INTER:                  -4.189
REMARK INTRA:                  -0.269
REMARK UNBOUND:                -0.296
REMARK SMILES CC1=CCC[C@@H](C)C(=O)C[C@H](C(C)C)C(=O)C1
REMARK SMILES IDX 8 1 9 2 6 3 7 4 5 5 4 6 3 7 2 8 1 9 10 11 11 12 15 13 16 14
REMARK SMILES IDX 17 15 12 17 13 18 14 19
REMARK H PARENT
REMARK Flexibility Score: 70.00
ROOT
ATOM      1  C   UNL     1     122.419 121.057 101.835  1.00  0.00     0.136 C 
ATOM      2  O   UNL     1     122.329 120.044 101.158  1.00  0.00    -0.299 OA
ENDROOT
BRANCH   1   3
ATOM      3  C   UNL     1     123.807 121.602 102.144  1.00  0.00     0.053 C 
ATOM      4  C   UNL     1     124.641 121.865 100.881  1.00  0.00     0.016 C 
BRANCH   3   5
ATOM      5  C   UNL     1     124.551 120.775 103.222  1.00  0.00     0.015 C 
BRANCH   5   6
ATOM      6  C   UNL     1     124.503 121.349 104.654  1.00  0.00     0.028 C 
BRANCH   6   7
ATOM      7  C   UNL     1     124.537 122.855 104.634  1.00  0.00    -0.028 C 
ATOM      8  C   UNL     1     123.510 123.652 105.015  1.00  0.00    -0.070 CG0
ATOM      9  C   UNL     1     123.679 125.143 104.869  1.00  0.00     0.039 C 
ATOM     10  G   UNL     1     122.210 123.108 105.592  1.00  0.00     0.000 G0
ENDBRANCH   6   7
ENDBRANCH   5   6
ENDBRANCH   3   5
ENDBRANCH   1   3
BRANCH   1  11
ATOM     11  C   UNL     1     121.145 121.697 102.349  1.00  0.00     0.087 C 
BRANCH  11  12
ATOM     12  C   UNL     1     120.941 121.574 103.884  1.00  0.00     0.066 C 
BRANCH  12  13
ATOM     13  C   UNL     1     121.131 122.927 104.556  1.00  0.00     0.140 C 
ATOM     14  O   UNL     1     120.376 123.851 104.285  1.00  0.00    -0.299 OA
BRANCH  13  15
ATOM     15  C   UNL     1     122.199 123.120 105.603  1.00  0.00     0.106 CG0
ATOM     16  G   UNL     1     123.499 123.655 105.018  1.00  0.00     0.000 G0
ENDBRANCH  13  15
ENDBRANCH  12  13
BRANCH  12  17
ATOM     17  C   UNL     1     119.596 120.900 104.318  1.00  0.00    -0.006 C 
ATOM     18  C   UNL     1     119.669 120.427 105.782  1.00  0.00     0.008 C 
ATOM     19  C   UNL     1     119.219 119.702 103.428  1.00  0.00     0.008 C 
ENDBRANCH  12  17
ENDBRANCH  11  12
ENDBRANCH   1  11
TORSDOF 1
ENDMDL
