MODEL 1
REMARK VINA RESULT:    -3.475      0.000      0.000
REMARK INTER + INTRA:          -5.145
REMARK INTER:                  -4.592
REMARK INTRA:                  -0.553
REMARK UNBOUND:                -0.553
REMARK SMILES C=C[C@@H](O)CCCCC
REMARK SMILES IDX 6 1 7 2 8 3 9 4 5 5 3 6 2 7 1 8 4 9
REMARK H PARENT 4 10
REMARK Flexibility Score: inf
ROOT
ATOM      1  C   UNL     1      38.260 -21.645   7.210  1.00  0.00     0.003 C 
ENDROOT
BRANCH   1   2
ATOM      2  C   UNL     1      37.133 -22.231   8.077  1.00  0.00    -0.000 C 
BRANCH   2   3
ATOM      3  C   UNL     1      36.700 -23.630   7.613  1.00  0.00    -0.003 C 
ATOM      4  C   UNL     1      35.421 -23.604   6.779  1.00  0.00     0.004 C 
ENDBRANCH   2   3
ENDBRANCH   1   2
BRANCH   1   5
ATOM      5  C   UNL     1      39.125 -22.723   6.532  1.00  0.00     0.036 C 
BRANCH   5   6
ATOM      6  C   UNL     1      38.982 -22.763   4.992  1.00  0.00     0.136 C 
BRANCH   6   7
ATOM      7  C   UNL     1      38.934 -24.176   4.456  1.00  0.00    -0.004 C 
ATOM      8  C   UNL     1      39.119 -25.226   5.262  1.00  0.00     0.007 C 
ENDBRANCH   6   7
BRANCH   6   9
ATOM      9  O   UNL     1      37.827 -22.066   4.596  1.00  0.00    -0.389 OA
ATOM     10  H   UNL     1      37.940 -21.119   4.873  1.00  0.00     0.211 HD
ENDBRANCH   6   9
ENDBRANCH   5   6
ENDBRANCH   1   5
TORSDOF 6
ENDMDL
MODEL 2
REMARK VINA RESULT:    -3.438      1.607      3.760
REMARK INTER + INTRA:          -5.097
REMARK INTER:                  -4.595
REMARK INTRA:                  -0.503
REMARK UNBOUND:                -0.553
REMARK SMILES C=C[C@@H](O)CCCCC
REMARK SMILES IDX 6 1 7 2 8 3 9 4 5 5 3 6 2 7 1 8 4 9
REMARK H PARENT 4 10
REMARK Flexibility Score: inf
ROOT
ATOM      1  C   UNL     1      38.637 -24.840   6.673  1.00  0.00     0.003 C 
ENDROOT
BRANCH   1   2
ATOM      2  C   UNL     1      38.769 -24.778   5.142  1.00  0.00    -0.000 C 
BRANCH   2   3
ATOM      3  C   UNL     1      37.984 -23.607   4.530  1.00  0.00    -0.003 C 
ATOM      4  C   UNL     1      38.772 -22.298   4.543  1.00  0.00     0.004 C 
ENDBRANCH   2   3
ENDBRANCH   1   2
BRANCH   1   5
ATOM      5  C   UNL     1      37.299 -24.277   7.188  1.00  0.00     0.036 C 
BRANCH   5   6
ATOM      6  C   UNL     1      37.453 -23.055   8.124  1.00  0.00     0.136 C 
BRANCH   6   7
ATOM      7  C   UNL     1      38.862 -22.506   8.125  1.00  0.00    -0.004 C 
ATOM      8  C   UNL     1      39.093 -21.200   7.964  1.00  0.00     0.007 C 
ENDBRANCH   6   7
BRANCH   6   9
ATOM      9  O   UNL     1      36.551 -22.044   7.750  1.00  0.00    -0.389 OA
ATOM     10  H   UNL     1      36.805 -21.219   8.242  1.00  0.00     0.211 HD
ENDBRANCH   6   9
ENDBRANCH   5   6
ENDBRANCH   1   5
TORSDOF 6
ENDMDL
MODEL 3
REMARK VINA RESULT:    -3.246      1.550      3.584
REMARK INTER + INTRA:          -4.842
REMARK INTER:                  -4.569
REMARK INTRA:                  -0.274
REMARK UNBOUND:                -0.553
REMARK SMILES C=C[C@@H](O)CCCCC
REMARK SMILES IDX 6 1 7 2 8 3 9 4 5 5 3 6 2 7 1 8 4 9
REMARK H PARENT 4 10
REMARK Flexibility Score: inf
ROOT
ATOM      1  C   UNL     1      38.655 -21.927   5.911  1.00  0.00     0.003 C 
ENDROOT
BRANCH   1   2
ATOM      2  C   UNL     1      39.124 -22.701   4.668  1.00  0.00    -0.000 C 
BRANCH   2   3
ATOM      3  C   UNL     1      38.267 -23.947   4.393  1.00  0.00    -0.003 C 
ATOM      4  C   UNL     1      39.099 -25.148   3.948  1.00  0.00     0.004 C 
ENDBRANCH   2   3
ENDBRANCH   1   2
BRANCH   1   5
ATOM      5  C   UNL     1      39.124 -22.563   7.233  1.00  0.00     0.036 C 
BRANCH   5   6
ATOM      6  C   UNL     1      38.053 -23.444   7.919  1.00  0.00     0.136 C 
BRANCH   6   7
ATOM      7  C   UNL     1      36.656 -22.894   7.738  1.00  0.00    -0.004 C 
ATOM      8  C   UNL     1      35.707 -23.610   7.128  1.00  0.00     0.007 C 
ENDBRANCH   6   7
BRANCH   6   9
ATOM      9  O   UNL     1      38.115 -24.756   7.418  1.00  0.00    -0.389 OA
ATOM     10  H   UNL     1      37.471 -24.819   6.664  1.00  0.00     0.211 HD
ENDBRANCH   6   9
ENDBRANCH   5   6
ENDBRANCH   1   5
TORSDOF 6
ENDMDL
MODEL 4
REMARK VINA RESULT:    -2.542     19.662     20.691
REMARK INTER + INTRA:          -3.912
REMARK INTER:                  -3.403
REMARK INTRA:                  -0.510
REMARK UNBOUND:                -0.553
REMARK SMILES C=C[C@@H](O)CCCCC
REMARK SMILES IDX 6 1 7 2 8 3 9 4 5 5 3 6 2 7 1 8 4 9
REMARK H PARENT 4 10
REMARK Flexibility Score: inf
ROOT
ATOM      1  C   UNL     1      37.715 -33.763 -10.235  1.00  0.00     0.003 C 
ENDROOT
BRANCH   1   2
ATOM      2  C   UNL     1      38.466 -35.100 -10.345  1.00  0.00    -0.000 C 
BRANCH   2   3
ATOM      3  C   UNL     1      38.126 -36.062  -9.196  1.00  0.00    -0.003 C 
ATOM      4  C   UNL     1      36.749 -36.704  -9.353  1.00  0.00     0.004 C 
ENDBRANCH   2   3
ENDBRANCH   1   2
BRANCH   1   5
ATOM      5  C   UNL     1      36.928 -33.404 -11.510  1.00  0.00     0.036 C 
BRANCH   5   6
ATOM      6  C   UNL     1      35.400 -33.607 -11.380  1.00  0.00     0.136 C 
BRANCH   6   7
ATOM      7  C   UNL     1      34.928 -34.872 -12.061  1.00  0.00    -0.004 C 
ATOM      8  C   UNL     1      33.797 -35.476 -11.686  1.00  0.00     0.007 C 
ENDBRANCH   6   7
BRANCH   6   9
ATOM      9  O   UNL     1      35.030 -33.632 -10.024  1.00  0.00    -0.389 OA
ATOM     10  H   UNL     1      34.359 -32.912  -9.884  1.00  0.00     0.211 HD
ENDBRANCH   6   9
ENDBRANCH   5   6
ENDBRANCH   1   5
TORSDOF 6
ENDMDL
MODEL 5
REMARK VINA RESULT:    -2.403     19.658     20.978
REMARK INTER + INTRA:          -3.728
REMARK INTER:                  -3.466
REMARK INTRA:                  -0.262
REMARK UNBOUND:                -0.553
REMARK SMILES C=C[C@@H](O)CCCCC
REMARK SMILES IDX 6 1 7 2 8 3 9 4 5 5 3 6 2 7 1 8 4 9
REMARK H PARENT 4 10
REMARK Flexibility Score: inf
ROOT
ATOM      1  C   UNL     1      35.370 -34.569 -10.597  1.00  0.00     0.003 C 
ENDROOT
BRANCH   1   2
ATOM      2  C   UNL     1      34.420 -35.015 -11.722  1.00  0.00    -0.000 C 
BRANCH   2   3
ATOM      3  C   UNL     1      34.074 -36.510 -11.641  1.00  0.00    -0.003 C 
ATOM      4  C   UNL     1      32.569 -36.763 -11.568  1.00  0.00     0.004 C 
ENDBRANCH   2   3
ENDBRANCH   1   2
BRANCH   1   5
ATOM      5  C   UNL     1      36.417 -35.637 -10.230  1.00  0.00     0.036 C 
BRANCH   5   6
ATOM      6  C   UNL     1      37.870 -35.107 -10.204  1.00  0.00     0.136 C 
BRANCH   6   7
ATOM      7  C   UNL     1      37.932 -33.598 -10.288  1.00  0.00    -0.004 C 
ATOM      8  C   UNL     1      38.764 -32.989 -11.138  1.00  0.00     0.007 C 
ENDBRANCH   6   7
BRANCH   6   9
ATOM      9  O   UNL     1      38.522 -35.544  -9.037  1.00  0.00    -0.389 OA
ATOM     10  H   UNL     1      38.651 -34.751  -8.452  1.00  0.00     0.211 HD
ENDBRANCH   6   9
ENDBRANCH   5   6
ENDBRANCH   1   5
TORSDOF 6
ENDMDL
MODEL 6
REMARK VINA RESULT:    -2.153     19.868     21.377
REMARK INTER + INTRA:          -3.398
REMARK INTER:                  -3.079
REMARK INTRA:                  -0.318
REMARK UNBOUND:                -0.553
REMARK SMILES C=C[C@@H](O)CCCCC
REMARK SMILES IDX 6 1 7 2 8 3 9 4 5 5 3 6 2 7 1 8 4 9
REMARK H PARENT 4 10
REMARK Flexibility Score: inf
ROOT
ATOM      1  C   UNL     1      35.338 -33.738 -10.611  1.00  0.00     0.003 C 
ENDROOT
BRANCH   1   2
ATOM      2  C   UNL     1      36.816 -33.837 -10.197  1.00  0.00    -0.000 C 
BRANCH   2   3
ATOM      3  C   UNL     1      37.770 -33.357 -11.302  1.00  0.00    -0.003 C 
ATOM      4  C   UNL     1      39.124 -32.906 -10.757  1.00  0.00     0.004 C 
ENDBRANCH   2   3
ENDBRANCH   1   2
BRANCH   1   5
ATOM      5  C   UNL     1      35.074 -34.247 -12.040  1.00  0.00     0.036 C 
BRANCH   5   6
ATOM      6  C   UNL     1      33.987 -35.345 -12.123  1.00  0.00     0.136 C 
BRANCH   6   7
ATOM      7  C   UNL     1      34.573 -36.738 -12.076  1.00  0.00    -0.004 C 
ATOM      8  C   UNL     1      35.895 -36.932 -12.120  1.00  0.00     0.007 C 
ENDBRANCH   6   7
BRANCH   6   9
ATOM      9  O   UNL     1      33.059 -35.185 -11.079  1.00  0.00    -0.389 OA
ATOM     10  H   UNL     1      33.308 -34.363 -10.581  1.00  0.00     0.211 HD
ENDBRANCH   6   9
ENDBRANCH   5   6
ENDBRANCH   1   5
TORSDOF 6
ENDMDL
MODEL 7
REMARK VINA RESULT:    -2.147     19.664     20.897
REMARK INTER + INTRA:          -3.390
REMARK INTER:                  -2.775
REMARK INTRA:                  -0.615
REMARK UNBOUND:                -0.553
REMARK SMILES C=C[C@@H](O)CCCCC
REMARK SMILES IDX 6 1 7 2 8 3 9 4 5 5 3 6 2 7 1 8 4 9
REMARK H PARENT 4 10
REMARK Flexibility Score: inf
ROOT
ATOM      1  C   UNL     1      36.395 -36.436 -10.178  1.00  0.00     0.003 C 
ENDROOT
BRANCH   1   2
ATOM      2  C   UNL     1      35.342 -36.011 -11.215  1.00  0.00    -0.000 C 
BRANCH   2   3
ATOM      3  C   UNL     1      35.190 -34.485 -11.307  1.00  0.00    -0.003 C 
ATOM      4  C   UNL     1      35.613 -33.771 -10.024  1.00  0.00     0.004 C 
ENDBRANCH   2   3
ENDBRANCH   1   2
BRANCH   1   5
ATOM      5  C   UNL     1      37.744 -36.829 -10.811  1.00  0.00     0.036 C 
BRANCH   5   6
ATOM      6  C   UNL     1      38.901 -35.862 -10.470  1.00  0.00     0.136 C 
BRANCH   6   7
ATOM      7  C   UNL     1      38.999 -34.715 -11.451  1.00  0.00    -0.004 C 
ATOM      8  C   UNL     1      39.125 -33.454 -11.027  1.00  0.00     0.007 C 
ENDBRANCH   6   7
BRANCH   6   9
ATOM      9  O   UNL     1      38.742 -35.359  -9.167  1.00  0.00    -0.389 OA
ATOM     10  H   UNL     1      37.787 -35.108  -9.058  1.00  0.00     0.211 HD
ENDBRANCH   6   9
ENDBRANCH   5   6
ENDBRANCH   1   5
TORSDOF 6
ENDMDL
MODEL 8
REMARK VINA RESULT:    -2.143     19.795     21.197
REMARK INTER + INTRA:          -3.385
REMARK INTER:                  -2.732
REMARK INTRA:                  -0.653
REMARK UNBOUND:                -0.553
REMARK SMILES C=C[C@@H](O)CCCCC
REMARK SMILES IDX 6 1 7 2 8 3 9 4 5 5 3 6 2 7 1 8 4 9
REMARK H PARENT 4 10
REMARK Flexibility Score: inf
ROOT
ATOM      1  C   UNL     1      35.664 -33.751 -10.808  1.00  0.00     0.003 C 
ENDROOT
BRANCH   1   2
ATOM      2  C   UNL     1      36.270 -33.057 -12.040  1.00  0.00    -0.000 C 
BRANCH   2   3
ATOM      3  C   UNL     1      37.803 -32.985 -11.979  1.00  0.00    -0.003 C 
ATOM      4  C   UNL     1      38.350 -33.232 -10.574  1.00  0.00     0.004 C 
ENDBRANCH   2   3
ENDBRANCH   1   2
BRANCH   1   5
ATOM      5  C   UNL     1      34.964 -35.081 -11.145  1.00  0.00     0.036 C 
BRANCH   5   6
ATOM      6  C   UNL     1      35.766 -36.335 -10.725  1.00  0.00     0.136 C 
BRANCH   6   7
ATOM      7  C   UNL     1      36.738 -36.779 -11.795  1.00  0.00    -0.004 C 
ATOM      8  C   UNL     1      38.051 -36.834 -11.555  1.00  0.00     0.007 C 
ENDBRANCH   6   7
BRANCH   6   9
ATOM      9  O   UNL     1      36.461 -36.085  -9.529  1.00  0.00    -0.389 OA
ATOM     10  H   UNL     1      35.832 -35.632  -8.907  1.00  0.00     0.211 HD
ENDBRANCH   6   9
ENDBRANCH   5   6
ENDBRANCH   1   5
TORSDOF 6
ENDMDL
MODEL 9
REMARK VINA RESULT:    -2.128     20.423     21.477
REMARK INTER + INTRA:          -3.365
REMARK INTER:                  -3.002
REMARK INTRA:                  -0.363
REMARK UNBOUND:                -0.553
REMARK SMILES C=C[C@@H](O)CCCCC
REMARK SMILES IDX 6 1 7 2 8 3 9 4 5 5 3 6 2 7 1 8 4 9
REMARK H PARENT 4 10
REMARK Flexibility Score: inf
ROOT
ATOM      1  C   UNL     1      36.288 -36.531 -11.542  1.00  0.00     0.003 C 
ENDROOT
BRANCH   1   2
ATOM      2  C   UNL     1      34.894 -37.125 -11.277  1.00  0.00    -0.000 C 
BRANCH   2   3
ATOM      3  C   UNL     1      33.761 -36.205 -11.758  1.00  0.00    -0.003 C 
ATOM      4  C   UNL     1      32.375 -36.755 -11.428  1.00  0.00     0.004 C 
ENDBRANCH   2   3
ENDBRANCH   1   2
BRANCH   1   5
ATOM      5  C   UNL     1      36.750 -35.556 -10.443  1.00  0.00     0.036 C 
BRANCH   5   6
ATOM      6  C   UNL     1      37.418 -34.271 -10.986  1.00  0.00     0.136 C 
BRANCH   6   7
ATOM      7  C   UNL     1      36.584 -33.595 -12.049  1.00  0.00    -0.004 C 
ATOM      8  C   UNL     1      35.433 -32.989 -11.742  1.00  0.00     0.007 C 
ENDBRANCH   6   7
BRANCH   6   9
ATOM      9  O   UNL     1      37.663 -33.372  -9.932  1.00  0.00    -0.389 OA
ATOM     10  H   UNL     1      36.946 -32.684  -9.954  1.00  0.00     0.211 HD
ENDBRANCH   6   9
ENDBRANCH   5   6
ENDBRANCH   1   5
TORSDOF 6
ENDMDL
