MODEL 1
REMARK VINA RESULT:    -5.782      0.000      0.000
REMARK INTER + INTRA:         -10.416
REMARK INTER:                  -8.825
REMARK INTRA:                  -1.591
REMARK UNBOUND:                -1.591
REMARK SMILES OC[C@H]1O[C@@](CO)(O[C@H]2O[C@H](CO)[C@@H](O)[C@H](O)[C@@H]2O)[C@H](O)[C@H]1O
REMARK SMILES IDX 8 1 9 2 11 3 14 4 10 5 16 6 18 7 12 8 13 9 15 11 17 13 19 15
REMARK SMILES IDX 5 17 20 18 4 19 22 20 3 21 6 22 7 23 21 25 23 27 2 29 1 30
REMARK H PARENT 13 10 15 12 17 14 19 16 7 24 21 26 23 28 1 31
REMARK Flexibility Score: inf
ROOT
ATOM      1  O   UNL     1      26.364 -21.365  28.156  1.00  0.00    -0.313 OA
ENDROOT
BRANCH   1   2
ATOM      2  C   UNL     1      27.461 -20.491  27.911  1.00  0.00     0.285 C 
ATOM      3  C   UNL     1      27.690 -19.506  30.031  1.00  0.00     0.178 C 
ATOM      4  C   UNL     1      29.233 -19.673  30.136  1.00  0.00     0.177 C 
ATOM      5  O   UNL     1      27.309 -19.303  28.682  1.00  0.00    -0.341 OA
ATOM      6  C   UNL     1      29.815 -20.284  28.842  1.00  0.00     0.179 C 
ATOM      7  C   UNL     1      28.788 -21.243  28.210  1.00  0.00     0.202 C 
BRANCH   3   8
ATOM      8  C   UNL     1      27.208 -18.315  30.868  1.00  0.00     0.191 C 
BRANCH   8   9
ATOM      9  O   UNL     1      25.808 -18.284  30.879  1.00  0.00    -0.394 OA
ATOM     10  H   UNL     1      25.539 -18.329  31.833  1.00  0.00     0.210 HD
ENDBRANCH   8   9
ENDBRANCH   3   8
BRANCH   4  11
ATOM     11  O   UNL     1      29.544 -20.512  31.220  1.00  0.00    -0.387 OA
ATOM     12  H   UNL     1      29.456 -19.966  32.044  1.00  0.00     0.211 HD
ENDBRANCH   4  11
BRANCH   6  13
ATOM     13  O   UNL     1      30.132 -19.252  27.940  1.00  0.00    -0.387 OA
ATOM     14  H   UNL     1      29.526 -19.352  27.159  1.00  0.00     0.211 HD
ENDBRANCH   6  13
BRANCH   7  15
ATOM     15  O   UNL     1      29.296 -21.805  27.026  1.00  0.00    -0.385 OA
ATOM     16  H   UNL     1      30.041 -22.406  27.290  1.00  0.00     0.211 HD
ENDBRANCH   7  15
ENDBRANCH   1   2
BRANCH   1  17
ATOM     17  C   UNL     1      25.493 -21.551  27.043  1.00  0.00     0.224 C 
ATOM     18  C   UNL     1      24.055 -21.895  27.508  1.00  0.00     0.208 C 
ATOM     19  O   UNL     1      25.437 -20.309  26.360  1.00  0.00    -0.337 OA
ATOM     20  C   UNL     1      23.190 -21.024  26.640  1.00  0.00     0.180 C 
ATOM     21  C   UNL     1      24.106 -19.840  26.352  1.00  0.00     0.179 C 
BRANCH  17  22
ATOM     22  C   UNL     1      26.064 -22.580  26.029  1.00  0.00     0.225 C 
BRANCH  22  23
ATOM     23  O   UNL     1      26.720 -23.623  26.699  1.00  0.00    -0.391 OA
ATOM     24  H   UNL     1      27.578 -23.255  27.037  1.00  0.00     0.210 HD
ENDBRANCH  22  23
ENDBRANCH  17  22
BRANCH  18  25
ATOM     25  O   UNL     1      23.733 -23.253  27.334  1.00  0.00    -0.385 OA
ATOM     26  H   UNL     1      23.532 -23.616  28.235  1.00  0.00     0.211 HD
ENDBRANCH  18  25
BRANCH  20  27
ATOM     27  O   UNL     1      22.005 -20.648  27.293  1.00  0.00    -0.387 OA
ATOM     28  H   UNL     1      21.320 -20.526  26.586  1.00  0.00     0.211 HD
ENDBRANCH  20  27
BRANCH  21  29
ATOM     29  C   UNL     1      23.981 -18.684  27.359  1.00  0.00     0.191 C 
BRANCH  29  30
ATOM     30  O   UNL     1      24.198 -19.151  28.663  1.00  0.00    -0.394 OA
ATOM     31  H   UNL     1      25.179 -19.106  28.811  1.00  0.00     0.210 HD
ENDBRANCH  29  30
ENDBRANCH  21  29
ENDBRANCH   1  17
TORSDOF 13
ENDMDL
MODEL 2
REMARK VINA RESULT:    -5.724      1.404      2.804
REMARK INTER + INTRA:         -10.327
REMARK INTER:                  -8.540
REMARK INTRA:                  -1.788
REMARK UNBOUND:                -1.591
REMARK SMILES OC[C@H]1O[C@@](CO)(O[C@H]2O[C@H](CO)[C@@H](O)[C@H](O)[C@@H]2O)[C@H](O)[C@H]1O
REMARK SMILES IDX 8 1 9 2 11 3 14 4 10 5 16 6 18 7 12 8 13 9 15 11 17 13 19 15
REMARK SMILES IDX 5 17 20 18 4 19 22 20 3 21 6 22 7 23 21 25 23 27 2 29 1 30
REMARK H PARENT 13 10 15 12 17 14 19 16 7 24 21 26 23 28 1 31
REMARK Flexibility Score: inf
ROOT
ATOM      1  O   UNL     1      27.043 -19.803  27.390  1.00  0.00    -0.313 OA
ENDROOT
BRANCH   1   2
ATOM      2  C   UNL     1      27.148 -20.052  28.788  1.00  0.00     0.285 C 
ATOM      3  C   UNL     1      29.432 -19.617  29.119  1.00  0.00     0.178 C 
ATOM      4  C   UNL     1      29.259 -18.722  30.379  1.00  0.00     0.177 C 
ATOM      5  O   UNL     1      28.424 -20.611  29.080  1.00  0.00    -0.341 OA
ATOM      6  C   UNL     1      27.776 -18.643  30.805  1.00  0.00     0.179 C 
ATOM      7  C   UNL     1      26.870 -18.734  29.562  1.00  0.00     0.202 C 
BRANCH   3   8
ATOM      8  C   UNL     1      30.804 -20.300  29.114  1.00  0.00     0.191 C 
BRANCH   8   9
ATOM      9  O   UNL     1      31.503 -19.964  30.279  1.00  0.00    -0.394 OA
ATOM     10  H   UNL     1      32.407 -19.681  29.986  1.00  0.00     0.210 HD
ENDBRANCH   8   9
ENDBRANCH   3   8
BRANCH   4  11
ATOM     11  O   UNL     1      29.727 -17.425  30.104  1.00  0.00    -0.387 OA
ATOM     12  H   UNL     1      29.367 -17.170  29.215  1.00  0.00     0.211 HD
ENDBRANCH   4  11
BRANCH   6  13
ATOM     13  O   UNL     1      27.488 -19.698  31.690  1.00  0.00    -0.387 OA
ATOM     14  H   UNL     1      26.528 -19.621  31.931  1.00  0.00     0.211 HD
ENDBRANCH   6  13
BRANCH   7  15
ATOM     15  O   UNL     1      25.515 -18.671  29.929  1.00  0.00    -0.385 OA
ATOM     16  H   UNL     1      25.191 -19.607  29.993  1.00  0.00     0.211 HD
ENDBRANCH   7  15
ENDBRANCH   1   2
BRANCH   1  17
ATOM     17  C   UNL     1      26.274 -20.764  26.671  1.00  0.00     0.224 C 
ATOM     18  C   UNL     1      25.471 -21.675  27.635  1.00  0.00     0.208 C 
ATOM     19  O   UNL     1      25.340 -20.035  25.892  1.00  0.00    -0.337 OA
ATOM     20  C   UNL     1      24.108 -21.732  27.004  1.00  0.00     0.180 C 
ATOM     21  C   UNL     1      24.031 -20.397  26.273  1.00  0.00     0.179 C 
BRANCH  17  22
ATOM     22  C   UNL     1      27.146 -21.566  25.665  1.00  0.00     0.225 C 
BRANCH  22  23
ATOM     23  O   UNL     1      28.314 -22.034  26.287  1.00  0.00    -0.391 OA
ATOM     24  H   UNL     1      28.956 -22.258  25.563  1.00  0.00     0.210 HD
ENDBRANCH  22  23
ENDBRANCH  17  22
BRANCH  18  25
ATOM     25  O   UNL     1      26.022 -22.963  27.757  1.00  0.00    -0.385 OA
ATOM     26  H   UNL     1      27.002 -22.866  27.641  1.00  0.00     0.211 HD
ENDBRANCH  18  25
BRANCH  20  27
ATOM     27  O   UNL     1      23.094 -21.886  27.965  1.00  0.00    -0.387 OA
ATOM     28  H   UNL     1      22.549 -21.058  27.935  1.00  0.00     0.211 HD
ENDBRANCH  20  27
BRANCH  21  29
ATOM     29  C   UNL     1      23.421 -19.255  27.105  1.00  0.00     0.191 C 
BRANCH  29  30
ATOM     30  O   UNL     1      24.313 -18.176  27.173  1.00  0.00    -0.394 OA
ATOM     31  H   UNL     1      24.702 -18.083  26.264  1.00  0.00     0.210 HD
ENDBRANCH  29  30
ENDBRANCH  21  29
ENDBRANCH   1  17
TORSDOF 13
ENDMDL
MODEL 3
REMARK VINA RESULT:    -5.674      1.568      3.846
REMARK INTER + INTRA:         -10.250
REMARK INTER:                  -8.774
REMARK INTRA:                  -1.476
REMARK UNBOUND:                -1.591
REMARK SMILES OC[C@H]1O[C@@](CO)(O[C@H]2O[C@H](CO)[C@@H](O)[C@H](O)[C@@H]2O)[C@H](O)[C@H]1O
REMARK SMILES IDX 8 1 9 2 11 3 14 4 10 5 16 6 18 7 12 8 13 9 15 11 17 13 19 15
REMARK SMILES IDX 5 17 20 18 4 19 22 20 3 21 6 22 7 23 21 25 23 27 2 29 1 30
REMARK H PARENT 13 10 15 12 17 14 19 16 7 24 21 26 23 28 1 31
REMARK Flexibility Score: inf
ROOT
ATOM      1  O   UNL     1      26.849 -19.582  27.626  1.00  0.00    -0.313 OA
ENDROOT
BRANCH   1   2
ATOM      2  C   UNL     1      27.139 -19.963  28.966  1.00  0.00     0.285 C 
ATOM      3  C   UNL     1      29.463 -19.621  29.003  1.00  0.00     0.178 C 
ATOM      4  C   UNL     1      29.504 -18.844  30.350  1.00  0.00     0.177 C 
ATOM      5  O   UNL     1      28.421 -20.581  29.021  1.00  0.00    -0.341 OA
ATOM      6  C   UNL     1      28.100 -18.767  30.990  1.00  0.00     0.179 C 
ATOM      7  C   UNL     1      27.025 -18.716  29.887  1.00  0.00     0.202 C 
BRANCH   3   8
ATOM      8  C   UNL     1      30.792 -20.337  28.740  1.00  0.00     0.191 C 
BRANCH   8   9
ATOM      9  O   UNL     1      31.632 -20.196  29.852  1.00  0.00    -0.394 OA
ATOM     10  H   UNL     1      32.372 -19.602  29.565  1.00  0.00     0.210 HD
ENDBRANCH   8   9
ENDBRANCH   3   8
BRANCH   4  11
ATOM     11  O   UNL     1      29.979 -17.540  30.128  1.00  0.00    -0.387 OA
ATOM     12  H   UNL     1      30.799 -17.621  29.574  1.00  0.00     0.211 HD
ENDBRANCH   4  11
BRANCH   6  13
ATOM     13  O   UNL     1      27.898 -19.892  31.810  1.00  0.00    -0.387 OA
ATOM     14  H   UNL     1      26.928 -19.932  32.015  1.00  0.00     0.211 HD
ENDBRANCH   6  13
BRANCH   7  15
ATOM     15  O   UNL     1      25.739 -18.653  30.449  1.00  0.00    -0.385 OA
ATOM     16  H   UNL     1      25.335 -17.798  30.146  1.00  0.00     0.211 HD
ENDBRANCH   7  15
ENDBRANCH   1   2
BRANCH   1  17
ATOM     17  C   UNL     1      25.607 -20.070  27.124  1.00  0.00     0.224 C 
ATOM     18  C   UNL     1      25.767 -20.645  25.693  1.00  0.00     0.208 C 
ATOM     19  O   UNL     1      25.219 -21.137  27.974  1.00  0.00    -0.337 OA
ATOM     20  C   UNL     1      24.998 -21.935  25.749  1.00  0.00     0.180 C 
ATOM     21  C   UNL     1      25.120 -22.324  27.218  1.00  0.00     0.179 C 
BRANCH  17  22
ATOM     22  C   UNL     1      24.483 -19.001  27.227  1.00  0.00     0.225 C 
BRANCH  22  23
ATOM     23  O   UNL     1      23.757 -19.160  28.416  1.00  0.00    -0.391 OA
ATOM     24  H   UNL     1      22.798 -19.048  28.186  1.00  0.00     0.210 HD
ENDBRANCH  22  23
ENDBRANCH  17  22
BRANCH  18  25
ATOM     25  O   UNL     1      25.248 -19.794  24.701  1.00  0.00    -0.385 OA
ATOM     26  H   UNL     1      24.698 -19.113  25.169  1.00  0.00     0.211 HD
ENDBRANCH  18  25
BRANCH  20  27
ATOM     27  O   UNL     1      25.537 -22.902  24.884  1.00  0.00    -0.387 OA
ATOM     28  H   UNL     1      25.357 -22.587  23.961  1.00  0.00     0.211 HD
ENDBRANCH  20  27
BRANCH  21  29
ATOM     29  C   UNL     1      26.331 -23.218  27.537  1.00  0.00     0.191 C 
BRANCH  29  30
ATOM     30  O   UNL     1      26.047 -24.552  27.215  1.00  0.00    -0.394 OA
ATOM     31  H   UNL     1      25.527 -24.915  27.979  1.00  0.00     0.210 HD
ENDBRANCH  29  30
ENDBRANCH  21  29
ENDBRANCH   1  17
TORSDOF 13
ENDMDL
MODEL 4
REMARK VINA RESULT:    -5.661      3.450      6.109
REMARK INTER + INTRA:         -10.230
REMARK INTER:                  -8.833
REMARK INTRA:                  -1.397
REMARK UNBOUND:                -1.591
REMARK SMILES OC[C@H]1O[C@@](CO)(O[C@H]2O[C@H](CO)[C@@H](O)[C@H](O)[C@@H]2O)[C@H](O)[C@H]1O
REMARK SMILES IDX 8 1 9 2 11 3 14 4 10 5 16 6 18 7 12 8 13 9 15 11 17 13 19 15
REMARK SMILES IDX 5 17 20 18 4 19 22 20 3 21 6 22 7 23 21 25 23 27 2 29 1 30
REMARK H PARENT 13 10 15 12 17 14 19 16 7 24 21 26 23 28 1 31
REMARK Flexibility Score: inf
ROOT
ATOM      1  O   UNL     1      22.709 -20.565  27.032  1.00  0.00    -0.313 OA
ENDROOT
BRANCH   1   2
ATOM      2  C   UNL     1      22.957 -21.460  25.952  1.00  0.00     0.285 C 
ATOM      3  C   UNL     1      24.299 -23.055  27.034  1.00  0.00     0.178 C 
ATOM      4  C   UNL     1      23.553 -24.308  26.493  1.00  0.00     0.177 C 
ATOM      5  O   UNL     1      24.264 -22.011  26.078  1.00  0.00    -0.341 OA
ATOM      6  C   UNL     1      22.431 -23.904  25.511  1.00  0.00     0.179 C 
ATOM      7  C   UNL     1      21.842 -22.542  25.921  1.00  0.00     0.202 C 
BRANCH   3   8
ATOM      8  C   UNL     1      25.761 -23.383  27.358  1.00  0.00     0.191 C 
BRANCH   8   9
ATOM      9  O   UNL     1      25.993 -24.749  27.156  1.00  0.00    -0.394 OA
ATOM     10  H   UNL     1      25.438 -25.225  27.826  1.00  0.00     0.210 HD
ENDBRANCH   8   9
ENDBRANCH   3   8
BRANCH   4  11
ATOM     11  O   UNL     1      22.989 -25.021  27.565  1.00  0.00    -0.387 OA
ATOM     12  H   UNL     1      23.721 -25.549  27.978  1.00  0.00     0.211 HD
ENDBRANCH   4  11
BRANCH   6  13
ATOM     13  O   UNL     1      22.956 -23.830  24.207  1.00  0.00    -0.387 OA
ATOM     14  H   UNL     1      22.833 -24.725  23.793  1.00  0.00     0.211 HD
ENDBRANCH   6  13
BRANCH   7  15
ATOM     15  O   UNL     1      20.823 -22.153  25.035  1.00  0.00    -0.385 OA
ATOM     16  H   UNL     1      20.938 -22.693  24.210  1.00  0.00     0.211 HD
ENDBRANCH   7  15
ENDBRANCH   1   2
BRANCH   1  17
ATOM     17  C   UNL     1      22.815 -19.184  26.695  1.00  0.00     0.224 C 
ATOM     18  C   UNL     1      22.967 -18.990  25.164  1.00  0.00     0.208 C 
ATOM     19  O   UNL     1      21.594 -18.577  27.084  1.00  0.00    -0.337 OA
ATOM     20  C   UNL     1      22.019 -17.864  24.860  1.00  0.00     0.180 C 
ATOM     21  C   UNL     1      20.965 -18.023  25.950  1.00  0.00     0.179 C 
BRANCH  17  22
ATOM     22  C   UNL     1      23.932 -18.475  27.509  1.00  0.00     0.225 C 
BRANCH  22  23
ATOM     23  O   UNL     1      24.120 -19.109  28.747  1.00  0.00    -0.391 OA
ATOM     24  H   UNL     1      23.868 -20.061  28.624  1.00  0.00     0.210 HD
ENDBRANCH  22  23
ENDBRANCH  17  22
BRANCH  18  25
ATOM     25  O   UNL     1      24.279 -18.657  24.782  1.00  0.00    -0.385 OA
ATOM     26  H   UNL     1      24.887 -19.173  25.373  1.00  0.00     0.211 HD
ENDBRANCH  18  25
BRANCH  20  27
ATOM     27  O   UNL     1      21.483 -17.967  23.566  1.00  0.00    -0.387 OA
ATOM     28  H   UNL     1      20.803 -18.689  23.598  1.00  0.00     0.211 HD
ENDBRANCH  20  27
BRANCH  21  29
ATOM     29  C   UNL     1      19.776 -18.917  25.555  1.00  0.00     0.191 C 
BRANCH  29  30
ATOM     30  O   UNL     1      19.558 -19.894  26.535  1.00  0.00    -0.394 OA
ATOM     31  H   UNL     1      19.859 -19.494  27.393  1.00  0.00     0.210 HD
ENDBRANCH  29  30
ENDBRANCH  21  29
ENDBRANCH   1  17
TORSDOF 13
ENDMDL
MODEL 5
REMARK VINA RESULT:    -5.645      3.560      5.981
REMARK INTER + INTRA:         -10.205
REMARK INTER:                  -8.863
REMARK INTRA:                  -1.343
REMARK UNBOUND:                -1.591
REMARK SMILES OC[C@H]1O[C@@](CO)(O[C@H]2O[C@H](CO)[C@@H](O)[C@H](O)[C@@H]2O)[C@H](O)[C@H]1O
REMARK SMILES IDX 8 1 9 2 11 3 14 4 10 5 16 6 18 7 12 8 13 9 15 11 17 13 19 15
REMARK SMILES IDX 5 17 20 18 4 19 22 20 3 21 6 22 7 23 21 25 23 27 2 29 1 30
REMARK H PARENT 13 10 15 12 17 14 19 16 7 24 21 26 23 28 1 31
REMARK Flexibility Score: inf
ROOT
ATOM      1  O   UNL     1      22.527 -21.173  26.668  1.00  0.00    -0.313 OA
ENDROOT
BRANCH   1   2
ATOM      2  C   UNL     1      23.529 -22.096  27.080  1.00  0.00     0.285 C 
ATOM      3  C   UNL     1      22.216 -24.017  27.406  1.00  0.00     0.178 C 
ATOM      4  C   UNL     1      23.146 -24.997  26.635  1.00  0.00     0.177 C 
ATOM      5  O   UNL     1      22.982 -23.003  28.032  1.00  0.00    -0.341 OA
ATOM      6  C   UNL     1      24.426 -24.282  26.148  1.00  0.00     0.179 C 
ATOM      7  C   UNL     1      24.111 -22.808  25.827  1.00  0.00     0.202 C 
BRANCH   3   8
ATOM      8  C   UNL     1      21.402 -24.756  28.473  1.00  0.00     0.191 C 
BRANCH   8   9
ATOM      9  O   UNL     1      21.647 -26.131  28.385  1.00  0.00    -0.394 OA
ATOM     10  H   UNL     1      22.099 -26.386  29.230  1.00  0.00     0.210 HD
ENDBRANCH   8   9
ENDBRANCH   3   8
BRANCH   4  11
ATOM     11  O   UNL     1      22.463 -25.521  25.524  1.00  0.00    -0.387 OA
ATOM     12  H   UNL     1      21.953 -26.311  25.844  1.00  0.00     0.211 HD
ENDBRANCH   4  11
BRANCH   6  13
ATOM     13  O   UNL     1      25.413 -24.358  27.148  1.00  0.00    -0.387 OA
ATOM     14  H   UNL     1      25.134 -25.073  27.778  1.00  0.00     0.211 HD
ENDBRANCH   6  13
BRANCH   7  15
ATOM     15  O   UNL     1      25.265 -22.138  25.388  1.00  0.00    -0.385 OA
ATOM     16  H   UNL     1      25.455 -21.426  26.054  1.00  0.00     0.211 HD
ENDBRANCH   7  15
ENDBRANCH   1   2
BRANCH   1  17
ATOM     17  C   UNL     1      22.952 -19.813  26.630  1.00  0.00     0.224 C 
ATOM     18  C   UNL     1      23.116 -19.317  25.170  1.00  0.00     0.208 C 
ATOM     19  O   UNL     1      21.919 -19.047  27.229  1.00  0.00    -0.337 OA
ATOM     20  C   UNL     1      22.457 -17.965  25.186  1.00  0.00     0.180 C 
ATOM     21  C   UNL     1      21.418 -18.122  26.289  1.00  0.00     0.179 C 
BRANCH  17  22
ATOM     22  C   UNL     1      24.223 -19.580  27.494  1.00  0.00     0.225 C 
BRANCH  22  23
ATOM     23  O   UNL     1      23.892 -18.937  28.696  1.00  0.00    -0.391 OA
ATOM     24  H   UNL     1      24.621 -19.135  29.340  1.00  0.00     0.210 HD
ENDBRANCH  22  23
ENDBRANCH  17  22
BRANCH  18  25
ATOM     25  O   UNL     1      24.461 -19.215  24.774  1.00  0.00    -0.385 OA
ATOM     26  H   UNL     1      24.467 -19.214  23.782  1.00  0.00     0.211 HD
ENDBRANCH  18  25
BRANCH  20  27
ATOM     27  O   UNL     1      21.887 -17.648  23.942  1.00  0.00    -0.387 OA
ATOM     28  H   UNL     1      22.563 -17.877  23.254  1.00  0.00     0.211 HD
ENDBRANCH  20  27
BRANCH  21  29
ATOM     29  C   UNL     1      20.043 -18.608  25.799  1.00  0.00     0.191 C 
BRANCH  29  30
ATOM     30  O   UNL     1      19.635 -19.730  26.533  1.00  0.00    -0.394 OA
ATOM     31  H   UNL     1      19.952 -19.580  27.462  1.00  0.00     0.210 HD
ENDBRANCH  29  30
ENDBRANCH  21  29
ENDBRANCH   1  17
TORSDOF 13
ENDMDL
MODEL 6
REMARK VINA RESULT:    -5.602      5.611      8.128
REMARK INTER + INTRA:         -10.141
REMARK INTER:                  -8.343
REMARK INTRA:                  -1.797
REMARK UNBOUND:                -1.591
REMARK SMILES OC[C@H]1O[C@@](CO)(O[C@H]2O[C@H](CO)[C@@H](O)[C@H](O)[C@@H]2O)[C@H](O)[C@H]1O
REMARK SMILES IDX 8 1 9 2 11 3 14 4 10 5 16 6 18 7 12 8 13 9 15 11 17 13 19 15
REMARK SMILES IDX 5 17 20 18 4 19 22 20 3 21 6 22 7 23 21 25 23 27 2 29 1 30
REMARK H PARENT 13 10 15 12 17 14 19 16 7 24 21 26 23 28 1 31
REMARK Flexibility Score: inf
ROOT
ATOM      1  O   UNL     1      28.855 -20.086  21.689  1.00  0.00    -0.313 OA
ENDROOT
BRANCH   1   2
ATOM      2  C   UNL     1      27.876 -21.069  22.008  1.00  0.00     0.285 C 
ATOM      3  C   UNL     1      27.769 -22.229  19.969  1.00  0.00     0.178 C 
ATOM      4  C   UNL     1      27.850 -23.659  20.576  1.00  0.00     0.177 C 
ATOM      5  O   UNL     1      27.092 -21.357  20.855  1.00  0.00    -0.341 OA
ATOM      6  C   UNL     1      27.871 -23.606  22.120  1.00  0.00     0.179 C 
ATOM      7  C   UNL     1      28.585 -22.324  22.589  1.00  0.00     0.202 C 
BRANCH   3   8
ATOM      8  C   UNL     1      27.032 -22.243  18.625  1.00  0.00     0.191 C 
BRANCH   8   9
ATOM      9  O   UNL     1      27.410 -21.127  17.869  1.00  0.00    -0.394 OA
ATOM     10  H   UNL     1      28.293 -20.843  18.219  1.00  0.00     0.210 HD
ENDBRANCH   8   9
ENDBRANCH   3   8
BRANCH   4  11
ATOM     11  O   UNL     1      29.016 -24.299  20.123  1.00  0.00    -0.387 OA
ATOM     12  H   UNL     1      29.703 -23.593  19.995  1.00  0.00     0.211 HD
ENDBRANCH   4  11
BRANCH   6  13
ATOM     13  O   UNL     1      26.551 -23.629  22.606  1.00  0.00    -0.387 OA
ATOM     14  H   UNL     1      26.228 -24.565  22.527  1.00  0.00     0.211 HD
ENDBRANCH   6  13
BRANCH   7  15
ATOM     15  O   UNL     1      28.609 -22.254  23.992  1.00  0.00    -0.385 OA
ATOM     16  H   UNL     1      28.024 -21.495  24.252  1.00  0.00     0.211 HD
ENDBRANCH   7  15
ENDBRANCH   1   2
BRANCH   1  17
ATOM     17  C   UNL     1      28.409 -18.739  21.820  1.00  0.00     0.224 C 
ATOM     18  C   UNL     1      27.044 -18.668  22.552  1.00  0.00     0.208 C 
ATOM     19  O   UNL     1      29.364 -18.072  22.629  1.00  0.00    -0.337 OA
ATOM     20  C   UNL     1      27.233 -17.545  23.533  1.00  0.00     0.180 C 
ATOM     21  C   UNL     1      28.734 -17.592  23.796  1.00  0.00     0.179 C 
BRANCH  17  22
ATOM     22  C   UNL     1      28.403 -17.997  20.454  1.00  0.00     0.225 C 
BRANCH  22  23
ATOM     23  O   UNL     1      27.665 -18.719  19.503  1.00  0.00    -0.391 OA
ATOM     24  H   UNL     1      27.318 -19.528  19.961  1.00  0.00     0.210 HD
ENDBRANCH  22  23
ENDBRANCH  17  22
BRANCH  18  25
ATOM     25  O   UNL     1      25.971 -18.400  21.684  1.00  0.00    -0.385 OA
ATOM     26  H   UNL     1      25.232 -19.008  21.948  1.00  0.00     0.211 HD
ENDBRANCH  18  25
BRANCH  20  27
ATOM     27  O   UNL     1      26.471 -17.735  24.698  1.00  0.00    -0.387 OA
ATOM     28  H   UNL     1      25.632 -18.183  24.416  1.00  0.00     0.211 HD
ENDBRANCH  20  27
BRANCH  21  29
ATOM     29  C   UNL     1      29.141 -18.483  24.983  1.00  0.00     0.191 C 
BRANCH  29  30
ATOM     30  O   UNL     1      29.880 -19.584  24.530  1.00  0.00    -0.394 OA
ATOM     31  H   UNL     1      30.704 -19.212  24.119  1.00  0.00     0.210 HD
ENDBRANCH  29  30
ENDBRANCH  21  29
ENDBRANCH   1  17
TORSDOF 13
ENDMDL
MODEL 7
REMARK VINA RESULT:    -5.585      6.416      8.201
REMARK INTER + INTRA:         -10.114
REMARK INTER:                  -8.772
REMARK INTRA:                  -1.342
REMARK UNBOUND:                -1.591
REMARK SMILES OC[C@H]1O[C@@](CO)(O[C@H]2O[C@H](CO)[C@@H](O)[C@H](O)[C@@H]2O)[C@H](O)[C@H]1O
REMARK SMILES IDX 8 1 9 2 11 3 14 4 10 5 16 6 18 7 12 8 13 9 15 11 17 13 19 15
REMARK SMILES IDX 5 17 20 18 4 19 22 20 3 21 6 22 7 23 21 25 23 27 2 29 1 30
REMARK H PARENT 13 10 15 12 17 14 19 16 7 24 21 26 23 28 1 31
REMARK Flexibility Score: inf
ROOT
ATOM      1  O   UNL     1      27.997 -19.985  20.893  1.00  0.00    -0.313 OA
ENDROOT
BRANCH   1   2
ATOM      2  C   UNL     1      28.494 -18.977  21.767  1.00  0.00     0.285 C 
ATOM      3  C   UNL     1      28.478 -17.127  20.320  1.00  0.00     0.178 C 
ATOM      4  C   UNL     1      27.795 -16.138  21.307  1.00  0.00     0.177 C 
ATOM      5  O   UNL     1      29.284 -18.051  21.029  1.00  0.00    -0.341 OA
ATOM      6  C   UNL     1      27.563 -16.799  22.684  1.00  0.00     0.179 C 
ATOM      7  C   UNL     1      27.299 -18.306  22.502  1.00  0.00     0.202 C 
BRANCH   3   8
ATOM      8  C   UNL     1      29.353 -16.378  19.309  1.00  0.00     0.191 C 
BRANCH   8   9
ATOM      9  O   UNL     1      29.073 -15.007  19.366  1.00  0.00    -0.394 OA
ATOM     10  H   UNL     1      28.867 -14.729  18.437  1.00  0.00     0.210 HD
ENDBRANCH   8   9
ENDBRANCH   3   8
BRANCH   4  11
ATOM     11  O   UNL     1      26.558 -15.726  20.782  1.00  0.00    -0.387 OA
ATOM     12  H   UNL     1      26.534 -16.019  19.834  1.00  0.00     0.211 HD
ENDBRANCH   4  11
BRANCH   6  13
ATOM     13  O   UNL     1      28.696 -16.601  23.494  1.00  0.00    -0.387 OA
ATOM     14  H   UNL     1      29.293 -17.382  23.355  1.00  0.00     0.211 HD
ENDBRANCH   6  13
BRANCH   7  15
ATOM     15  O   UNL     1      27.092 -18.928  23.745  1.00  0.00    -0.385 OA
ATOM     16  H   UNL     1      27.980 -19.238  24.063  1.00  0.00     0.211 HD
ENDBRANCH   7  15
ENDBRANCH   1   2
BRANCH   1  17
ATOM     17  C   UNL     1      28.086 -21.312  21.406  1.00  0.00     0.224 C 
ATOM     18  C   UNL     1      26.702 -21.825  21.879  1.00  0.00     0.208 C 
ATOM     19  O   UNL     1      28.503 -22.135  20.328  1.00  0.00    -0.337 OA
ATOM     20  C   UNL     1      26.638 -23.219  21.320  1.00  0.00     0.180 C 
ATOM     21  C   UNL     1      27.517 -23.113  20.079  1.00  0.00     0.179 C 
BRANCH  17  22
ATOM     22  C   UNL     1      29.185 -21.436  22.498  1.00  0.00     0.225 C 
BRANCH  22  23
ATOM     23  O   UNL     1      30.300 -22.130  22.001  1.00  0.00    -0.391 OA
ATOM     24  H   UNL     1      29.956 -22.953  21.567  1.00  0.00     0.210 HD
ENDBRANCH  22  23
ENDBRANCH  17  22
BRANCH  18  25
ATOM     25  O   UNL     1      26.574 -21.841  23.279  1.00  0.00    -0.385 OA
ATOM     26  H   UNL     1      26.067 -21.025  23.528  1.00  0.00     0.211 HD
ENDBRANCH  18  25
BRANCH  20  27
ATOM     27  O   UNL     1      25.320 -23.602  21.021  1.00  0.00    -0.387 OA
ATOM     28  H   UNL     1      25.363 -24.144  20.192  1.00  0.00     0.211 HD
ENDBRANCH  20  27
BRANCH  21  29
ATOM     29  C   UNL     1      26.757 -22.735  18.796  1.00  0.00     0.191 C 
BRANCH  29  30
ATOM     30  O   UNL     1      27.376 -21.646  18.168  1.00  0.00    -0.394 OA
ATOM     31  H   UNL     1      28.156 -21.409  18.735  1.00  0.00     0.210 HD
ENDBRANCH  29  30
ENDBRANCH  21  29
ENDBRANCH   1  17
TORSDOF 13
ENDMDL
MODEL 8
REMARK VINA RESULT:    -5.542      4.602      7.131
REMARK INTER + INTRA:         -10.048
REMARK INTER:                  -8.312
REMARK INTRA:                  -1.737
REMARK UNBOUND:                -1.591
REMARK SMILES OC[C@H]1O[C@@](CO)(O[C@H]2O[C@H](CO)[C@@H](O)[C@H](O)[C@@H]2O)[C@H](O)[C@H]1O
REMARK SMILES IDX 8 1 9 2 11 3 14 4 10 5 16 6 18 7 12 8 13 9 15 11 17 13 19 15
REMARK SMILES IDX 5 17 20 18 4 19 22 20 3 21 6 22 7 23 21 25 23 27 2 29 1 30
REMARK H PARENT 13 10 15 12 17 14 19 16 7 24 21 26 23 28 1 31
REMARK Flexibility Score: inf
ROOT
ATOM      1  O   UNL     1      25.825 -24.267  23.677  1.00  0.00    -0.313 OA
ENDROOT
BRANCH   1   2
ATOM      2  C   UNL     1      25.871 -23.284  22.648  1.00  0.00     0.285 C 
ATOM      3  C   UNL     1      28.194 -22.996  22.452  1.00  0.00     0.178 C 
ATOM      4  C   UNL     1      28.250 -23.078  20.899  1.00  0.00     0.177 C 
ATOM      5  O   UNL     1      26.974 -22.411  22.869  1.00  0.00    -0.341 OA
ATOM      6  C   UNL     1      26.833 -23.211  20.299  1.00  0.00     0.179 C 
ATOM      7  C   UNL     1      25.927 -23.995  21.267  1.00  0.00     0.202 C 
BRANCH   3   8
ATOM      8  C   UNL     1      29.358 -22.164  23.001  1.00  0.00     0.191 C 
BRANCH   8   9
ATOM      9  O   UNL     1      30.414 -22.167  22.083  1.00  0.00    -0.394 OA
ATOM     10  H   UNL     1      30.029 -22.470  21.220  1.00  0.00     0.210 HD
ENDBRANCH   8   9
ENDBRANCH   3   8
BRANCH   4  11
ATOM     11  O   UNL     1      29.019 -24.189  20.513  1.00  0.00    -0.387 OA
ATOM     12  H   UNL     1      28.515 -24.999  20.786  1.00  0.00     0.211 HD
ENDBRANCH   4  11
BRANCH   6  13
ATOM     13  O   UNL     1      26.300 -21.929  20.070  1.00  0.00    -0.387 OA
ATOM     14  H   UNL     1      25.925 -21.612  20.933  1.00  0.00     0.211 HD
ENDBRANCH   6  13
BRANCH   7  15
ATOM     15  O   UNL     1      24.630 -24.122  20.742  1.00  0.00    -0.385 OA
ATOM     16  H   UNL     1      24.021 -23.641  21.360  1.00  0.00     0.211 HD
ENDBRANCH   7  15
ENDBRANCH   1   2
BRANCH   1  17
ATOM     17  C   UNL     1      24.895 -23.990  24.721  1.00  0.00     0.224 C 
ATOM     18  C   UNL     1      23.984 -22.789  24.358  1.00  0.00     0.208 C 
ATOM     19  O   UNL     1      24.066 -25.135  24.840  1.00  0.00    -0.337 OA
ATOM     20  C   UNL     1      22.612 -23.260  24.753  1.00  0.00     0.180 C 
ATOM     21  C   UNL     1      22.727 -24.771  24.586  1.00  0.00     0.179 C 
BRANCH  17  22
ATOM     22  C   UNL     1      25.602 -23.821  26.095  1.00  0.00     0.225 C 
BRANCH  22  23
ATOM     23  O   UNL     1      26.872 -23.248  25.929  1.00  0.00    -0.391 OA
ATOM     24  H   UNL     1      26.735 -22.271  25.817  1.00  0.00     0.210 HD
ENDBRANCH  22  23
ENDBRANCH  17  22
BRANCH  18  25
ATOM     25  O   UNL     1      24.328 -21.613  25.049  1.00  0.00    -0.385 OA
ATOM     26  H   UNL     1      24.040 -20.853  24.479  1.00  0.00     0.211 HD
ENDBRANCH  18  25
BRANCH  20  27
ATOM     27  O   UNL     1      21.614 -22.697  23.940  1.00  0.00    -0.387 OA
ATOM     28  H   UNL     1      21.516 -21.753  24.226  1.00  0.00     0.211 HD
ENDBRANCH  20  27
BRANCH  21  29
ATOM     29  C   UNL     1      22.328 -25.286  23.192  1.00  0.00     0.191 C 
BRANCH  29  30
ATOM     30  O   UNL     1      23.330 -26.119  22.679  1.00  0.00    -0.394 OA
ATOM     31  H   UNL     1      24.061 -25.518  22.377  1.00  0.00     0.210 HD
ENDBRANCH  29  30
ENDBRANCH  21  29
ENDBRANCH   1  17
TORSDOF 13
ENDMDL
MODEL 9
REMARK VINA RESULT:    -5.365      4.874      7.195
REMARK INTER + INTRA:          -9.778
REMARK INTER:                  -8.409
REMARK INTRA:                  -1.370
REMARK UNBOUND:                -1.591
REMARK SMILES OC[C@H]1O[C@@](CO)(O[C@H]2O[C@H](CO)[C@@H](O)[C@H](O)[C@@H]2O)[C@H](O)[C@H]1O
REMARK SMILES IDX 8 1 9 2 11 3 14 4 10 5 16 6 18 7 12 8 13 9 15 11 17 13 19 15
REMARK SMILES IDX 5 17 20 18 4 19 22 20 3 21 6 22 7 23 21 25 23 27 2 29 1 30
REMARK H PARENT 13 10 15 12 17 14 19 16 7 24 21 26 23 28 1 31
REMARK Flexibility Score: inf
ROOT
ATOM      1  O   UNL     1      22.122 -21.466  24.606  1.00  0.00    -0.313 OA
ENDROOT
BRANCH   1   2
ATOM      2  C   UNL     1      22.077 -22.711  25.296  1.00  0.00     0.285 C 
ATOM      3  C   UNL     1      22.959 -24.133  23.648  1.00  0.00     0.178 C 
ATOM      4  C   UNL     1      23.962 -24.877  24.577  1.00  0.00     0.177 C 
ATOM      5  O   UNL     1      21.802 -23.760  24.374  1.00  0.00    -0.341 OA
ATOM      6  C   UNL     1      23.823 -24.398  26.039  1.00  0.00     0.179 C 
ATOM      7  C   UNL     1      23.411 -22.914  26.067  1.00  0.00     0.202 C 
BRANCH   3   8
ATOM      8  C   UNL     1      22.542 -25.018  22.469  1.00  0.00     0.191 C 
BRANCH   8   9
ATOM      9  O   UNL     1      23.060 -26.307  22.640  1.00  0.00    -0.394 OA
ATOM     10  H   UNL     1      22.515 -26.903  22.064  1.00  0.00     0.210 HD
ENDBRANCH   8   9
ENDBRANCH   3   8
BRANCH   4  11
ATOM     11  O   UNL     1      25.276 -24.639  24.139  1.00  0.00    -0.387 OA
ATOM     12  H   UNL     1      25.750 -25.510  24.159  1.00  0.00     0.211 HD
ENDBRANCH   4  11
BRANCH   6  13
ATOM     13  O   UNL     1      22.855 -25.180  26.696  1.00  0.00    -0.387 OA
ATOM     14  H   UNL     1      21.990 -25.020  26.236  1.00  0.00     0.211 HD
ENDBRANCH   6  13
BRANCH   7  15
ATOM     15  O   UNL     1      23.273 -22.462  27.390  1.00  0.00    -0.385 OA
ATOM     16  H   UNL     1      23.753 -23.110  27.968  1.00  0.00     0.211 HD
ENDBRANCH   7  15
ENDBRANCH   1   2
BRANCH   1  17
ATOM     17  C   UNL     1      21.362 -20.423  25.211  1.00  0.00     0.224 C 
ATOM     18  C   UNL     1      22.284 -19.389  25.908  1.00  0.00     0.208 C 
ATOM     19  O   UNL     1      20.685 -19.753  24.160  1.00  0.00    -0.337 OA
ATOM     20  C   UNL     1      21.709 -18.067  25.481  1.00  0.00     0.180 C 
ATOM     21  C   UNL     1      21.091 -18.403  24.129  1.00  0.00     0.179 C 
BRANCH  17  22
ATOM     22  C   UNL     1      20.260 -20.983  26.152  1.00  0.00     0.225 C 
BRANCH  22  23
ATOM     23  O   UNL     1      19.394 -19.959  26.564  1.00  0.00    -0.391 OA
ATOM     24  H   UNL     1      19.917 -19.116  26.549  1.00  0.00     0.210 HD
ENDBRANCH  22  23
ENDBRANCH  17  22
BRANCH  18  25
ATOM     25  O   UNL     1      22.279 -19.509  27.309  1.00  0.00    -0.385 OA
ATOM     26  H   UNL     1      21.940 -18.648  27.667  1.00  0.00     0.211 HD
ENDBRANCH  18  25
BRANCH  20  27
ATOM     27  O   UNL     1      22.696 -17.072  25.396  1.00  0.00    -0.387 OA
ATOM     28  H   UNL     1      23.505 -17.438  25.837  1.00  0.00     0.211 HD
ENDBRANCH  20  27
BRANCH  21  29
ATOM     29  C   UNL     1      22.036 -18.196  22.932  1.00  0.00     0.191 C 
BRANCH  29  30
ATOM     30  O   UNL     1      22.240 -16.828  22.706  1.00  0.00    -0.394 OA
ATOM     31  H   UNL     1      21.381 -16.477  22.353  1.00  0.00     0.210 HD
ENDBRANCH  29  30
ENDBRANCH  21  29
ENDBRANCH   1  17
TORSDOF 13
ENDMDL
