MODEL 1
REMARK VINA RESULT:    -4.229      0.000      0.000
REMARK INTER + INTRA:          -6.329
REMARK INTER:                  -6.454
REMARK INTRA:                   0.125
REMARK UNBOUND:                 0.125
REMARK SMILES CC1=CCC[C@H](C)C(=O)C[C@@H](C(C)C)C(=O)C1
REMARK SMILES IDX 8 1 9 2 6 3 7 4 5 5 4 6 3 7 2 8 1 9 10 11 11 12 15 13 16 14
REMARK SMILES IDX 17 15 12 17 13 18 14 19
REMARK H PARENT
REMARK Flexibility Score: 70.00
ROOT
ATOM      1  C   UNL     1      -8.723  72.395  24.830  1.00  0.00     0.136 C 
ATOM      2  O   UNL     1      -8.267  72.593  25.948  1.00  0.00    -0.299 OA
ENDROOT
BRANCH   1   3
ATOM      3  C   UNL     1     -10.039  73.082  24.472  1.00  0.00     0.053 C 
ATOM      4  C   UNL     1     -10.012  74.515  25.023  1.00  0.00     0.016 C 
BRANCH   3   5
ATOM      5  C   UNL     1     -10.425  73.112  22.968  1.00  0.00     0.015 C 
BRANCH   5   6
ATOM      6  C   UNL     1      -9.817  74.294  22.176  1.00  0.00     0.028 C 
BRANCH   6   7
ATOM      7  C   UNL     1      -8.926  73.806  21.056  1.00  0.00    -0.028 C 
ATOM      8  C   UNL     1      -7.583  73.651  21.124  1.00  0.00    -0.070 CG0
ATOM      9  C   UNL     1      -6.859  73.208  19.878  1.00  0.00     0.039 C 
ATOM     10  G   UNL     1      -6.785  73.883  22.394  1.00  0.00     0.000 G0
ENDBRANCH   6   7
ENDBRANCH   5   6
ENDBRANCH   3   5
ENDBRANCH   1   3
BRANCH   1  11
ATOM     11  C   UNL     1      -7.920  71.524  23.884  1.00  0.00     0.087 C 
BRANCH  11  12
ATOM     12  C   UNL     1      -6.385  71.766  23.951  1.00  0.00     0.066 C 
BRANCH  12  13
ATOM     13  C   UNL     1      -5.955  72.671  22.806  1.00  0.00     0.140 C 
ATOM     14  O   UNL     1      -4.907  72.445  22.217  1.00  0.00    -0.299 OA
BRANCH  13  15
ATOM     15  C   UNL     1      -6.773  73.865  22.393  1.00  0.00     0.106 CG0
ATOM     16  G   UNL     1      -7.576  73.610  21.131  1.00  0.00     0.000 G0
ENDBRANCH  13  15
ENDBRANCH  12  13
BRANCH  12  17
ATOM     17  C   UNL     1      -5.516  70.465  24.002  1.00  0.00    -0.006 C 
ATOM     18  C   UNL     1      -6.313  69.207  23.612  1.00  0.00     0.008 C 
ATOM     19  C   UNL     1      -4.921  70.260  25.408  1.00  0.00     0.008 C 
ENDBRANCH  12  17
ENDBRANCH  11  12
ENDBRANCH   1  11
TORSDOF 1
ENDMDL
MODEL 2
REMARK VINA RESULT:    -3.845      0.908      1.037
REMARK INTER + INTRA:          -5.744
REMARK INTER:                  -5.980
REMARK INTRA:                   0.236
REMARK UNBOUND:                 0.125
REMARK SMILES CC1=CCC[C@H](C)C(=O)C[C@@H](C(C)C)C(=O)C1
REMARK SMILES IDX 8 1 9 2 6 3 7 4 5 5 4 6 3 7 2 8 1 9 10 11 11 12 15 13 16 14
REMARK SMILES IDX 17 15 12 17 13 18 14 19
REMARK H PARENT
REMARK Flexibility Score: 70.00
ROOT
ATOM      1  C   UNL     1      -8.669  72.727  25.350  1.00  0.00     0.136 C 
ATOM      2  O   UNL     1      -8.076  73.095  26.354  1.00  0.00    -0.299 OA
ENDROOT
BRANCH   1   3
ATOM      3  C   UNL     1     -10.042  73.339  25.076  1.00  0.00     0.053 C 
ATOM      4  C   UNL     1     -10.559  73.986  26.369  1.00  0.00     0.016 C 
BRANCH   3   5
ATOM      5  C   UNL     1     -10.131  74.363  23.912  1.00  0.00     0.015 C 
BRANCH   5   6
ATOM      6  C   UNL     1     -10.355  73.727  22.519  1.00  0.00     0.028 C 
BRANCH   6   7
ATOM      7  C   UNL     1      -9.430  74.326  21.485  1.00  0.00    -0.028 C 
ATOM      8  C   UNL     1      -8.213  73.846  21.140  1.00  0.00    -0.070 CG0
ATOM      9  C   UNL     1      -7.409  74.620  20.126  1.00  0.00     0.039 C 
ATOM     10  G   UNL     1      -7.635  72.564  21.711  1.00  0.00     0.000 G0
ENDBRANCH   6   7
ENDBRANCH   5   6
ENDBRANCH   3   5
ENDBRANCH   1   3
BRANCH   1  11
ATOM     11  C   UNL     1      -7.971  71.735  24.441  1.00  0.00     0.087 C 
BRANCH  11  12
ATOM     12  C   UNL     1      -6.518  72.139  24.060  1.00  0.00     0.066 C 
BRANCH  12  13
ATOM     13  C   UNL     1      -6.507  72.790  22.685  1.00  0.00     0.140 C 
ATOM     14  O   UNL     1      -5.594  73.545  22.380  1.00  0.00    -0.299 OA
BRANCH  13  15
ATOM     15  C   UNL     1      -7.614  72.556  21.691  1.00  0.00     0.106 CG0
ATOM     16  G   UNL     1      -8.202  73.851  21.162  1.00  0.00     0.000 G0
ENDBRANCH  13  15
ENDBRANCH  12  13
BRANCH  12  17
ATOM     17  C   UNL     1      -5.470  70.980  24.146  1.00  0.00    -0.006 C 
ATOM     18  C   UNL     1      -6.102  69.594  23.927  1.00  0.00     0.008 C 
ATOM     19  C   UNL     1      -4.757  70.989  25.511  1.00  0.00     0.008 C 
ENDBRANCH  12  17
ENDBRANCH  11  12
ENDBRANCH   1  11
TORSDOF 1
ENDMDL
MODEL 3
REMARK VINA RESULT:    -3.605      1.777      4.161
REMARK INTER + INTRA:          -5.376
REMARK INTER:                  -5.902
REMARK INTRA:                   0.526
REMARK UNBOUND:                 0.125
REMARK SMILES CC1=CCC[C@H](C)C(=O)C[C@@H](C(C)C)C(=O)C1
REMARK SMILES IDX 8 1 9 2 6 3 7 4 5 5 4 6 3 7 2 8 1 9 10 11 11 12 15 13 16 14
REMARK SMILES IDX 17 15 12 17 13 18 14 19
REMARK H PARENT
REMARK Flexibility Score: 70.00
ROOT
ATOM      1  C   UNL     1      -9.557  74.183  24.039  1.00  0.00     0.136 C 
ATOM      2  O   UNL     1     -10.660  73.752  23.736  1.00  0.00    -0.299 OA
ENDROOT
BRANCH   1   3
ATOM      3  C   UNL     1      -9.190  74.207  25.522  1.00  0.00     0.053 C 
ATOM      4  C   UNL     1     -10.441  74.578  26.332  1.00  0.00     0.016 C 
BRANCH   3   5
ATOM      5  C   UNL     1      -8.558  72.915  26.106  1.00  0.00     0.015 C 
BRANCH   5   6
ATOM      6  C   UNL     1      -8.151  71.866  25.044  1.00  0.00     0.028 C 
BRANCH   6   7
ATOM      7  C   UNL     1      -6.664  71.905  24.773  1.00  0.00    -0.028 C 
ATOM      8  C   UNL     1      -6.078  71.776  23.561  1.00  0.00    -0.070 CG0
ATOM      9  C   UNL     1      -4.571  71.781  23.501  1.00  0.00     0.039 C 
ATOM     10  G   UNL     1      -6.863  71.647  22.269  1.00  0.00     0.000 G0
ENDBRANCH   6   7
ENDBRANCH   5   6
ENDBRANCH   3   5
ENDBRANCH   1   3
BRANCH   1  11
ATOM     11  C   UNL     1      -8.633  74.610  22.916  1.00  0.00     0.087 C 
BRANCH  11  12
ATOM     12  C   UNL     1      -8.569  73.604  21.731  1.00  0.00     0.066 C 
BRANCH  12  13
ATOM     13  C   UNL     1      -7.179  72.993  21.647  1.00  0.00     0.140 C 
ATOM     14  O   UNL     1      -6.293  73.584  21.046  1.00  0.00    -0.299 OA
BRANCH  13  15
ATOM     15  C   UNL     1      -6.866  71.654  22.262  1.00  0.00     0.106 CG0
ATOM     16  G   UNL     1      -6.093  71.780  23.562  1.00  0.00     0.000 G0
ENDBRANCH  13  15
ENDBRANCH  12  13
BRANCH  12  17
ATOM     17  C   UNL     1      -9.016  74.188  20.349  1.00  0.00    -0.006 C 
ATOM     18  C   UNL     1      -8.117  75.343  19.877  1.00  0.00     0.008 C 
ATOM     19  C   UNL     1     -10.472  74.687  20.412  1.00  0.00     0.008 C 
ENDBRANCH  12  17
ENDBRANCH  11  12
ENDBRANCH   1  11
TORSDOF 1
ENDMDL
MODEL 4
REMARK VINA RESULT:    -3.506      1.790      4.054
REMARK INTER + INTRA:          -5.225
REMARK INTER:                  -5.394
REMARK INTRA:                   0.169
REMARK UNBOUND:                 0.125
REMARK SMILES CC1=CCC[C@H](C)C(=O)C[C@@H](C(C)C)C(=O)C1
REMARK SMILES IDX 8 1 9 2 6 3 7 4 5 5 4 6 3 7 2 8 1 9 10 11 11 12 15 13 16 14
REMARK SMILES IDX 17 15 12 17 13 18 14 19
REMARK H PARENT
REMARK Flexibility Score: 70.00
ROOT
ATOM      1  C   UNL     1      -9.635  73.908  22.344  1.00  0.00     0.136 C 
ATOM      2  O   UNL     1     -10.218  74.930  22.679  1.00  0.00    -0.299 OA
ENDROOT
BRANCH   1   3
ATOM      3  C   UNL     1      -8.981  73.888  20.964  1.00  0.00     0.053 C 
ATOM      4  C   UNL     1      -9.639  74.966  20.091  1.00  0.00     0.016 C 
BRANCH   3   5
ATOM      5  C   UNL     1      -7.438  74.056  20.920  1.00  0.00     0.015 C 
BRANCH   5   6
ATOM      6  C   UNL     1      -6.655  72.728  20.790  1.00  0.00     0.028 C 
BRANCH   6   7
ATOM      7  C   UNL     1      -5.575  72.620  21.843  1.00  0.00    -0.028 C 
ATOM      8  C   UNL     1      -5.719  72.068  23.070  1.00  0.00    -0.070 CG0
ATOM      9  C   UNL     1      -4.537  72.109  24.006  1.00  0.00     0.039 C 
ATOM     10  G   UNL     1      -7.001  71.401  23.534  1.00  0.00     0.000 G0
ENDBRANCH   6   7
ENDBRANCH   5   6
ENDBRANCH   3   5
ENDBRANCH   1   3
BRANCH   1  11
ATOM     11  C   UNL     1      -9.573  72.771  23.345  1.00  0.00     0.087 C 
BRANCH  11  12
ATOM     12  C   UNL     1      -8.737  73.092  24.616  1.00  0.00     0.066 C 
BRANCH  12  13
ATOM     13  C   UNL     1      -7.593  72.098  24.745  1.00  0.00     0.140 C 
ATOM     14  O   UNL     1      -7.111  71.869  25.846  1.00  0.00    -0.299 OA
BRANCH  13  15
ATOM     15  C   UNL     1      -7.009  71.404  23.543  1.00  0.00     0.106 CG0
ATOM     16  G   UNL     1      -5.730  72.060  23.060  1.00  0.00     0.000 G0
ENDBRANCH  13  15
ENDBRANCH  12  13
BRANCH  12  17
ATOM     17  C   UNL     1      -9.565  73.179  25.942  1.00  0.00    -0.006 C 
ATOM     18  C   UNL     1     -11.054  73.474  25.690  1.00  0.00     0.008 C 
ATOM     19  C   UNL     1      -8.994  74.267  26.872  1.00  0.00     0.008 C 
ENDBRANCH  12  17
ENDBRANCH  11  12
ENDBRANCH   1  11
TORSDOF 1
ENDMDL
MODEL 5
REMARK VINA RESULT:    -3.167      3.098      5.397
REMARK INTER + INTRA:          -4.709
REMARK INTER:                  -4.419
REMARK INTRA:                  -0.290
REMARK UNBOUND:                 0.125
REMARK SMILES CC1=CCC[C@H](C)C(=O)C[C@@H](C(C)C)C(=O)C1
REMARK SMILES IDX 8 1 9 2 6 3 7 4 5 5 4 6 3 7 2 8 1 9 10 11 11 12 15 13 16 14
REMARK SMILES IDX 17 15 12 17 13 18 14 19
REMARK H PARENT
REMARK Flexibility Score: 70.00
ROOT
ATOM      1  C   UNL     1      -4.524  68.166  26.137  1.00  0.00     0.136 C 
ATOM      2  O   UNL     1      -3.682  67.413  26.605  1.00  0.00    -0.299 OA
ENDROOT
BRANCH   1   3
ATOM      3  C   UNL     1      -4.494  69.626  26.584  1.00  0.00     0.053 C 
ATOM      4  C   UNL     1      -4.291  69.672  28.105  1.00  0.00     0.016 C 
BRANCH   3   5
ATOM      5  C   UNL     1      -3.451  70.547  25.894  1.00  0.00     0.015 C 
BRANCH   5   6
ATOM      6  C   UNL     1      -3.974  71.266  24.627  1.00  0.00     0.028 C 
BRANCH   6   7
ATOM      7  C   UNL     1      -5.426  71.660  24.777  1.00  0.00    -0.028 C 
ATOM      8  C   UNL     1      -6.435  71.286  23.956  1.00  0.00    -0.070 CG0
ATOM      9  C   UNL     1      -7.812  71.833  24.236  1.00  0.00     0.039 C 
ATOM     10  G   UNL     1      -6.246  70.336  22.789  1.00  0.00     0.000 G0
ENDBRANCH   6   7
ENDBRANCH   5   6
ENDBRANCH   3   5
ENDBRANCH   1   3
BRANCH   1  11
ATOM     11  C   UNL     1      -5.492  67.596  25.119  1.00  0.00     0.087 C 
BRANCH  11  12
ATOM     12  C   UNL     1      -5.225  68.064  23.660  1.00  0.00     0.066 C 
BRANCH  12  13
ATOM     13  C   UNL     1      -6.406  68.879  23.155  1.00  0.00     0.140 C 
ATOM     14  O   UNL     1      -7.500  68.346  23.030  1.00  0.00    -0.299 OA
BRANCH  13  15
ATOM     15  C   UNL     1      -6.260  70.327  22.770  1.00  0.00     0.106 CG0
ATOM     16  G   UNL     1      -6.437  71.261  23.953  1.00  0.00     0.000 G0
ENDBRANCH  13  15
ENDBRANCH  12  13
BRANCH  12  17
ATOM     17  C   UNL     1      -4.858  66.917  22.659  1.00  0.00    -0.006 C 
ATOM     18  C   UNL     1      -3.603  66.137  23.089  1.00  0.00     0.008 C 
ATOM     19  C   UNL     1      -4.631  67.480  21.243  1.00  0.00     0.008 C 
ENDBRANCH  12  17
ENDBRANCH  11  12
ENDBRANCH   1  11
TORSDOF 1
ENDMDL
MODEL 6
REMARK VINA RESULT:    -3.095     12.184     14.033
REMARK INTER + INTRA:          -4.599
REMARK INTER:                  -4.469
REMARK INTRA:                  -0.130
REMARK UNBOUND:                 0.125
REMARK SMILES CC1=CCC[C@H](C)C(=O)C[C@@H](C(C)C)C(=O)C1
REMARK SMILES IDX 8 1 9 2 6 3 7 4 5 5 4 6 3 7 2 8 1 9 10 11 11 12 15 13 16 14
REMARK SMILES IDX 17 15 12 17 13 18 14 19
REMARK H PARENT
REMARK Flexibility Score: 70.00
ROOT
ATOM      1  C   UNL     1      -6.672  69.444  37.090  1.00  0.00     0.136 C 
ATOM      2  O   UNL     1      -6.465  70.645  36.986  1.00  0.00    -0.299 OA
ENDROOT
BRANCH   1   3
ATOM      3  C   UNL     1      -8.065  68.933  36.728  1.00  0.00     0.053 C 
ATOM      4  C   UNL     1      -9.090  70.034  37.040  1.00  0.00     0.016 C 
BRANCH   3   5
ATOM      5  C   UNL     1      -8.270  68.431  35.273  1.00  0.00     0.015 C 
BRANCH   5   6
ATOM      6  C   UNL     1      -7.465  67.158  34.918  1.00  0.00     0.028 C 
BRANCH   6   7
ATOM      7  C   UNL     1      -6.395  67.451  33.891  1.00  0.00    -0.028 C 
ATOM      8  C   UNL     1      -5.060  67.379  34.097  1.00  0.00    -0.070 CG0
ATOM      9  C   UNL     1      -4.148  67.770  32.962  1.00  0.00     0.039 C 
ATOM     10  G   UNL     1      -4.446  66.910  35.404  1.00  0.00     0.000 G0
ENDBRANCH   6   7
ENDBRANCH   5   6
ENDBRANCH   3   5
ENDBRANCH   1   3
BRANCH   1  11
ATOM     11  C   UNL     1      -5.515  68.564  37.520  1.00  0.00     0.087 C 
BRANCH  11  12
ATOM     12  C   UNL     1      -4.133  69.024  36.976  1.00  0.00     0.066 C 
BRANCH  12  13
ATOM     13  C   UNL     1      -3.558  67.955  36.059  1.00  0.00     0.140 C 
ATOM     14  O   UNL     1      -2.359  67.947  35.817  1.00  0.00    -0.299 OA
BRANCH  13  15
ATOM     15  C   UNL     1      -4.433  66.916  35.411  1.00  0.00     0.106 CG0
ATOM     16  G   UNL     1      -5.025  67.394  34.098  1.00  0.00     0.000 G0
ENDBRANCH  13  15
ENDBRANCH  12  13
BRANCH  12  17
ATOM     17  C   UNL     1      -3.101  69.443  38.076  1.00  0.00    -0.006 C 
ATOM     18  C   UNL     1      -3.688  69.368  39.497  1.00  0.00     0.008 C 
ATOM     19  C   UNL     1      -2.587  70.874  37.826  1.00  0.00     0.008 C 
ENDBRANCH  12  17
ENDBRANCH  11  12
ENDBRANCH   1  11
TORSDOF 1
ENDMDL
MODEL 7
REMARK VINA RESULT:    -3.079     12.902     14.580
REMARK INTER + INTRA:          -4.575
REMARK INTER:                  -4.403
REMARK INTRA:                  -0.172
REMARK UNBOUND:                 0.125
REMARK SMILES CC1=CCC[C@H](C)C(=O)C[C@@H](C(C)C)C(=O)C1
REMARK SMILES IDX 8 1 9 2 6 3 7 4 5 5 4 6 3 7 2 8 1 9 10 11 11 12 15 13 16 14
REMARK SMILES IDX 17 15 12 17 13 18 14 19
REMARK H PARENT
REMARK Flexibility Score: 70.00
ROOT
ATOM      1  C   UNL     1      -4.579  69.876  37.334  1.00  0.00     0.136 C 
ATOM      2  O   UNL     1      -5.179  70.047  38.386  1.00  0.00    -0.299 OA
ENDROOT
BRANCH   1   3
ATOM      3  C   UNL     1      -3.068  69.668  37.408  1.00  0.00     0.053 C 
ATOM      4  C   UNL     1      -2.445  70.847  38.170  1.00  0.00     0.016 C 
BRANCH   3   5
ATOM      5  C   UNL     1      -2.577  68.332  38.029  1.00  0.00     0.015 C 
BRANCH   5   6
ATOM      6  C   UNL     1      -3.144  67.064  37.347  1.00  0.00     0.028 C 
BRANCH   6   7
ATOM      7  C   UNL     1      -2.767  67.011  35.883  1.00  0.00    -0.028 C 
ATOM      8  C   UNL     1      -3.607  66.731  34.860  1.00  0.00    -0.070 CG0
ATOM      9  C   UNL     1      -3.028  66.665  33.469  1.00  0.00     0.039 C 
ATOM     10  G   UNL     1      -5.095  66.500  35.048  1.00  0.00     0.000 G0
ENDBRANCH   6   7
ENDBRANCH   5   6
ENDBRANCH   3   5
ENDBRANCH   1   3
BRANCH   1  11
ATOM     11  C   UNL     1      -5.393  69.838  36.056  1.00  0.00     0.087 C 
BRANCH  11  12
ATOM     12  C   UNL     1      -6.360  68.623  35.957  1.00  0.00     0.066 C 
BRANCH  12  13
ATOM     13  C   UNL     1      -5.935  67.717  34.812  1.00  0.00     0.140 C 
ATOM     14  O   UNL     1      -6.297  67.972  33.672  1.00  0.00    -0.299 OA
BRANCH  13  15
ATOM     15  C   UNL     1      -5.100  66.486  35.047  1.00  0.00     0.106 CG0
ATOM     16  G   UNL     1      -3.617  66.746  34.853  1.00  0.00     0.000 G0
ENDBRANCH  13  15
ENDBRANCH  12  13
BRANCH  12  17
ATOM     17  C   UNL     1      -7.876  68.998  35.851  1.00  0.00    -0.006 C 
ATOM     18  C   UNL     1      -8.356  69.862  37.030  1.00  0.00     0.008 C 
ATOM     19  C   UNL     1      -8.748  67.730  35.778  1.00  0.00     0.008 C 
ENDBRANCH  12  17
ENDBRANCH  11  12
ENDBRANCH   1  11
TORSDOF 1
ENDMDL
MODEL 8
REMARK VINA RESULT:    -3.077     10.873     13.346
REMARK INTER + INTRA:          -4.571
REMARK INTER:                  -4.827
REMARK INTRA:                   0.255
REMARK UNBOUND:                 0.125
REMARK SMILES CC1=CCC[C@H](C)C(=O)C[C@@H](C(C)C)C(=O)C1
REMARK SMILES IDX 8 1 9 2 6 3 7 4 5 5 4 6 3 7 2 8 1 9 10 11 11 12 15 13 16 14
REMARK SMILES IDX 17 15 12 17 13 18 14 19
REMARK H PARENT
REMARK Flexibility Score: 70.00
ROOT
ATOM      1  C   UNL     1      -7.618  67.968  35.282  1.00  0.00     0.136 C 
ATOM      2  O   UNL     1      -7.925  66.849  35.669  1.00  0.00    -0.299 OA
ENDROOT
BRANCH   1   3
ATOM      3  C   UNL     1      -8.011  69.152  36.163  1.00  0.00     0.053 C 
ATOM      4  C   UNL     1      -9.376  68.859  36.803  1.00  0.00     0.016 C 
BRANCH   3   5
ATOM      5  C   UNL     1      -7.001  69.570  37.265  1.00  0.00     0.015 C 
BRANCH   5   6
ATOM      6  C   UNL     1      -5.714  70.242  36.730  1.00  0.00     0.028 C 
BRANCH   6   7
ATOM      7  C   UNL     1      -4.488  69.415  37.045  1.00  0.00    -0.028 C 
ATOM      8  C   UNL     1      -3.792  68.665  36.159  1.00  0.00    -0.070 CG0
ATOM      9  C   UNL     1      -2.628  67.859  36.677  1.00  0.00     0.039 C 
ATOM     10  G   UNL     1      -4.118  68.615  34.678  1.00  0.00     0.000 G0
ENDBRANCH   6   7
ENDBRANCH   5   6
ENDBRANCH   3   5
ENDBRANCH   1   3
BRANCH   1  11
ATOM     11  C   UNL     1      -6.832  68.078  33.990  1.00  0.00     0.087 C 
BRANCH  11  12
ATOM     12  C   UNL     1      -5.873  66.881  33.729  1.00  0.00     0.066 C 
BRANCH  12  13
ATOM     13  C   UNL     1      -4.470  67.234  34.197  1.00  0.00     0.140 C 
ATOM     14  O   UNL     1      -3.601  66.372  34.208  1.00  0.00    -0.299 OA
BRANCH  13  15
ATOM     15  C   UNL     1      -4.122  68.617  34.680  1.00  0.00     0.106 CG0
ATOM     16  G   UNL     1      -3.779  68.645  36.158  1.00  0.00     0.000 G0
ENDBRANCH  13  15
ENDBRANCH  12  13
BRANCH  12  17
ATOM     17  C   UNL     1      -5.864  66.357  32.254  1.00  0.00    -0.006 C 
ATOM     18  C   UNL     1      -6.375  67.406  31.251  1.00  0.00     0.008 C 
ATOM     19  C   UNL     1      -6.723  65.084  32.122  1.00  0.00     0.008 C 
ENDBRANCH  12  17
ENDBRANCH  11  12
ENDBRANCH   1  11
TORSDOF 1
ENDMDL
MODEL 9
REMARK VINA RESULT:    -2.976      4.239      7.165
REMARK INTER + INTRA:          -4.417
REMARK INTER:                  -4.209
REMARK INTRA:                  -0.208
REMARK UNBOUND:                 0.125
REMARK SMILES CC1=CCC[C@H](C)C(=O)C[C@@H](C(C)C)C(=O)C1
REMARK SMILES IDX 8 1 9 2 6 3 7 4 5 5 4 6 3 7 2 8 1 9 10 11 11 12 15 13 16 14
REMARK SMILES IDX 17 15 12 17 13 18 14 19
REMARK H PARENT
REMARK Flexibility Score: 70.00
ROOT
ATOM      1  C   UNL     1      -4.404  69.350  27.497  1.00  0.00     0.136 C 
ATOM      2  O   UNL     1      -5.286  70.037  27.992  1.00  0.00    -0.299 OA
ENDROOT
BRANCH   1   3
ATOM      3  C   UNL     1      -3.770  68.274  28.376  1.00  0.00     0.053 C 
ATOM      4  C   UNL     1      -3.737  68.778  29.826  1.00  0.00     0.016 C 
BRANCH   3   5
ATOM      5  C   UNL     1      -4.418  66.864  28.332  1.00  0.00     0.015 C 
BRANCH   5   6
ATOM      6  C   UNL     1      -4.004  66.009  27.111  1.00  0.00     0.028 C 
BRANCH   6   7
ATOM      7  C   UNL     1      -5.193  65.689  26.234  1.00  0.00    -0.028 C 
ATOM      8  C   UNL     1      -5.450  66.233  25.021  1.00  0.00    -0.070 CG0
ATOM      9  C   UNL     1      -6.724  65.830  24.322  1.00  0.00     0.039 C 
ATOM     10  G   UNL     1      -4.511  67.206  24.333  1.00  0.00     0.000 G0
ENDBRANCH   6   7
ENDBRANCH   5   6
ENDBRANCH   3   5
ENDBRANCH   1   3
BRANCH   1  11
ATOM     11  C   UNL     1      -4.052  69.593  26.043  1.00  0.00     0.087 C 
BRANCH  11  12
ATOM     12  C   UNL     1      -5.280  69.615  25.089  1.00  0.00     0.066 C 
BRANCH  12  13
ATOM     13  C   UNL     1      -5.123  68.542  24.022  1.00  0.00     0.140 C 
ATOM     14  O   UNL     1      -5.540  68.749  22.891  1.00  0.00    -0.299 OA
BRANCH  13  15
ATOM     15  C   UNL     1      -4.492  67.210  24.328  1.00  0.00     0.106 CG0
ATOM     16  G   UNL     1      -5.453  66.258  25.016  1.00  0.00     0.000 G0
ENDBRANCH  13  15
ENDBRANCH  12  13
BRANCH  12  17
ATOM     17  C   UNL     1      -5.591  71.009  24.450  1.00  0.00    -0.006 C 
ATOM     18  C   UNL     1      -4.319  71.833  24.181  1.00  0.00     0.008 C 
ATOM     19  C   UNL     1      -6.529  71.828  25.356  1.00  0.00     0.008 C 
ENDBRANCH  12  17
ENDBRANCH  11  12
ENDBRANCH   1  11
TORSDOF 1
ENDMDL
