MODEL 1
REMARK VINA RESULT:    -3.676      0.000      0.000
REMARK INTER + INTRA:          -4.326
REMARK INTER:                  -4.321
REMARK INTRA:                  -0.005
REMARK UNBOUND:                -0.005
REMARK SMILES CCCCC(=O)[O-]
REMARK SMILES IDX 4 1 5 2 6 3 7 4 3 5 2 6 1 7
REMARK H PARENT
REMARK Flexibility Score: inf
ROOT
ATOM      1  C   UNL     1      38.897  82.628  23.899  1.00  0.00     0.053 C 
ENDROOT
BRANCH   1   2
ATOM      2  C   UNL     1      37.451  82.560  23.526  1.00  0.00     0.041 C 
ATOM      3  O   UNL     1      36.732  81.615  23.947  1.00  0.00    -0.550 OA
ATOM      4  O   UNL     1      36.906  83.511  22.672  1.00  0.00    -0.550 OA
ENDBRANCH   1   2
BRANCH   1   5
ATOM      5  C   UNL     1      39.095  82.212  25.359  1.00  0.00     0.006 C 
BRANCH   5   6
ATOM      6  C   UNL     1      39.648  80.786  25.454  1.00  0.00    -0.003 C 
ATOM      7  C   UNL     1      41.173  80.787  25.494  1.00  0.00     0.004 C 
ENDBRANCH   5   6
ENDBRANCH   1   5
TORSDOF 3
ENDMDL
MODEL 2
REMARK VINA RESULT:    -3.097     15.643     16.529
REMARK INTER + INTRA:          -3.645
REMARK INTER:                  -3.544
REMARK INTRA:                  -0.100
REMARK UNBOUND:                -0.005
REMARK SMILES CCCCC(=O)[O-]
REMARK SMILES IDX 4 1 5 2 6 3 7 4 3 5 2 6 1 7
REMARK H PARENT
REMARK Flexibility Score: inf
ROOT
ATOM      1  C   UNL     1      34.969  76.201   8.850  1.00  0.00     0.053 C 
ENDROOT
BRANCH   1   2
ATOM      2  C   UNL     1      36.053  75.481   8.113  1.00  0.00     0.041 C 
ATOM      3  O   UNL     1      35.862  75.088   6.931  1.00  0.00    -0.550 OA
ATOM      4  O   UNL     1      37.257  75.198   8.746  1.00  0.00    -0.550 OA
ENDBRANCH   1   2
BRANCH   1   5
ATOM      5  C   UNL     1      35.125  76.006  10.360  1.00  0.00     0.006 C 
BRANCH   5   6
ATOM      6  C   UNL     1      35.224  77.354  11.082  1.00  0.00    -0.003 C 
ATOM      7  C   UNL     1      36.664  77.663  11.479  1.00  0.00     0.004 C 
ENDBRANCH   5   6
ENDBRANCH   1   5
TORSDOF 3
ENDMDL
MODEL 3
REMARK VINA RESULT:    -3.084     15.027     16.032
REMARK INTER + INTRA:          -3.630
REMARK INTER:                  -3.590
REMARK INTRA:                  -0.039
REMARK UNBOUND:                -0.005
REMARK SMILES CCCCC(=O)[O-]
REMARK SMILES IDX 4 1 5 2 6 3 7 4 3 5 2 6 1 7
REMARK H PARENT
REMARK Flexibility Score: inf
ROOT
ATOM      1  C   UNL     1      35.807  76.270  10.073  1.00  0.00     0.053 C 
ENDROOT
BRANCH   1   2
ATOM      2  C   UNL     1      35.796  77.307  11.150  1.00  0.00     0.041 C 
ATOM      3  O   UNL     1      36.880  77.743  11.620  1.00  0.00    -0.550 OA
ATOM      4  O   UNL     1      34.589  77.759  11.669  1.00  0.00    -0.550 OA
ENDBRANCH   1   2
BRANCH   1   5
ATOM      5  C   UNL     1      34.662  76.508   9.085  1.00  0.00     0.006 C 
BRANCH   5   6
ATOM      6  C   UNL     1      34.945  75.830   7.741  1.00  0.00    -0.003 C 
ATOM      7  C   UNL     1      36.308  75.145   7.745  1.00  0.00     0.004 C 
ENDBRANCH   5   6
ENDBRANCH   1   5
TORSDOF 3
ENDMDL
MODEL 4
REMARK VINA RESULT:    -3.067     16.146     17.029
REMARK INTER + INTRA:          -3.610
REMARK INTER:                  -3.508
REMARK INTRA:                  -0.102
REMARK UNBOUND:                -0.005
REMARK SMILES CCCCC(=O)[O-]
REMARK SMILES IDX 4 1 5 2 6 3 7 4 3 5 2 6 1 7
REMARK H PARENT
REMARK Flexibility Score: inf
ROOT
ATOM      1  C   UNL     1      35.036  75.968   8.225  1.00  0.00     0.053 C 
ENDROOT
BRANCH   1   2
ATOM      2  C   UNL     1      36.243  75.214   7.764  1.00  0.00     0.041 C 
ATOM      3  O   UNL     1      37.253  75.117   8.510  1.00  0.00    -0.550 OA
ATOM      4  O   UNL     1      36.273  74.659   6.491  1.00  0.00    -0.550 OA
ENDBRANCH   1   2
BRANCH   1   5
ATOM      5  C   UNL     1      34.891  75.871   9.746  1.00  0.00     0.006 C 
BRANCH   5   6
ATOM      6  C   UNL     1      35.032  77.250  10.401  1.00  0.00    -0.003 C 
ATOM      7  C   UNL     1      36.259  77.307  11.305  1.00  0.00     0.004 C 
ENDBRANCH   5   6
ENDBRANCH   1   5
TORSDOF 3
ENDMDL
MODEL 5
REMARK VINA RESULT:    -3.067     15.061     16.022
REMARK INTER + INTRA:          -3.609
REMARK INTER:                  -3.566
REMARK INTRA:                  -0.043
REMARK UNBOUND:                -0.005
REMARK SMILES CCCCC(=O)[O-]
REMARK SMILES IDX 4 1 5 2 6 3 7 4 3 5 2 6 1 7
REMARK H PARENT
REMARK Flexibility Score: inf
ROOT
ATOM      1  C   UNL     1      35.852  76.114  10.163  1.00  0.00     0.053 C 
ENDROOT
BRANCH   1   2
ATOM      2  C   UNL     1      35.704  77.266  11.106  1.00  0.00     0.041 C 
ATOM      3  O   UNL     1      34.572  77.781  11.303  1.00  0.00    -0.550 OA
ATOM      4  O   UNL     1      36.823  77.803  11.731  1.00  0.00    -0.550 OA
ENDBRANCH   1   2
BRANCH   1   5
ATOM      5  C   UNL     1      34.934  76.291   8.951  1.00  0.00     0.006 C 
BRANCH   5   6
ATOM      6  C   UNL     1      35.444  75.484   7.752  1.00  0.00    -0.003 C 
ATOM      7  C   UNL     1      36.891  75.048   7.956  1.00  0.00     0.004 C 
ENDBRANCH   5   6
ENDBRANCH   1   5
TORSDOF 3
ENDMDL
MODEL 6
REMARK VINA RESULT:    -2.933     14.714     15.876
REMARK INTER + INTRA:          -3.453
REMARK INTER:                  -3.354
REMARK INTRA:                  -0.098
REMARK UNBOUND:                -0.005
REMARK SMILES CCCCC(=O)[O-]
REMARK SMILES IDX 4 1 5 2 6 3 7 4 3 5 2 6 1 7
REMARK H PARENT
REMARK Flexibility Score: inf
ROOT
ATOM      1  C   UNL     1      34.536  78.005  10.891  1.00  0.00     0.053 C 
ENDROOT
BRANCH   1   2
ATOM      2  C   UNL     1      35.772  77.215  11.179  1.00  0.00     0.041 C 
ATOM      3  O   UNL     1      36.794  77.785  11.644  1.00  0.00    -0.550 OA
ATOM      4  O   UNL     1      35.815  75.857  10.888  1.00  0.00    -0.550 OA
ENDBRANCH   1   2
BRANCH   1   5
ATOM      5  C   UNL     1      33.601  77.223   9.965  1.00  0.00     0.006 C 
BRANCH   5   6
ATOM      6  C   UNL     1      33.906  77.525   8.494  1.00  0.00    -0.003 C 
ATOM      7  C   UNL     1      34.304  76.260   7.741  1.00  0.00     0.004 C 
ENDBRANCH   5   6
ENDBRANCH   1   5
TORSDOF 3
ENDMDL
MODEL 7
REMARK VINA RESULT:    -2.921      8.494      9.388
REMARK INTER + INTRA:          -3.438
REMARK INTER:                  -3.409
REMARK INTRA:                  -0.029
REMARK UNBOUND:                -0.005
REMARK SMILES CCCCC(=O)[O-]
REMARK SMILES IDX 4 1 5 2 6 3 7 4 3 5 2 6 1 7
REMARK H PARENT
REMARK Flexibility Score: inf
ROOT
ATOM      1  C   UNL     1      31.686  81.689  17.846  1.00  0.00     0.053 C 
ENDROOT
BRANCH   1   2
ATOM      2  C   UNL     1      32.553  81.716  16.628  1.00  0.00     0.041 C 
ATOM      3  O   UNL     1      33.147  82.775  16.296  1.00  0.00    -0.550 OA
ATOM      4  O   UNL     1      32.667  80.584  15.830  1.00  0.00    -0.550 OA
ENDBRANCH   1   2
BRANCH   1   5
ATOM      5  C   UNL     1      31.924  80.407  18.648  1.00  0.00     0.006 C 
BRANCH   5   6
ATOM      6  C   UNL     1      32.180  80.722  20.126  1.00  0.00    -0.003 C 
ATOM      7  C   UNL     1      31.111  81.655  20.685  1.00  0.00     0.004 C 
ENDBRANCH   5   6
ENDBRANCH   1   5
TORSDOF 3
ENDMDL
MODEL 8
REMARK VINA RESULT:    -2.857     14.016     14.932
REMARK INTER + INTRA:          -3.363
REMARK INTER:                  -3.333
REMARK INTRA:                  -0.031
REMARK UNBOUND:                -0.005
REMARK SMILES CCCCC(=O)[O-]
REMARK SMILES IDX 4 1 5 2 6 3 7 4 3 5 2 6 1 7
REMARK H PARENT
REMARK Flexibility Score: inf
ROOT
ATOM      1  C   UNL     1      34.405  77.090  11.152  1.00  0.00     0.053 C 
ENDROOT
BRANCH   1   2
ATOM      2  C   UNL     1      35.892  77.001  11.027  1.00  0.00     0.041 C 
ATOM      3  O   UNL     1      36.628  77.842  11.606  1.00  0.00    -0.550 OA
ATOM      4  O   UNL     1      36.467  76.018  10.229  1.00  0.00    -0.550 OA
ENDBRANCH   1   2
BRANCH   1   5
ATOM      5  C   UNL     1      33.892  78.400  10.550  1.00  0.00     0.006 C 
BRANCH   5   6
ATOM      6  C   UNL     1      32.436  78.659  10.953  1.00  0.00    -0.003 C 
ATOM      7  C   UNL     1      32.301  78.804  12.466  1.00  0.00     0.004 C 
ENDBRANCH   5   6
ENDBRANCH   1   5
TORSDOF 3
ENDMDL
MODEL 9
REMARK VINA RESULT:    -2.803      9.866     11.201
REMARK INTER + INTRA:          -3.300
REMARK INTER:                  -3.262
REMARK INTRA:                  -0.038
REMARK UNBOUND:                -0.005
REMARK SMILES CCCCC(=O)[O-]
REMARK SMILES IDX 4 1 5 2 6 3 7 4 3 5 2 6 1 7
REMARK H PARENT
REMARK Flexibility Score: inf
ROOT
ATOM      1  C   UNL     1      32.443  80.503  15.928  1.00  0.00     0.053 C 
ENDROOT
BRANCH   1   2
ATOM      2  C   UNL     1      32.459  81.803  16.666  1.00  0.00     0.041 C 
ATOM      3  O   UNL     1      32.006  81.871  17.840  1.00  0.00    -0.550 OA
ATOM      4  O   UNL     1      32.927  82.953  16.042  1.00  0.00    -0.550 OA
ENDBRANCH   1   2
BRANCH   1   5
ATOM      5  C   UNL     1      31.443  80.554  14.771  1.00  0.00     0.006 C 
BRANCH   5   6
ATOM      6  C   UNL     1      31.694  79.415  13.776  1.00  0.00    -0.003 C 
ATOM      7  C   UNL     1      32.845  78.526  14.235  1.00  0.00     0.004 C 
ENDBRANCH   5   6
ENDBRANCH   1   5
TORSDOF 3
ENDMDL
