MODEL 1
REMARK VINA RESULT:    -3.577      0.000      0.000
REMARK INTER + INTRA:          -4.226
REMARK INTER:                  -4.205
REMARK INTRA:                  -0.021
REMARK UNBOUND:                -0.021
REMARK SMILES CCCCC(=O)[O-]
REMARK SMILES IDX 4 1 5 2 6 3 7 4 3 5 2 6 1 7
REMARK H PARENT
REMARK Flexibility Score: inf
ROOT
ATOM      1  C   UNL     1      36.723  24.869 223.214  1.00  0.00     0.053 C 
ENDROOT
BRANCH   1   2
ATOM      2  C   UNL     1      36.248  24.759 224.630  1.00  0.00     0.041 C 
ATOM      3  O   UNL     1      36.243  23.644 225.214  1.00  0.00    -0.550 OA
ATOM      4  O   UNL     1      35.778  25.885 225.295  1.00  0.00    -0.550 OA
ENDBRANCH   1   2
BRANCH   1   5
ATOM      5  C   UNL     1      35.977  23.900 222.288  1.00  0.00     0.006 C 
BRANCH   5   6
ATOM      6  C   UNL     1      36.751  23.624 220.990  1.00  0.00    -0.003 C 
ATOM      7  C   UNL     1      35.956  24.078 219.769  1.00  0.00     0.004 C 
ENDBRANCH   5   6
ENDBRANCH   1   5
TORSDOF 3
ENDMDL
MODEL 2
REMARK VINA RESULT:    -3.461      1.028      1.102
REMARK INTER + INTRA:          -4.089
REMARK INTER:                  -4.050
REMARK INTRA:                  -0.039
REMARK UNBOUND:                -0.021
REMARK SMILES CCCCC(=O)[O-]
REMARK SMILES IDX 4 1 5 2 6 3 7 4 3 5 2 6 1 7
REMARK H PARENT
REMARK Flexibility Score: inf
ROOT
ATOM      1  C   UNL     1      36.481  23.608 223.140  1.00  0.00     0.053 C 
ENDROOT
BRANCH   1   2
ATOM      2  C   UNL     1      36.234  24.802 224.010  1.00  0.00     0.041 C 
ATOM      3  O   UNL     1      35.369  24.756 224.923  1.00  0.00    -0.550 OA
ATOM      4  O   UNL     1      36.938  25.980 223.789  1.00  0.00    -0.550 OA
ENDBRANCH   1   2
BRANCH   1   5
ATOM      5  C   UNL     1      35.805  23.753 221.771  1.00  0.00     0.006 C 
BRANCH   5   6
ATOM      6  C   UNL     1      36.819  23.749 220.618  1.00  0.00    -0.003 C 
ATOM      7  C   UNL     1      36.135  24.026 219.283  1.00  0.00     0.004 C 
ENDBRANCH   5   6
ENDBRANCH   1   5
TORSDOF 3
ENDMDL
MODEL 3
REMARK VINA RESULT:    -3.357      1.197      1.592
REMARK INTER + INTRA:          -3.967
REMARK INTER:                  -3.893
REMARK INTRA:                  -0.074
REMARK UNBOUND:                -0.021
REMARK SMILES CCCCC(=O)[O-]
REMARK SMILES IDX 4 1 5 2 6 3 7 4 3 5 2 6 1 7
REMARK H PARENT
REMARK Flexibility Score: inf
ROOT
ATOM      1  C   UNL     1      36.559  23.851 224.704  1.00  0.00     0.053 C 
ENDROOT
BRANCH   1   2
ATOM      2  C   UNL     1      36.247  25.293 224.963  1.00  0.00     0.041 C 
ATOM      3  O   UNL     1      37.083  26.187 224.666  1.00  0.00    -0.550 OA
ATOM      4  O   UNL     1      35.046  25.648 225.565  1.00  0.00    -0.550 OA
ENDBRANCH   1   2
BRANCH   1   5
ATOM      5  C   UNL     1      36.994  23.616 223.253  1.00  0.00     0.006 C 
BRANCH   5   6
ATOM      6  C   UNL     1      35.802  23.592 222.284  1.00  0.00    -0.003 C 
ATOM      7  C   UNL     1      36.253  23.860 220.851  1.00  0.00     0.004 C 
ENDBRANCH   5   6
ENDBRANCH   1   5
TORSDOF 3
ENDMDL
MODEL 4
REMARK VINA RESULT:    -3.300      2.390      3.142
REMARK INTER + INTRA:          -3.900
REMARK INTER:                  -3.852
REMARK INTRA:                  -0.048
REMARK UNBOUND:                -0.021
REMARK SMILES CCCCC(=O)[O-]
REMARK SMILES IDX 4 1 5 2 6 3 7 4 3 5 2 6 1 7
REMARK H PARENT
REMARK Flexibility Score: inf
ROOT
ATOM      1  C   UNL     1      37.348  25.571 223.835  1.00  0.00     0.053 C 
ENDROOT
BRANCH   1   2
ATOM      2  C   UNL     1      36.362  25.124 224.870  1.00  0.00     0.041 C 
ATOM      3  O   UNL     1      35.644  25.967 225.471  1.00  0.00    -0.550 OA
ATOM      4  O   UNL     1      36.258  23.777 225.195  1.00  0.00    -0.550 OA
ENDBRANCH   1   2
BRANCH   1   5
ATOM      5  C   UNL     1      38.758  25.045 224.130  1.00  0.00     0.006 C 
BRANCH   5   6
ATOM      6  C   UNL     1      39.190  23.954 223.140  1.00  0.00    -0.003 C 
ATOM      7  C   UNL     1      40.706  23.779 223.141  1.00  0.00     0.004 C 
ENDBRANCH   5   6
ENDBRANCH   1   5
TORSDOF 3
ENDMDL
MODEL 5
REMARK VINA RESULT:    -3.140      2.603      3.976
REMARK INTER + INTRA:          -3.711
REMARK INTER:                  -3.600
REMARK INTRA:                  -0.112
REMARK UNBOUND:                -0.021
REMARK SMILES CCCCC(=O)[O-]
REMARK SMILES IDX 4 1 5 2 6 3 7 4 3 5 2 6 1 7
REMARK H PARENT
REMARK Flexibility Score: inf
ROOT
ATOM      1  C   UNL     1      37.434  25.644 224.051  1.00  0.00     0.053 C 
ENDROOT
BRANCH   1   2
ATOM      2  C   UNL     1      36.325  25.112 224.906  1.00  0.00     0.041 C 
ATOM      3  O   UNL     1      36.156  23.870 225.027  1.00  0.00    -0.550 OA
ATOM      4  O   UNL     1      35.457  25.989 225.545  1.00  0.00    -0.550 OA
ENDBRANCH   1   2
BRANCH   1   5
ATOM      5  C   UNL     1      38.802  25.116 224.501  1.00  0.00     0.006 C 
BRANCH   5   6
ATOM      6  C   UNL     1      39.157  25.562 225.927  1.00  0.00    -0.003 C 
ATOM      7  C   UNL     1      39.577  27.028 225.957  1.00  0.00     0.004 C 
ENDBRANCH   5   6
ENDBRANCH   1   5
TORSDOF 3
ENDMDL
MODEL 6
REMARK VINA RESULT:    -3.070      2.458      3.853
REMARK INTER + INTRA:          -3.629
REMARK INTER:                  -3.524
REMARK INTRA:                  -0.105
REMARK UNBOUND:                -0.021
REMARK SMILES CCCCC(=O)[O-]
REMARK SMILES IDX 4 1 5 2 6 3 7 4 3 5 2 6 1 7
REMARK H PARENT
REMARK Flexibility Score: inf
ROOT
ATOM      1  C   UNL     1      37.764  24.519 223.804  1.00  0.00     0.053 C 
ENDROOT
BRANCH   1   2
ATOM      2  C   UNL     1      36.495  23.968 224.377  1.00  0.00     0.041 C 
ATOM      3  O   UNL     1      35.402  24.130 223.773  1.00  0.00    -0.550 OA
ATOM      4  O   UNL     1      36.514  23.303 225.596  1.00  0.00    -0.550 OA
ENDBRANCH   1   2
BRANCH   1   5
ATOM      5  C   UNL     1      37.950  26.000 224.155  1.00  0.00     0.006 C 
BRANCH   5   6
ATOM      6  C   UNL     1      38.852  26.198 225.382  1.00  0.00    -0.003 C 
ATOM      7  C   UNL     1      39.934  25.125 225.448  1.00  0.00     0.004 C 
ENDBRANCH   5   6
ENDBRANCH   1   5
TORSDOF 3
ENDMDL
MODEL 7
REMARK VINA RESULT:    -3.009      6.487      7.390
REMARK INTER + INTRA:          -3.558
REMARK INTER:                  -3.500
REMARK INTRA:                  -0.058
REMARK UNBOUND:                -0.021
REMARK SMILES CCCCC(=O)[O-]
REMARK SMILES IDX 4 1 5 2 6 3 7 4 3 5 2 6 1 7
REMARK H PARENT
REMARK Flexibility Score: inf
ROOT
ATOM      1  C   UNL     1      36.227  18.066 227.138  1.00  0.00     0.053 C 
ENDROOT
BRANCH   1   2
ATOM      2  C   UNL     1      35.660  19.124 226.241  1.00  0.00     0.041 C 
ATOM      3  O   UNL     1      35.392  20.266 226.697  1.00  0.00    -0.550 OA
ATOM      4  O   UNL     1      35.396  18.836 224.908  1.00  0.00    -0.550 OA
ENDBRANCH   1   2
BRANCH   1   5
ATOM      5  C   UNL     1      37.713  18.306 227.429  1.00  0.00     0.006 C 
BRANCH   5   6
ATOM      6  C   UNL     1      38.566  18.291 226.153  1.00  0.00    -0.003 C 
ATOM      7  C   UNL     1      39.813  17.431 226.335  1.00  0.00     0.004 C 
ENDBRANCH   5   6
ENDBRANCH   1   5
TORSDOF 3
ENDMDL
MODEL 8
REMARK VINA RESULT:    -2.969     11.599     12.799
REMARK INTER + INTRA:          -3.511
REMARK INTER:                  -3.467
REMARK INTRA:                  -0.043
REMARK UNBOUND:                -0.021
REMARK SMILES CCCCC(=O)[O-]
REMARK SMILES IDX 4 1 5 2 6 3 7 4 3 5 2 6 1 7
REMARK H PARENT
REMARK Flexibility Score: inf
ROOT
ATOM      1  C   UNL     1      30.408  24.382 233.678  1.00  0.00     0.053 C 
ENDROOT
BRANCH   1   2
ATOM      2  C   UNL     1      29.751  23.637 232.557  1.00  0.00     0.041 C 
ATOM      3  O   UNL     1      29.614  22.387 232.618  1.00  0.00    -0.550 OA
ATOM      4  O   UNL     1      29.318  24.321 231.427  1.00  0.00    -0.550 OA
ENDBRANCH   1   2
BRANCH   1   5
ATOM      5  C   UNL     1      31.521  23.556 234.333  1.00  0.00     0.006 C 
BRANCH   5   6
ATOM      6  C   UNL     1      31.336  23.432 235.852  1.00  0.00    -0.003 C 
ATOM      7  C   UNL     1      32.682  23.402 236.569  1.00  0.00     0.004 C 
ENDBRANCH   5   6
ENDBRANCH   1   5
TORSDOF 3
ENDMDL
MODEL 9
REMARK VINA RESULT:    -2.967      2.483      3.343
REMARK INTER + INTRA:          -3.508
REMARK INTER:                  -3.466
REMARK INTRA:                  -0.042
REMARK UNBOUND:                -0.021
REMARK SMILES CCCCC(=O)[O-]
REMARK SMILES IDX 4 1 5 2 6 3 7 4 3 5 2 6 1 7
REMARK H PARENT
REMARK Flexibility Score: inf
ROOT
ATOM      1  C   UNL     1      37.772  23.829 223.094  1.00  0.00     0.053 C 
ENDROOT
BRANCH   1   2
ATOM      2  C   UNL     1      36.496  23.350 223.716  1.00  0.00     0.041 C 
ATOM      3  O   UNL     1      36.440  22.214 224.256  1.00  0.00    -0.550 OA
ATOM      4  O   UNL     1      35.358  24.146 223.669  1.00  0.00    -0.550 OA
ENDBRANCH   1   2
BRANCH   1   5
ATOM      5  C   UNL     1      38.511  24.818 224.003  1.00  0.00     0.006 C 
BRANCH   5   6
ATOM      6  C   UNL     1      39.955  24.379 224.288  1.00  0.00    -0.003 C 
ATOM      7  C   UNL     1      40.604  23.781 223.044  1.00  0.00     0.004 C 
ENDBRANCH   5   6
ENDBRANCH   1   5
TORSDOF 3
ENDMDL
