MODEL 1
REMARK VINA RESULT:     5.476      0.000      0.000
REMARK INTER + INTRA:           9.825
REMARK INTER:                  10.278
REMARK INTRA:                  -0.453
REMARK UNBOUND:                -0.453
REMARK SMILES O=C([O-])CCCCCCCCCCCCCCC(=O)[O-]
REMARK SMILES IDX 10 1 9 2 8 3 7 4 6 5 5 6 4 7 2 8 1 9 3 10 11 11 12 12 13 13
REMARK SMILES IDX 14 14 15 15 16 16 17 17 18 18 19 19 20 20
REMARK H PARENT
REMARK Flexibility Score: inf
ROOT
ATOM      1  C   UNL     1      -1.007 -19.536 -25.860  1.00  0.00     0.000 C 
ENDROOT
BRANCH   1   2
ATOM      2  C   UNL     1      -0.735 -18.024 -25.883  1.00  0.00     0.000 C 
BRANCH   2   3
ATOM      3  C   UNL     1      -1.984 -17.192 -25.550  1.00  0.00     0.000 C 
BRANCH   3   4
ATOM      4  C   UNL     1      -2.006 -15.835 -26.272  1.00  0.00     0.000 C 
BRANCH   4   5
ATOM      5  C   UNL     1      -0.993 -15.779 -27.437  1.00  0.00     0.000 C 
BRANCH   5   6
ATOM      6  C   UNL     1      -0.804 -14.364 -28.018  1.00  0.00     0.006 C 
BRANCH   6   7
ATOM      7  C   UNL     1      -0.995 -13.240 -26.990  1.00  0.00     0.053 C 
BRANCH   7   8
ATOM      8  C   UNL     1      -0.496 -11.923 -27.504  1.00  0.00     0.041 C 
ATOM      9  O   UNL     1      -1.226 -10.900 -27.435  1.00  0.00    -0.550 OA
ATOM     10  O   UNL     1       0.781 -11.821 -28.040  1.00  0.00    -0.550 OA
ENDBRANCH   7   8
ENDBRANCH   6   7
ENDBRANCH   5   6
ENDBRANCH   4   5
ENDBRANCH   3   4
ENDBRANCH   2   3
ENDBRANCH   1   2
BRANCH   1  11
ATOM     11  C   UNL     1       0.306 -20.330 -25.877  1.00  0.00     0.000 C 
BRANCH  11  12
ATOM     12  C   UNL     1       0.189 -21.602 -25.024  1.00  0.00     0.000 C 
BRANCH  12  13
ATOM     13  C   UNL     1       0.561 -22.877 -25.801  1.00  0.00     0.000 C 
BRANCH  13  14
ATOM     14  C   UNL     1       1.129 -24.025 -24.941  1.00  0.00     0.000 C 
BRANCH  14  15
ATOM     15  C   UNL     1       0.858 -25.441 -25.478  1.00  0.00     0.000 C 
BRANCH  15  16
ATOM     16  C   UNL     1       2.114 -26.324 -25.494  1.00  0.00     0.006 C 
BRANCH  16  17
ATOM     17  C   UNL     1       2.184 -27.200 -24.240  1.00  0.00     0.053 C 
BRANCH  17  18
ATOM     18  C   UNL     1       3.321 -28.167 -24.338  1.00  0.00     0.041 C 
ATOM     19  O   UNL     1       3.099 -29.407 -24.347  1.00  0.00    -0.550 OA
ATOM     20  O   UNL     1       4.629 -27.702 -24.370  1.00  0.00    -0.550 OA
ENDBRANCH  17  18
ENDBRANCH  16  17
ENDBRANCH  15  16
ENDBRANCH  14  15
ENDBRANCH  13  14
ENDBRANCH  12  13
ENDBRANCH  11  12
ENDBRANCH   1  11
TORSDOF 15
ENDMDL
MODEL 2
REMARK VINA RESULT:     5.622      0.909     12.059
REMARK INTER + INTRA:          10.099
REMARK INTER:                  10.817
REMARK INTRA:                  -0.718
REMARK UNBOUND:                -0.453
REMARK SMILES O=C([O-])CCCCCCCCCCCCCCC(=O)[O-]
REMARK SMILES IDX 10 1 9 2 8 3 7 4 6 5 5 6 4 7 2 8 1 9 3 10 11 11 12 12 13 13
REMARK SMILES IDX 14 14 15 15 16 16 17 17 18 18 19 19 20 20
REMARK H PARENT
REMARK Flexibility Score: inf
ROOT
ATOM      1  C   UNL     1      -1.409 -19.967 -25.824  1.00  0.00     0.000 C 
ENDROOT
BRANCH   1   2
ATOM      2  C   UNL     1      -1.166 -21.474 -25.650  1.00  0.00     0.000 C 
BRANCH   2   3
ATOM      3  C   UNL     1       0.321 -21.818 -25.469  1.00  0.00     0.000 C 
BRANCH   3   4
ATOM      4  C   UNL     1       0.539 -23.126 -24.691  1.00  0.00     0.000 C 
BRANCH   4   5
ATOM      5  C   UNL     1       1.390 -24.142 -25.485  1.00  0.00     0.000 C 
BRANCH   5   6
ATOM      6  C   UNL     1       1.005 -25.609 -25.213  1.00  0.00     0.006 C 
BRANCH   6   7
ATOM      7  C   UNL     1       2.117 -26.615 -25.546  1.00  0.00     0.053 C 
BRANCH   7   8
ATOM      8  C   UNL     1       2.654 -27.279 -24.314  1.00  0.00     0.041 C 
ATOM      9  O   UNL     1       3.157 -28.431 -24.386  1.00  0.00    -0.550 OA
ATOM     10  O   UNL     1       2.619 -26.620 -23.093  1.00  0.00    -0.550 OA
ENDBRANCH   7   8
ENDBRANCH   6   7
ENDBRANCH   5   6
ENDBRANCH   4   5
ENDBRANCH   3   4
ENDBRANCH   2   3
ENDBRANCH   1   2
BRANCH   1  11
ATOM     11  C   UNL     1      -0.123 -19.249 -26.251  1.00  0.00     0.000 C 
BRANCH  11  12
ATOM     12  C   UNL     1      -0.169 -17.763 -25.864  1.00  0.00     0.000 C 
BRANCH  12  13
ATOM     13  C   UNL     1      -1.594 -17.271 -25.554  1.00  0.00     0.000 C 
BRANCH  13  14
ATOM     14  C   UNL     1      -2.067 -16.067 -26.395  1.00  0.00     0.000 C 
BRANCH  14  15
ATOM     15  C   UNL     1      -1.105 -15.632 -27.514  1.00  0.00     0.000 C 
BRANCH  15  16
ATOM     16  C   UNL     1      -0.424 -14.287 -27.225  1.00  0.00     0.006 C 
BRANCH  16  17
ATOM     17  C   UNL     1      -1.105 -13.152 -27.996  1.00  0.00     0.053 C 
BRANCH  17  18
ATOM     18  C   UNL     1      -0.478 -11.836 -27.654  1.00  0.00     0.041 C 
ATOM     19  O   UNL     1       0.719 -11.604 -27.969  1.00  0.00    -0.550 OA
ATOM     20  O   UNL     1      -1.200 -10.886 -26.944  1.00  0.00    -0.550 OA
ENDBRANCH  17  18
ENDBRANCH  16  17
ENDBRANCH  15  16
ENDBRANCH  14  15
ENDBRANCH  13  14
ENDBRANCH  12  13
ENDBRANCH  11  12
ENDBRANCH   1  11
TORSDOF 15
ENDMDL
