MODEL 1
REMARK VINA RESULT:    -3.884      0.000      0.000
REMARK INTER + INTRA:          -5.809
REMARK INTER:                  -5.473
REMARK INTRA:                  -0.336
REMARK UNBOUND:                -0.336
REMARK SMILES CCCCCCCCC(=O)[O-]
REMARK SMILES IDX 6 1 7 2 8 3 9 4 10 5 11 6 5 7 4 8 3 9 2 10 1 11
REMARK H PARENT
REMARK Flexibility Score: inf
ROOT
ATOM      1  C   UNL     1     -35.644  -9.946   2.591  1.00  0.00     0.000 C 
ENDROOT
BRANCH   1   2
ATOM      2  C   UNL     1     -36.255  -9.083   1.481  1.00  0.00     0.006 C 
BRANCH   2   3
ATOM      3  C   UNL     1     -36.092  -9.751   0.113  1.00  0.00     0.053 C 
BRANCH   3   4
ATOM      4  C   UNL     1     -36.370  -8.772  -0.985  1.00  0.00     0.041 C 
ATOM      5  O   UNL     1     -36.496  -7.547  -0.724  1.00  0.00    -0.550 OA
ATOM      6  O   UNL     1     -36.442  -9.207  -2.302  1.00  0.00    -0.550 OA
ENDBRANCH   3   4
ENDBRANCH   2   3
ENDBRANCH   1   2
BRANCH   1   7
ATOM      7  C   UNL     1     -34.973 -11.198   2.006  1.00  0.00     0.000 C 
BRANCH   7   8
ATOM      8  C   UNL     1     -33.874 -11.767   2.919  1.00  0.00    -0.000 C 
BRANCH   8   9
ATOM      9  C   UNL     1     -32.557 -12.125   2.204  1.00  0.00    -0.000 C 
BRANCH   9  10
ATOM     10  C   UNL     1     -31.335 -11.334   2.717  1.00  0.00    -0.003 C 
ATOM     11  C   UNL     1     -31.487 -10.902   4.176  1.00  0.00     0.004 C 
ENDBRANCH   9  10
ENDBRANCH   8   9
ENDBRANCH   7   8
ENDBRANCH   1   7
TORSDOF 7
ENDMDL
MODEL 2
REMARK VINA RESULT:    -3.700      3.358      5.828
REMARK INTER + INTRA:          -5.550
REMARK INTER:                  -5.245
REMARK INTRA:                  -0.304
REMARK UNBOUND:                -0.336
REMARK SMILES CCCCCCCCC(=O)[O-]
REMARK SMILES IDX 6 1 7 2 8 3 9 4 10 5 11 6 5 7 4 8 3 9 2 10 1 11
REMARK H PARENT
REMARK Flexibility Score: inf
ROOT
ATOM      1  C   UNL     1     -34.947 -10.967   1.727  1.00  0.00     0.000 C 
ENDROOT
BRANCH   1   2
ATOM      2  C   UNL     1     -34.168 -11.926   2.634  1.00  0.00     0.006 C 
BRANCH   2   3
ATOM      3  C   UNL     1     -32.713 -12.056   2.177  1.00  0.00     0.053 C 
BRANCH   3   4
ATOM      4  C   UNL     1     -31.796 -11.370   3.141  1.00  0.00     0.041 C 
ATOM      5  O   UNL     1     -30.652 -10.997   2.771  1.00  0.00    -0.550 OA
ATOM      6  O   UNL     1     -32.225 -11.099   4.435  1.00  0.00    -0.550 OA
ENDBRANCH   3   4
ENDBRANCH   2   3
ENDBRANCH   1   2
BRANCH   1   7
ATOM      7  C   UNL     1     -35.495  -9.777   2.529  1.00  0.00     0.000 C 
BRANCH   7   8
ATOM      8  C   UNL     1     -36.731  -9.135   1.874  1.00  0.00    -0.000 C 
BRANCH   8   9
ATOM      9  C   UNL     1     -36.814  -9.302   0.345  1.00  0.00    -0.000 C 
BRANCH   9  10
ATOM     10  C   UNL     1     -36.269  -8.092  -0.444  1.00  0.00    -0.003 C 
ATOM     11  C   UNL     1     -37.359  -7.071  -0.776  1.00  0.00     0.004 C 
ENDBRANCH   9  10
ENDBRANCH   8   9
ENDBRANCH   7   8
ENDBRANCH   1   7
TORSDOF 7
ENDMDL
MODEL 3
REMARK VINA RESULT:    -3.685      3.600      5.829
REMARK INTER + INTRA:          -5.529
REMARK INTER:                  -5.162
REMARK INTRA:                  -0.366
REMARK UNBOUND:                -0.336
REMARK SMILES CCCCCCCCC(=O)[O-]
REMARK SMILES IDX 6 1 7 2 8 3 9 4 10 5 11 6 5 7 4 8 3 9 2 10 1 11
REMARK H PARENT
REMARK Flexibility Score: inf
ROOT
ATOM      1  C   UNL     1     -33.994 -11.982   1.054  1.00  0.00     0.000 C 
ENDROOT
BRANCH   1   2
ATOM      2  C   UNL     1     -33.280 -12.115   2.404  1.00  0.00     0.006 C 
BRANCH   2   3
ATOM      3  C   UNL     1     -31.792 -11.774   2.276  1.00  0.00     0.053 C 
BRANCH   3   4
ATOM      4  C   UNL     1     -31.264 -11.236   3.568  1.00  0.00     0.041 C 
ATOM      5  O   UNL     1     -32.046 -11.015   4.529  1.00  0.00    -0.550 OA
ATOM      6  O   UNL     1     -29.900 -11.026   3.728  1.00  0.00    -0.550 OA
ENDBRANCH   3   4
ENDBRANCH   2   3
ENDBRANCH   1   2
BRANCH   1   7
ATOM      7  C   UNL     1     -35.374 -11.330   1.226  1.00  0.00     0.000 C 
BRANCH   7   8
ATOM      8  C   UNL     1     -35.367 -10.181   2.250  1.00  0.00    -0.000 C 
BRANCH   8   9
ATOM      9  C   UNL     1     -36.397  -9.068   1.982  1.00  0.00    -0.000 C 
BRANCH   9  10
ATOM     10  C   UNL     1     -36.990  -9.097   0.557  1.00  0.00    -0.003 C 
ATOM     11  C   UNL     1     -36.304  -8.103  -0.382  1.00  0.00     0.004 C 
ENDBRANCH   9  10
ENDBRANCH   8   9
ENDBRANCH   7   8
ENDBRANCH   1   7
TORSDOF 7
ENDMDL
MODEL 4
REMARK VINA RESULT:    -3.665      3.768      5.633
REMARK INTER + INTRA:          -5.501
REMARK INTER:                  -5.319
REMARK INTRA:                  -0.182
REMARK UNBOUND:                -0.336
REMARK SMILES CCCCCCCCC(=O)[O-]
REMARK SMILES IDX 6 1 7 2 8 3 9 4 10 5 11 6 5 7 4 8 3 9 2 10 1 11
REMARK H PARENT
REMARK Flexibility Score: inf
ROOT
ATOM      1  C   UNL     1     -37.926  -6.365  -1.376  1.00  0.00     0.000 C 
ENDROOT
BRANCH   1   2
ATOM      2  C   UNL     1     -38.096  -4.947  -0.819  1.00  0.00     0.006 C 
BRANCH   2   3
ATOM      3  C   UNL     1     -37.179  -3.957  -1.544  1.00  0.00     0.053 C 
BRANCH   3   4
ATOM      4  C   UNL     1     -37.085  -2.674  -0.781  1.00  0.00     0.041 C 
ATOM      5  O   UNL     1     -36.700  -1.622  -1.355  1.00  0.00    -0.550 OA
ATOM      6  O   UNL     1     -37.470  -2.628   0.554  1.00  0.00    -0.550 OA
ENDBRANCH   3   4
ENDBRANCH   2   3
ENDBRANCH   1   2
BRANCH   1   7
ATOM      7  C   UNL     1     -37.687  -7.374  -0.243  1.00  0.00     0.000 C 
BRANCH   7   8
ATOM      8  C   UNL     1     -36.321  -8.075  -0.348  1.00  0.00    -0.000 C 
BRANCH   8   9
ATOM      9  C   UNL     1     -36.210  -9.398   0.433  1.00  0.00    -0.000 C 
BRANCH   9  10
ATOM     10  C   UNL     1     -36.074  -9.211   1.959  1.00  0.00    -0.003 C 
ATOM     11  C   UNL     1     -35.319 -10.361   2.626  1.00  0.00     0.004 C 
ENDBRANCH   9  10
ENDBRANCH   8   9
ENDBRANCH   7   8
ENDBRANCH   1   7
TORSDOF 7
ENDMDL
MODEL 5
REMARK VINA RESULT:    -3.616      3.320      5.460
REMARK INTER + INTRA:          -5.432
REMARK INTER:                  -4.835
REMARK INTRA:                  -0.597
REMARK UNBOUND:                -0.336
REMARK SMILES CCCCCCCCC(=O)[O-]
REMARK SMILES IDX 6 1 7 2 8 3 9 4 10 5 11 6 5 7 4 8 3 9 2 10 1 11
REMARK H PARENT
REMARK Flexibility Score: inf
ROOT
ATOM      1  C   UNL     1     -35.138  -9.744   2.546  1.00  0.00     0.000 C 
ENDROOT
BRANCH   1   2
ATOM      2  C   UNL     1     -34.927 -11.243   2.790  1.00  0.00     0.006 C 
BRANCH   2   3
ATOM      3  C   UNL     1     -33.530 -11.682   2.342  1.00  0.00     0.053 C 
BRANCH   3   4
ATOM      4  C   UNL     1     -32.516 -11.359   3.394  1.00  0.00     0.041 C 
ATOM      5  O   UNL     1     -32.805 -11.488   4.613  1.00  0.00    -0.550 OA
ATOM      6  O   UNL     1     -31.235 -10.965   3.027  1.00  0.00    -0.550 OA
ENDBRANCH   3   4
ENDBRANCH   2   3
ENDBRANCH   1   2
BRANCH   1   7
ATOM      7  C   UNL     1     -36.629  -9.382   2.616  1.00  0.00     0.000 C 
BRANCH   7   8
ATOM      8  C   UNL     1     -37.240  -9.102   1.232  1.00  0.00    -0.000 C 
BRANCH   8   9
ATOM      9  C   UNL     1     -36.269  -8.485   0.207  1.00  0.00    -0.000 C 
BRANCH   9  10
ATOM     10  C   UNL     1     -36.255  -9.211  -1.154  1.00  0.00    -0.003 C 
ATOM     11  C   UNL     1     -35.654 -10.614  -1.063  1.00  0.00     0.004 C 
ENDBRANCH   9  10
ENDBRANCH   8   9
ENDBRANCH   7   8
ENDBRANCH   1   7
TORSDOF 7
ENDMDL
MODEL 6
REMARK VINA RESULT:    -3.429     19.548     21.557
REMARK INTER + INTRA:          -5.168
REMARK INTER:                  -4.712
REMARK INTRA:                  -0.456
REMARK UNBOUND:                -0.336
REMARK SMILES CCCCCCCCC(=O)[O-]
REMARK SMILES IDX 6 1 7 2 8 3 9 4 10 5 11 6 5 7 4 8 3 9 2 10 1 11
REMARK H PARENT
REMARK Flexibility Score: inf
ROOT
ATOM      1  C   UNL     1     -22.084   3.558  12.542  1.00  0.00     0.000 C 
ENDROOT
BRANCH   1   2
ATOM      2  C   UNL     1     -22.308   3.450  11.030  1.00  0.00     0.006 C 
BRANCH   2   3
ATOM      3  C   UNL     1     -22.234   1.993  10.566  1.00  0.00     0.053 C 
BRANCH   3   4
ATOM      4  C   UNL     1     -21.950   1.923   9.098  1.00  0.00     0.041 C 
ATOM      5  O   UNL     1     -20.862   2.362   8.643  1.00  0.00    -0.550 OA
ATOM      6  O   UNL     1     -22.867   1.329   8.240  1.00  0.00    -0.550 OA
ENDBRANCH   3   4
ENDBRANCH   2   3
ENDBRANCH   1   2
BRANCH   1   7
ATOM      7  C   UNL     1     -22.844   4.760  13.125  1.00  0.00     0.000 C 
BRANCH   7   8
ATOM      8  C   UNL     1     -24.117   5.101  12.331  1.00  0.00    -0.000 C 
BRANCH   8   9
ATOM      9  C   UNL     1     -24.458   6.601  12.265  1.00  0.00    -0.000 C 
BRANCH   9  10
ATOM     10  C   UNL     1     -23.227   7.525  12.382  1.00  0.00    -0.003 C 
ATOM     11  C   UNL     1     -22.610   7.855  11.022  1.00  0.00     0.004 C 
ENDBRANCH   9  10
ENDBRANCH   8   9
ENDBRANCH   7   8
ENDBRANCH   1   7
TORSDOF 7
ENDMDL
MODEL 7
REMARK VINA RESULT:    -3.416     19.994     20.976
REMARK INTER + INTRA:          -5.150
REMARK INTER:                  -4.856
REMARK INTRA:                  -0.293
REMARK UNBOUND:                -0.336
REMARK SMILES CCCCCCCCC(=O)[O-]
REMARK SMILES IDX 6 1 7 2 8 3 9 4 10 5 11 6 5 7 4 8 3 9 2 10 1 11
REMARK H PARENT
REMARK Flexibility Score: inf
ROOT
ATOM      1  C   UNL     1     -19.921   6.275  -3.996  1.00  0.00     0.000 C 
ENDROOT
BRANCH   1   2
ATOM      2  C   UNL     1     -20.930   6.312  -2.843  1.00  0.00     0.006 C 
BRANCH   2   3
ATOM      3  C   UNL     1     -21.774   5.036  -2.808  1.00  0.00     0.053 C 
BRANCH   3   4
ATOM      4  C   UNL     1     -22.677   5.036  -1.615  1.00  0.00     0.041 C 
ATOM      5  O   UNL     1     -23.096   6.123  -1.138  1.00  0.00    -0.550 OA
ATOM      6  O   UNL     1     -23.096   3.833  -1.060  1.00  0.00    -0.550 OA
ENDBRANCH   3   4
ENDBRANCH   2   3
ENDBRANCH   1   2
BRANCH   1   7
ATOM      7  C   UNL     1     -19.898   4.889  -4.659  1.00  0.00     0.000 C 
BRANCH   7   8
ATOM      8  C   UNL     1     -18.623   4.092  -4.331  1.00  0.00    -0.000 C 
BRANCH   8   9
ATOM      9  C   UNL     1     -18.869   2.678  -3.772  1.00  0.00    -0.000 C 
BRANCH   9  10
ATOM     10  C   UNL     1     -17.934   1.603  -4.366  1.00  0.00    -0.003 C 
ATOM     11  C   UNL     1     -18.488   0.187  -4.198  1.00  0.00     0.004 C 
ENDBRANCH   9  10
ENDBRANCH   8   9
ENDBRANCH   7   8
ENDBRANCH   1   7
TORSDOF 7
ENDMDL
MODEL 8
REMARK VINA RESULT:    -3.312     20.240     22.211
REMARK INTER + INTRA:          -5.003
REMARK INTER:                  -4.419
REMARK INTRA:                  -0.584
REMARK UNBOUND:                -0.336
REMARK SMILES CCCCCCCCC(=O)[O-]
REMARK SMILES IDX 6 1 7 2 8 3 9 4 10 5 11 6 5 7 4 8 3 9 2 10 1 11
REMARK H PARENT
REMARK Flexibility Score: inf
ROOT
ATOM      1  C   UNL     1     -23.027   4.734  13.098  1.00  0.00     0.000 C 
ENDROOT
BRANCH   1   2
ATOM      2  C   UNL     1     -22.085   3.745  12.402  1.00  0.00     0.006 C 
BRANCH   2   3
ATOM      3  C   UNL     1     -22.747   3.131  11.166  1.00  0.00     0.053 C 
BRANCH   3   4
ATOM      4  C   UNL     1     -21.825   2.154  10.507  1.00  0.00     0.041 C 
ATOM      5  O   UNL     1     -22.268   1.341   9.654  1.00  0.00    -0.550 OA
ATOM      6  O   UNL     1     -20.467   2.175  10.799  1.00  0.00    -0.550 OA
ENDBRANCH   3   4
ENDBRANCH   2   3
ENDBRANCH   1   2
BRANCH   1   7
ATOM      7  C   UNL     1     -24.158   5.169  12.154  1.00  0.00     0.000 C 
BRANCH   7   8
ATOM      8  C   UNL     1     -24.656   6.597  12.440  1.00  0.00    -0.000 C 
BRANCH   8   9
ATOM      9  C   UNL     1     -23.555   7.674  12.466  1.00  0.00    -0.000 C 
BRANCH   9  10
ATOM     10  C   UNL     1     -22.803   7.828  11.127  1.00  0.00    -0.003 C 
ATOM     11  C   UNL     1     -21.313   7.509  11.252  1.00  0.00     0.004 C 
ENDBRANCH   9  10
ENDBRANCH   8   9
ENDBRANCH   7   8
ENDBRANCH   1   7
TORSDOF 7
ENDMDL
MODEL 9
REMARK VINA RESULT:    -2.369     19.409     21.490
REMARK INTER + INTRA:          -3.674
REMARK INTER:                  -3.212
REMARK INTRA:                  -0.462
REMARK UNBOUND:                -0.336
REMARK SMILES CCCCCCCCC(=O)[O-]
REMARK SMILES IDX 6 1 7 2 8 3 9 4 10 5 11 6 5 7 4 8 3 9 2 10 1 11
REMARK H PARENT
REMARK Flexibility Score: inf
ROOT
ATOM      1  C   UNL     1     -21.429   4.040  12.380  1.00  0.00     0.000 C 
ENDROOT
BRANCH   1   2
ATOM      2  C   UNL     1     -21.920   3.759  10.956  1.00  0.00     0.006 C 
BRANCH   2   3
ATOM      3  C   UNL     1     -22.434   2.322  10.825  1.00  0.00     0.053 C 
BRANCH   3   4
ATOM      4  C   UNL     1     -21.891   1.681   9.587  1.00  0.00     0.041 C 
ATOM      5  O   UNL     1     -22.658   1.407   8.627  1.00  0.00    -0.550 OA
ATOM      6  O   UNL     1     -20.529   1.432   9.473  1.00  0.00    -0.550 OA
ENDBRANCH   3   4
ENDBRANCH   2   3
ENDBRANCH   1   2
BRANCH   1   7
ATOM      7  C   UNL     1     -22.407   4.962  13.125  1.00  0.00     0.000 C 
BRANCH   7   8
ATOM      8  C   UNL     1     -22.670   6.280  12.377  1.00  0.00    -0.000 C 
BRANCH   8   9
ATOM      9  C   UNL     1     -24.155   6.667  12.248  1.00  0.00    -0.000 C 
BRANCH   9  10
ATOM     10  C   UNL     1     -25.117   5.460  12.265  1.00  0.00    -0.003 C 
ATOM     11  C   UNL     1     -26.550   5.848  11.895  1.00  0.00     0.004 C 
ENDBRANCH   9  10
ENDBRANCH   8   9
ENDBRANCH   7   8
ENDBRANCH   1   7
TORSDOF 7
ENDMDL
