MODEL 1
REMARK VINA RESULT:    -3.234      0.000      0.000
REMARK INTER + INTRA:          -3.231
REMARK INTER:                  -3.990
REMARK INTRA:                   0.759
REMARK UNBOUND:                 0.759
REMARK SMILES CC1=CC=CC(C)(C)CC1=O
REMARK SMILES IDX 1 1 2 2 3 3 10 4 11 5 9 6 4 8 5 9 6 10 7 11 8 12
REMARK H PARENT
REMARK Flexibility Score: 80.00
ROOT
ATOM      1  C   UNL     1     165.823 199.527 305.965  1.00  0.00     0.048 C 
ATOM      2  C   UNL     1     165.714 199.864 304.496  1.00  0.00    -0.008 C 
ATOM      3  C   UNL     1     166.512 199.190 303.640  1.00  0.00     0.007 C 
ENDROOT
BRANCH   2   4
ATOM      4  C   UNL     1     164.792 200.964 304.121  1.00  0.00     0.159 C 
ATOM      5  O   UNL     1     164.305 201.688 305.034  1.00  0.00    -0.295 OA
BRANCH   4   6
ATOM      6  C   UNL     1     164.390 201.260 302.709  1.00  0.00     0.091 CG0
ATOM      7  G   UNL     1     165.589 201.585 301.789  1.00  0.00     0.000 G0
ENDBRANCH   4   6
ENDBRANCH   2   4
BRANCH   3   8
ATOM      8  C   UNL     1     166.649 199.315 302.169  1.00  0.00    -0.003 C 
ATOM      9  C   UNL     1     166.282 200.324 301.370  1.00  0.00    -0.020 C 
BRANCH   9  10
ATOM     10  C   UNL     1     165.593 201.600 301.794  1.00  0.00    -0.010 CG0
ATOM     11  C   UNL     1     166.610 202.551 302.464  1.00  0.00     0.016 C 
ATOM     12  C   UNL     1     165.047 202.300 300.528  1.00  0.00     0.016 C 
ATOM     13  G   UNL     1     164.396 201.264 302.712  1.00  0.00     0.000 G0
ENDBRANCH   9  10
ENDBRANCH   3   8
TORSDOF 0
ENDMDL
MODEL 2
REMARK VINA RESULT:    -2.969      1.516      2.454
REMARK INTER + INTRA:          -2.904
REMARK INTER:                  -3.942
REMARK INTRA:                   1.038
REMARK UNBOUND:                 0.759
REMARK SMILES CC1=CC=CC(C)(C)CC1=O
REMARK SMILES IDX 1 1 2 2 3 3 10 4 11 5 9 6 4 8 5 9 6 10 7 11 8 12
REMARK H PARENT
REMARK Flexibility Score: 80.00
ROOT
ATOM      1  C   UNL     1     166.499 199.388 305.504  1.00  0.00     0.048 C 
ATOM      2  C   UNL     1     165.780 200.208 304.459  1.00  0.00    -0.008 C 
ATOM      3  C   UNL     1     164.994 201.218 304.889  1.00  0.00     0.007 C 
ENDROOT
BRANCH   2   4
ATOM      4  C   UNL     1     165.937 199.788 303.044  1.00  0.00     0.159 C 
ATOM      5  O   UNL     1     166.873 198.995 302.745  1.00  0.00    -0.295 OA
BRANCH   4   6
ATOM      6  C   UNL     1     165.048 200.265 301.937  1.00  0.00     0.091 CG0
ATOM      7  G   UNL     1     165.073 201.799 301.755  1.00  0.00     0.000 G0
ENDBRANCH   4   6
ENDBRANCH   2   4
BRANCH   3   8
ATOM      8  C   UNL     1     164.156 202.166 304.117  1.00  0.00    -0.003 C 
ATOM      9  C   UNL     1     164.159 202.418 302.802  1.00  0.00    -0.020 C 
BRANCH   9  10
ATOM     10  C   UNL     1     165.070 201.794 301.770  1.00  0.00    -0.010 CG0
ATOM     11  C   UNL     1     164.645 202.241 300.353  1.00  0.00     0.016 C 
ATOM     12  C   UNL     1     166.508 202.303 302.021  1.00  0.00     0.016 C 
ATOM     13  G   UNL     1     165.068 200.258 301.936  1.00  0.00     0.000 G0
ENDBRANCH   9  10
ENDBRANCH   3   8
TORSDOF 0
ENDMDL
MODEL 3
REMARK VINA RESULT:    -2.955      1.922      3.062
REMARK INTER + INTRA:          -2.886
REMARK INTER:                  -3.641
REMARK INTRA:                   0.755
REMARK UNBOUND:                 0.759
REMARK SMILES CC1=CC=CC(C)(C)CC1=O
REMARK SMILES IDX 1 1 2 2 3 3 10 4 11 5 9 6 4 8 5 9 6 10 7 11 8 12
REMARK H PARENT
REMARK Flexibility Score: 80.00
ROOT
ATOM      1  C   UNL     1     168.423 198.999 300.746  1.00  0.00     0.048 C 
ATOM      2  C   UNL     1     167.227 199.894 300.966  1.00  0.00    -0.008 C 
ATOM      3  C   UNL     1     167.016 200.886 300.075  1.00  0.00     0.007 C 
ENDROOT
BRANCH   2   4
ATOM      4  C   UNL     1     166.421 199.657 302.190  1.00  0.00     0.159 C 
ATOM      5  O   UNL     1     166.871 198.875 303.073  1.00  0.00    -0.295 OA
BRANCH   4   6
ATOM      6  C   UNL     1     165.085 200.287 302.435  1.00  0.00     0.091 CG0
ATOM      7  G   UNL     1     165.132 201.832 302.446  1.00  0.00     0.000 G0
ENDBRANCH   4   6
ENDBRANCH   2   4
BRANCH   3   8
ATOM      8  C   UNL     1     165.959 201.925 300.040  1.00  0.00    -0.003 C 
ATOM      9  C   UNL     1     165.161 202.351 301.027  1.00  0.00    -0.020 C 
BRANCH   9  10
ATOM     10  C   UNL     1     165.133 201.832 302.447  1.00  0.00    -0.010 CG0
ATOM     11  C   UNL     1     166.335 202.396 303.238  1.00  0.00     0.016 C 
ATOM     12  C   UNL     1     163.838 202.338 303.122  1.00  0.00     0.016 C 
ATOM     13  G   UNL     1     165.099 200.287 302.435  1.00  0.00     0.000 G0
ENDBRANCH   9  10
ENDBRANCH   3   8
TORSDOF 0
ENDMDL
MODEL 4
REMARK VINA RESULT:    -2.902      2.115      3.377
REMARK INTER + INTRA:          -2.821
REMARK INTER:                  -3.574
REMARK INTRA:                   0.754
REMARK UNBOUND:                 0.759
REMARK SMILES CC1=CC=CC(C)(C)CC1=O
REMARK SMILES IDX 1 1 2 2 3 3 10 4 11 5 9 6 4 8 5 9 6 10 7 11 8 12
REMARK H PARENT
REMARK Flexibility Score: 80.00
ROOT
ATOM      1  C   UNL     1     168.054 198.941 300.037  1.00  0.00     0.048 C 
ATOM      2  C   UNL     1     167.271 199.736 301.054  1.00  0.00    -0.008 C 
ATOM      3  C   UNL     1     166.776 199.073 302.120  1.00  0.00     0.007 C 
ENDROOT
BRANCH   2   4
ATOM      4  C   UNL     1     167.045 201.173 300.759  1.00  0.00     0.159 C 
ATOM      5  O   UNL     1     167.344 201.614 299.614  1.00  0.00    -0.295 OA
BRANCH   4   6
ATOM      6  C   UNL     1     166.489 202.144 301.755  1.00  0.00     0.091 CG0
ATOM      7  G   UNL     1     165.088 201.748 302.275  1.00  0.00     0.000 G0
ENDBRANCH   4   6
ENDBRANCH   2   4
BRANCH   3   8
ATOM      8  C   UNL     1     165.958 199.568 303.253  1.00  0.00    -0.003 C 
ATOM      9  C   UNL     1     165.226 200.685 303.340  1.00  0.00    -0.020 C 
BRANCH   9  10
ATOM     10  C   UNL     1     165.083 201.751 302.278  1.00  0.00    -0.010 CG0
ATOM     11  C   UNL     1     164.134 201.259 301.162  1.00  0.00     0.016 C 
ATOM     12  C   UNL     1     164.448 203.001 302.928  1.00  0.00     0.016 C 
ATOM     13  G   UNL     1     166.479 202.143 301.744  1.00  0.00     0.000 G0
ENDBRANCH   9  10
ENDBRANCH   3   8
TORSDOF 0
ENDMDL
MODEL 5
REMARK VINA RESULT:    -2.745     19.920     22.092
REMARK INTER + INTRA:          -2.628
REMARK INTER:                  -3.367
REMARK INTRA:                   0.739
REMARK UNBOUND:                 0.759
REMARK SMILES CC1=CC=CC(C)(C)CC1=O
REMARK SMILES IDX 1 1 2 2 3 3 10 4 11 5 9 6 4 8 5 9 6 10 7 11 8 12
REMARK H PARENT
REMARK Flexibility Score: 80.00
ROOT
ATOM      1  C   UNL     1     169.241 185.714 314.048  1.00  0.00     0.048 C 
ATOM      2  C   UNL     1     168.702 185.365 315.415  1.00  0.00    -0.008 C 
ATOM      3  C   UNL     1     168.896 186.257 316.410  1.00  0.00     0.007 C 
ENDROOT
BRANCH   2   4
ATOM      4  C   UNL     1     168.066 184.033 315.571  1.00  0.00     0.159 C 
ATOM      5  O   UNL     1     168.201 183.183 314.648  1.00  0.00    -0.295 OA
BRANCH   4   6
ATOM      6  C   UNL     1     167.255 183.640 316.767  1.00  0.00     0.091 CG0
ATOM      7  G   UNL     1     168.057 183.674 318.087  1.00  0.00     0.000 G0
ENDBRANCH   4   6
ENDBRANCH   2   4
BRANCH   3   8
ATOM      8  C   UNL     1     168.512 186.186 317.840  1.00  0.00    -0.003 C 
ATOM      9  C   UNL     1     168.169 185.117 318.569  1.00  0.00    -0.020 C 
BRANCH   9  10
ATOM     10  C   UNL     1     168.062 183.691 318.079  1.00  0.00    -0.010 CG0
ATOM     11  C   UNL     1     169.471 183.068 317.959  1.00  0.00     0.016 C 
ATOM     12  C   UNL     1     167.266 182.877 319.125  1.00  0.00     0.016 C 
ATOM     13  G   UNL     1     167.280 183.658 316.746  1.00  0.00     0.000 G0
ENDBRANCH   9  10
ENDBRANCH   3   8
TORSDOF 0
ENDMDL
MODEL 6
REMARK VINA RESULT:    -2.493      1.612      2.558
REMARK INTER + INTRA:          -2.316
REMARK INTER:                  -3.049
REMARK INTRA:                   0.733
REMARK UNBOUND:                 0.759
REMARK SMILES CC1=CC=CC(C)(C)CC1=O
REMARK SMILES IDX 1 1 2 2 3 3 10 4 11 5 9 6 4 8 5 9 6 10 7 11 8 12
REMARK H PARENT
REMARK Flexibility Score: 80.00
ROOT
ATOM      1  C   UNL     1     165.398 199.031 306.402  1.00  0.00     0.048 C 
ATOM      2  C   UNL     1     165.391 200.086 305.320  1.00  0.00    -0.008 C 
ATOM      3  C   UNL     1     164.442 201.044 305.388  1.00  0.00     0.007 C 
ENDROOT
BRANCH   2   4
ATOM      4  C   UNL     1     166.382 199.938 304.226  1.00  0.00     0.159 C 
ATOM      5  O   UNL     1     167.029 198.858 304.133  1.00  0.00    -0.295 OA
BRANCH   4   6
ATOM      6  C   UNL     1     166.673 201.013 303.224  1.00  0.00     0.091 CG0
ATOM      7  G   UNL     1     165.431 201.438 302.409  1.00  0.00     0.000 G0
ENDBRANCH   4   6
ENDBRANCH   2   4
BRANCH   3   8
ATOM      8  C   UNL     1     164.169 202.179 304.474  1.00  0.00    -0.003 C 
ATOM      9  C   UNL     1     164.575 202.361 303.211  1.00  0.00    -0.020 C 
BRANCH   9  10
ATOM     10  C   UNL     1     165.459 201.435 302.409  1.00  0.00    -0.010 CG0
ATOM     11  C   UNL     1     164.633 200.235 301.892  1.00  0.00     0.016 C 
ATOM     12  C   UNL     1     165.990 202.213 301.183  1.00  0.00     0.016 C 
ATOM     13  G   UNL     1     166.670 201.001 303.265  1.00  0.00     0.000 G0
ENDBRANCH   9  10
ENDBRANCH   3   8
TORSDOF 0
ENDMDL
MODEL 7
REMARK VINA RESULT:    -2.338      1.498      2.619
REMARK INTER + INTRA:          -2.125
REMARK INTER:                  -3.126
REMARK INTRA:                   1.001
REMARK UNBOUND:                 0.759
REMARK SMILES CC1=CC=CC(C)(C)CC1=O
REMARK SMILES IDX 1 1 2 2 3 3 10 4 11 5 9 6 4 8 5 9 6 10 7 11 8 12
REMARK H PARENT
REMARK Flexibility Score: 80.00
ROOT
ATOM      1  C   UNL     1     163.849 202.159 305.222  1.00  0.00     0.048 C 
ATOM      2  C   UNL     1     164.306 201.939 303.799  1.00  0.00    -0.008 C 
ATOM      3  C   UNL     1     163.582 202.512 302.814  1.00  0.00     0.007 C 
ENDROOT
BRANCH   2   4
ATOM      4  C   UNL     1     165.474 201.046 303.595  1.00  0.00     0.159 C 
ATOM      5  O   UNL     1     166.212 200.774 304.582  1.00  0.00    -0.295 OA
BRANCH   4   6
ATOM      6  C   UNL     1     165.840 200.456 302.268  1.00  0.00     0.091 CG0
ATOM      7  G   UNL     1     166.153 201.520 301.192  1.00  0.00     0.000 G0
ENDBRANCH   4   6
ENDBRANCH   2   4
BRANCH   3   8
ATOM      8  C   UNL     1     163.763 202.456 301.344  1.00  0.00    -0.003 C 
ATOM      9  C   UNL     1     164.821 202.034 300.640  1.00  0.00    -0.020 C 
BRANCH   9  10
ATOM     10  C   UNL     1     166.129 201.527 301.200  1.00  0.00    -0.010 CG0
ATOM     11  C   UNL     1     167.012 200.972 300.059  1.00  0.00     0.016 C 
ATOM     12  C   UNL     1     166.875 202.718 301.844  1.00  0.00     0.016 C 
ATOM     13  G   UNL     1     165.852 200.480 302.302  1.00  0.00     0.000 G0
ENDBRANCH   9  10
ENDBRANCH   3   8
TORSDOF 0
ENDMDL
MODEL 8
REMARK VINA RESULT:    -2.119      1.883      3.924
REMARK INTER + INTRA:          -1.855
REMARK INTER:                  -2.613
REMARK INTRA:                   0.758
REMARK UNBOUND:                 0.759
REMARK SMILES CC1=CC=CC(C)(C)CC1=O
REMARK SMILES IDX 1 1 2 2 3 3 10 4 11 5 9 6 4 8 5 9 6 10 7 11 8 12
REMARK H PARENT
REMARK Flexibility Score: 80.00
ROOT
ATOM      1  C   UNL     1     165.468 202.129 299.424  1.00  0.00     0.048 C 
ATOM      2  C   UNL     1     165.122 201.749 300.845  1.00  0.00    -0.008 C 
ATOM      3  C   UNL     1     164.230 202.522 301.499  1.00  0.00     0.007 C 
ENDROOT
BRANCH   2   4
ATOM      4  C   UNL     1     165.851 200.597 301.432  1.00  0.00     0.159 C 
ATOM      5  O   UNL     1     166.837 200.118 300.807  1.00  0.00    -0.295 OA
BRANCH   4   6
ATOM      6  C   UNL     1     165.471 199.954 302.730  1.00  0.00     0.091 CG0
ATOM      7  G   UNL     1     165.504 200.932 303.927  1.00  0.00     0.000 G0
ENDBRANCH   4   6
ENDBRANCH   2   4
BRANCH   3   8
ATOM      8  C   UNL     1     163.720 202.419 302.887  1.00  0.00    -0.003 C 
ATOM      9  C   UNL     1     164.242 201.765 303.932  1.00  0.00    -0.020 C 
BRANCH   9  10
ATOM     10  C   UNL     1     165.500 200.927 303.930  1.00  0.00    -0.010 CG0
ATOM     11  C   UNL     1     166.744 201.845 303.931  1.00  0.00     0.016 C 
ATOM     12  C   UNL     1     165.525 200.087 305.227  1.00  0.00     0.016 C 
ATOM     13  G   UNL     1     165.476 199.957 302.728  1.00  0.00     0.000 G0
ENDBRANCH   9  10
ENDBRANCH   3   8
TORSDOF 0
ENDMDL
MODEL 9
REMARK VINA RESULT:    -1.949     19.385     21.546
REMARK INTER + INTRA:          -1.645
REMARK INTER:                  -2.709
REMARK INTRA:                   1.064
REMARK UNBOUND:                 0.759
REMARK SMILES CC1=CC=CC(C)(C)CC1=O
REMARK SMILES IDX 1 1 2 2 3 3 10 4 11 5 9 6 4 8 5 9 6 10 7 11 8 12
REMARK H PARENT
REMARK Flexibility Score: 80.00
ROOT
ATOM      1  C   UNL     1     169.678 186.027 313.896  1.00  0.00     0.048 C 
ATOM      2  C   UNL     1     168.897 185.196 314.886  1.00  0.00    -0.008 C 
ATOM      3  C   UNL     1     168.626 183.916 314.551  1.00  0.00     0.007 C 
ENDROOT
BRANCH   2   4
ATOM      4  C   UNL     1     168.425 185.877 316.117  1.00  0.00     0.159 C 
ATOM      5  O   UNL     1     168.935 186.989 316.430  1.00  0.00    -0.295 OA
BRANCH   4   6
ATOM      6  C   UNL     1     167.378 185.310 317.025  1.00  0.00     0.091 CG0
ATOM      7  G   UNL     1     167.754 183.926 317.599  1.00  0.00     0.000 G0
ENDBRANCH   4   6
ENDBRANCH   2   4
BRANCH   3   8
ATOM      8  C   UNL     1     167.869 182.879 315.292  1.00  0.00    -0.003 C 
ATOM      9  C   UNL     1     167.473 182.875 316.571  1.00  0.00    -0.020 C 
BRANCH   9  10
ATOM     10  C   UNL     1     167.740 183.952 317.597  1.00  0.00    -0.010 CG0
ATOM     11  C   UNL     1     166.986 183.629 318.907  1.00  0.00     0.016 C 
ATOM     12  C   UNL     1     169.254 183.962 317.907  1.00  0.00     0.016 C 
ATOM     13  G   UNL     1     167.359 185.331 317.014  1.00  0.00     0.000 G0
ENDBRANCH   9  10
ENDBRANCH   3   8
TORSDOF 0
ENDMDL
