MODEL 1
REMARK VINA RESULT:    -3.694      0.000      0.000
REMARK INTER + INTRA:          -6.430
REMARK INTER:                  -5.638
REMARK INTRA:                  -0.792
REMARK UNBOUND:                -0.792
REMARK SMILES CCCCCCCCCC=CC(=O)[O-]
REMARK SMILES IDX 7 1 8 2 9 3 10 4 11 5 12 6 13 7 14 8 6 9 5 10 4 11 3 12 2 13
REMARK SMILES IDX 1 14
REMARK H PARENT
REMARK Flexibility Score: inf
ROOT
ATOM      1  C   UNL     1      25.128  62.916  77.367  1.00  0.00     0.000 C 
ENDROOT
BRANCH   1   2
ATOM      2  C   UNL     1      26.348  62.043  77.039  1.00  0.00     0.004 C 
BRANCH   2   3
ATOM      3  C   UNL     1      26.644  61.022  78.150  1.00  0.00     0.027 C 
BRANCH   3   4
ATOM      4  C   UNL     1      27.584  61.568  79.193  1.00  0.00    -0.025 C 
ATOM      5  C   UNL     1      27.252  61.939  80.440  1.00  0.00     0.020 C 
BRANCH   5   6
ATOM      6  C   UNL     1      25.896  61.938  81.027  1.00  0.00     0.064 C 
ATOM      7  O   UNL     1      25.529  60.945  81.708  1.00  0.00    -0.545 OA
ATOM      8  O   UNL     1      25.023  63.008  80.881  1.00  0.00    -0.545 OA
ENDBRANCH   5   6
ENDBRANCH   3   4
ENDBRANCH   2   3
ENDBRANCH   1   2
BRANCH   1   9
ATOM      9  C   UNL     1      25.127  64.199  76.522  1.00  0.00     0.000 C 
BRANCH   9  10
ATOM     10  C   UNL     1      26.166  64.164  75.388  1.00  0.00     0.000 C 
BRANCH  10  11
ATOM     11  C   UNL     1      26.756  65.553  75.086  1.00  0.00    -0.000 C 
BRANCH  11  12
ATOM     12  C   UNL     1      25.680  66.649  75.018  1.00  0.00    -0.000 C 
BRANCH  12  13
ATOM     13  C   UNL     1      25.934  67.792  76.011  1.00  0.00    -0.003 C 
ATOM     14  C   UNL     1      24.660  68.154  76.769  1.00  0.00     0.004 C 
ENDBRANCH  12  13
ENDBRANCH  11  12
ENDBRANCH  10  11
ENDBRANCH   9  10
ENDBRANCH   1   9
TORSDOF 9
ENDMDL
MODEL 2
REMARK VINA RESULT:    -3.442      3.131      6.158
REMARK INTER + INTRA:          -6.045
REMARK INTER:                  -5.122
REMARK INTRA:                  -0.922
REMARK UNBOUND:                -0.792
REMARK SMILES CCCCCCCCCC=CC(=O)[O-]
REMARK SMILES IDX 7 1 8 2 9 3 10 4 11 5 12 6 13 7 14 8 6 9 5 10 4 11 3 12 2 13
REMARK SMILES IDX 1 14
REMARK H PARENT
REMARK Flexibility Score: inf
ROOT
ATOM      1  C   UNL     1      26.375  62.322  76.553  1.00  0.00     0.000 C 
ENDROOT
BRANCH   1   2
ATOM      2  C   UNL     1      24.995  62.931  76.844  1.00  0.00     0.004 C 
BRANCH   2   3
ATOM      3  C   UNL     1      24.925  64.417  76.453  1.00  0.00     0.027 C 
BRANCH   3   4
ATOM      4  C   UNL     1      26.093  64.840  75.600  1.00  0.00    -0.025 C 
ATOM      5  C   UNL     1      26.333  66.081  75.148  1.00  0.00     0.020 C 
BRANCH   5   6
ATOM      6  C   UNL     1      25.481  67.271  75.347  1.00  0.00     0.064 C 
ATOM      7  O   UNL     1      25.764  68.074  76.275  1.00  0.00    -0.545 OA
ATOM      8  O   UNL     1      24.396  67.551  74.528  1.00  0.00    -0.545 OA
ENDBRANCH   5   6
ENDBRANCH   3   4
ENDBRANCH   2   3
ENDBRANCH   1   2
BRANCH   1   9
ATOM      9  C   UNL     1      26.475  60.896  77.117  1.00  0.00     0.000 C 
BRANCH   9  10
ATOM     10  C   UNL     1      27.900  60.535  77.569  1.00  0.00     0.000 C 
BRANCH  10  11
ATOM     11  C   UNL     1      28.333  61.307  78.828  1.00  0.00    -0.000 C 
BRANCH  11  12
ATOM     12  C   UNL     1      27.509  60.922  80.067  1.00  0.00    -0.000 C 
BRANCH  12  13
ATOM     13  C   UNL     1      27.028  62.145  80.863  1.00  0.00    -0.003 C 
ATOM     14  C   UNL     1      25.584  62.494  80.515  1.00  0.00     0.004 C 
ENDBRANCH  12  13
ENDBRANCH  11  12
ENDBRANCH  10  11
ENDBRANCH   9  10
ENDBRANCH   1   9
TORSDOF 9
ENDMDL
MODEL 3
REMARK VINA RESULT:    -3.396      8.580     10.926
REMARK INTER + INTRA:          -5.974
REMARK INTER:                  -4.759
REMARK INTRA:                  -1.215
REMARK UNBOUND:                -0.792
REMARK SMILES CCCCCCCCCC=CC(=O)[O-]
REMARK SMILES IDX 7 1 8 2 9 3 10 4 11 5 12 6 13 7 14 8 6 9 5 10 4 11 3 12 2 13
REMARK SMILES IDX 1 14
REMARK H PARENT
REMARK Flexibility Score: inf
ROOT
ATOM      1  C   UNL     1      29.757  56.989  87.238  1.00  0.00     0.000 C 
ENDROOT
BRANCH   1   2
ATOM      2  C   UNL     1      30.330  57.818  86.079  1.00  0.00     0.004 C 
BRANCH   2   3
ATOM      3  C   UNL     1      29.548  57.603  84.772  1.00  0.00     0.027 C 
BRANCH   3   4
ATOM      4  C   UNL     1      29.431  58.867  83.961  1.00  0.00    -0.025 C 
ATOM      5  C   UNL     1      29.910  59.058  82.722  1.00  0.00     0.020 C 
BRANCH   5   6
ATOM      6  C   UNL     1      30.692  58.093  81.921  1.00  0.00     0.064 C 
ATOM      7  O   UNL     1      31.917  57.946  82.172  1.00  0.00    -0.545 OA
ATOM      8  O   UNL     1      30.116  57.320  80.922  1.00  0.00    -0.545 OA
ENDBRANCH   5   6
ENDBRANCH   3   4
ENDBRANCH   2   3
ENDBRANCH   1   2
BRANCH   1   9
ATOM      9  C   UNL     1      28.223  57.071  87.264  1.00  0.00     0.000 C 
BRANCH   9  10
ATOM     10  C   UNL     1      27.683  57.696  88.562  1.00  0.00     0.000 C 
BRANCH  10  11
ATOM     11  C   UNL     1      27.191  59.140  88.361  1.00  0.00    -0.000 C 
BRANCH  11  12
ATOM     12  C   UNL     1      26.845  59.446  86.894  1.00  0.00    -0.000 C 
BRANCH  12  13
ATOM     13  C   UNL     1      27.415  60.790  86.418  1.00  0.00    -0.003 C 
ATOM     14  C   UNL     1      28.094  61.535  87.562  1.00  0.00     0.004 C 
ENDBRANCH  12  13
ENDBRANCH  11  12
ENDBRANCH  10  11
ENDBRANCH   9  10
ENDBRANCH   1   9
TORSDOF 9
ENDMDL
MODEL 4
REMARK VINA RESULT:    -3.375      8.248     10.502
REMARK INTER + INTRA:          -5.942
REMARK INTER:                  -4.805
REMARK INTRA:                  -1.138
REMARK UNBOUND:                -0.792
REMARK SMILES CCCCCCCCCC=CC(=O)[O-]
REMARK SMILES IDX 7 1 8 2 9 3 10 4 11 5 12 6 13 7 14 8 6 9 5 10 4 11 3 12 2 13
REMARK SMILES IDX 1 14
REMARK H PARENT
REMARK Flexibility Score: inf
ROOT
ATOM      1  C   UNL     1      31.340  57.742  85.492  1.00  0.00     0.000 C 
ENDROOT
BRANCH   1   2
ATOM      2  C   UNL     1      30.533  56.875  86.470  1.00  0.00     0.004 C 
BRANCH   2   3
ATOM      3  C   UNL     1      29.228  57.560  86.907  1.00  0.00     0.027 C 
BRANCH   3   4
ATOM      4  C   UNL     1      29.180  59.011  86.503  1.00  0.00    -0.025 C 
ATOM      5  C   UNL     1      28.195  59.878  86.786  1.00  0.00     0.020 C 
BRANCH   5   6
ATOM      6  C   UNL     1      26.937  59.580  87.502  1.00  0.00     0.064 C 
ATOM      7  O   UNL     1      25.867  59.501  86.844  1.00  0.00    -0.545 OA
ATOM      8  O   UNL     1      26.899  59.354  88.871  1.00  0.00    -0.545 OA
ENDBRANCH   5   6
ENDBRANCH   3   4
ENDBRANCH   2   3
ENDBRANCH   1   2
BRANCH   1   9
ATOM      9  C   UNL     1      32.540  56.963  84.930  1.00  0.00     0.000 C 
BRANCH   9  10
ATOM     10  C   UNL     1      32.627  57.030  83.396  1.00  0.00     0.000 C 
BRANCH  10  11
ATOM     11  C   UNL     1      31.241  57.051  82.727  1.00  0.00    -0.000 C 
BRANCH  11  12
ATOM     12  C   UNL     1      30.974  58.360  81.966  1.00  0.00    -0.000 C 
BRANCH  12  13
ATOM     13  C   UNL     1      29.653  59.027  82.377  1.00  0.00    -0.003 C 
ATOM     14  C   UNL     1      28.655  57.996  82.895  1.00  0.00     0.004 C 
ENDBRANCH  12  13
ENDBRANCH  11  12
ENDBRANCH  10  11
ENDBRANCH   9  10
ENDBRANCH   1   9
TORSDOF 9
ENDMDL
MODEL 5
REMARK VINA RESULT:    -3.369      5.505      9.866
REMARK INTER + INTRA:          -5.933
REMARK INTER:                  -4.734
REMARK INTRA:                  -1.199
REMARK UNBOUND:                -0.792
REMARK SMILES CCCCCCCCCC=CC(=O)[O-]
REMARK SMILES IDX 7 1 8 2 9 3 10 4 11 5 12 6 13 7 14 8 6 9 5 10 4 11 3 12 2 13
REMARK SMILES IDX 1 14
REMARK H PARENT
REMARK Flexibility Score: inf
ROOT
ATOM      1  C   UNL     1      24.642  59.102  85.574  1.00  0.00     0.000 C 
ENDROOT
BRANCH   1   2
ATOM      2  C   UNL     1      25.337  59.555  84.281  1.00  0.00     0.004 C 
BRANCH   2   3
ATOM      3  C   UNL     1      25.558  61.076  84.246  1.00  0.00     0.027 C 
BRANCH   3   4
ATOM      4  C   UNL     1      27.002  61.439  84.014  1.00  0.00    -0.025 C 
ATOM      5  C   UNL     1      27.593  61.607  82.820  1.00  0.00     0.020 C 
BRANCH   5   6
ATOM      6  C   UNL     1      26.968  61.422  81.494  1.00  0.00     0.064 C 
ATOM      7  O   UNL     1      26.568  62.436  80.863  1.00  0.00    -0.545 OA
ATOM      8  O   UNL     1      26.835  60.172  80.905  1.00  0.00    -0.545 OA
ENDBRANCH   5   6
ENDBRANCH   3   4
ENDBRANCH   2   3
ENDBRANCH   1   2
BRANCH   1   9
ATOM      9  C   UNL     1      25.535  58.134  86.366  1.00  0.00     0.000 C 
BRANCH   9  10
ATOM     10  C   UNL     1      25.455  58.360  87.885  1.00  0.00     0.000 C 
BRANCH  10  11
ATOM     11  C   UNL     1      26.705  59.064  88.443  1.00  0.00    -0.000 C 
BRANCH  11  12
ATOM     12  C   UNL     1      27.977  58.721  87.650  1.00  0.00    -0.000 C 
BRANCH  12  13
ATOM     13  C   UNL     1      28.619  59.954  86.997  1.00  0.00    -0.003 C 
ATOM     14  C   UNL     1      27.988  61.242  87.516  1.00  0.00     0.004 C 
ENDBRANCH  12  13
ENDBRANCH  11  12
ENDBRANCH  10  11
ENDBRANCH   9  10
ENDBRANCH   1   9
TORSDOF 9
ENDMDL
MODEL 6
REMARK VINA RESULT:    -3.363      7.390     10.549
REMARK INTER + INTRA:          -5.924
REMARK INTER:                  -4.763
REMARK INTRA:                  -1.162
REMARK UNBOUND:                -0.792
REMARK SMILES CCCCCCCCCC=CC(=O)[O-]
REMARK SMILES IDX 7 1 8 2 9 3 10 4 11 5 12 6 13 7 14 8 6 9 5 10 4 11 3 12 2 13
REMARK SMILES IDX 1 14
REMARK H PARENT
REMARK Flexibility Score: inf
ROOT
ATOM      1  C   UNL     1      26.676  60.656  85.158  1.00  0.00     0.000 C 
ENDROOT
BRANCH   1   2
ATOM      2  C   UNL     1      27.023  61.388  83.853  1.00  0.00     0.004 C 
BRANCH   2   3
ATOM      3  C   UNL     1      27.978  60.570  82.968  1.00  0.00     0.027 C 
BRANCH   3   4
ATOM      4  C   UNL     1      27.771  59.086  83.121  1.00  0.00    -0.025 C 
ATOM      5  C   UNL     1      28.737  58.159  83.224  1.00  0.00     0.020 C 
BRANCH   5   6
ATOM      6  C   UNL     1      30.194  58.395  83.156  1.00  0.00     0.064 C 
ATOM      7  O   UNL     1      30.893  58.179  84.181  1.00  0.00    -0.545 OA
ATOM      8  O   UNL     1      30.824  58.815  81.993  1.00  0.00    -0.545 OA
ENDBRANCH   5   6
ENDBRANCH   3   4
ENDBRANCH   2   3
ENDBRANCH   1   2
BRANCH   1   9
ATOM      9  C   UNL     1      27.299  61.368  86.369  1.00  0.00     0.000 C 
BRANCH   9  10
ATOM     10  C   UNL     1      27.899  60.387  87.390  1.00  0.00     0.000 C 
BRANCH  10  11
ATOM     11  C   UNL     1      28.839  59.358  86.737  1.00  0.00    -0.000 C 
BRANCH  11  12
ATOM     12  C   UNL     1      28.491  57.912  87.128  1.00  0.00    -0.000 C 
BRANCH  12  13
ATOM     13  C   UNL     1      27.813  57.815  88.502  1.00  0.00    -0.003 C 
ATOM     14  C   UNL     1      28.691  57.061  89.496  1.00  0.00     0.004 C 
ENDBRANCH  12  13
ENDBRANCH  11  12
ENDBRANCH  10  11
ENDBRANCH   9  10
ENDBRANCH   1   9
TORSDOF 9
ENDMDL
MODEL 7
REMARK VINA RESULT:    -3.318      7.185     10.008
REMARK INTER + INTRA:          -5.856
REMARK INTER:                  -4.459
REMARK INTRA:                  -1.397
REMARK UNBOUND:                -0.792
REMARK SMILES CCCCCCCCCC=CC(=O)[O-]
REMARK SMILES IDX 7 1 8 2 9 3 10 4 11 5 12 6 13 7 14 8 6 9 5 10 4 11 3 12 2 13
REMARK SMILES IDX 1 14
REMARK H PARENT
REMARK Flexibility Score: inf
ROOT
ATOM      1  C   UNL     1      26.772  60.574  85.247  1.00  0.00     0.000 C 
ENDROOT
BRANCH   1   2
ATOM      2  C   UNL     1      26.949  61.426  83.981  1.00  0.00     0.004 C 
BRANCH   2   3
ATOM      3  C   UNL     1      27.864  60.745  82.950  1.00  0.00     0.027 C 
BRANCH   3   4
ATOM      4  C   UNL     1      27.847  59.243  83.073  1.00  0.00    -0.025 C 
ATOM      5  C   UNL     1      28.696  58.392  82.475  1.00  0.00     0.020 C 
BRANCH   5   6
ATOM      6  C   UNL     1      29.783  58.744  81.539  1.00  0.00     0.064 C 
ATOM      7  O   UNL     1      29.502  58.938  80.327  1.00  0.00    -0.545 OA
ATOM      8  O   UNL     1      31.099  58.897  81.953  1.00  0.00    -0.545 OA
ENDBRANCH   5   6
ENDBRANCH   3   4
ENDBRANCH   2   3
ENDBRANCH   1   2
BRANCH   1   9
ATOM      9  C   UNL     1      27.458  61.235  86.453  1.00  0.00     0.000 C 
BRANCH   9  10
ATOM     10  C   UNL     1      28.500  60.320  87.118  1.00  0.00     0.000 C 
BRANCH  10  11
ATOM     11  C   UNL     1      28.023  58.860  87.220  1.00  0.00    -0.000 C 
BRANCH  11  12
ATOM     12  C   UNL     1      29.047  57.864  86.651  1.00  0.00    -0.000 C 
BRANCH  12  13
ATOM     13  C   UNL     1      30.195  58.556  85.902  1.00  0.00    -0.003 C 
ATOM     14  C   UNL     1      31.143  57.533  85.284  1.00  0.00     0.004 C 
ENDBRANCH  12  13
ENDBRANCH  11  12
ENDBRANCH  10  11
ENDBRANCH   9  10
ENDBRANCH   1   9
TORSDOF 9
ENDMDL
MODEL 8
REMARK VINA RESULT:    -3.312      6.339     10.493
REMARK INTER + INTRA:          -5.846
REMARK INTER:                  -4.539
REMARK INTRA:                  -1.306
REMARK UNBOUND:                -0.792
REMARK SMILES CCCCCCCCCC=CC(=O)[O-]
REMARK SMILES IDX 7 1 8 2 9 3 10 4 11 5 12 6 13 7 14 8 6 9 5 10 4 11 3 12 2 13
REMARK SMILES IDX 1 14
REMARK H PARENT
REMARK Flexibility Score: inf
ROOT
ATOM      1  C   UNL     1      28.070  60.454  87.332  1.00  0.00     0.000 C 
ENDROOT
BRANCH   1   2
ATOM      2  C   UNL     1      27.289  61.115  86.186  1.00  0.00     0.004 C 
BRANCH   2   3
ATOM      3  C   UNL     1      26.429  60.101  85.413  1.00  0.00     0.027 C 
BRANCH   3   4
ATOM      4  C   UNL     1      27.187  59.448  84.286  1.00  0.00    -0.025 C 
ATOM      5  C   UNL     1      27.496  60.015  83.110  1.00  0.00     0.020 C 
BRANCH   5   6
ATOM      6  C   UNL     1      27.116  61.369  82.656  1.00  0.00     0.064 C 
ATOM      7  O   UNL     1      27.987  62.278  82.659  1.00  0.00    -0.545 OA
ATOM      8  O   UNL     1      25.840  61.666  82.198  1.00  0.00    -0.545 OA
ENDBRANCH   5   6
ENDBRANCH   3   4
ENDBRANCH   2   3
ENDBRANCH   1   2
BRANCH   1   9
ATOM      9  C   UNL     1      27.242  59.337  87.987  1.00  0.00     0.000 C 
BRANCH   9  10
ATOM     10  C   UNL     1      28.065  58.067  88.256  1.00  0.00     0.000 C 
BRANCH  10  11
ATOM     11  C   UNL     1      28.394  57.293  86.967  1.00  0.00    -0.000 C 
BRANCH  11  12
ATOM     12  C   UNL     1      29.907  57.159  86.729  1.00  0.00    -0.000 C 
BRANCH  12  13
ATOM     13  C   UNL     1      30.466  58.268  85.826  1.00  0.00    -0.003 C 
ATOM     14  C   UNL     1      30.515  57.817  84.369  1.00  0.00     0.004 C 
ENDBRANCH  12  13
ENDBRANCH  11  12
ENDBRANCH  10  11
ENDBRANCH   9  10
ENDBRANCH   1   9
TORSDOF 9
ENDMDL
MODEL 9
REMARK VINA RESULT:    -3.308      7.017      9.643
REMARK INTER + INTRA:          -5.840
REMARK INTER:                  -4.498
REMARK INTRA:                  -1.343
REMARK UNBOUND:                -0.792
REMARK SMILES CCCCCCCCCC=CC(=O)[O-]
REMARK SMILES IDX 7 1 8 2 9 3 10 4 11 5 12 6 13 7 14 8 6 9 5 10 4 11 3 12 2 13
REMARK SMILES IDX 1 14
REMARK H PARENT
REMARK Flexibility Score: inf
ROOT
ATOM      1  C   UNL     1      28.414  58.465  86.998  1.00  0.00     0.000 C 
ENDROOT
BRANCH   1   2
ATOM      2  C   UNL     1      29.584  57.791  86.266  1.00  0.00     0.004 C 
BRANCH   2   3
ATOM      3  C   UNL     1      30.021  58.584  85.023  1.00  0.00     0.027 C 
BRANCH   3   4
ATOM      4  C   UNL     1      29.324  58.117  83.771  1.00  0.00    -0.025 C 
ATOM      5  C   UNL     1      29.914  57.808  82.606  1.00  0.00     0.020 C 
BRANCH   5   6
ATOM      6  C   UNL     1      31.355  57.910  82.294  1.00  0.00     0.064 C 
ATOM      7  O   UNL     1      31.751  58.841  81.545  1.00  0.00    -0.545 OA
ATOM      8  O   UNL     1      32.292  57.033  82.823  1.00  0.00    -0.545 OA
ENDBRANCH   5   6
ENDBRANCH   3   4
ENDBRANCH   2   3
ENDBRANCH   1   2
BRANCH   1   9
ATOM      9  C   UNL     1      28.631  59.983  87.099  1.00  0.00     0.000 C 
BRANCH   9  10
ATOM     10  C   UNL     1      27.452  60.791  86.532  1.00  0.00     0.000 C 
BRANCH  10  11
ATOM     11  C   UNL     1      26.382  59.896  85.883  1.00  0.00    -0.000 C 
BRANCH  11  12
ATOM     12  C   UNL     1      26.265  60.123  84.367  1.00  0.00    -0.000 C 
BRANCH  12  13
ATOM     13  C   UNL     1      26.826  61.483  83.925  1.00  0.00    -0.003 C 
ATOM     14  C   UNL     1      27.715  61.336  82.694  1.00  0.00     0.004 C 
ENDBRANCH  12  13
ENDBRANCH  11  12
ENDBRANCH  10  11
ENDBRANCH   9  10
ENDBRANCH   1   9
TORSDOF 9
ENDMDL
