MODEL 1
REMARK VINA RESULT:    -4.970      0.000      0.000
REMARK INTER + INTRA:         -18.648
REMARK INTER:                 -13.105
REMARK INTRA:                  -5.543
REMARK UNBOUND:                -5.543
REMARK SMILES CCCCCCCCCCCCCCCCCCCCCCCCCCCCCC(=O)[O-]
REMARK SMILES IDX 16 1 17 2 18 3 19 4 20 5 21 6 22 7 23 8 24 9 25 10 26 11
REMARK SMILES IDX 27 12 28 13 29 14 30 15 31 16 32 17 15 18 14 19 13 20 12 21
REMARK SMILES IDX 11 22 10 23 9 24 8 25 7 26 6 27 5 28 4 29 3 30 2 31 1 32
REMARK H PARENT
REMARK Flexibility Score: inf
ROOT
ATOM      1  C   UNL     1      27.825  34.073 148.679  1.00  0.00     0.000 C 
ENDROOT
BRANCH   1   2
ATOM      2  C   UNL     1      26.452  34.291 149.339  1.00  0.00     0.000 C 
BRANCH   2   3
ATOM      3  C   UNL     1      25.386  33.302 148.834  1.00  0.00     0.000 C 
BRANCH   3   4
ATOM      4  C   UNL     1      24.023  33.971 148.592  1.00  0.00     0.000 C 
BRANCH   4   5
ATOM      5  C   UNL     1      23.879  34.682 147.233  1.00  0.00     0.000 C 
BRANCH   5   6
ATOM      6  C   UNL     1      23.599  36.196 147.345  1.00  0.00     0.000 C 
BRANCH   6   7
ATOM      7  C   UNL     1      23.682  36.702 148.796  1.00  0.00     0.000 C 
BRANCH   7   8
ATOM      8  C   UNL     1      23.214  38.159 148.939  1.00  0.00     0.000 C 
BRANCH   8   9
ATOM      9  C   UNL     1      23.267  38.927 147.607  1.00  0.00     0.000 C 
BRANCH   9  10
ATOM     10  C   UNL     1      24.197  40.153 147.662  1.00  0.00     0.000 C 
BRANCH  10  11
ATOM     11  C   UNL     1      24.347  40.789 149.059  1.00  0.00     0.000 C 
BRANCH  11  12
ATOM     12  C   UNL     1      24.148  42.317 149.108  1.00  0.00     0.000 C 
BRANCH  12  13
ATOM     13  C   UNL     1      24.889  43.108 148.010  1.00  0.00     0.006 C 
BRANCH  13  14
ATOM     14  C   UNL     1      24.874  44.632 148.207  1.00  0.00     0.053 C 
BRANCH  14  15
ATOM     15  C   UNL     1      25.305  45.023 149.587  1.00  0.00     0.041 C 
ATOM     16  O   UNL     1      24.647  45.879 150.236  1.00  0.00    -0.550 OA
ATOM     17  O   UNL     1      26.405  44.409 150.173  1.00  0.00    -0.550 OA
ENDBRANCH  14  15
ENDBRANCH  13  14
ENDBRANCH  12  13
ENDBRANCH  11  12
ENDBRANCH  10  11
ENDBRANCH   9  10
ENDBRANCH   8   9
ENDBRANCH   7   8
ENDBRANCH   6   7
ENDBRANCH   5   6
ENDBRANCH   4   5
ENDBRANCH   3   4
ENDBRANCH   2   3
ENDBRANCH   1   2
BRANCH   1  18
ATOM     18  C   UNL     1      28.386  35.299 147.931  1.00  0.00     0.000 C 
BRANCH  18  19
ATOM     19  C   UNL     1      27.348  36.001 147.026  1.00  0.00     0.000 C 
BRANCH  19  20
ATOM     20  C   UNL     1      27.034  37.441 147.474  1.00  0.00     0.000 C 
BRANCH  20  21
ATOM     21  C   UNL     1      27.824  37.836 148.736  1.00  0.00     0.000 C 
BRANCH  21  22
ATOM     22  C   UNL     1      26.910  38.159 149.933  1.00  0.00     0.000 C 
BRANCH  22  23
ATOM     23  C   UNL     1      27.180  39.534 150.583  1.00  0.00     0.000 C 
BRANCH  23  24
ATOM     24  C   UNL     1      28.465  40.218 150.087  1.00  0.00    -0.000 C 
BRANCH  24  25
ATOM     25  C   UNL     1      28.182  41.502 149.291  1.00  0.00    -0.000 C 
BRANCH  25  26
ATOM     26  C   UNL     1      28.640  41.420 147.822  1.00  0.00    -0.000 C 
BRANCH  26  27
ATOM     27  C   UNL     1      27.558  40.987 146.814  1.00  0.00    -0.000 C 
BRANCH  27  28
ATOM     28  C   UNL     1      27.776  41.560 145.405  1.00  0.00    -0.000 C 
BRANCH  28  29
ATOM     29  C   UNL     1      28.162  40.452 144.415  1.00  0.00    -0.000 C 
BRANCH  29  30
ATOM     30  C   UNL     1      29.655  40.479 144.051  1.00  0.00    -0.000 C 
BRANCH  30  31
ATOM     31  C   UNL     1      30.281  39.077 144.024  1.00  0.00    -0.003 C 
ATOM     32  C   UNL     1      29.794  38.233 145.199  1.00  0.00     0.004 C 
ENDBRANCH  30  31
ENDBRANCH  29  30
ENDBRANCH  28  29
ENDBRANCH  27  28
ENDBRANCH  26  27
ENDBRANCH  25  26
ENDBRANCH  24  25
ENDBRANCH  23  24
ENDBRANCH  22  23
ENDBRANCH  21  22
ENDBRANCH  20  21
ENDBRANCH  19  20
ENDBRANCH  18  19
ENDBRANCH   1  18
TORSDOF 28
ENDMDL
MODEL 2
REMARK VINA RESULT:    -4.962      2.340      4.743
REMARK INTER + INTRA:         -18.628
REMARK INTER:                 -12.676
REMARK INTRA:                  -5.952
REMARK UNBOUND:                -5.543
REMARK SMILES CCCCCCCCCCCCCCCCCCCCCCCCCCCCCC(=O)[O-]
REMARK SMILES IDX 16 1 17 2 18 3 19 4 20 5 21 6 22 7 23 8 24 9 25 10 26 11
REMARK SMILES IDX 27 12 28 13 29 14 30 15 31 16 32 17 15 18 14 19 13 20 12 21
REMARK SMILES IDX 11 22 10 23 9 24 8 25 7 26 6 27 5 28 4 29 3 30 2 31 1 32
REMARK H PARENT
REMARK Flexibility Score: inf
ROOT
ATOM      1  C   UNL     1      24.278  35.090 147.373  1.00  0.00     0.000 C 
ENDROOT
BRANCH   1   2
ATOM      2  C   UNL     1      24.072  33.851 148.262  1.00  0.00     0.000 C 
BRANCH   2   3
ATOM      3  C   UNL     1      25.398  33.242 148.751  1.00  0.00     0.000 C 
BRANCH   3   4
ATOM      4  C   UNL     1      26.629  33.992 148.214  1.00  0.00     0.000 C 
BRANCH   4   5
ATOM      5  C   UNL     1      27.749  34.226 149.244  1.00  0.00     0.000 C 
BRANCH   5   6
ATOM      6  C   UNL     1      27.375  35.225 150.360  1.00  0.00     0.000 C 
BRANCH   6   7
ATOM      7  C   UNL     1      26.717  36.502 149.808  1.00  0.00     0.000 C 
BRANCH   7   8
ATOM      8  C   UNL     1      27.748  37.551 149.363  1.00  0.00     0.000 C 
BRANCH   8   9
ATOM      9  C   UNL     1      27.470  38.084 147.947  1.00  0.00     0.000 C 
BRANCH   9  10
ATOM     10  C   UNL     1      28.059  37.184 146.845  1.00  0.00     0.000 C 
BRANCH  10  11
ATOM     11  C   UNL     1      29.495  36.690 147.112  1.00  0.00     0.000 C 
BRANCH  11  12
ATOM     12  C   UNL     1      30.615  37.615 146.594  1.00  0.00     0.000 C 
BRANCH  12  13
ATOM     13  C   UNL     1      31.502  38.243 147.689  1.00  0.00     0.006 C 
BRANCH  13  14
ATOM     14  C   UNL     1      30.854  39.421 148.432  1.00  0.00     0.053 C 
BRANCH  14  15
ATOM     15  C   UNL     1      31.734  39.949 149.523  1.00  0.00     0.041 C 
ATOM     16  O   UNL     1      31.273  40.757 150.372  1.00  0.00    -0.550 OA
ATOM     17  O   UNL     1      33.048  39.511 149.630  1.00  0.00    -0.550 OA
ENDBRANCH  14  15
ENDBRANCH  13  14
ENDBRANCH  12  13
ENDBRANCH  11  12
ENDBRANCH  10  11
ENDBRANCH   9  10
ENDBRANCH   8   9
ENDBRANCH   7   8
ENDBRANCH   6   7
ENDBRANCH   5   6
ENDBRANCH   4   5
ENDBRANCH   3   4
ENDBRANCH   2   3
ENDBRANCH   1   2
BRANCH   1  18
ATOM     18  C   UNL     1      23.482  36.336 147.805  1.00  0.00     0.000 C 
BRANCH  18  19
ATOM     19  C   UNL     1      24.138  37.670 147.381  1.00  0.00     0.000 C 
BRANCH  19  20
ATOM     20  C   UNL     1      23.291  38.902 147.749  1.00  0.00     0.000 C 
BRANCH  20  21
ATOM     21  C   UNL     1      24.052  39.868 148.676  1.00  0.00     0.000 C 
BRANCH  21  22
ATOM     22  C   UNL     1      24.216  39.317 150.105  1.00  0.00     0.000 C 
BRANCH  22  23
ATOM     23  C   UNL     1      25.381  39.947 150.898  1.00  0.00     0.000 C 
BRANCH  23  24
ATOM     24  C   UNL     1      25.955  41.222 150.257  1.00  0.00    -0.000 C 
BRANCH  24  25
ATOM     25  C   UNL     1      27.482  41.165 150.091  1.00  0.00    -0.000 C 
BRANCH  25  26
ATOM     26  C   UNL     1      27.973  41.773 148.763  1.00  0.00    -0.000 C 
BRANCH  26  27
ATOM     27  C   UNL     1      26.865  42.223 147.791  1.00  0.00    -0.000 C 
BRANCH  27  28
ATOM     28  C   UNL     1      26.648  41.249 146.623  1.00  0.00    -0.000 C 
BRANCH  28  29
ATOM     29  C   UNL     1      27.634  41.532 145.481  1.00  0.00    -0.000 C 
BRANCH  29  30
ATOM     30  C   UNL     1      28.654  40.399 145.286  1.00  0.00    -0.000 C 
BRANCH  30  31
ATOM     31  C   UNL     1      28.877  40.053 143.806  1.00  0.00    -0.003 C 
ATOM     32  C   UNL     1      30.108  40.767 143.253  1.00  0.00     0.004 C 
ENDBRANCH  30  31
ENDBRANCH  29  30
ENDBRANCH  28  29
ENDBRANCH  27  28
ENDBRANCH  26  27
ENDBRANCH  25  26
ENDBRANCH  24  25
ENDBRANCH  23  24
ENDBRANCH  22  23
ENDBRANCH  21  22
ENDBRANCH  20  21
ENDBRANCH  19  20
ENDBRANCH  18  19
ENDBRANCH   1  18
TORSDOF 28
ENDMDL
MODEL 3
REMARK VINA RESULT:    -4.948      1.427      4.114
REMARK INTER + INTRA:         -18.591
REMARK INTER:                 -12.996
REMARK INTRA:                  -5.595
REMARK UNBOUND:                -5.543
REMARK SMILES CCCCCCCCCCCCCCCCCCCCCCCCCCCCCC(=O)[O-]
REMARK SMILES IDX 16 1 17 2 18 3 19 4 20 5 21 6 22 7 23 8 24 9 25 10 26 11
REMARK SMILES IDX 27 12 28 13 29 14 30 15 31 16 32 17 15 18 14 19 13 20 12 21
REMARK SMILES IDX 11 22 10 23 9 24 8 25 7 26 6 27 5 28 4 29 3 30 2 31 1 32
REMARK H PARENT
REMARK Flexibility Score: inf
ROOT
ATOM      1  C   UNL     1      24.263  37.056 147.370  1.00  0.00     0.000 C 
ENDROOT
BRANCH   1   2
ATOM      2  C   UNL     1      23.550  38.359 147.773  1.00  0.00     0.000 C 
BRANCH   2   3
ATOM      3  C   UNL     1      22.822  38.244 149.125  1.00  0.00     0.000 C 
BRANCH   3   4
ATOM      4  C   UNL     1      23.657  38.788 150.296  1.00  0.00     0.000 C 
BRANCH   4   5
ATOM      5  C   UNL     1      24.323  40.153 150.043  1.00  0.00     0.000 C 
BRANCH   5   6
ATOM      6  C   UNL     1      25.761  40.259 150.592  1.00  0.00     0.000 C 
BRANCH   6   7
ATOM      7  C   UNL     1      26.735  39.311 149.871  1.00  0.00     0.000 C 
BRANCH   7   8
ATOM      8  C   UNL     1      27.458  39.990 148.696  1.00  0.00     0.000 C 
BRANCH   8   9
ATOM      9  C   UNL     1      26.712  39.808 147.363  1.00  0.00     0.000 C 
BRANCH   9  10
ATOM     10  C   UNL     1      25.988  41.088 146.906  1.00  0.00     0.000 C 
BRANCH  10  11
ATOM     11  C   UNL     1      26.735  42.400 147.218  1.00  0.00     0.000 C 
BRANCH  11  12
ATOM     12  C   UNL     1      26.036  43.329 148.231  1.00  0.00     0.000 C 
BRANCH  12  13
ATOM     13  C   UNL     1      24.497  43.214 148.267  1.00  0.00     0.006 C 
BRANCH  13  14
ATOM     14  C   UNL     1      23.769  44.540 148.535  1.00  0.00     0.053 C 
BRANCH  14  15
ATOM     15  C   UNL     1      23.469  44.732 149.990  1.00  0.00     0.041 C 
ATOM     16  O   UNL     1      23.170  45.874 150.429  1.00  0.00    -0.550 OA
ATOM     17  O   UNL     1      23.471  43.641 150.850  1.00  0.00    -0.550 OA
ENDBRANCH  14  15
ENDBRANCH  13  14
ENDBRANCH  12  13
ENDBRANCH  11  12
ENDBRANCH  10  11
ENDBRANCH   9  10
ENDBRANCH   8   9
ENDBRANCH   7   8
ENDBRANCH   6   7
ENDBRANCH   5   6
ENDBRANCH   4   5
ENDBRANCH   3   4
ENDBRANCH   2   3
ENDBRANCH   1   2
BRANCH   1  18
ATOM     18  C   UNL     1      23.376  35.796 147.404  1.00  0.00     0.000 C 
BRANCH  18  19
ATOM     19  C   UNL     1      24.134  34.495 147.053  1.00  0.00     0.000 C 
BRANCH  19  20
ATOM     20  C   UNL     1      24.073  33.441 148.175  1.00  0.00     0.000 C 
BRANCH  20  21
ATOM     21  C   UNL     1      24.698  33.958 149.484  1.00  0.00     0.000 C 
BRANCH  21  22
ATOM     22  C   UNL     1      26.223  34.149 149.382  1.00  0.00     0.000 C 
BRANCH  22  23
ATOM     23  C   UNL     1      26.702  35.588 149.672  1.00  0.00     0.000 C 
BRANCH  23  24
ATOM     24  C   UNL     1      27.879  36.043 148.793  1.00  0.00    -0.000 C 
BRANCH  24  25
ATOM     25  C   UNL     1      27.617  35.825 147.294  1.00  0.00    -0.000 C 
BRANCH  25  26
ATOM     26  C   UNL     1      28.327  36.856 146.397  1.00  0.00    -0.000 C 
BRANCH  26  27
ATOM     27  C   UNL     1      29.629  37.449 146.969  1.00  0.00    -0.000 C 
BRANCH  27  28
ATOM     28  C   UNL     1      30.774  37.500 145.946  1.00  0.00    -0.000 C 
BRANCH  28  29
ATOM     29  C   UNL     1      31.216  38.947 145.687  1.00  0.00    -0.000 C 
BRANCH  29  30
ATOM     30  C   UNL     1      30.162  39.975 146.131  1.00  0.00    -0.000 C 
BRANCH  30  31
ATOM     31  C   UNL     1      29.761  40.935 145.001  1.00  0.00    -0.003 C 
ATOM     32  C   UNL     1      28.572  40.391 144.213  1.00  0.00     0.004 C 
ENDBRANCH  30  31
ENDBRANCH  29  30
ENDBRANCH  28  29
ENDBRANCH  27  28
ENDBRANCH  26  27
ENDBRANCH  25  26
ENDBRANCH  24  25
ENDBRANCH  23  24
ENDBRANCH  22  23
ENDBRANCH  21  22
ENDBRANCH  20  21
ENDBRANCH  19  20
ENDBRANCH  18  19
ENDBRANCH   1  18
TORSDOF 28
ENDMDL
MODEL 4
REMARK VINA RESULT:    -4.923      3.111      7.459
REMARK INTER + INTRA:         -18.524
REMARK INTER:                 -13.251
REMARK INTRA:                  -5.273
REMARK UNBOUND:                -5.543
REMARK SMILES CCCCCCCCCCCCCCCCCCCCCCCCCCCCCC(=O)[O-]
REMARK SMILES IDX 16 1 17 2 18 3 19 4 20 5 21 6 22 7 23 8 24 9 25 10 26 11
REMARK SMILES IDX 27 12 28 13 29 14 30 15 31 16 32 17 15 18 14 19 13 20 12 21
REMARK SMILES IDX 11 22 10 23 9 24 8 25 7 26 6 27 5 28 4 29 3 30 2 31 1 32
REMARK H PARENT
REMARK Flexibility Score: inf
ROOT
ATOM      1  C   UNL     1      24.844  40.925 148.312  1.00  0.00     0.000 C 
ENDROOT
BRANCH   1   2
ATOM      2  C   UNL     1      25.116  41.136 149.812  1.00  0.00     0.000 C 
BRANCH   2   3
ATOM      3  C   UNL     1      25.616  39.859 150.511  1.00  0.00     0.000 C 
BRANCH   3   4
ATOM      4  C   UNL     1      27.054  39.996 151.038  1.00  0.00     0.000 C 
BRANCH   4   5
ATOM      5  C   UNL     1      27.932  41.008 150.279  1.00  0.00     0.000 C 
BRANCH   5   6
ATOM      6  C   UNL     1      29.086  40.362 149.483  1.00  0.00     0.000 C 
BRANCH   6   7
ATOM      7  C   UNL     1      28.775  40.257 147.980  1.00  0.00     0.000 C 
BRANCH   7   8
ATOM      8  C   UNL     1      28.282  41.586 147.386  1.00  0.00     0.000 C 
BRANCH   8   9
ATOM      9  C   UNL     1      27.717  41.420 145.964  1.00  0.00     0.000 C 
BRANCH   9  10
ATOM     10  C   UNL     1      28.818  41.258 144.900  1.00  0.00     0.000 C 
BRANCH  10  11
ATOM     11  C   UNL     1      28.662  40.022 143.992  1.00  0.00     0.000 C 
BRANCH  11  12
ATOM     12  C   UNL     1      29.310  38.728 144.527  1.00  0.00     0.000 C 
BRANCH  12  13
ATOM     13  C   UNL     1      30.813  38.839 144.855  1.00  0.00     0.006 C 
BRANCH  13  14
ATOM     14  C   UNL     1      31.193  38.341 146.258  1.00  0.00     0.053 C 
BRANCH  14  15
ATOM     15  C   UNL     1      31.639  36.911 146.243  1.00  0.00     0.041 C 
ATOM     16  O   UNL     1      32.288  36.460 145.261  1.00  0.00    -0.550 OA
ATOM     17  O   UNL     1      31.379  36.090 147.333  1.00  0.00    -0.550 OA
ENDBRANCH  14  15
ENDBRANCH  13  14
ENDBRANCH  12  13
ENDBRANCH  11  12
ENDBRANCH  10  11
ENDBRANCH   9  10
ENDBRANCH   8   9
ENDBRANCH   7   8
ENDBRANCH   6   7
ENDBRANCH   5   6
ENDBRANCH   4   5
ENDBRANCH   3   4
ENDBRANCH   2   3
ENDBRANCH   1   2
BRANCH   1  18
ATOM     18  C   UNL     1      24.796  39.451 147.864  1.00  0.00     0.000 C 
BRANCH  18  19
ATOM     19  C   UNL     1      23.363  38.885 147.747  1.00  0.00     0.000 C 
BRANCH  19  20
ATOM     20  C   UNL     1      22.991  37.942 148.907  1.00  0.00     0.000 C 
BRANCH  20  21
ATOM     21  C   UNL     1      23.671  36.567 148.773  1.00  0.00     0.000 C 
BRANCH  21  22
ATOM     22  C   UNL     1      23.620  36.015 147.335  1.00  0.00     0.000 C 
BRANCH  22  23
ATOM     23  C   UNL     1      24.428  34.715 147.127  1.00  0.00     0.000 C 
BRANCH  23  24
ATOM     24  C   UNL     1      23.686  33.442 147.567  1.00  0.00    -0.000 C 
BRANCH  24  25
ATOM     25  C   UNL     1      24.414  32.693 148.695  1.00  0.00    -0.000 C 
BRANCH  25  26
ATOM     26  C   UNL     1      25.573  33.499 149.311  1.00  0.00    -0.000 C 
BRANCH  26  27
ATOM     27  C   UNL     1      26.914  33.415 148.556  1.00  0.00    -0.000 C 
BRANCH  27  28
ATOM     28  C   UNL     1      28.038  34.224 149.221  1.00  0.00    -0.000 C 
BRANCH  28  29
ATOM     29  C   UNL     1      27.465  35.256 150.203  1.00  0.00    -0.000 C 
BRANCH  29  30
ATOM     30  C   UNL     1      27.209  36.621 149.544  1.00  0.00    -0.000 C 
BRANCH  30  31
ATOM     31  C   UNL     1      28.138  36.883 148.349  1.00  0.00    -0.003 C 
ATOM     32  C   UNL     1      27.348  36.972 147.046  1.00  0.00     0.004 C 
ENDBRANCH  30  31
ENDBRANCH  29  30
ENDBRANCH  28  29
ENDBRANCH  27  28
ENDBRANCH  26  27
ENDBRANCH  25  26
ENDBRANCH  24  25
ENDBRANCH  23  24
ENDBRANCH  22  23
ENDBRANCH  21  22
ENDBRANCH  20  21
ENDBRANCH  19  20
ENDBRANCH  18  19
ENDBRANCH   1  18
TORSDOF 28
ENDMDL
MODEL 5
REMARK VINA RESULT:    -4.888      2.891      4.966
REMARK INTER + INTRA:         -18.433
REMARK INTER:                 -13.001
REMARK INTRA:                  -5.432
REMARK UNBOUND:                -5.543
REMARK SMILES CCCCCCCCCCCCCCCCCCCCCCCCCCCCCC(=O)[O-]
REMARK SMILES IDX 16 1 17 2 18 3 19 4 20 5 21 6 22 7 23 8 24 9 25 10 26 11
REMARK SMILES IDX 27 12 28 13 29 14 30 15 31 16 32 17 15 18 14 19 13 20 12 21
REMARK SMILES IDX 11 22 10 23 9 24 8 25 7 26 6 27 5 28 4 29 3 30 2 31 1 32
REMARK H PARENT
REMARK Flexibility Score: inf
ROOT
ATOM      1  C   UNL     1      25.220  33.053 148.870  1.00  0.00     0.000 C 
ENDROOT
BRANCH   1   2
ATOM      2  C   UNL     1      24.009  33.284 147.950  1.00  0.00     0.000 C 
BRANCH   2   3
ATOM      3  C   UNL     1      24.204  34.477 146.996  1.00  0.00     0.000 C 
BRANCH   3   4
ATOM      4  C   UNL     1      23.236  35.635 147.290  1.00  0.00     0.000 C 
BRANCH   4   5
ATOM      5  C   UNL     1      23.847  36.812 148.073  1.00  0.00     0.000 C 
BRANCH   5   6
ATOM      6  C   UNL     1      23.595  38.191 147.427  1.00  0.00     0.000 C 
BRANCH   6   7
ATOM      7  C   UNL     1      24.058  39.352 148.325  1.00  0.00     0.000 C 
BRANCH   7   8
ATOM      8  C   UNL     1      23.914  40.720 147.639  1.00  0.00     0.000 C 
BRANCH   8   9
ATOM      9  C   UNL     1      25.255  41.466 147.529  1.00  0.00     0.000 C 
BRANCH   9  10
ATOM     10  C   UNL     1      26.281  40.723 146.654  1.00  0.00     0.000 C 
BRANCH  10  11
ATOM     11  C   UNL     1      27.436  41.597 146.127  1.00  0.00     0.000 C 
BRANCH  11  12
ATOM     12  C   UNL     1      28.120  41.079 144.845  1.00  0.00     0.000 C 
BRANCH  12  13
ATOM     13  C   UNL     1      28.662  39.637 144.933  1.00  0.00     0.006 C 
BRANCH  13  14
ATOM     14  C   UNL     1      29.967  39.497 145.732  1.00  0.00     0.053 C 
BRANCH  14  15
ATOM     15  C   UNL     1      30.693  38.230 145.402  1.00  0.00     0.041 C 
ATOM     16  O   UNL     1      30.602  37.231 146.165  1.00  0.00    -0.550 OA
ATOM     17  O   UNL     1      31.432  38.136 144.229  1.00  0.00    -0.550 OA
ENDBRANCH  14  15
ENDBRANCH  13  14
ENDBRANCH  12  13
ENDBRANCH  11  12
ENDBRANCH  10  11
ENDBRANCH   9  10
ENDBRANCH   8   9
ENDBRANCH   7   8
ENDBRANCH   6   7
ENDBRANCH   5   6
ENDBRANCH   4   5
ENDBRANCH   3   4
ENDBRANCH   2   3
ENDBRANCH   1   2
BRANCH   1  18
ATOM     18  C   UNL     1      25.400  34.107 149.980  1.00  0.00     0.000 C 
BRANCH  18  19
ATOM     19  C   UNL     1      26.810  34.737 150.016  1.00  0.00     0.000 C 
BRANCH  19  20
ATOM     20  C   UNL     1      27.762  34.143 148.961  1.00  0.00     0.000 C 
BRANCH  20  21
ATOM     21  C   UNL     1      28.454  35.238 148.128  1.00  0.00     0.000 C 
BRANCH  21  22
ATOM     22  C   UNL     1      27.495  35.929 147.140  1.00  0.00     0.000 C 
BRANCH  22  23
ATOM     23  C   UNL     1      27.298  37.439 147.400  1.00  0.00     0.000 C 
BRANCH  23  24
ATOM     24  C   UNL     1      28.063  37.967 148.625  1.00  0.00    -0.000 C 
BRANCH  24  25
ATOM     25  C   UNL     1      27.133  38.319 149.797  1.00  0.00    -0.000 C 
BRANCH  25  26
ATOM     26  C   UNL     1      27.180  39.809 150.184  1.00  0.00    -0.000 C 
BRANCH  26  27
ATOM     27  C   UNL     1      28.590  40.405 150.358  1.00  0.00    -0.000 C 
BRANCH  27  28
ATOM     28  C   UNL     1      29.023  41.296 149.185  1.00  0.00    -0.000 C 
BRANCH  28  29
ATOM     29  C   UNL     1      30.500  41.695 149.312  1.00  0.00    -0.000 C 
BRANCH  29  30
ATOM     30  C   UNL     1      31.352  40.601 149.976  1.00  0.00    -0.000 C 
BRANCH  30  31
ATOM     31  C   UNL     1      31.434  39.322 149.130  1.00  0.00    -0.003 C 
ATOM     32  C   UNL     1      32.865  39.053 148.673  1.00  0.00     0.004 C 
ENDBRANCH  30  31
ENDBRANCH  29  30
ENDBRANCH  28  29
ENDBRANCH  27  28
ENDBRANCH  26  27
ENDBRANCH  25  26
ENDBRANCH  24  25
ENDBRANCH  23  24
ENDBRANCH  22  23
ENDBRANCH  21  22
ENDBRANCH  20  21
ENDBRANCH  19  20
ENDBRANCH  18  19
ENDBRANCH   1  18
TORSDOF 28
ENDMDL
MODEL 6
REMARK VINA RESULT:    -4.863      2.393      5.109
REMARK INTER + INTRA:         -18.366
REMARK INTER:                 -13.085
REMARK INTRA:                  -5.281
REMARK UNBOUND:                -5.543
REMARK SMILES CCCCCCCCCCCCCCCCCCCCCCCCCCCCCC(=O)[O-]
REMARK SMILES IDX 16 1 17 2 18 3 19 4 20 5 21 6 22 7 23 8 24 9 25 10 26 11
REMARK SMILES IDX 27 12 28 13 29 14 30 15 31 16 32 17 15 18 14 19 13 20 12 21
REMARK SMILES IDX 11 22 10 23 9 24 8 25 7 26 6 27 5 28 4 29 3 30 2 31 1 32
REMARK H PARENT
REMARK Flexibility Score: inf
ROOT
ATOM      1  C   UNL     1      24.272  34.521 147.001  1.00  0.00     0.000 C 
ENDROOT
BRANCH   1   2
ATOM      2  C   UNL     1      24.260  33.337 147.984  1.00  0.00     0.000 C 
BRANCH   2   3
ATOM      3  C   UNL     1      25.498  33.312 148.899  1.00  0.00     0.000 C 
BRANCH   3   4
ATOM      4  C   UNL     1      26.775  33.779 148.181  1.00  0.00     0.000 C 
BRANCH   4   5
ATOM      5  C   UNL     1      27.896  34.284 149.109  1.00  0.00     0.000 C 
BRANCH   5   6
ATOM      6  C   UNL     1      27.393  35.152 150.282  1.00  0.00     0.000 C 
BRANCH   6   7
ATOM      7  C   UNL     1      26.941  36.550 149.826  1.00  0.00     0.000 C 
BRANCH   7   8
ATOM      8  C   UNL     1      28.039  37.302 149.057  1.00  0.00     0.000 C 
BRANCH   8   9
ATOM      9  C   UNL     1      27.564  37.783 147.675  1.00  0.00     0.000 C 
BRANCH   9  10
ATOM     10  C   UNL     1      28.201  36.992 146.517  1.00  0.00     0.000 C 
BRANCH  10  11
ATOM     11  C   UNL     1      29.678  37.334 146.237  1.00  0.00     0.000 C 
BRANCH  11  12
ATOM     12  C   UNL     1      29.924  38.725 145.618  1.00  0.00     0.000 C 
BRANCH  12  13
ATOM     13  C   UNL     1      29.515  38.861 144.136  1.00  0.00     0.006 C 
BRANCH  13  14
ATOM     14  C   UNL     1      28.564  40.032 143.847  1.00  0.00     0.053 C 
BRANCH  14  15
ATOM     15  C   UNL     1      29.305  41.314 143.622  1.00  0.00     0.041 C 
ATOM     16  O   UNL     1      30.547  41.299 143.414  1.00  0.00    -0.550 OA
ATOM     17  O   UNL     1      28.615  42.520 143.596  1.00  0.00    -0.550 OA
ENDBRANCH  14  15
ENDBRANCH  13  14
ENDBRANCH  12  13
ENDBRANCH  11  12
ENDBRANCH  10  11
ENDBRANCH   9  10
ENDBRANCH   8   9
ENDBRANCH   7   8
ENDBRANCH   6   7
ENDBRANCH   5   6
ENDBRANCH   4   5
ENDBRANCH   3   4
ENDBRANCH   2   3
ENDBRANCH   1   2
BRANCH   1  18
ATOM     18  C   UNL     1      23.430  35.735 147.440  1.00  0.00     0.000 C 
BRANCH  18  19
ATOM     19  C   UNL     1      24.200  37.074 147.391  1.00  0.00     0.000 C 
BRANCH  19  20
ATOM     20  C   UNL     1      23.356  38.272 147.865  1.00  0.00     0.000 C 
BRANCH  20  21
ATOM     21  C   UNL     1      23.485  38.503 149.382  1.00  0.00     0.000 C 
BRANCH  21  22
ATOM     22  C   UNL     1      24.696  39.381 149.750  1.00  0.00     0.000 C 
BRANCH  22  23
ATOM     23  C   UNL     1      24.428  40.899 149.666  1.00  0.00     0.000 C 
BRANCH  23  24
ATOM     24  C   UNL     1      25.400  41.655 148.745  1.00  0.00    -0.000 C 
BRANCH  24  25
ATOM     25  C   UNL     1      25.401  41.108 147.309  1.00  0.00    -0.000 C 
BRANCH  25  26
ATOM     26  C   UNL     1      26.746  41.306 146.584  1.00  0.00    -0.000 C 
BRANCH  26  27
ATOM     27  C   UNL     1      27.852  41.988 147.412  1.00  0.00    -0.000 C 
BRANCH  27  28
ATOM     28  C   UNL     1      28.965  41.024 147.851  1.00  0.00    -0.000 C 
BRANCH  28  29
ATOM     29  C   UNL     1      28.922  40.789 149.367  1.00  0.00    -0.000 C 
BRANCH  29  30
ATOM     30  C   UNL     1      30.320  40.584 149.974  1.00  0.00    -0.000 C 
BRANCH  30  31
ATOM     31  C   UNL     1      31.206  39.666 149.119  1.00  0.00    -0.003 C 
ATOM     32  C   UNL     1      32.685  39.886 149.426  1.00  0.00     0.004 C 
ENDBRANCH  30  31
ENDBRANCH  29  30
ENDBRANCH  28  29
ENDBRANCH  27  28
ENDBRANCH  26  27
ENDBRANCH  25  26
ENDBRANCH  24  25
ENDBRANCH  23  24
ENDBRANCH  22  23
ENDBRANCH  21  22
ENDBRANCH  20  21
ENDBRANCH  19  20
ENDBRANCH  18  19
ENDBRANCH   1  18
TORSDOF 28
ENDMDL
MODEL 7
REMARK VINA RESULT:    -4.856      2.709      5.607
REMARK INTER + INTRA:         -18.349
REMARK INTER:                 -12.437
REMARK INTRA:                  -5.913
REMARK UNBOUND:                -5.543
REMARK SMILES CCCCCCCCCCCCCCCCCCCCCCCCCCCCCC(=O)[O-]
REMARK SMILES IDX 16 1 17 2 18 3 19 4 20 5 21 6 22 7 23 8 24 9 25 10 26 11
REMARK SMILES IDX 27 12 28 13 29 14 30 15 31 16 32 17 15 18 14 19 13 20 12 21
REMARK SMILES IDX 11 22 10 23 9 24 8 25 7 26 6 27 5 28 4 29 3 30 2 31 1 32
REMARK H PARENT
REMARK Flexibility Score: inf
ROOT
ATOM      1  C   UNL     1      24.507  39.397 147.601  1.00  0.00     0.000 C 
ENDROOT
BRANCH   1   2
ATOM      2  C   UNL     1      23.323  38.424 147.741  1.00  0.00     0.000 C 
BRANCH   2   3
ATOM      3  C   UNL     1      23.711  37.114 148.450  1.00  0.00     0.000 C 
BRANCH   3   4
ATOM      4  C   UNL     1      24.408  36.115 147.511  1.00  0.00     0.000 C 
BRANCH   4   5
ATOM      5  C   UNL     1      23.674  34.774 147.327  1.00  0.00     0.000 C 
BRANCH   5   6
ATOM      6  C   UNL     1      24.511  33.542 147.731  1.00  0.00     0.000 C 
BRANCH   6   7
ATOM      7  C   UNL     1      25.515  33.857 148.854  1.00  0.00     0.000 C 
BRANCH   7   8
ATOM      8  C   UNL     1      26.971  33.597 148.434  1.00  0.00     0.000 C 
BRANCH   8   9
ATOM      9  C   UNL     1      27.958  34.571 149.099  1.00  0.00     0.000 C 
BRANCH   9  10
ATOM     10  C   UNL     1      27.304  35.420 150.205  1.00  0.00     0.000 C 
BRANCH  10  11
ATOM     11  C   UNL     1      27.259  36.934 149.918  1.00  0.00     0.000 C 
BRANCH  11  12
ATOM     12  C   UNL     1      28.233  37.424 148.827  1.00  0.00     0.000 C 
BRANCH  12  13
ATOM     13  C   UNL     1      27.576  37.776 147.476  1.00  0.00     0.006 C 
BRANCH  13  14
ATOM     14  C   UNL     1      28.162  37.024 146.272  1.00  0.00     0.053 C 
BRANCH  14  15
ATOM     15  C   UNL     1      29.205  37.830 145.560  1.00  0.00     0.041 C 
ATOM     16  O   UNL     1      30.427  37.589 145.746  1.00  0.00    -0.550 OA
ATOM     17  O   UNL     1      28.825  38.814 144.655  1.00  0.00    -0.550 OA
ENDBRANCH  14  15
ENDBRANCH  13  14
ENDBRANCH  12  13
ENDBRANCH  11  12
ENDBRANCH  10  11
ENDBRANCH   9  10
ENDBRANCH   8   9
ENDBRANCH   7   8
ENDBRANCH   6   7
ENDBRANCH   5   6
ENDBRANCH   4   5
ENDBRANCH   3   4
ENDBRANCH   2   3
ENDBRANCH   1   2
BRANCH   1  18
ATOM     18  C   UNL     1      24.220  40.838 148.067  1.00  0.00     0.000 C 
BRANCH  18  19
ATOM     19  C   UNL     1      24.604  41.101 149.541  1.00  0.00     0.000 C 
BRANCH  19  20
ATOM     20  C   UNL     1      25.733  40.181 150.043  1.00  0.00     0.000 C 
BRANCH  20  21
ATOM     21  C   UNL     1      26.867  40.976 150.715  1.00  0.00     0.000 C 
BRANCH  21  22
ATOM     22  C   UNL     1      26.525  42.467 150.894  1.00  0.00     0.000 C 
BRANCH  22  23
ATOM     23  C   UNL     1      27.734  43.417 150.750  1.00  0.00     0.000 C 
BRANCH  23  24
ATOM     24  C   UNL     1      27.656  44.348 149.529  1.00  0.00    -0.000 C 
BRANCH  24  25
ATOM     25  C   UNL     1      26.833  43.747 148.378  1.00  0.00    -0.000 C 
BRANCH  25  26
ATOM     26  C   UNL     1      27.702  43.148 147.256  1.00  0.00    -0.000 C 
BRANCH  26  27
ATOM     27  C   UNL     1      27.807  41.611 147.248  1.00  0.00    -0.000 C 
BRANCH  27  28
ATOM     28  C   UNL     1      29.255  41.100 147.277  1.00  0.00    -0.000 C 
BRANCH  28  29
ATOM     29  C   UNL     1      29.948  41.487 148.591  1.00  0.00    -0.000 C 
BRANCH  29  30
ATOM     30  C   UNL     1      30.428  40.263 149.389  1.00  0.00    -0.000 C 
BRANCH  30  31
ATOM     31  C   UNL     1      31.494  40.622 150.435  1.00  0.00    -0.003 C 
ATOM     32  C   UNL     1      32.051  42.022 150.197  1.00  0.00     0.004 C 
ENDBRANCH  30  31
ENDBRANCH  29  30
ENDBRANCH  28  29
ENDBRANCH  27  28
ENDBRANCH  26  27
ENDBRANCH  25  26
ENDBRANCH  24  25
ENDBRANCH  23  24
ENDBRANCH  22  23
ENDBRANCH  21  22
ENDBRANCH  20  21
ENDBRANCH  19  20
ENDBRANCH  18  19
ENDBRANCH   1  18
TORSDOF 28
ENDMDL
MODEL 8
REMARK VINA RESULT:    -4.856      3.013      5.598
REMARK INTER + INTRA:         -18.348
REMARK INTER:                 -11.786
REMARK INTRA:                  -6.562
REMARK UNBOUND:                -5.543
REMARK SMILES CCCCCCCCCCCCCCCCCCCCCCCCCCCCCC(=O)[O-]
REMARK SMILES IDX 16 1 17 2 18 3 19 4 20 5 21 6 22 7 23 8 24 9 25 10 26 11
REMARK SMILES IDX 27 12 28 13 29 14 30 15 31 16 32 17 15 18 14 19 13 20 12 21
REMARK SMILES IDX 11 22 10 23 9 24 8 25 7 26 6 27 5 28 4 29 3 30 2 31 1 32
REMARK H PARENT
REMARK Flexibility Score: inf
ROOT
ATOM      1  C   UNL     1      27.644  38.592 148.642  1.00  0.00     0.000 C 
ENDROOT
BRANCH   1   2
ATOM      2  C   UNL     1      27.060  38.102 149.979  1.00  0.00     0.000 C 
BRANCH   2   3
ATOM      3  C   UNL     1      26.257  39.192 150.712  1.00  0.00     0.000 C 
BRANCH   3   4
ATOM      4  C   UNL     1      26.596  40.609 150.222  1.00  0.00     0.000 C 
BRANCH   4   5
ATOM      5  C   UNL     1      25.389  41.438 149.742  1.00  0.00     0.000 C 
BRANCH   5   6
ATOM      6  C   UNL     1      25.509  41.930 148.284  1.00  0.00     0.000 C 
BRANCH   6   7
ATOM      7  C   UNL     1      24.873  40.952 147.280  1.00  0.00     0.000 C 
BRANCH   7   8
ATOM      8  C   UNL     1      23.651  40.223 147.862  1.00  0.00     0.000 C 
BRANCH   8   9
ATOM      9  C   UNL     1      23.630  38.728 147.498  1.00  0.00     0.000 C 
BRANCH   9  10
ATOM     10  C   UNL     1      23.175  37.836 148.667  1.00  0.00     0.000 C 
BRANCH  10  11
ATOM     11  C   UNL     1      23.958  36.516 148.816  1.00  0.00     0.000 C 
BRANCH  11  12
ATOM     12  C   UNL     1      24.236  35.765 147.497  1.00  0.00     0.000 C 
BRANCH  12  13
ATOM     13  C   UNL     1      25.027  34.449 147.650  1.00  0.00     0.006 C 
BRANCH  13  14
ATOM     14  C   UNL     1      25.657  34.247 149.037  1.00  0.00     0.053 C 
BRANCH  14  15
ATOM     15  C   UNL     1      27.154  34.218 148.974  1.00  0.00     0.041 C 
ATOM     16  O   UNL     1      27.836  34.650 149.940  1.00  0.00    -0.550 OA
ATOM     17  O   UNL     1      27.793  33.669 147.869  1.00  0.00    -0.550 OA
ENDBRANCH  14  15
ENDBRANCH  13  14
ENDBRANCH  12  13
ENDBRANCH  11  12
ENDBRANCH  10  11
ENDBRANCH   9  10
ENDBRANCH   8   9
ENDBRANCH   7   8
ENDBRANCH   6   7
ENDBRANCH   5   6
ENDBRANCH   4   5
ENDBRANCH   3   4
ENDBRANCH   2   3
ENDBRANCH   1   2
BRANCH   1  18
ATOM     18  C   UNL     1      27.095  37.873 147.394  1.00  0.00     0.000 C 
BRANCH  18  19
ATOM     19  C   UNL     1      28.178  37.127 146.582  1.00  0.00     0.000 C 
BRANCH  19  20
ATOM     20  C   UNL     1      29.454  36.844 147.397  1.00  0.00     0.000 C 
BRANCH  20  21
ATOM     21  C   UNL     1      30.728  37.230 146.624  1.00  0.00     0.000 C 
BRANCH  21  22
ATOM     22  C   UNL     1      31.333  38.564 147.100  1.00  0.00     0.000 C 
BRANCH  22  23
ATOM     23  C   UNL     1      31.387  38.723 148.635  1.00  0.00     0.000 C 
BRANCH  23  24
ATOM     24  C   UNL     1      31.608  40.170 149.106  1.00  0.00    -0.000 C 
BRANCH  24  25
ATOM     25  C   UNL     1      30.363  40.771 149.778  1.00  0.00    -0.000 C 
BRANCH  25  26
ATOM     26  C   UNL     1      29.833  42.028 149.064  1.00  0.00    -0.000 C 
BRANCH  26  27
ATOM     27  C   UNL     1      29.866  41.979 147.524  1.00  0.00    -0.000 C 
BRANCH  27  28
ATOM     28  C   UNL     1      28.501  41.659 146.897  1.00  0.00    -0.000 C 
BRANCH  28  29
ATOM     29  C   UNL     1      28.655  40.712 145.698  1.00  0.00    -0.000 C 
BRANCH  29  30
ATOM     30  C   UNL     1      28.705  41.460 144.356  1.00  0.00    -0.000 C 
BRANCH  30  31
ATOM     31  C   UNL     1      29.521  40.710 143.293  1.00  0.00    -0.003 C 
ATOM     32  C   UNL     1      29.724  39.248 143.683  1.00  0.00     0.004 C 
ENDBRANCH  30  31
ENDBRANCH  29  30
ENDBRANCH  28  29
ENDBRANCH  27  28
ENDBRANCH  26  27
ENDBRANCH  25  26
ENDBRANCH  24  25
ENDBRANCH  23  24
ENDBRANCH  22  23
ENDBRANCH  21  22
ENDBRANCH  20  21
ENDBRANCH  19  20
ENDBRANCH  18  19
ENDBRANCH   1  18
TORSDOF 28
ENDMDL
MODEL 9
REMARK VINA RESULT:    -4.821      1.805      3.389
REMARK INTER + INTRA:         -18.257
REMARK INTER:                 -12.572
REMARK INTRA:                  -5.684
REMARK UNBOUND:                -5.543
REMARK SMILES CCCCCCCCCCCCCCCCCCCCCCCCCCCCCC(=O)[O-]
REMARK SMILES IDX 16 1 17 2 18 3 19 4 20 5 21 6 22 7 23 8 24 9 25 10 26 11
REMARK SMILES IDX 27 12 28 13 29 14 30 15 31 16 32 17 15 18 14 19 13 20 12 21
REMARK SMILES IDX 11 22 10 23 9 24 8 25 7 26 6 27 5 28 4 29 3 30 2 31 1 32
REMARK H PARENT
REMARK Flexibility Score: inf
ROOT
ATOM      1  C   UNL     1      25.299  33.120 148.838  1.00  0.00     0.000 C 
ENDROOT
BRANCH   1   2
ATOM      2  C   UNL     1      24.057  34.012 148.666  1.00  0.00     0.000 C 
BRANCH   2   3
ATOM      3  C   UNL     1      23.992  34.681 147.281  1.00  0.00     0.000 C 
BRANCH   3   4
ATOM      4  C   UNL     1      23.740  36.195 147.364  1.00  0.00     0.000 C 
BRANCH   4   5
ATOM      5  C   UNL     1      23.718  36.774 148.791  1.00  0.00     0.000 C 
BRANCH   5   6
ATOM      6  C   UNL     1      23.056  38.165 148.893  1.00  0.00     0.000 C 
BRANCH   6   7
ATOM      7  C   UNL     1      23.204  38.981 147.597  1.00  0.00     0.000 C 
BRANCH   7   8
ATOM      8  C   UNL     1      24.064  40.241 147.789  1.00  0.00     0.000 C 
BRANCH   8   9
ATOM      9  C   UNL     1      25.551  39.990 147.485  1.00  0.00     0.000 C 
BRANCH   9  10
ATOM     10  C   UNL     1      26.388  39.755 148.755  1.00  0.00     0.000 C 
BRANCH  10  11
ATOM     11  C   UNL     1      25.751  40.283 150.056  1.00  0.00     0.000 C 
BRANCH  11  12
ATOM     12  C   UNL     1      26.664  41.178 150.918  1.00  0.00     0.000 C 
BRANCH  12  13
ATOM     13  C   UNL     1      26.704  42.663 150.501  1.00  0.00     0.006 C 
BRANCH  13  14
ATOM     14  C   UNL     1      25.360  43.218 150.005  1.00  0.00     0.053 C 
BRANCH  14  15
ATOM     15  C   UNL     1      25.402  43.569 148.549  1.00  0.00     0.041 C 
ATOM     16  O   UNL     1      24.341  43.874 147.941  1.00  0.00    -0.550 OA
ATOM     17  O   UNL     1      26.617  43.605 147.877  1.00  0.00    -0.550 OA
ENDBRANCH  14  15
ENDBRANCH  13  14
ENDBRANCH  12  13
ENDBRANCH  11  12
ENDBRANCH  10  11
ENDBRANCH   9  10
ENDBRANCH   8   9
ENDBRANCH   7   8
ENDBRANCH   6   7
ENDBRANCH   5   6
ENDBRANCH   4   5
ENDBRANCH   3   4
ENDBRANCH   2   3
ENDBRANCH   1   2
BRANCH   1  18
ATOM     18  C   UNL     1      26.647  33.854 148.697  1.00  0.00     0.000 C 
BRANCH  18  19
ATOM     19  C   UNL     1      26.948  34.827 149.860  1.00  0.00     0.000 C 
BRANCH  19  20
ATOM     20  C   UNL     1      27.384  36.224 149.380  1.00  0.00     0.000 C 
BRANCH  20  21
ATOM     21  C   UNL     1      27.383  36.330 147.843  1.00  0.00     0.000 C 
BRANCH  21  22
ATOM     22  C   UNL     1      28.687  36.934 147.287  1.00  0.00     0.000 C 
BRANCH  22  23
ATOM     23  C   UNL     1      28.473  38.047 146.238  1.00  0.00     0.000 C 
BRANCH  23  24
ATOM     24  C   UNL     1      29.654  38.229 145.271  1.00  0.00    -0.000 C 
BRANCH  24  25
ATOM     25  C   UNL     1      30.403  39.552 145.493  1.00  0.00    -0.000 C 
BRANCH  25  26
ATOM     26  C   UNL     1      29.514  40.661 146.089  1.00  0.00    -0.000 C 
BRANCH  26  27
ATOM     27  C   UNL     1      30.167  41.511 147.195  1.00  0.00    -0.000 C 
BRANCH  27  28
ATOM     28  C   UNL     1      29.540  41.292 148.580  1.00  0.00    -0.000 C 
BRANCH  28  29
ATOM     29  C   UNL     1      30.123  40.043 149.256  1.00  0.00    -0.000 C 
BRANCH  29  30
ATOM     30  C   UNL     1      31.415  40.340 150.034  1.00  0.00    -0.000 C 
BRANCH  30  31
ATOM     31  C   UNL     1      32.583  39.439 149.606  1.00  0.00    -0.003 C 
ATOM     32  C   UNL     1      32.165  38.490 148.486  1.00  0.00     0.004 C 
ENDBRANCH  30  31
ENDBRANCH  29  30
ENDBRANCH  28  29
ENDBRANCH  27  28
ENDBRANCH  26  27
ENDBRANCH  25  26
ENDBRANCH  24  25
ENDBRANCH  23  24
ENDBRANCH  22  23
ENDBRANCH  21  22
ENDBRANCH  20  21
ENDBRANCH  19  20
ENDBRANCH  18  19
ENDBRANCH   1  18
TORSDOF 28
ENDMDL
