MODEL 1
REMARK VINA RESULT:    -3.924      0.000      0.000
REMARK INTER + INTRA:          -8.907
REMARK INTER:                  -6.906
REMARK INTRA:                  -2.001
REMARK UNBOUND:                -2.001
REMARK SMILES CCCCCCCCCCCCCCC(=O)[O-]
REMARK SMILES IDX 9 1 10 2 11 3 12 4 13 5 14 6 15 7 16 8 17 9 8 10 7 11 6 12
REMARK SMILES IDX 5 13 4 14 3 15 2 16 1 17
REMARK H PARENT
REMARK Flexibility Score: inf
ROOT
ATOM      1  C   UNL     1       1.452   2.542   8.177  1.00  0.00     0.000 C 
ENDROOT
BRANCH   1   2
ATOM      2  C   UNL     1       1.156   3.966   7.690  1.00  0.00     0.000 C 
BRANCH   2   3
ATOM      3  C   UNL     1       1.097   4.023   6.156  1.00  0.00     0.000 C 
BRANCH   3   4
ATOM      4  C   UNL     1       0.105   5.093   5.650  1.00  0.00     0.000 C 
BRANCH   4   5
ATOM      5  C   UNL     1      -1.057   4.515   4.826  1.00  0.00     0.006 C 
BRANCH   5   6
ATOM      6  C   UNL     1      -1.203   2.997   4.982  1.00  0.00     0.053 C 
BRANCH   6   7
ATOM      7  C   UNL     1      -2.351   2.673   5.886  1.00  0.00     0.041 C 
ATOM      8  O   UNL     1      -2.357   3.086   7.075  1.00  0.00    -0.550 OA
ATOM      9  O   UNL     1      -3.390   1.873   5.429  1.00  0.00    -0.550 OA
ENDBRANCH   6   7
ENDBRANCH   5   6
ENDBRANCH   4   5
ENDBRANCH   3   4
ENDBRANCH   2   3
ENDBRANCH   1   2
BRANCH   1  10
ATOM     10  C   UNL     1       1.073   1.506   7.111  1.00  0.00     0.000 C 
BRANCH  10  11
ATOM     11  C   UNL     1       1.881   0.214   7.287  1.00  0.00    -0.000 C 
BRANCH  11  12
ATOM     12  C   UNL     1       3.211   0.289   6.527  1.00  0.00    -0.000 C 
BRANCH  12  13
ATOM     13  C   UNL     1       4.401   0.244   7.498  1.00  0.00    -0.000 C 
BRANCH  13  14
ATOM     14  C   UNL     1       5.246   1.528   7.462  1.00  0.00    -0.000 C 
BRANCH  14  15
ATOM     15  C   UNL     1       4.676   2.583   6.498  1.00  0.00    -0.000 C 
BRANCH  15  16
ATOM     16  C   UNL     1       4.906   4.019   6.997  1.00  0.00    -0.003 C 
ATOM     17  C   UNL     1       4.838   4.136   8.519  1.00  0.00     0.004 C 
ENDBRANCH  15  16
ENDBRANCH  14  15
ENDBRANCH  13  14
ENDBRANCH  12  13
ENDBRANCH  11  12
ENDBRANCH  10  11
ENDBRANCH   1  10
TORSDOF 13
ENDMDL
MODEL 2
REMARK VINA RESULT:    -3.898      2.933      6.494
REMARK INTER + INTRA:          -8.862
REMARK INTER:                  -7.177
REMARK INTRA:                  -1.685
REMARK UNBOUND:                -2.001
REMARK SMILES CCCCCCCCCCCCCCC(=O)[O-]
REMARK SMILES IDX 9 1 10 2 11 3 12 4 13 5 14 6 15 7 16 8 17 9 8 10 7 11 6 12
REMARK SMILES IDX 5 13 4 14 3 15 2 16 1 17
REMARK H PARENT
REMARK Flexibility Score: inf
ROOT
ATOM      1  C   UNL     1      -0.381   5.016   6.103  1.00  0.00     0.000 C 
ENDROOT
BRANCH   1   2
ATOM      2  C   UNL     1       1.139   5.218   6.098  1.00  0.00     0.000 C 
BRANCH   2   3
ATOM      3  C   UNL     1       1.789   4.551   7.320  1.00  0.00     0.000 C 
BRANCH   3   4
ATOM      4  C   UNL     1       2.509   3.236   6.952  1.00  0.00     0.000 C 
BRANCH   4   5
ATOM      5  C   UNL     1       1.806   1.978   7.486  1.00  0.00     0.006 C 
BRANCH   5   6
ATOM      6  C   UNL     1       1.482   0.962   6.384  1.00  0.00     0.053 C 
BRANCH   6   7
ATOM      7  C   UNL     1       2.514  -0.120   6.350  1.00  0.00     0.041 C 
ATOM      8  O   UNL     1       2.366  -1.113   5.591  1.00  0.00    -0.550 OA
ATOM      9  O   UNL     1       3.615  -0.057   7.194  1.00  0.00    -0.550 OA
ENDBRANCH   6   7
ENDBRANCH   5   6
ENDBRANCH   4   5
ENDBRANCH   3   4
ENDBRANCH   2   3
ENDBRANCH   1   2
BRANCH   1  10
ATOM     10  C   UNL     1      -0.859   4.402   4.781  1.00  0.00     0.000 C 
BRANCH  10  11
ATOM     11  C   UNL     1      -1.274   2.938   4.973  1.00  0.00    -0.000 C 
BRANCH  11  12
ATOM     12  C   UNL     1      -1.891   2.718   6.360  1.00  0.00    -0.000 C 
BRANCH  12  13
ATOM     13  C   UNL     1      -3.313   2.147   6.244  1.00  0.00    -0.000 C 
BRANCH  13  14
ATOM     14  C   UNL     1      -4.354   3.217   5.876  1.00  0.00    -0.000 C 
BRANCH  14  15
ATOM     15  C   UNL     1      -4.112   4.551   6.604  1.00  0.00    -0.000 C 
BRANCH  15  16
ATOM     16  C   UNL     1      -4.227   5.762   5.664  1.00  0.00    -0.003 C 
ATOM     17  C   UNL     1      -5.393   6.683   6.023  1.00  0.00     0.004 C 
ENDBRANCH  15  16
ENDBRANCH  14  15
ENDBRANCH  13  14
ENDBRANCH  12  13
ENDBRANCH  11  12
ENDBRANCH  10  11
ENDBRANCH   1  10
TORSDOF 13
ENDMDL
MODEL 3
REMARK VINA RESULT:    -3.872     13.756     15.399
REMARK INTER + INTRA:          -8.816
REMARK INTER:                  -6.782
REMARK INTRA:                  -2.034
REMARK UNBOUND:                -2.001
REMARK SMILES CCCCCCCCCCCCCCC(=O)[O-]
REMARK SMILES IDX 9 1 10 2 11 3 12 4 13 5 14 6 15 7 16 8 17 9 8 10 7 11 6 12
REMARK SMILES IDX 5 13 4 14 3 15 2 16 1 17
REMARK H PARENT
REMARK Flexibility Score: inf
ROOT
ATOM      1  C   UNL     1      -5.428  -2.029  -7.737  1.00  0.00     0.000 C 
ENDROOT
BRANCH   1   2
ATOM      2  C   UNL     1      -6.151  -2.808  -6.631  1.00  0.00     0.000 C 
BRANCH   2   3
ATOM      3  C   UNL     1      -5.260  -3.927  -6.072  1.00  0.00     0.000 C 
BRANCH   3   4
ATOM      4  C   UNL     1      -4.918  -3.710  -4.582  1.00  0.00     0.000 C 
BRANCH   4   5
ATOM      5  C   UNL     1      -4.460  -4.989  -3.862  1.00  0.00     0.006 C 
BRANCH   5   6
ATOM      6  C   UNL     1      -4.686  -6.256  -4.696  1.00  0.00     0.053 C 
BRANCH   6   7
ATOM      7  C   UNL     1      -5.926  -6.963  -4.248  1.00  0.00     0.041 C 
ATOM      8  O   UNL     1      -6.048  -7.332  -3.050  1.00  0.00    -0.550 OA
ATOM      9  O   UNL     1      -6.927  -7.257  -5.164  1.00  0.00    -0.550 OA
ENDBRANCH   6   7
ENDBRANCH   5   6
ENDBRANCH   4   5
ENDBRANCH   3   4
ENDBRANCH   2   3
ENDBRANCH   1   2
BRANCH   1  10
ATOM     10  C   UNL     1      -5.264  -0.553  -7.354  1.00  0.00     0.000 C 
BRANCH  10  11
ATOM     11  C   UNL     1      -3.786  -0.199  -7.147  1.00  0.00    -0.000 C 
BRANCH  11  12
ATOM     12  C   UNL     1      -3.369  -0.411  -5.687  1.00  0.00    -0.000 C 
BRANCH  12  13
ATOM     13  C   UNL     1      -2.142  -1.331  -5.594  1.00  0.00    -0.000 C 
BRANCH  13  14
ATOM     14  C   UNL     1      -2.013  -2.273  -6.803  1.00  0.00    -0.000 C 
BRANCH  14  15
ATOM     15  C   UNL     1      -1.482  -3.663  -6.415  1.00  0.00    -0.000 C 
BRANCH  15  16
ATOM     16  C   UNL     1      -1.169  -3.775  -4.914  1.00  0.00    -0.003 C 
ATOM     17  C   UNL     1      -0.116  -4.839  -4.605  1.00  0.00     0.004 C 
ENDBRANCH  15  16
ENDBRANCH  14  15
ENDBRANCH  13  14
ENDBRANCH  12  13
ENDBRANCH  11  12
ENDBRANCH  10  11
ENDBRANCH   1  10
TORSDOF 13
ENDMDL
MODEL 4
REMARK VINA RESULT:    -3.869      1.133      2.861
REMARK INTER + INTRA:          -8.810
REMARK INTER:                  -7.089
REMARK INTRA:                  -1.721
REMARK UNBOUND:                -2.001
REMARK SMILES CCCCCCCCCCCCCCC(=O)[O-]
REMARK SMILES IDX 9 1 10 2 11 3 12 4 13 5 14 6 15 7 16 8 17 9 8 10 7 11 6 12
REMARK SMILES IDX 5 13 4 14 3 15 2 16 1 17
REMARK H PARENT
REMARK Flexibility Score: inf
ROOT
ATOM      1  C   UNL     1       1.387   4.473   7.283  1.00  0.00     0.000 C 
ENDROOT
BRANCH   1   2
ATOM      2  C   UNL     1       1.112   5.033   5.882  1.00  0.00     0.000 C 
BRANCH   2   3
ATOM      3  C   UNL     1      -0.396   5.067   5.587  1.00  0.00     0.000 C 
BRANCH   3   4
ATOM      4  C   UNL     1      -0.811   4.001   4.552  1.00  0.00     0.000 C 
BRANCH   4   5
ATOM      5  C   UNL     1      -1.195   2.650   5.177  1.00  0.00     0.006 C 
BRANCH   5   6
ATOM      6  C   UNL     1      -1.952   2.800   6.503  1.00  0.00     0.053 C 
BRANCH   6   7
ATOM      7  C   UNL     1      -3.428   2.840   6.260  1.00  0.00     0.041 C 
ATOM      8  O   UNL     1      -4.147   3.676   6.867  1.00  0.00    -0.550 OA
ATOM      9  O   UNL     1      -4.016   1.921   5.401  1.00  0.00    -0.550 OA
ENDBRANCH   6   7
ENDBRANCH   5   6
ENDBRANCH   4   5
ENDBRANCH   3   4
ENDBRANCH   2   3
ENDBRANCH   1   2
BRANCH   1  10
ATOM     10  C   UNL     1       2.886   4.226   7.493  1.00  0.00     0.000 C 
BRANCH  10  11
ATOM     11  C   UNL     1       3.517   3.583   6.251  1.00  0.00    -0.000 C 
BRANCH  11  12
ATOM     12  C   UNL     1       4.599   2.571   6.646  1.00  0.00    -0.000 C 
BRANCH  12  13
ATOM     13  C   UNL     1       3.980   1.348   7.342  1.00  0.00    -0.000 C 
BRANCH  13  14
ATOM     14  C   UNL     1       3.173   0.462   6.379  1.00  0.00    -0.000 C 
BRANCH  14  15
ATOM     15  C   UNL     1       1.666   0.477   6.686  1.00  0.00    -0.000 C 
BRANCH  15  16
ATOM     16  C   UNL     1       1.363   0.928   8.124  1.00  0.00    -0.003 C 
ATOM     17  C   UNL     1       1.093  -0.244   9.068  1.00  0.00     0.004 C 
ENDBRANCH  15  16
ENDBRANCH  14  15
ENDBRANCH  13  14
ENDBRANCH  12  13
ENDBRANCH  11  12
ENDBRANCH  10  11
ENDBRANCH   1  10
TORSDOF 13
ENDMDL
MODEL 5
REMARK VINA RESULT:    -3.854      2.740      6.580
REMARK INTER + INTRA:          -8.784
REMARK INTER:                  -7.046
REMARK INTRA:                  -1.738
REMARK UNBOUND:                -2.001
REMARK SMILES CCCCCCCCCCCCCCC(=O)[O-]
REMARK SMILES IDX 9 1 10 2 11 3 12 4 13 5 14 6 15 7 16 8 17 9 8 10 7 11 6 12
REMARK SMILES IDX 5 13 4 14 3 15 2 16 1 17
REMARK H PARENT
REMARK Flexibility Score: inf
ROOT
ATOM      1  C   UNL     1       0.831   1.512   7.760  1.00  0.00     0.000 C 
ENDROOT
BRANCH   1   2
ATOM      2  C   UNL     1       1.321   0.915   6.436  1.00  0.00     0.000 C 
BRANCH   2   3
ATOM      3  C   UNL     1       2.186  -0.331   6.679  1.00  0.00     0.000 C 
BRANCH   3   4
ATOM      4  C   UNL     1       3.394  -0.034   7.591  1.00  0.00     0.000 C 
BRANCH   4   5
ATOM      5  C   UNL     1       4.471   0.838   6.924  1.00  0.00     0.006 C 
BRANCH   5   6
ATOM      6  C   UNL     1       4.796   2.103   7.727  1.00  0.00     0.053 C 
BRANCH   6   7
ATOM      7  C   UNL     1       4.770   3.308   6.839  1.00  0.00     0.041 C 
ATOM      8  O   UNL     1       4.539   3.182   5.608  1.00  0.00    -0.550 OA
ATOM      9  O   UNL     1       5.050   4.563   7.362  1.00  0.00    -0.550 OA
ENDBRANCH   6   7
ENDBRANCH   5   6
ENDBRANCH   4   5
ENDBRANCH   3   4
ENDBRANCH   2   3
ENDBRANCH   1   2
BRANCH   1  10
ATOM     10  C   UNL     1       1.057   3.028   7.799  1.00  0.00     0.000 C 
BRANCH  10  11
ATOM     11  C   UNL     1       1.141   3.608   6.381  1.00  0.00    -0.000 C 
BRANCH  11  12
ATOM     12  C   UNL     1      -0.122   4.409   6.039  1.00  0.00    -0.000 C 
BRANCH  12  13
ATOM     13  C   UNL     1      -0.857   3.788   4.841  1.00  0.00    -0.000 C 
BRANCH  13  14
ATOM     14  C   UNL     1      -1.772   2.620   5.245  1.00  0.00    -0.000 C 
BRANCH  14  15
ATOM     15  C   UNL     1      -2.696   2.973   6.423  1.00  0.00    -0.000 C 
BRANCH  15  16
ATOM     16  C   UNL     1      -4.183   2.943   6.033  1.00  0.00    -0.003 C 
ATOM     17  C   UNL     1      -4.905   4.254   6.346  1.00  0.00     0.004 C 
ENDBRANCH  15  16
ENDBRANCH  14  15
ENDBRANCH  13  14
ENDBRANCH  12  13
ENDBRANCH  11  12
ENDBRANCH  10  11
ENDBRANCH   1  10
TORSDOF 13
ENDMDL
MODEL 6
REMARK VINA RESULT:    -3.811     13.857     15.775
REMARK INTER + INTRA:          -8.708
REMARK INTER:                  -6.483
REMARK INTRA:                  -2.225
REMARK UNBOUND:                -2.001
REMARK SMILES CCCCCCCCCCCCCCC(=O)[O-]
REMARK SMILES IDX 9 1 10 2 11 3 12 4 13 5 14 6 15 7 16 8 17 9 8 10 7 11 6 12
REMARK SMILES IDX 5 13 4 14 3 15 2 16 1 17
REMARK H PARENT
REMARK Flexibility Score: inf
ROOT
ATOM      1  C   UNL     1      -6.319  -2.297  -6.773  1.00  0.00     0.000 C 
ENDROOT
BRANCH   1   2
ATOM      2  C   UNL     1      -5.554  -3.535  -6.290  1.00  0.00     0.000 C 
BRANCH   2   3
ATOM      3  C   UNL     1      -5.025  -3.334  -4.861  1.00  0.00     0.000 C 
BRANCH   3   4
ATOM      4  C   UNL     1      -4.606  -4.665  -4.202  1.00  0.00     0.000 C 
BRANCH   4   5
ATOM      5  C   UNL     1      -4.227  -5.761  -5.213  1.00  0.00     0.006 C 
BRANCH   5   6
ATOM      6  C   UNL     1      -4.539  -7.173  -4.705  1.00  0.00     0.053 C 
BRANCH   6   7
ATOM      7  C   UNL     1      -5.960  -7.262  -4.244  1.00  0.00     0.041 C 
ATOM      8  O   UNL     1      -6.220  -7.516  -3.039  1.00  0.00    -0.550 OA
ATOM      9  O   UNL     1      -6.997  -7.112  -5.155  1.00  0.00    -0.550 OA
ENDBRANCH   6   7
ENDBRANCH   5   6
ENDBRANCH   4   5
ENDBRANCH   3   4
ENDBRANCH   2   3
ENDBRANCH   1   2
BRANCH   1  10
ATOM     10  C   UNL     1      -5.802  -1.828  -8.138  1.00  0.00     0.000 C 
BRANCH  10  11
ATOM     11  C   UNL     1      -4.445  -1.126  -8.001  1.00  0.00    -0.000 C 
BRANCH  11  12
ATOM     12  C   UNL     1      -4.502  -0.021  -6.939  1.00  0.00    -0.000 C 
BRANCH  12  13
ATOM     13  C   UNL     1      -3.323  -0.140  -5.960  1.00  0.00    -0.000 C 
BRANCH  13  14
ATOM     14  C   UNL     1      -2.223  -1.088  -6.467  1.00  0.00    -0.000 C 
BRANCH  14  15
ATOM     15  C   UNL     1      -1.683  -2.010  -5.361  1.00  0.00    -0.000 C 
BRANCH  15  16
ATOM     16  C   UNL     1      -1.423  -3.440  -5.863  1.00  0.00    -0.003 C 
ATOM     17  C   UNL     1      -1.872  -3.651  -7.309  1.00  0.00     0.004 C 
ENDBRANCH  15  16
ENDBRANCH  14  15
ENDBRANCH  13  14
ENDBRANCH  12  13
ENDBRANCH  11  12
ENDBRANCH  10  11
ENDBRANCH   1  10
TORSDOF 13
ENDMDL
MODEL 7
REMARK VINA RESULT:    -3.773      1.354      2.897
REMARK INTER + INTRA:          -8.642
REMARK INTER:                  -6.860
REMARK INTRA:                  -1.782
REMARK UNBOUND:                -2.001
REMARK SMILES CCCCCCCCCCCCCCC(=O)[O-]
REMARK SMILES IDX 9 1 10 2 11 3 12 4 13 5 14 6 15 7 16 8 17 9 8 10 7 11 6 12
REMARK SMILES IDX 5 13 4 14 3 15 2 16 1 17
REMARK H PARENT
REMARK Flexibility Score: inf
ROOT
ATOM      1  C   UNL     1      -0.163   3.362   7.134  1.00  0.00     0.000 C 
ENDROOT
BRANCH   1   2
ATOM      2  C   UNL     1      -0.227   3.016   5.642  1.00  0.00     0.000 C 
BRANCH   2   3
ATOM      3  C   UNL     1      -1.088   4.033   4.877  1.00  0.00     0.000 C 
BRANCH   3   4
ATOM      4  C   UNL     1      -1.939   4.906   5.823  1.00  0.00     0.000 C 
BRANCH   4   5
ATOM      5  C   UNL     1      -3.442   4.585   5.774  1.00  0.00     0.006 C 
BRANCH   5   6
ATOM      6  C   UNL     1      -3.927   3.805   7.001  1.00  0.00     0.053 C 
BRANCH   6   7
ATOM      7  C   UNL     1      -3.693   2.339   6.815  1.00  0.00     0.041 C 
ATOM      8  O   UNL     1      -3.389   1.616   7.800  1.00  0.00    -0.550 OA
ATOM      9  O   UNL     1      -3.764   1.780   5.546  1.00  0.00    -0.550 OA
ENDBRANCH   6   7
ENDBRANCH   5   6
ENDBRANCH   4   5
ENDBRANCH   3   4
ENDBRANCH   2   3
ENDBRANCH   1   2
BRANCH   1  10
ATOM     10  C   UNL     1       1.284   3.611   7.580  1.00  0.00     0.000 C 
BRANCH  10  11
ATOM     11  C   UNL     1       2.142   4.107   6.410  1.00  0.00    -0.000 C 
BRANCH  11  12
ATOM     12  C   UNL     1       3.539   3.476   6.446  1.00  0.00    -0.000 C 
BRANCH  12  13
ATOM     13  C   UNL     1       4.000   3.245   7.893  1.00  0.00    -0.000 C 
BRANCH  13  14
ATOM     14  C   UNL     1       4.578   1.837   8.115  1.00  0.00    -0.000 C 
BRANCH  14  15
ATOM     15  C   UNL     1       4.225   0.867   6.975  1.00  0.00    -0.000 C 
BRANCH  15  16
ATOM     16  C   UNL     1       3.084  -0.092   7.351  1.00  0.00    -0.003 C 
ATOM     17  C   UNL     1       1.890   0.006   6.401  1.00  0.00     0.004 C 
ENDBRANCH  15  16
ENDBRANCH  14  15
ENDBRANCH  13  14
ENDBRANCH  12  13
ENDBRANCH  11  12
ENDBRANCH  10  11
ENDBRANCH   1  10
TORSDOF 13
ENDMDL
MODEL 8
REMARK VINA RESULT:    -3.708     13.196     15.290
REMARK INTER + INTRA:          -8.527
REMARK INTER:                  -6.776
REMARK INTRA:                  -1.750
REMARK UNBOUND:                -2.001
REMARK SMILES CCCCCCCCCCCCCCC(=O)[O-]
REMARK SMILES IDX 9 1 10 2 11 3 12 4 13 5 14 6 15 7 16 8 17 9 8 10 7 11 6 12
REMARK SMILES IDX 5 13 4 14 3 15 2 16 1 17
REMARK H PARENT
REMARK Flexibility Score: inf
ROOT
ATOM      1  C   UNL     1      -4.863  -1.437  -7.564  1.00  0.00     0.000 C 
ENDROOT
BRANCH   1   2
ATOM      2  C   UNL     1      -4.549  -0.037  -7.021  1.00  0.00     0.000 C 
BRANCH   2   3
ATOM      3  C   UNL     1      -3.374  -0.080  -6.032  1.00  0.00     0.000 C 
BRANCH   3   4
ATOM      4  C   UNL     1      -2.300  -1.108  -6.447  1.00  0.00     0.000 C 
BRANCH   4   5
ATOM      5  C   UNL     1      -1.821  -2.000  -5.290  1.00  0.00     0.006 C 
BRANCH   5   6
ATOM      6  C   UNL     1      -0.404  -2.545  -5.503  1.00  0.00     0.053 C 
BRANCH   6   7
ATOM      7  C   UNL     1      -0.114  -3.644  -4.530  1.00  0.00     0.041 C 
ATOM      8  O   UNL     1      -0.633  -3.628  -3.384  1.00  0.00    -0.550 OA
ATOM      9  O   UNL     1       0.767  -4.661  -4.873  1.00  0.00    -0.550 OA
ENDBRANCH   6   7
ENDBRANCH   5   6
ENDBRANCH   4   5
ENDBRANCH   3   4
ENDBRANCH   2   3
ENDBRANCH   1   2
BRANCH   1  10
ATOM     10  C   UNL     1      -6.004  -2.090  -6.774  1.00  0.00     0.000 C 
BRANCH  10  11
ATOM     11  C   UNL     1      -5.586  -3.465  -6.239  1.00  0.00    -0.000 C 
BRANCH  11  12
ATOM     12  C   UNL     1      -4.969  -3.347  -4.840  1.00  0.00    -0.000 C 
BRANCH  12  13
ATOM     13  C   UNL     1      -4.858  -4.726  -4.172  1.00  0.00    -0.000 C 
BRANCH  13  14
ATOM     14  C   UNL     1      -4.848  -5.881  -5.188  1.00  0.00    -0.000 C 
BRANCH  14  15
ATOM     15  C   UNL     1      -3.691  -6.866  -4.951  1.00  0.00    -0.000 C 
BRANCH  15  16
ATOM     16  C   UNL     1      -2.342  -6.319  -5.447  1.00  0.00    -0.003 C 
ATOM     17  C   UNL     1      -2.462  -5.549  -6.762  1.00  0.00     0.004 C 
ENDBRANCH  15  16
ENDBRANCH  14  15
ENDBRANCH  13  14
ENDBRANCH  12  13
ENDBRANCH  11  12
ENDBRANCH  10  11
ENDBRANCH   1  10
TORSDOF 13
ENDMDL
MODEL 9
REMARK VINA RESULT:    -3.702     13.652     15.078
REMARK INTER + INTRA:          -8.517
REMARK INTER:                  -6.903
REMARK INTRA:                  -1.614
REMARK UNBOUND:                -2.001
REMARK SMILES CCCCCCCCCCCCCCC(=O)[O-]
REMARK SMILES IDX 9 1 10 2 11 3 12 4 13 5 14 6 15 7 16 8 17 9 8 10 7 11 6 12
REMARK SMILES IDX 5 13 4 14 3 15 2 16 1 17
REMARK H PARENT
REMARK Flexibility Score: inf
ROOT
ATOM      1  C   UNL     1      -5.633  -1.445  -8.112  1.00  0.00     0.000 C 
ENDROOT
BRANCH   1   2
ATOM      2  C   UNL     1      -6.235  -1.948  -6.795  1.00  0.00     0.000 C 
BRANCH   2   3
ATOM      3  C   UNL     1      -5.755  -3.373  -6.477  1.00  0.00     0.000 C 
BRANCH   3   4
ATOM      4  C   UNL     1      -5.119  -3.474  -5.075  1.00  0.00     0.000 C 
BRANCH   4   5
ATOM      5  C   UNL     1      -4.124  -4.638  -4.932  1.00  0.00     0.006 C 
BRANCH   5   6
ATOM      6  C   UNL     1      -4.132  -5.262  -3.531  1.00  0.00     0.053 C 
BRANCH   6   7
ATOM      7  C   UNL     1      -4.749  -6.624  -3.569  1.00  0.00     0.041 C 
ATOM      8  O   UNL     1      -6.001  -6.751  -3.614  1.00  0.00    -0.550 OA
ATOM      9  O   UNL     1      -3.944  -7.754  -3.507  1.00  0.00    -0.550 OA
ENDBRANCH   6   7
ENDBRANCH   5   6
ENDBRANCH   4   5
ENDBRANCH   3   4
ENDBRANCH   2   3
ENDBRANCH   1   2
BRANCH   1  10
ATOM     10  C   UNL     1      -4.192  -0.960  -7.909  1.00  0.00     0.000 C 
BRANCH  10  11
ATOM     11  C   UNL     1      -4.102   0.019  -6.731  1.00  0.00    -0.000 C 
BRANCH  11  12
ATOM     12  C   UNL     1      -3.029  -0.423  -5.729  1.00  0.00    -0.000 C 
BRANCH  12  13
ATOM     13  C   UNL     1      -2.185  -1.573  -6.300  1.00  0.00    -0.000 C 
BRANCH  13  14
ATOM     14  C   UNL     1      -1.307  -2.252  -5.235  1.00  0.00    -0.000 C 
BRANCH  14  15
ATOM     15  C   UNL     1       0.147  -2.439  -5.700  1.00  0.00    -0.000 C 
BRANCH  15  16
ATOM     16  C   UNL     1       0.473  -1.615  -6.956  1.00  0.00    -0.003 C 
ATOM     17  C   UNL     1       1.385  -0.423  -6.663  1.00  0.00     0.004 C 
ENDBRANCH  15  16
ENDBRANCH  14  15
ENDBRANCH  13  14
ENDBRANCH  12  13
ENDBRANCH  11  12
ENDBRANCH  10  11
ENDBRANCH   1  10
TORSDOF 13
ENDMDL
