MODEL 1
REMARK VINA RESULT:    -4.924      0.000      0.000
REMARK INTER + INTRA:          -4.924
REMARK INTER:                  -4.924
REMARK INTRA:                   0.000
REMARK UNBOUND:                 0.000
REMARK SMILES C=C1CCC[C@]2(C)CC(=O)C(=C(C)C)C[C@@H]12
REMARK SMILES IDX 13 1 12 2 11 3 15 4 16 5 2 6 1 7 3 8 4 9 5 10 6 11 8 12 9 13
REMARK SMILES IDX 10 14 7 15 14 16
REMARK H PARENT
REMARK Flexibility Score: inf
ROOT
ATOM      1  C   UNL     1      -2.153  13.252  -2.196  1.00  0.00     0.039 C 
ATOM      2  C   UNL     1      -1.829  14.398  -1.265  1.00  0.00    -0.070 C 
ATOM      3  C   UNL     1      -1.795  14.235   0.092  1.00  0.00    -0.006 C 
ATOM      4  C   UNL     1      -1.408  15.385   1.012  1.00  0.00     0.047 C 
ATOM      5  C   UNL     1      -0.717  14.904   2.313  1.00  0.00     0.025 C 
ATOM      6  C   UNL     1      -0.341  16.012   3.297  1.00  0.00    -0.073 C 
ATOM      7  C   UNL     1      -0.585  17.320   3.089  1.00  0.00     0.008 C 
ATOM      8  C   UNL     1       0.388  15.577   4.546  1.00  0.00     0.031 C 
ATOM      9  C   UNL     1      -0.392  14.470   5.260  1.00  0.00     0.005 C 
ATOM     10  C   UNL     1      -0.747  13.319   4.303  1.00  0.00     0.008 C 
ATOM     11  C   UNL     1      -1.533  13.791   3.043  1.00  0.00    -0.018 C 
ATOM     12  C   UNL     1      -1.683  12.581   2.088  1.00  0.00     0.088 C 
ATOM     13  C   UNL     1      -2.250  12.979   0.755  1.00  0.00     0.159 C 
ATOM     14  O   UNL     1      -3.119  12.237   0.226  1.00  0.00    -0.295 OA
ATOM     15  C   UNL     1      -2.942  14.290   3.465  1.00  0.00     0.012 C 
ATOM     16  C   UNL     1      -1.505  15.729  -1.904  1.00  0.00     0.039 C 
ENDROOT
TORSDOF 0
ENDMDL
MODEL 2
REMARK VINA RESULT:    -4.846      1.165      1.585
REMARK INTER + INTRA:          -4.846
REMARK INTER:                  -4.846
REMARK INTRA:                   0.000
REMARK UNBOUND:                 0.000
REMARK SMILES C=C1CCC[C@]2(C)CC(=O)C(=C(C)C)C[C@@H]12
REMARK SMILES IDX 13 1 12 2 11 3 15 4 16 5 2 6 1 7 3 8 4 9 5 10 6 11 8 12 9 13
REMARK SMILES IDX 10 14 7 15 14 16
REMARK H PARENT
REMARK Flexibility Score: inf
ROOT
ATOM      1  C   UNL     1      -2.008  12.097  -0.648  1.00  0.00     0.039 C 
ATOM      2  C   UNL     1      -1.890  13.554  -0.263  1.00  0.00    -0.070 C 
ATOM      3  C   UNL     1      -1.548  13.938   1.003  1.00  0.00    -0.006 C 
ATOM      4  C   UNL     1      -1.375  15.408   1.359  1.00  0.00     0.047 C 
ATOM      5  C   UNL     1      -0.333  15.633   2.484  1.00  0.00     0.025 C 
ATOM      6  C   UNL     1      -0.145  17.088   2.913  1.00  0.00    -0.073 C 
ATOM      7  C   UNL     1      -0.824  18.125   2.385  1.00  0.00     0.008 C 
ATOM      8  C   UNL     1       0.908  17.343   3.966  1.00  0.00     0.031 C 
ATOM      9  C   UNL     1       0.667  16.451   5.187  1.00  0.00     0.005 C 
ATOM     10  C   UNL     1       0.517  14.973   4.789  1.00  0.00     0.008 C 
ATOM     11  C   UNL     1      -0.602  14.735   3.731  1.00  0.00    -0.018 C 
ATOM     12  C   UNL     1      -0.543  13.250   3.294  1.00  0.00     0.088 C 
ATOM     13  C   UNL     1      -1.449  12.966   2.130  1.00  0.00     0.159 C 
ATOM     14  O   UNL     1      -2.125  11.903   2.140  1.00  0.00    -0.295 OA
ATOM     15  C   UNL     1      -1.989  15.028   4.367  1.00  0.00     0.012 C 
ATOM     16  C   UNL     1      -2.130  14.572  -1.354  1.00  0.00     0.039 C 
ENDROOT
TORSDOF 0
ENDMDL
MODEL 3
REMARK VINA RESULT:    -4.814      9.500     10.854
REMARK INTER + INTRA:          -4.814
REMARK INTER:                  -4.814
REMARK INTRA:                   0.000
REMARK UNBOUND:                 0.000
REMARK SMILES C=C1CCC[C@]2(C)CC(=O)C(=C(C)C)C[C@@H]12
REMARK SMILES IDX 13 1 12 2 11 3 15 4 16 5 2 6 1 7 3 8 4 9 5 10 6 11 8 12 9 13
REMARK SMILES IDX 10 14 7 15 14 16
REMARK H PARENT
REMARK Flexibility Score: inf
ROOT
ATOM      1  C   UNL     1      -0.666   3.461  -0.157  1.00  0.00     0.039 C 
ATOM      2  C   UNL     1       0.368   4.166  -1.004  1.00  0.00    -0.070 C 
ATOM      3  C   UNL     1       0.021   4.888  -2.111  1.00  0.00    -0.006 C 
ATOM      4  C   UNL     1       1.068   5.642  -2.919  1.00  0.00     0.047 C 
ATOM      5  C   UNL     1       0.500   6.915  -3.596  1.00  0.00     0.025 C 
ATOM      6  C   UNL     1       1.497   7.693  -4.456  1.00  0.00    -0.073 C 
ATOM      7  C   UNL     1       2.779   7.325  -4.643  1.00  0.00     0.008 C 
ATOM      8  C   UNL     1       0.987   8.970  -5.079  1.00  0.00     0.031 C 
ATOM      9  C   UNL     1      -0.301   8.703  -5.863  1.00  0.00     0.005 C 
ATOM     10  C   UNL     1      -1.341   7.958  -5.008  1.00  0.00     0.008 C 
ATOM     11  C   UNL     1      -0.800   6.625  -4.409  1.00  0.00    -0.018 C 
ATOM     12  C   UNL     1      -1.871   6.060  -3.445  1.00  0.00     0.088 C 
ATOM     13  C   UNL     1      -1.365   4.881  -2.663  1.00  0.00     0.159 C 
ATOM     14  O   UNL     1      -2.130   3.894  -2.501  1.00  0.00    -0.295 OA
ATOM     15  C   UNL     1      -0.551   5.605  -5.554  1.00  0.00     0.012 C 
ATOM     16  C   UNL     1       1.806   4.069  -0.550  1.00  0.00     0.039 C 
ENDROOT
TORSDOF 0
ENDMDL
MODEL 4
REMARK VINA RESULT:    -4.587      9.369     11.400
REMARK INTER + INTRA:          -4.587
REMARK INTER:                  -4.587
REMARK INTRA:                   0.000
REMARK UNBOUND:                 0.000
REMARK SMILES C=C1CCC[C@]2(C)CC(=O)C(=C(C)C)C[C@@H]12
REMARK SMILES IDX 13 1 12 2 11 3 15 4 16 5 2 6 1 7 3 8 4 9 5 10 6 11 8 12 9 13
REMARK SMILES IDX 10 14 7 15 14 16
REMARK H PARENT
REMARK Flexibility Score: inf
ROOT
ATOM      1  C   UNL     1      -0.849   9.509  -6.677  1.00  0.00     0.039 C 
ATOM      2  C   UNL     1      -0.349   8.086  -6.775  1.00  0.00    -0.070 C 
ATOM      3  C   UNL     1      -0.380   7.238  -5.704  1.00  0.00    -0.006 C 
ATOM      4  C   UNL     1       0.072   5.789  -5.835  1.00  0.00     0.047 C 
ATOM      5  C   UNL     1      -0.677   4.839  -4.867  1.00  0.00     0.025 C 
ATOM      6  C   UNL     1      -0.237   3.376  -4.924  1.00  0.00    -0.073 C 
ATOM      7  C   UNL     1       0.732   2.910  -5.735  1.00  0.00     0.008 C 
ATOM      8  C   UNL     1      -0.991   2.416  -4.034  1.00  0.00     0.031 C 
ATOM      9  C   UNL     1      -0.991   2.919  -2.587  1.00  0.00     0.005 C 
ATOM     10  C   UNL     1      -1.471   4.378  -2.493  1.00  0.00     0.008 C 
ATOM     11  C   UNL     1      -0.650   5.351  -3.393  1.00  0.00    -0.018 C 
ATOM     12  C   UNL     1      -1.328   6.743  -3.340  1.00  0.00     0.088 C 
ATOM     13  C   UNL     1      -0.731   7.701  -4.330  1.00  0.00     0.159 C 
ATOM     14  O   UNL     1      -0.526   8.890  -3.968  1.00  0.00    -0.295 OA
ATOM     15  C   UNL     1       0.800   5.465  -2.846  1.00  0.00     0.012 C 
ATOM     16  C   UNL     1       0.153   7.629  -8.125  1.00  0.00     0.039 C 
ENDROOT
TORSDOF 0
ENDMDL
MODEL 5
REMARK VINA RESULT:    -4.518      2.288      3.850
REMARK INTER + INTRA:          -4.518
REMARK INTER:                  -4.518
REMARK INTRA:                   0.000
REMARK UNBOUND:                 0.000
REMARK SMILES C=C1CCC[C@]2(C)CC(=O)C(=C(C)C)C[C@@H]12
REMARK SMILES IDX 13 1 12 2 11 3 15 4 16 5 2 6 1 7 3 8 4 9 5 10 6 11 8 12 9 13
REMARK SMILES IDX 10 14 7 15 14 16
REMARK H PARENT
REMARK Flexibility Score: inf
ROOT
ATOM      1  C   UNL     1      -1.778  14.293  -0.423  1.00  0.00     0.039 C 
ATOM      2  C   UNL     1      -2.146  13.429   0.762  1.00  0.00    -0.070 C 
ATOM      3  C   UNL     1      -2.094  13.903   2.042  1.00  0.00    -0.006 C 
ATOM      4  C   UNL     1      -2.525  13.039   3.220  1.00  0.00     0.047 C 
ATOM      5  C   UNL     1      -3.103  13.870   4.392  1.00  0.00     0.025 C 
ATOM      6  C   UNL     1      -3.517  13.059   5.621  1.00  0.00    -0.073 C 
ATOM      7  C   UNL     1      -3.393  11.722   5.719  1.00  0.00     0.008 C 
ATOM      8  C   UNL     1      -4.140  13.837   6.756  1.00  0.00     0.031 C 
ATOM      9  C   UNL     1      -3.233  15.002   7.163  1.00  0.00     0.005 C 
ATOM     10  C   UNL     1      -2.835  15.863   5.952  1.00  0.00     0.008 C 
ATOM     11  C   UNL     1      -2.160  15.040   4.813  1.00  0.00    -0.018 C 
ATOM     12  C   UNL     1      -1.961  15.977   3.596  1.00  0.00     0.088 C 
ATOM     13  C   UNL     1      -1.501  15.231   2.376  1.00  0.00     0.159 C 
ATOM     14  O   UNL     1      -0.603  15.746   1.659  1.00  0.00    -0.295 OA
ATOM     15  C   UNL     1      -0.777  14.524   5.295  1.00  0.00     0.012 C 
ATOM     16  C   UNL     1      -2.612  12.022   0.464  1.00  0.00     0.039 C 
ENDROOT
TORSDOF 0
ENDMDL
MODEL 6
REMARK VINA RESULT:    -4.505      1.670      3.198
REMARK INTER + INTRA:          -4.505
REMARK INTER:                  -4.505
REMARK INTRA:                   0.000
REMARK UNBOUND:                 0.000
REMARK SMILES C=C1CCC[C@]2(C)CC(=O)C(=C(C)C)C[C@@H]12
REMARK SMILES IDX 13 1 12 2 11 3 15 4 16 5 2 6 1 7 3 8 4 9 5 10 6 11 8 12 9 13
REMARK SMILES IDX 10 14 7 15 14 16
REMARK H PARENT
REMARK Flexibility Score: inf
ROOT
ATOM      1  C   UNL     1      -2.377  14.703  -1.364  1.00  0.00     0.039 C 
ATOM      2  C   UNL     1      -2.055  14.058  -0.035  1.00  0.00    -0.070 C 
ATOM      3  C   UNL     1      -1.474  14.760   0.983  1.00  0.00    -0.006 C 
ATOM      4  C   UNL     1      -1.212  14.111   2.336  1.00  0.00     0.047 C 
ATOM      5  C   UNL     1      -1.277  15.123   3.508  1.00  0.00     0.025 C 
ATOM      6  C   UNL     1      -0.981  14.536   4.888  1.00  0.00    -0.073 C 
ATOM      7  C   UNL     1      -0.673  13.244   5.109  1.00  0.00     0.008 C 
ATOM      8  C   UNL     1      -1.097  15.488   6.056  1.00  0.00     0.031 C 
ATOM      9  C   UNL     1      -0.246  16.737   5.811  1.00  0.00     0.005 C 
ATOM     10  C   UNL     1      -0.553  17.375   4.445  1.00  0.00     0.008 C 
ATOM     11  C   UNL     1      -0.389  16.381   3.256  1.00  0.00    -0.018 C 
ATOM     12  C   UNL     1      -0.883  17.086   1.968  1.00  0.00     0.088 C 
ATOM     13  C   UNL     1      -0.953  16.145   0.800  1.00  0.00     0.159 C 
ATOM     14  O   UNL     1      -0.552  16.550  -0.324  1.00  0.00    -0.295 OA
ATOM     15  C   UNL     1       1.111  16.008   3.094  1.00  0.00     0.012 C 
ATOM     16  C   UNL     1      -2.440  12.605   0.131  1.00  0.00     0.039 C 
ENDROOT
TORSDOF 0
ENDMDL
MODEL 7
REMARK VINA RESULT:    -4.399      9.138     11.677
REMARK INTER + INTRA:          -4.399
REMARK INTER:                  -4.399
REMARK INTRA:                   0.000
REMARK UNBOUND:                 0.000
REMARK SMILES C=C1CCC[C@]2(C)CC(=O)C(=C(C)C)C[C@@H]12
REMARK SMILES IDX 13 1 12 2 11 3 15 4 16 5 2 6 1 7 3 8 4 9 5 10 6 11 8 12 9 13
REMARK SMILES IDX 10 14 7 15 14 16
REMARK H PARENT
REMARK Flexibility Score: inf
ROOT
ATOM      1  C   UNL     1      -0.997   1.880  -3.543  1.00  0.00     0.039 C 
ATOM      2  C   UNL     1      -0.572   2.715  -4.729  1.00  0.00    -0.070 C 
ATOM      3  C   UNL     1      -0.487   4.077  -4.657  1.00  0.00    -0.006 C 
ATOM      4  C   UNL     1       0.001   4.899  -5.842  1.00  0.00     0.047 C 
ATOM      5  C   UNL     1       0.722   6.202  -5.412  1.00  0.00     0.025 C 
ATOM      6  C   UNL     1       1.199   7.090  -6.561  1.00  0.00    -0.073 C 
ATOM      7  C   UNL     1       1.016   6.801  -7.864  1.00  0.00     0.008 C 
ATOM      8  C   UNL     1       1.959   8.336  -6.171  1.00  0.00     0.031 C 
ATOM      9  C   UNL     1       1.152   9.156  -5.160  1.00  0.00     0.005 C 
ATOM     10  C   UNL     1       0.695   8.297  -3.968  1.00  0.00     0.008 C 
ATOM     11  C   UNL     1      -0.119   7.039  -4.398  1.00  0.00    -0.018 C 
ATOM     12  C   UNL     1      -0.375   6.177  -3.137  1.00  0.00     0.088 C 
ATOM     13  C   UNL     1      -0.978   4.844  -3.475  1.00  0.00     0.159 C 
ATOM     14  O   UNL     1      -1.909   4.403  -2.749  1.00  0.00    -0.295 OA
ATOM     15  C   UNL     1      -1.480   7.482  -5.003  1.00  0.00     0.012 C 
ATOM     16  C   UNL     1      -0.207   1.972  -5.994  1.00  0.00     0.039 C 
ENDROOT
TORSDOF 0
ENDMDL
MODEL 8
REMARK VINA RESULT:    -4.273      9.482     10.547
REMARK INTER + INTRA:          -4.273
REMARK INTER:                  -4.273
REMARK INTRA:                   0.000
REMARK UNBOUND:                 0.000
REMARK SMILES C=C1CCC[C@]2(C)CC(=O)C(=C(C)C)C[C@@H]12
REMARK SMILES IDX 13 1 12 2 11 3 15 4 16 5 2 6 1 7 3 8 4 9 5 10 6 11 8 12 9 13
REMARK SMILES IDX 10 14 7 15 14 16
REMARK H PARENT
REMARK Flexibility Score: inf
ROOT
ATOM      1  C   UNL     1       0.538   9.009  -5.237  1.00  0.00     0.039 C 
ATOM      2  C   UNL     1      -0.287   7.847  -4.733  1.00  0.00    -0.070 C 
ATOM      3  C   UNL     1       0.241   6.894  -3.909  1.00  0.00    -0.006 C 
ATOM      4  C   UNL     1      -0.619   5.763  -3.361  1.00  0.00     0.047 C 
ATOM      5  C   UNL     1      -0.145   5.270  -1.970  1.00  0.00     0.025 C 
ATOM      6  C   UNL     1      -0.948   4.107  -1.386  1.00  0.00    -0.073 C 
ATOM      7  C   UNL     1      -1.988   3.521  -2.008  1.00  0.00     0.008 C 
ATOM      8  C   UNL     1      -0.545   3.645  -0.005  1.00  0.00     0.031 C 
ATOM      9  C   UNL     1       0.954   3.337   0.037  1.00  0.00     0.005 C 
ATOM     10  C   UNL     1       1.791   4.508  -0.505  1.00  0.00     0.008 C 
ATOM     11  C   UNL     1       1.379   4.938  -1.946  1.00  0.00    -0.018 C 
ATOM     12  C   UNL     1       2.170   6.218  -2.311  1.00  0.00     0.088 C 
ATOM     13  C   UNL     1       1.699   6.827  -3.601  1.00  0.00     0.159 C 
ATOM     14  O   UNL     1       2.560   7.262  -4.410  1.00  0.00    -0.295 OA
ATOM     15  C   UNL     1       1.741   3.807  -2.948  1.00  0.00     0.012 C 
ATOM     16  C   UNL     1      -1.739   7.807  -5.150  1.00  0.00     0.039 C 
ENDROOT
TORSDOF 0
ENDMDL
