MODEL 1
REMARK VINA RESULT:    -4.586      0.000      0.000
REMARK INTER + INTRA:         -10.893
REMARK INTER:                  -8.608
REMARK INTRA:                  -2.285
REMARK UNBOUND:                -2.285
REMARK SMILES O=C([O-])CCCCCCCCCCCCCCC(=O)[O-]
REMARK SMILES IDX 10 1 9 2 8 3 7 4 6 5 5 6 4 7 2 8 1 9 3 10 11 11 12 12 13 13
REMARK SMILES IDX 14 14 15 15 16 16 17 17 18 18 19 19 20 20
REMARK H PARENT
REMARK Flexibility Score: inf
ROOT
ATOM      1  C   UNL     1      60.510  18.329  38.072  1.00  0.00     0.000 C 
ENDROOT
BRANCH   1   2
ATOM      2  C   UNL     1      60.254  16.811  38.091  1.00  0.00     0.000 C 
BRANCH   2   3
ATOM      3  C   UNL     1      59.797  16.310  39.470  1.00  0.00     0.000 C 
BRANCH   3   4
ATOM      4  C   UNL     1      60.644  15.130  39.979  1.00  0.00     0.000 C 
BRANCH   4   5
ATOM      5  C   UNL     1      61.818  14.790  39.043  1.00  0.00     0.000 C 
BRANCH   5   6
ATOM      6  C   UNL     1      63.078  14.250  39.751  1.00  0.00     0.006 C 
BRANCH   6   7
ATOM      7  C   UNL     1      63.578  12.899  39.217  1.00  0.00     0.053 C 
BRANCH   7   8
ATOM      8  C   UNL     1      62.673  11.771  39.608  1.00  0.00     0.041 C 
ATOM      9  O   UNL     1      62.110  11.074  38.724  1.00  0.00    -0.550 OA
ATOM     10  O   UNL     1      62.479  11.470  40.951  1.00  0.00    -0.550 OA
ENDBRANCH   7   8
ENDBRANCH   6   7
ENDBRANCH   5   6
ENDBRANCH   4   5
ENDBRANCH   3   4
ENDBRANCH   2   3
ENDBRANCH   1   2
BRANCH   1  11
ATOM     11  C   UNL     1      60.830  18.890  39.466  1.00  0.00     0.000 C 
BRANCH  11  12
ATOM     12  C   UNL     1      62.312  19.262  39.628  1.00  0.00     0.000 C 
BRANCH  12  13
ATOM     13  C   UNL     1      63.106  18.103  40.242  1.00  0.00     0.000 C 
BRANCH  13  14
ATOM     14  C   UNL     1      64.281  17.701  39.337  1.00  0.00     0.000 C 
BRANCH  14  15
ATOM     15  C   UNL     1      64.024  18.019  37.855  1.00  0.00     0.000 C 
BRANCH  15  16
ATOM     16  C   UNL     1      65.161  17.530  36.940  1.00  0.00     0.006 C 
BRANCH  16  17
ATOM     17  C   UNL     1      64.640  16.674  35.778  1.00  0.00     0.053 C 
BRANCH  17  18
ATOM     18  C   UNL     1      64.344  15.271  36.210  1.00  0.00     0.041 C 
ATOM     19  O   UNL     1      65.188  14.622  36.883  1.00  0.00    -0.550 OA
ATOM     20  O   UNL     1      63.147  14.668  35.844  1.00  0.00    -0.550 OA
ENDBRANCH  17  18
ENDBRANCH  16  17
ENDBRANCH  15  16
ENDBRANCH  14  15
ENDBRANCH  13  14
ENDBRANCH  12  13
ENDBRANCH  11  12
ENDBRANCH   1  11
TORSDOF 15
ENDMDL
MODEL 2
REMARK VINA RESULT:    -4.499      0.926      4.737
REMARK INTER + INTRA:         -10.729
REMARK INTER:                  -8.435
REMARK INTRA:                  -2.295
REMARK UNBOUND:                -2.285
REMARK SMILES O=C([O-])CCCCCCCCCCCCCCC(=O)[O-]
REMARK SMILES IDX 10 1 9 2 8 3 7 4 6 5 5 6 4 7 2 8 1 9 3 10 11 11 12 12 13 13
REMARK SMILES IDX 14 14 15 15 16 16 17 17 18 18 19 19 20 20
REMARK H PARENT
REMARK Flexibility Score: inf
ROOT
ATOM      1  C   UNL     1      60.718  18.387  37.938  1.00  0.00     0.000 C 
ENDROOT
BRANCH   1   2
ATOM      2  C   UNL     1      60.907  19.022  39.328  1.00  0.00     0.000 C 
BRANCH   2   3
ATOM      3  C   UNL     1      62.384  19.287  39.657  1.00  0.00     0.000 C 
BRANCH   3   4
ATOM      4  C   UNL     1      63.084  18.057  40.260  1.00  0.00     0.000 C 
BRANCH   4   5
ATOM      5  C   UNL     1      64.480  17.811  39.659  1.00  0.00     0.000 C 
BRANCH   5   6
ATOM      6  C   UNL     1      64.523  17.746  38.119  1.00  0.00     0.006 C 
BRANCH   6   7
ATOM      7  C   UNL     1      64.931  16.378  37.550  1.00  0.00     0.053 C 
BRANCH   7   8
ATOM      8  C   UNL     1      64.371  16.150  36.180  1.00  0.00     0.041 C 
ATOM      9  O   UNL     1      63.618  15.166  35.959  1.00  0.00    -0.550 OA
ATOM     10  O   UNL     1      64.655  17.044  35.156  1.00  0.00    -0.550 OA
ENDBRANCH   7   8
ENDBRANCH   6   7
ENDBRANCH   5   6
ENDBRANCH   4   5
ENDBRANCH   3   4
ENDBRANCH   2   3
ENDBRANCH   1   2
BRANCH   1  11
ATOM     11  C   UNL     1      60.411  16.884  38.013  1.00  0.00     0.000 C 
BRANCH  11  12
ATOM     12  C   UNL     1      59.761  16.479  39.345  1.00  0.00     0.000 C 
BRANCH  12  13
ATOM     13  C   UNL     1      60.522  15.319  39.998  1.00  0.00     0.000 C 
BRANCH  13  14
ATOM     14  C   UNL     1      61.621  14.789  39.065  1.00  0.00     0.000 C 
BRANCH  14  15
ATOM     15  C   UNL     1      62.908  14.412  39.818  1.00  0.00     0.000 C 
BRANCH  15  16
ATOM     16  C   UNL     1      63.577  13.149  39.250  1.00  0.00     0.006 C 
BRANCH  16  17
ATOM     17  C   UNL     1      63.113  11.875  39.969  1.00  0.00     0.053 C 
BRANCH  17  18
ATOM     18  C   UNL     1      62.497  10.893  39.021  1.00  0.00     0.041 C 
ATOM     19  O   UNL     1      61.599  11.263  38.219  1.00  0.00    -0.550 OA
ATOM     20  O   UNL     1      62.895   9.563  39.043  1.00  0.00    -0.550 OA
ENDBRANCH  17  18
ENDBRANCH  16  17
ENDBRANCH  15  16
ENDBRANCH  14  15
ENDBRANCH  13  14
ENDBRANCH  12  13
ENDBRANCH  11  12
ENDBRANCH   1  11
TORSDOF 15
ENDMDL
MODEL 3
REMARK VINA RESULT:    -4.460      1.585      4.925
REMARK INTER + INTRA:         -10.656
REMARK INTER:                  -8.096
REMARK INTRA:                  -2.560
REMARK UNBOUND:                -2.285
REMARK SMILES O=C([O-])CCCCCCCCCCCCCCC(=O)[O-]
REMARK SMILES IDX 10 1 9 2 8 3 7 4 6 5 5 6 4 7 2 8 1 9 3 10 11 11 12 12 13 13
REMARK SMILES IDX 14 14 15 15 16 16 17 17 18 18 19 19 20 20
REMARK H PARENT
REMARK Flexibility Score: inf
ROOT
ATOM      1  C   UNL     1      61.252  18.926  39.616  1.00  0.00     0.000 C 
ENDROOT
BRANCH   1   2
ATOM      2  C   UNL     1      62.740  19.261  39.823  1.00  0.00     0.000 C 
BRANCH   2   3
ATOM      3  C   UNL     1      63.509  18.120  40.508  1.00  0.00     0.000 C 
BRANCH   3   4
ATOM      4  C   UNL     1      62.795  16.764  40.373  1.00  0.00     0.000 C 
BRANCH   4   5
ATOM      5  C   UNL     1      63.483  15.825  39.366  1.00  0.00     0.000 C 
BRANCH   5   6
ATOM      6  C   UNL     1      62.927  15.893  37.928  1.00  0.00     0.006 C 
BRANCH   6   7
ATOM      7  C   UNL     1      63.996  16.094  36.842  1.00  0.00     0.053 C 
BRANCH   7   8
ATOM      8  C   UNL     1      64.836  17.307  37.099  1.00  0.00     0.041 C 
ATOM      9  O   UNL     1      64.351  18.458  36.948  1.00  0.00    -0.550 OA
ATOM     10  O   UNL     1      66.146  17.163  37.538  1.00  0.00    -0.550 OA
ENDBRANCH   7   8
ENDBRANCH   6   7
ENDBRANCH   5   6
ENDBRANCH   4   5
ENDBRANCH   3   4
ENDBRANCH   2   3
ENDBRANCH   1   2
BRANCH   1  11
ATOM     11  C   UNL     1      60.862  18.868  38.131  1.00  0.00     0.000 C 
BRANCH  11  12
ATOM     12  C   UNL     1      59.756  17.840  37.850  1.00  0.00     0.000 C 
BRANCH  12  13
ATOM     13  C   UNL     1      59.087  17.383  39.151  1.00  0.00     0.000 C 
BRANCH  13  14
ATOM     14  C   UNL     1      58.775  15.879  39.110  1.00  0.00     0.000 C 
BRANCH  14  15
ATOM     15  C   UNL     1      59.721  15.053  39.997  1.00  0.00     0.000 C 
BRANCH  15  16
ATOM     16  C   UNL     1      60.242  13.789  39.289  1.00  0.00     0.006 C 
BRANCH  16  17
ATOM     17  C   UNL     1      61.247  13.016  40.153  1.00  0.00     0.053 C 
BRANCH  17  18
ATOM     18  C   UNL     1      62.166  12.175  39.321  1.00  0.00     0.041 C 
ATOM     19  O   UNL     1      61.696  11.351  38.493  1.00  0.00    -0.550 OA
ATOM     20  O   UNL     1      63.541  12.282  39.481  1.00  0.00    -0.550 OA
ENDBRANCH  17  18
ENDBRANCH  16  17
ENDBRANCH  15  16
ENDBRANCH  14  15
ENDBRANCH  13  14
ENDBRANCH  12  13
ENDBRANCH  11  12
ENDBRANCH   1  11
TORSDOF 15
ENDMDL
MODEL 4
REMARK VINA RESULT:    -4.459      1.757      4.779
REMARK INTER + INTRA:         -10.654
REMARK INTER:                  -8.513
REMARK INTRA:                  -2.141
REMARK UNBOUND:                -2.285
REMARK SMILES O=C([O-])CCCCCCCCCCCCCCC(=O)[O-]
REMARK SMILES IDX 10 1 9 2 8 3 7 4 6 5 5 6 4 7 2 8 1 9 3 10 11 11 12 12 13 13
REMARK SMILES IDX 14 14 15 15 16 16 17 17 18 18 19 19 20 20
REMARK H PARENT
REMARK Flexibility Score: inf
ROOT
ATOM      1  C   UNL     1      60.500  18.872  37.995  1.00  0.00     0.000 C 
ENDROOT
BRANCH   1   2
ATOM      2  C   UNL     1      60.853  19.266  39.441  1.00  0.00     0.000 C 
BRANCH   2   3
ATOM      3  C   UNL     1      62.368  19.267  39.696  1.00  0.00     0.000 C 
BRANCH   3   4
ATOM      4  C   UNL     1      62.884  17.906  40.194  1.00  0.00     0.000 C 
BRANCH   4   5
ATOM      5  C   UNL     1      64.235  17.514  39.568  1.00  0.00     0.000 C 
BRANCH   5   6
ATOM      6  C   UNL     1      64.390  17.875  38.077  1.00  0.00     0.006 C 
BRANCH   6   7
ATOM      7  C   UNL     1      65.683  17.356  37.428  1.00  0.00     0.053 C 
BRANCH   7   8
ATOM      8  C   UNL     1      65.734  17.656  35.961  1.00  0.00     0.041 C 
ATOM      9  O   UNL     1      64.846  17.207  35.191  1.00  0.00    -0.550 OA
ATOM     10  O   UNL     1      66.747  18.459  35.451  1.00  0.00    -0.550 OA
ENDBRANCH   7   8
ENDBRANCH   6   7
ENDBRANCH   5   6
ENDBRANCH   4   5
ENDBRANCH   3   4
ENDBRANCH   2   3
ENDBRANCH   1   2
BRANCH   1  11
ATOM     11  C   UNL     1      59.693  17.566  37.921  1.00  0.00     0.000 C 
BRANCH  11  12
ATOM     12  C   UNL     1      58.997  17.225  39.248  1.00  0.00     0.000 C 
BRANCH  12  13
ATOM     13  C   UNL     1      59.124  15.731  39.566  1.00  0.00     0.000 C 
BRANCH  13  14
ATOM     14  C   UNL     1      60.403  15.144  38.948  1.00  0.00     0.000 C 
BRANCH  14  15
ATOM     15  C   UNL     1      61.335  14.517  39.997  1.00  0.00     0.000 C 
BRANCH  15  16
ATOM     16  C   UNL     1      62.259  13.441  39.400  1.00  0.00     0.006 C 
BRANCH  16  17
ATOM     17  C   UNL     1      63.732  13.873  39.410  1.00  0.00     0.053 C 
BRANCH  17  18
ATOM     18  C   UNL     1      64.254  14.100  38.025  1.00  0.00     0.041 C 
ATOM     19  O   UNL     1      65.446  13.806  37.740  1.00  0.00    -0.550 OA
ATOM     20  O   UNL     1      63.434  14.664  37.056  1.00  0.00    -0.550 OA
ENDBRANCH  17  18
ENDBRANCH  16  17
ENDBRANCH  15  16
ENDBRANCH  14  15
ENDBRANCH  13  14
ENDBRANCH  12  13
ENDBRANCH  11  12
ENDBRANCH   1  11
TORSDOF 15
ENDMDL
MODEL 5
REMARK VINA RESULT:    -4.429      1.730      2.216
REMARK INTER + INTRA:         -10.597
REMARK INTER:                  -8.361
REMARK INTRA:                  -2.236
REMARK UNBOUND:                -2.285
REMARK SMILES O=C([O-])CCCCCCCCCCCCCCC(=O)[O-]
REMARK SMILES IDX 10 1 9 2 8 3 7 4 6 5 5 6 4 7 2 8 1 9 3 10 11 11 12 12 13 13
REMARK SMILES IDX 14 14 15 15 16 16 17 17 18 18 19 19 20 20
REMARK H PARENT
REMARK Flexibility Score: inf
ROOT
ATOM      1  C   UNL     1      60.487  18.868  38.406  1.00  0.00     0.000 C 
ENDROOT
BRANCH   1   2
ATOM      2  C   UNL     1      59.550  17.691  38.728  1.00  0.00     0.000 C 
BRANCH   2   3
ATOM      3  C   UNL     1      59.324  17.516  40.238  1.00  0.00     0.000 C 
BRANCH   3   4
ATOM      4  C   UNL     1      59.385  16.042  40.676  1.00  0.00     0.000 C 
BRANCH   4   5
ATOM      5  C   UNL     1      60.065  15.136  39.634  1.00  0.00     0.000 C 
BRANCH   5   6
ATOM      6  C   UNL     1      60.198  13.656  40.046  1.00  0.00     0.006 C 
BRANCH   6   7
ATOM      7  C   UNL     1      61.639  13.199  40.324  1.00  0.00     0.053 C 
BRANCH   7   8
ATOM      8  C   UNL     1      62.367  12.844  39.065  1.00  0.00     0.041 C 
ATOM      9  O   UNL     1      63.625  12.793  39.053  1.00  0.00    -0.550 OA
ATOM     10  O   UNL     1      61.654  12.535  37.913  1.00  0.00    -0.550 OA
ENDBRANCH   7   8
ENDBRANCH   6   7
ENDBRANCH   5   6
ENDBRANCH   4   5
ENDBRANCH   3   4
ENDBRANCH   2   3
ENDBRANCH   1   2
BRANCH   1  11
ATOM     11  C   UNL     1      61.360  19.272  39.605  1.00  0.00     0.000 C 
BRANCH  11  12
ATOM     12  C   UNL     1      62.844  18.932  39.398  1.00  0.00     0.000 C 
BRANCH  12  13
ATOM     13  C   UNL     1      63.334  17.943  40.462  1.00  0.00     0.000 C 
BRANCH  13  14
ATOM     14  C   UNL     1      63.336  16.506  39.918  1.00  0.00     0.000 C 
BRANCH  14  15
ATOM     15  C   UNL     1      63.217  16.451  38.386  1.00  0.00     0.000 C 
BRANCH  15  16
ATOM     16  C   UNL     1      64.518  15.988  37.708  1.00  0.00     0.006 C 
BRANCH  16  17
ATOM     17  C   UNL     1      65.496  17.148  37.479  1.00  0.00     0.053 C 
BRANCH  17  18
ATOM     18  C   UNL     1      65.580  17.528  36.032  1.00  0.00     0.041 C 
ATOM     19  O   UNL     1      64.712  17.118  35.217  1.00  0.00    -0.550 OA
ATOM     20  O   UNL     1      66.635  18.310  35.580  1.00  0.00    -0.550 OA
ENDBRANCH  17  18
ENDBRANCH  16  17
ENDBRANCH  15  16
ENDBRANCH  14  15
ENDBRANCH  13  14
ENDBRANCH  12  13
ENDBRANCH  11  12
ENDBRANCH   1  11
TORSDOF 15
ENDMDL
MODEL 6
REMARK VINA RESULT:    -4.423      1.808      4.624
REMARK INTER + INTRA:         -10.586
REMARK INTER:                  -8.033
REMARK INTRA:                  -2.553
REMARK UNBOUND:                -2.285
REMARK SMILES O=C([O-])CCCCCCCCCCCCCCC(=O)[O-]
REMARK SMILES IDX 10 1 9 2 8 3 7 4 6 5 5 6 4 7 2 8 1 9 3 10 11 11 12 12 13 13
REMARK SMILES IDX 14 14 15 15 16 16 17 17 18 18 19 19 20 20
REMARK H PARENT
REMARK Flexibility Score: inf
ROOT
ATOM      1  C   UNL     1      60.679  18.729  38.115  1.00  0.00     0.000 C 
ENDROOT
BRANCH   1   2
ATOM      2  C   UNL     1      61.157  19.263  39.477  1.00  0.00     0.000 C 
BRANCH   2   3
ATOM      3  C   UNL     1      62.687  19.237  39.614  1.00  0.00     0.000 C 
BRANCH   3   4
ATOM      4  C   UNL     1      63.181  18.083  40.504  1.00  0.00     0.000 C 
BRANCH   4   5
ATOM      5  C   UNL     1      63.464  16.795  39.710  1.00  0.00     0.000 C 
BRANCH   5   6
ATOM      6  C   UNL     1      64.016  17.016  38.286  1.00  0.00     0.006 C 
BRANCH   6   7
ATOM      7  C   UNL     1      63.273  16.241  37.188  1.00  0.00     0.053 C 
BRANCH   7   8
ATOM      8  C   UNL     1      64.126  16.028  35.975  1.00  0.00     0.041 C 
ATOM      9  O   UNL     1      64.640  17.012  35.382  1.00  0.00    -0.550 OA
ATOM     10  O   UNL     1      64.380  14.740  35.522  1.00  0.00    -0.550 OA
ENDBRANCH   7   8
ENDBRANCH   6   7
ENDBRANCH   5   6
ENDBRANCH   4   5
ENDBRANCH   3   4
ENDBRANCH   2   3
ENDBRANCH   1   2
BRANCH   1  11
ATOM     11  C   UNL     1      59.919  17.399  38.237  1.00  0.00     0.000 C 
BRANCH  11  12
ATOM     12  C   UNL     1      59.384  17.151  39.656  1.00  0.00     0.000 C 
BRANCH  12  13
ATOM     13  C   UNL     1      59.914  15.828  40.220  1.00  0.00     0.000 C 
BRANCH  13  14
ATOM     14  C   UNL     1      60.372  14.893  39.090  1.00  0.00     0.000 C 
BRANCH  14  15
ATOM     15  C   UNL     1      61.274  13.753  39.591  1.00  0.00     0.000 C 
BRANCH  15  16
ATOM     16  C   UNL     1      61.996  13.022  38.445  1.00  0.00     0.006 C 
BRANCH  16  17
ATOM     17  C   UNL     1      61.283  13.210  37.099  1.00  0.00     0.053 C 
BRANCH  17  18
ATOM     18  C   UNL     1      60.461  12.013  36.733  1.00  0.00     0.041 C 
ATOM     19  O   UNL     1      60.964  10.859  36.780  1.00  0.00    -0.550 OA
ATOM     20  O   UNL     1      59.148  12.174  36.310  1.00  0.00    -0.550 OA
ENDBRANCH  17  18
ENDBRANCH  16  17
ENDBRANCH  15  16
ENDBRANCH  14  15
ENDBRANCH  13  14
ENDBRANCH  12  13
ENDBRANCH  11  12
ENDBRANCH   1  11
TORSDOF 15
ENDMDL
MODEL 7
REMARK VINA RESULT:    -4.420      0.990      1.651
REMARK INTER + INTRA:         -10.580
REMARK INTER:                  -8.411
REMARK INTRA:                  -2.169
REMARK UNBOUND:                -2.285
REMARK SMILES O=C([O-])CCCCCCCCCCCCCCC(=O)[O-]
REMARK SMILES IDX 10 1 9 2 8 3 7 4 6 5 5 6 4 7 2 8 1 9 3 10 11 11 12 12 13 13
REMARK SMILES IDX 14 14 15 15 16 16 17 17 18 18 19 19 20 20
REMARK H PARENT
REMARK Flexibility Score: inf
ROOT
ATOM      1  C   UNL     1      60.172  16.987  38.156  1.00  0.00     0.000 C 
ENDROOT
BRANCH   1   2
ATOM      2  C   UNL     1      59.861  16.453  39.566  1.00  0.00     0.000 C 
BRANCH   2   3
ATOM      3  C   UNL     1      60.793  15.302  39.976  1.00  0.00     0.000 C 
BRANCH   3   4
ATOM      4  C   UNL     1      61.891  15.031  38.933  1.00  0.00     0.000 C 
BRANCH   4   5
ATOM      5  C   UNL     1      63.190  14.493  39.559  1.00  0.00     0.000 C 
BRANCH   5   6
ATOM      6  C   UNL     1      63.543  13.040  39.178  1.00  0.00     0.006 C 
BRANCH   6   7
ATOM      7  C   UNL     1      62.882  11.972  40.064  1.00  0.00     0.053 C 
BRANCH   7   8
ATOM      8  C   UNL     1      61.650  11.402  39.431  1.00  0.00     0.041 C 
ATOM      9  O   UNL     1      61.569  11.300  38.179  1.00  0.00    -0.550 OA
ATOM     10  O   UNL     1      60.604  10.952  40.227  1.00  0.00    -0.550 OA
ENDBRANCH   7   8
ENDBRANCH   6   7
ENDBRANCH   5   6
ENDBRANCH   4   5
ENDBRANCH   3   4
ENDBRANCH   2   3
ENDBRANCH   1   2
BRANCH   1  11
ATOM     11  C   UNL     1      60.463  18.496  38.148  1.00  0.00     0.000 C 
BRANCH  11  12
ATOM     12  C   UNL     1      60.833  19.034  39.539  1.00  0.00     0.000 C 
BRANCH  12  13
ATOM     13  C   UNL     1      62.320  19.400  39.608  1.00  0.00     0.000 C 
BRANCH  13  14
ATOM     14  C   UNL     1      63.124  18.302  40.320  1.00  0.00     0.000 C 
BRANCH  14  15
ATOM     15  C   UNL     1      64.312  17.799  39.483  1.00  0.00     0.000 C 
BRANCH  15  16
ATOM     16  C   UNL     1      64.093  17.989  37.972  1.00  0.00     0.006 C 
BRANCH  16  17
ATOM     17  C   UNL     1      65.253  17.420  37.144  1.00  0.00     0.053 C 
BRANCH  17  18
ATOM     18  C   UNL     1      64.771  16.768  35.884  1.00  0.00     0.041 C 
ATOM     19  O   UNL     1      65.197  17.157  34.765  1.00  0.00    -0.550 OA
ATOM     20  O   UNL     1      63.828  15.750  35.946  1.00  0.00    -0.550 OA
ENDBRANCH  17  18
ENDBRANCH  16  17
ENDBRANCH  15  16
ENDBRANCH  14  15
ENDBRANCH  13  14
ENDBRANCH  12  13
ENDBRANCH  11  12
ENDBRANCH   1  11
TORSDOF 15
ENDMDL
MODEL 8
REMARK VINA RESULT:    -4.358      2.083      3.085
REMARK INTER + INTRA:         -10.464
REMARK INTER:                  -8.025
REMARK INTRA:                  -2.439
REMARK UNBOUND:                -2.285
REMARK SMILES O=C([O-])CCCCCCCCCCCCCCC(=O)[O-]
REMARK SMILES IDX 10 1 9 2 8 3 7 4 6 5 5 6 4 7 2 8 1 9 3 10 11 11 12 12 13 13
REMARK SMILES IDX 14 14 15 15 16 16 17 17 18 18 19 19 20 20
REMARK H PARENT
REMARK Flexibility Score: inf
ROOT
ATOM      1  C   UNL     1      61.437  18.925  39.585  1.00  0.00     0.000 C 
ENDROOT
BRANCH   1   2
ATOM      2  C   UNL     1      61.153  18.833  38.075  1.00  0.00     0.000 C 
BRANCH   2   3
ATOM      3  C   UNL     1      59.845  18.087  37.768  1.00  0.00     0.000 C 
BRANCH   3   4
ATOM      4  C   UNL     1      59.074  17.700  39.042  1.00  0.00     0.000 C 
BRANCH   4   5
ATOM      5  C   UNL     1      58.912  16.178  39.202  1.00  0.00     0.000 C 
BRANCH   5   6
ATOM      6  C   UNL     1      59.471  15.337  38.036  1.00  0.00     0.006 C 
BRANCH   6   7
ATOM      7  C   UNL     1      59.727  13.862  38.381  1.00  0.00     0.053 C 
BRANCH   7   8
ATOM      8  C   UNL     1      59.972  13.034  37.157  1.00  0.00     0.041 C 
ATOM      9  O   UNL     1      59.004  12.552  36.513  1.00  0.00    -0.550 OA
ATOM     10  O   UNL     1      61.270  12.824  36.709  1.00  0.00    -0.550 OA
ENDBRANCH   7   8
ENDBRANCH   6   7
ENDBRANCH   5   6
ENDBRANCH   4   5
ENDBRANCH   3   4
ENDBRANCH   2   3
ENDBRANCH   1   2
BRANCH   1  11
ATOM     11  C   UNL     1      62.939  19.015  39.898  1.00  0.00     0.000 C 
BRANCH  11  12
ATOM     12  C   UNL     1      63.503  17.706  40.472  1.00  0.00     0.000 C 
BRANCH  12  13
ATOM     13  C   UNL     1      62.468  16.579  40.391  1.00  0.00     0.000 C 
BRANCH  13  14
ATOM     14  C   UNL     1      63.034  15.365  39.639  1.00  0.00     0.000 C 
BRANCH  14  15
ATOM     15  C   UNL     1      63.099  15.586  38.119  1.00  0.00     0.000 C 
BRANCH  15  16
ATOM     16  C   UNL     1      64.468  15.210  37.524  1.00  0.00     0.006 C 
BRANCH  16  17
ATOM     17  C   UNL     1      65.378  16.433  37.349  1.00  0.00     0.053 C 
BRANCH  17  18
ATOM     18  C   UNL     1      64.776  17.446  36.423  1.00  0.00     0.041 C 
ATOM     19  O   UNL     1      64.572  17.158  35.214  1.00  0.00    -0.550 OA
ATOM     20  O   UNL     1      64.469  18.717  36.889  1.00  0.00    -0.550 OA
ENDBRANCH  17  18
ENDBRANCH  16  17
ENDBRANCH  15  16
ENDBRANCH  14  15
ENDBRANCH  13  14
ENDBRANCH  12  13
ENDBRANCH  11  12
ENDBRANCH   1  11
TORSDOF 15
ENDMDL
MODEL 9
REMARK VINA RESULT:    -4.357      1.941      3.901
REMARK INTER + INTRA:         -10.462
REMARK INTER:                  -8.493
REMARK INTRA:                  -1.969
REMARK UNBOUND:                -2.285
REMARK SMILES O=C([O-])CCCCCCCCCCCCCCC(=O)[O-]
REMARK SMILES IDX 10 1 9 2 8 3 7 4 6 5 5 6 4 7 2 8 1 9 3 10 11 11 12 12 13 13
REMARK SMILES IDX 14 14 15 15 16 16 17 17 18 18 19 19 20 20
REMARK H PARENT
REMARK Flexibility Score: inf
ROOT
ATOM      1  C   UNL     1      63.949  15.627  36.188  1.00  0.00     0.000 C 
ENDROOT
BRANCH   1   2
ATOM      2  C   UNL     1      64.953  14.675  36.864  1.00  0.00     0.000 C 
BRANCH   2   3
ATOM      3  C   UNL     1      64.428  14.118  38.196  1.00  0.00     0.000 C 
BRANCH   3   4
ATOM      4  C   UNL     1      62.976  14.541  38.482  1.00  0.00     0.000 C 
BRANCH   4   5
ATOM      5  C   UNL     1      62.547  14.259  39.933  1.00  0.00     0.000 C 
BRANCH   5   6
ATOM      6  C   UNL     1      61.776  12.939  40.138  1.00  0.00     0.006 C 
BRANCH   6   7
ATOM      7  C   UNL     1      62.670  11.709  40.367  1.00  0.00     0.053 C 
BRANCH   7   8
ATOM      8  C   UNL     1      62.405  10.629  39.364  1.00  0.00     0.041 C 
ATOM      9  O   UNL     1      61.586  10.820  38.427  1.00  0.00    -0.550 OA
ATOM     10  O   UNL     1      63.089   9.423  39.446  1.00  0.00    -0.550 OA
ENDBRANCH   7   8
ENDBRANCH   6   7
ENDBRANCH   5   6
ENDBRANCH   4   5
ENDBRANCH   3   4
ENDBRANCH   2   3
ENDBRANCH   1   2
BRANCH   1  11
ATOM     11  C   UNL     1      64.618  16.897  35.639  1.00  0.00     0.000 C 
BRANCH  11  12
ATOM     12  C   UNL     1      65.092  17.844  36.752  1.00  0.00     0.000 C 
BRANCH  12  13
ATOM     13  C   UNL     1      63.953  18.156  37.730  1.00  0.00     0.000 C 
BRANCH  13  14
ATOM     14  C   UNL     1      64.349  17.792  39.169  1.00  0.00     0.000 C 
BRANCH  14  15
ATOM     15  C   UNL     1      63.441  18.452  40.219  1.00  0.00     0.000 C 
BRANCH  15  16
ATOM     16  C   UNL     1      62.027  18.737  39.683  1.00  0.00     0.006 C 
BRANCH  16  17
ATOM     17  C   UNL     1      61.070  17.562  39.922  1.00  0.00     0.053 C 
BRANCH  17  18
ATOM     18  C   UNL     1      60.265  17.243  38.700  1.00  0.00     0.041 C 
ATOM     19  O   UNL     1      59.691  16.127  38.590  1.00  0.00    -0.550 OA
ATOM     20  O   UNL     1      60.172  18.169  37.668  1.00  0.00    -0.550 OA
ENDBRANCH  17  18
ENDBRANCH  16  17
ENDBRANCH  15  16
ENDBRANCH  14  15
ENDBRANCH  13  14
ENDBRANCH  12  13
ENDBRANCH  11  12
ENDBRANCH   1  11
TORSDOF 15
ENDMDL
