MODEL 1
REMARK VINA RESULT:    -3.617      0.000      0.000
REMARK INTER + INTRA:          -5.292
REMARK INTER:                  -4.886
REMARK INTRA:                  -0.406
REMARK UNBOUND:                -0.406
REMARK SMILES CCCCCCCC(=O)[O-]
REMARK SMILES IDX 5 1 6 2 7 3 8 4 9 5 10 6 4 7 3 8 2 9 1 10
REMARK H PARENT
REMARK Flexibility Score: inf
ROOT
ATOM      1  C   UNL     1     -17.392  34.540 -20.984  1.00  0.00     0.000 C 
ENDROOT
BRANCH   1   2
ATOM      2  C   UNL     1     -17.879  35.960 -20.646  1.00  0.00     0.006 C 
BRANCH   2   3
ATOM      3  C   UNL     1     -19.207  35.965 -19.877  1.00  0.00     0.053 C 
BRANCH   3   4
ATOM      4  C   UNL     1     -19.186  34.928 -18.799  1.00  0.00     0.041 C 
ATOM      5  O   UNL     1     -19.917  33.907 -18.887  1.00  0.00    -0.550 OA
ATOM      6  O   UNL     1     -18.324  35.067 -17.719  1.00  0.00    -0.550 OA
ENDBRANCH   3   4
ENDBRANCH   2   3
ENDBRANCH   1   2
BRANCH   1   7
ATOM      7  C   UNL     1     -15.883  34.307 -20.772  1.00  0.00     0.000 C 
BRANCH   7   8
ATOM      8  C   UNL     1     -15.542  33.634 -19.425  1.00  0.00    -0.000 C 
BRANCH   8   9
ATOM      9  C   UNL     1     -14.354  34.307 -18.721  1.00  0.00    -0.003 C 
ATOM     10  C   UNL     1     -14.804  35.533 -17.932  1.00  0.00     0.004 C 
ENDBRANCH   8   9
ENDBRANCH   7   8
ENDBRANCH   1   7
TORSDOF 6
ENDMDL
MODEL 2
REMARK VINA RESULT:    -3.394      1.452      1.708
REMARK INTER + INTRA:          -4.990
REMARK INTER:                  -4.649
REMARK INTRA:                  -0.341
REMARK UNBOUND:                -0.406
REMARK SMILES CCCCCCCC(=O)[O-]
REMARK SMILES IDX 5 1 6 2 7 3 8 4 9 5 10 6 4 7 3 8 2 9 1 10
REMARK H PARENT
REMARK Flexibility Score: inf
ROOT
ATOM      1  C   UNL     1     -17.949  36.055 -19.561  1.00  0.00     0.000 C 
ENDROOT
BRANCH   1   2
ATOM      2  C   UNL     1     -18.863  35.414 -20.619  1.00  0.00     0.006 C 
BRANCH   2   3
ATOM      3  C   UNL     1     -20.354  35.584 -20.298  1.00  0.00     0.053 C 
BRANCH   3   4
ATOM      4  C   UNL     1     -20.745  34.695 -19.161  1.00  0.00     0.041 C 
ATOM      5  O   UNL     1     -20.710  33.443 -19.294  1.00  0.00    -0.550 OA
ATOM      6  O   UNL     1     -21.102  35.247 -17.938  1.00  0.00    -0.550 OA
ENDBRANCH   3   4
ENDBRANCH   2   3
ENDBRANCH   1   2
BRANCH   1   7
ATOM      7  C   UNL     1     -17.312  35.061 -18.571  1.00  0.00     0.000 C 
BRANCH   7   8
ATOM      8  C   UNL     1     -16.640  33.849 -19.253  1.00  0.00    -0.000 C 
BRANCH   8   9
ATOM      9  C   UNL     1     -15.110  33.974 -19.287  1.00  0.00    -0.003 C 
ATOM     10  C   UNL     1     -14.610  34.923 -18.202  1.00  0.00     0.004 C 
ENDBRANCH   8   9
ENDBRANCH   7   8
ENDBRANCH   1   7
TORSDOF 6
ENDMDL
MODEL 3
REMARK VINA RESULT:    -3.381      1.758      4.125
REMARK INTER + INTRA:          -4.973
REMARK INTER:                  -4.762
REMARK INTRA:                  -0.211
REMARK UNBOUND:                -0.406
REMARK SMILES CCCCCCCC(=O)[O-]
REMARK SMILES IDX 5 1 6 2 7 3 8 4 9 5 10 6 4 7 3 8 2 9 1 10
REMARK H PARENT
REMARK Flexibility Score: inf
ROOT
ATOM      1  C   UNL     1     -16.867  34.559 -20.890  1.00  0.00     0.000 C 
ENDROOT
BRANCH   1   2
ATOM      2  C   UNL     1     -16.398  33.740 -19.675  1.00  0.00     0.006 C 
BRANCH   2   3
ATOM      3  C   UNL     1     -15.039  34.203 -19.135  1.00  0.00     0.053 C 
BRANCH   3   4
ATOM      4  C   UNL     1     -15.225  35.277 -18.111  1.00  0.00     0.041 C 
ATOM      5  O   UNL     1     -16.175  36.097 -18.218  1.00  0.00    -0.550 OA
ATOM      6  O   UNL     1     -14.378  35.344 -17.013  1.00  0.00    -0.550 OA
ENDBRANCH   3   4
ENDBRANCH   2   3
ENDBRANCH   1   2
BRANCH   1   7
ATOM      7  C   UNL     1     -18.396  34.633 -21.067  1.00  0.00     0.000 C 
BRANCH   7   8
ATOM      8  C   UNL     1     -19.010  35.977 -20.617  1.00  0.00    -0.000 C 
BRANCH   8   9
ATOM      9  C   UNL     1     -19.990  35.807 -19.447  1.00  0.00    -0.003 C 
ATOM     10  C   UNL     1     -19.979  34.373 -18.923  1.00  0.00     0.004 C 
ENDBRANCH   8   9
ENDBRANCH   7   8
ENDBRANCH   1   7
TORSDOF 6
ENDMDL
MODEL 4
REMARK VINA RESULT:    -3.304      1.717      2.335
REMARK INTER + INTRA:          -4.869
REMARK INTER:                  -4.633
REMARK INTRA:                  -0.236
REMARK UNBOUND:                -0.406
REMARK SMILES CCCCCCCC(=O)[O-]
REMARK SMILES IDX 5 1 6 2 7 3 8 4 9 5 10 6 4 7 3 8 2 9 1 10
REMARK H PARENT
REMARK Flexibility Score: inf
ROOT
ATOM      1  C   UNL     1     -18.400  34.939 -18.092  1.00  0.00     0.000 C 
ENDROOT
BRANCH   1   2
ATOM      2  C   UNL     1     -19.552  35.952 -17.973  1.00  0.00     0.006 C 
BRANCH   2   3
ATOM      3  C   UNL     1     -20.932  35.305 -18.149  1.00  0.00     0.053 C 
BRANCH   3   4
ATOM      4  C   UNL     1     -20.920  34.364 -19.312  1.00  0.00     0.041 C 
ATOM      5  O   UNL     1     -21.125  33.134 -19.135  1.00  0.00    -0.550 OA
ATOM      6  O   UNL     1     -20.731  34.853 -20.598  1.00  0.00    -0.550 OA
ENDBRANCH   3   4
ENDBRANCH   2   3
ENDBRANCH   1   2
BRANCH   1   7
ATOM      7  C   UNL     1     -17.250  35.376 -19.022  1.00  0.00     0.000 C 
BRANCH   7   8
ATOM      8  C   UNL     1     -16.549  34.200 -19.736  1.00  0.00    -0.000 C 
BRANCH   8   9
ATOM      9  C   UNL     1     -15.128  33.959 -19.203  1.00  0.00    -0.003 C 
ATOM     10  C   UNL     1     -14.750  34.998 -18.151  1.00  0.00     0.004 C 
ENDBRANCH   8   9
ENDBRANCH   7   8
ENDBRANCH   1   7
TORSDOF 6
ENDMDL
