MODEL 1
REMARK VINA RESULT:    -6.730      0.000      0.000
REMARK INTER + INTRA:         -10.353
REMARK INTER:                  -9.287
REMARK INTRA:                  -1.066
REMARK UNBOUND:                -1.066
REMARK SMILES CCCCc1cccc(O)c1CCCC
REMARK SMILES IDX 5 1 11 2 9 3 8 4 7 5 6 6 4 7 3 8 2 9 1 10 12 11 13 12 14 13
REMARK SMILES IDX 15 14 10 15
REMARK H PARENT 10 16
REMARK Flexibility Score: inf
ROOT
ATOM      1  C   UNL     1     -13.371   2.322  -9.298  1.00  0.00    -0.041 A 
ATOM      2  C   UNL     1     -11.948   2.221  -9.253  1.00  0.00    -0.003 A 
ATOM      3  C   UNL     1     -11.217   3.189  -8.509  1.00  0.00     0.119 A 
ATOM      4  C   UNL     1     -11.894   4.167  -7.775  1.00  0.00     0.046 A 
ATOM      5  C   UNL     1     -13.282   4.233  -7.793  1.00  0.00     0.004 A 
ATOM      6  C   UNL     1     -14.014   3.328  -8.554  1.00  0.00     0.004 A 
ENDROOT
BRANCH   1   7
ATOM      7  C   UNL     1     -14.255   1.393 -10.111  1.00  0.00     0.036 C 
BRANCH   7   8
ATOM      8  C   UNL     1     -14.939   0.326  -9.241  1.00  0.00     0.004 C 
BRANCH   8   9
ATOM      9  C   UNL     1     -15.104  -1.014  -9.970  1.00  0.00    -0.003 C 
ATOM     10  C   UNL     1     -13.956  -1.253 -10.947  1.00  0.00     0.004 C 
ENDBRANCH   8   9
ENDBRANCH   7   8
ENDBRANCH   1   7
BRANCH   2  11
ATOM     11  C   UNL     1     -11.208   1.138 -10.015  1.00  0.00     0.040 C 
BRANCH  11  12
ATOM     12  C   UNL     1     -10.914  -0.065  -9.106  1.00  0.00     0.005 C 
BRANCH  12  13
ATOM     13  C   UNL     1     -10.363  -1.271  -9.881  1.00  0.00    -0.003 C 
ATOM     14  C   UNL     1     -10.358  -2.554  -9.051  1.00  0.00     0.004 C 
ENDBRANCH  12  13
ENDBRANCH  11  12
ENDBRANCH   2  11
BRANCH   3  15
ATOM     15  O   UNL     1      -9.819   3.224  -8.479  1.00  0.00    -0.508 OA
ATOM     16  H   UNL     1      -9.223   2.737  -9.134  1.00  0.00     0.293 HD
ENDBRANCH   3  15
TORSDOF 7
ENDMDL
MODEL 2
REMARK VINA RESULT:    -6.151      1.716      4.719
REMARK INTER + INTRA:          -9.554
REMARK INTER:                  -8.757
REMARK INTRA:                  -0.796
REMARK UNBOUND:                -1.066
REMARK SMILES CCCCc1cccc(O)c1CCCC
REMARK SMILES IDX 5 1 11 2 9 3 8 4 7 5 6 6 4 7 3 8 2 9 1 10 12 11 13 12 14 13
REMARK SMILES IDX 15 14 10 15
REMARK H PARENT 10 16
REMARK Flexibility Score: inf
ROOT
ATOM      1  C   UNL     1     -12.454  -0.141 -10.534  1.00  0.00    -0.041 A 
ATOM      2  C   UNL     1     -13.007   1.083 -10.051  1.00  0.00    -0.003 A 
ATOM      3  C   UNL     1     -14.372   1.105  -9.648  1.00  0.00     0.119 A 
ATOM      4  C   UNL     1     -15.123  -0.073  -9.654  1.00  0.00     0.046 A 
ATOM      5  C   UNL     1     -14.565  -1.270 -10.090  1.00  0.00     0.004 A 
ATOM      6  C   UNL     1     -13.247  -1.302 -10.535  1.00  0.00     0.004 A 
ENDROOT
BRANCH   1   7
ATOM      7  C   UNL     1     -11.034  -0.274 -11.056  1.00  0.00     0.036 C 
BRANCH   7   8
ATOM      8  C   UNL     1     -10.293  -1.471 -10.437  1.00  0.00     0.004 C 
BRANCH   8   9
ATOM      9  C   UNL     1     -10.194  -1.379  -8.909  1.00  0.00    -0.003 C 
ATOM     10  C   UNL     1      -9.882  -2.742  -8.295  1.00  0.00     0.004 C 
ENDBRANCH   8   9
ENDBRANCH   7   8
ENDBRANCH   1   7
BRANCH   2  11
ATOM     11  C   UNL     1     -12.185   2.358 -10.003  1.00  0.00     0.040 C 
BRANCH  11  12
ATOM     12  C   UNL     1     -11.240   2.352  -8.792  1.00  0.00     0.005 C 
BRANCH  12  13
ATOM     13  C   UNL     1     -11.166   3.718  -8.094  1.00  0.00    -0.003 C 
ATOM     14  C   UNL     1     -12.515   4.436  -8.059  1.00  0.00     0.004 C 
ENDBRANCH  12  13
ENDBRANCH  11  12
ENDBRANCH   2  11
BRANCH   3  15
ATOM     15  O   UNL     1     -15.024   2.274  -9.246  1.00  0.00    -0.508 OA
ATOM     16  H   UNL     1     -14.565   3.164  -9.111  1.00  0.00     0.293 HD
ENDBRANCH   3  15
TORSDOF 7
ENDMDL
MODEL 3
REMARK VINA RESULT:    -5.996      2.251      5.495
REMARK INTER + INTRA:          -9.340
REMARK INTER:                  -8.397
REMARK INTRA:                  -0.943
REMARK UNBOUND:                -1.066
REMARK SMILES CCCCc1cccc(O)c1CCCC
REMARK SMILES IDX 5 1 11 2 9 3 8 4 7 5 6 6 4 7 3 8 2 9 1 10 12 11 13 12 14 13
REMARK SMILES IDX 15 14 10 15
REMARK H PARENT 10 16
REMARK Flexibility Score: inf
ROOT
ATOM      1  C   UNL     1     -11.645  -0.089 -10.093  1.00  0.00    -0.041 A 
ATOM      2  C   UNL     1     -12.705  -0.972 -10.463  1.00  0.00    -0.003 A 
ATOM      3  C   UNL     1     -12.455  -2.373 -10.476  1.00  0.00     0.119 A 
ATOM      4  C   UNL     1     -11.218  -2.868 -10.056  1.00  0.00     0.046 A 
ATOM      5  C   UNL     1     -10.204  -2.003  -9.660  1.00  0.00     0.004 A 
ATOM      6  C   UNL     1     -10.411  -0.628  -9.688  1.00  0.00     0.004 A 
ENDROOT
BRANCH   1   7
ATOM      7  C   UNL     1     -11.767   1.424 -10.107  1.00  0.00     0.036 C 
BRANCH   7   8
ATOM      8  C   UNL     1     -11.344   2.058  -8.771  1.00  0.00     0.004 C 
BRANCH   8   9
ATOM      9  C   UNL     1     -11.325   3.591  -8.824  1.00  0.00    -0.003 C 
ATOM     10  C   UNL     1     -12.560   4.179  -8.148  1.00  0.00     0.004 C 
ENDBRANCH   8   9
ENDBRANCH   7   8
ENDBRANCH   1   7
BRANCH   2  11
ATOM     11  C   UNL     1     -14.064  -0.443 -10.882  1.00  0.00     0.040 C 
BRANCH  11  12
ATOM     12  C   UNL     1     -15.114  -0.716  -9.794  1.00  0.00     0.005 C 
BRANCH  12  13
ATOM     13  C   UNL     1     -15.125   0.362  -8.700  1.00  0.00    -0.003 C 
ATOM     14  C   UNL     1     -15.115   1.781  -9.269  1.00  0.00     0.004 C 
ENDBRANCH  12  13
ENDBRANCH  11  12
ENDBRANCH   2  11
BRANCH   3  15
ATOM     15  O   UNL     1     -13.402  -3.306 -10.908  1.00  0.00    -0.508 OA
ATOM     16  H   UNL     1     -14.162  -3.096 -11.540  1.00  0.00     0.293 HD
ENDBRANCH   3  15
TORSDOF 7
ENDMDL
MODEL 4
REMARK VINA RESULT:    -5.563      1.395      4.184
REMARK INTER + INTRA:          -8.743
REMARK INTER:                  -8.101
REMARK INTRA:                  -0.642
REMARK UNBOUND:                -1.066
REMARK SMILES CCCCc1cccc(O)c1CCCC
REMARK SMILES IDX 5 1 11 2 9 3 8 4 7 5 6 6 4 7 3 8 2 9 1 10 12 11 13 12 14 13
REMARK SMILES IDX 15 14 10 15
REMARK H PARENT 10 16
REMARK Flexibility Score: inf
ROOT
ATOM      1  C   UNL     1     -12.860  -0.544 -10.495  1.00  0.00    -0.041 A 
ATOM      2  C   UNL     1     -12.405   0.715  -9.998  1.00  0.00    -0.003 A 
ATOM      3  C   UNL     1     -11.117   0.789  -9.397  1.00  0.00     0.119 A 
ATOM      4  C   UNL     1     -10.291  -0.337  -9.371  1.00  0.00     0.046 A 
ATOM      5  C   UNL     1     -10.726  -1.550  -9.892  1.00  0.00     0.004 A 
ATOM      6  C   UNL     1     -12.001  -1.656 -10.438  1.00  0.00     0.004 A 
ENDROOT
BRANCH   1   7
ATOM      7  C   UNL     1     -14.238  -0.765 -11.093  1.00  0.00     0.036 C 
BRANCH   7   8
ATOM      8  C   UNL     1     -15.082  -1.751 -10.269  1.00  0.00     0.004 C 
BRANCH   8   9
ATOM      9  C   UNL     1     -15.125  -3.154 -10.889  1.00  0.00    -0.003 C 
ATOM     10  C   UNL     1     -14.613  -4.204  -9.908  1.00  0.00     0.004 C 
ENDBRANCH   8   9
ENDBRANCH   7   8
ENDBRANCH   1   7
BRANCH   2  11
ATOM     11  C   UNL     1     -13.282   1.952 -10.059  1.00  0.00     0.040 C 
BRANCH  11  12
ATOM     12  C   UNL     1     -14.116   2.092  -8.777  1.00  0.00     0.005 C 
BRANCH  12  13
ATOM     13  C   UNL     1     -14.028   3.499  -8.167  1.00  0.00    -0.003 C 
ATOM     14  C   UNL     1     -12.795   4.270  -8.636  1.00  0.00     0.004 C 
ENDBRANCH  12  13
ENDBRANCH  11  12
ENDBRANCH   2  11
BRANCH   3  15
ATOM     15  O   UNL     1     -10.624   1.956  -8.805  1.00  0.00    -0.508 OA
ATOM     16  H   UNL     1     -10.086   2.658  -9.292  1.00  0.00     0.293 HD
ENDBRANCH   3  15
TORSDOF 7
ENDMDL
MODEL 5
REMARK VINA RESULT:    -5.470      2.560      4.888
REMARK INTER + INTRA:          -8.615
REMARK INTER:                  -7.926
REMARK INTRA:                  -0.689
REMARK UNBOUND:                -1.066
REMARK SMILES CCCCc1cccc(O)c1CCCC
REMARK SMILES IDX 5 1 11 2 9 3 8 4 7 5 6 6 4 7 3 8 2 9 1 10 12 11 13 12 14 13
REMARK SMILES IDX 15 14 10 15
REMARK H PARENT 10 16
REMARK Flexibility Score: inf
ROOT
ATOM      1  C   UNL     1     -12.972  -0.042 -10.222  1.00  0.00    -0.041 A 
ATOM      2  C   UNL     1     -13.038  -1.440 -10.508  1.00  0.00    -0.003 A 
ATOM      3  C   UNL     1     -11.852  -2.218 -10.396  1.00  0.00     0.119 A 
ATOM      4  C   UNL     1     -10.670  -1.632  -9.937  1.00  0.00     0.046 A 
ATOM      5  C   UNL     1     -10.624  -0.278  -9.623  1.00  0.00     0.004 A 
ATOM      6  C   UNL     1     -11.759   0.511  -9.774  1.00  0.00     0.004 A 
ENDROOT
BRANCH   1   7
ATOM      7  C   UNL     1     -14.150   0.904 -10.372  1.00  0.00     0.036 C 
BRANCH   7   8
ATOM      8  C   UNL     1     -13.767   2.365 -10.083  1.00  0.00     0.004 C 
BRANCH   8   9
ATOM      9  C   UNL     1     -14.213   2.828  -8.690  1.00  0.00    -0.003 C 
ATOM     10  C   UNL     1     -13.249   3.865  -8.121  1.00  0.00     0.004 C 
ENDBRANCH   8   9
ENDBRANCH   7   8
ENDBRANCH   1   7
BRANCH   2  11
ATOM     11  C   UNL     1     -14.329  -2.092 -10.969  1.00  0.00     0.040 C 
BRANCH  11  12
ATOM     12  C   UNL     1     -15.051  -2.763  -9.791  1.00  0.00     0.005 C 
BRANCH  12  13
ATOM     13  C   UNL     1     -15.124  -4.290  -9.937  1.00  0.00    -0.003 C 
ATOM     14  C   UNL     1     -14.790  -5.023  -8.638  1.00  0.00     0.004 C 
ENDBRANCH  12  13
ENDBRANCH  11  12
ENDBRANCH   2  11
BRANCH   3  15
ATOM     15  O   UNL     1     -11.800  -3.572 -10.741  1.00  0.00    -0.508 OA
ATOM     16  H   UNL     1     -11.287  -3.940 -11.530  1.00  0.00     0.293 HD
ENDBRANCH   3  15
TORSDOF 7
ENDMDL
MODEL 6
REMARK VINA RESULT:    -5.195     14.500     17.001
REMARK INTER + INTRA:          -8.235
REMARK INTER:                  -7.702
REMARK INTRA:                  -0.533
REMARK UNBOUND:                -1.066
REMARK SMILES CCCCc1cccc(O)c1CCCC
REMARK SMILES IDX 5 1 11 2 9 3 8 4 7 5 6 6 4 7 3 8 2 9 1 10 12 11 13 12 14 13
REMARK SMILES IDX 15 14 10 15
REMARK H PARENT 10 16
REMARK Flexibility Score: inf
ROOT
ATOM      1  C   UNL     1      -9.972   5.896   6.695  1.00  0.00    -0.041 A 
ATOM      2  C   UNL     1     -11.219   5.261   6.414  1.00  0.00    -0.003 A 
ATOM      3  C   UNL     1     -11.891   4.577   7.465  1.00  0.00     0.119 A 
ATOM      4  C   UNL     1     -11.372   4.602   8.762  1.00  0.00     0.046 A 
ATOM      5  C   UNL     1     -10.176   5.256   9.035  1.00  0.00     0.004 A 
ATOM      6  C   UNL     1      -9.477   5.887   8.012  1.00  0.00     0.004 A 
ENDROOT
BRANCH   1   7
ATOM      7  C   UNL     1      -9.128   6.595   5.645  1.00  0.00     0.036 C 
BRANCH   7   8
ATOM      8  C   UNL     1      -8.746   8.026   6.059  1.00  0.00     0.004 C 
BRANCH   8   9
ATOM      9  C   UNL     1      -8.017   8.789   4.945  1.00  0.00    -0.003 C 
ATOM     10  C   UNL     1      -7.244   9.978   5.509  1.00  0.00     0.004 C 
ENDBRANCH   8   9
ENDBRANCH   7   8
ENDBRANCH   1   7
BRANCH   2  11
ATOM     11  C   UNL     1     -11.810   5.264   5.016  1.00  0.00     0.040 C 
BRANCH  11  12
ATOM     12  C   UNL     1     -12.949   6.289   4.909  1.00  0.00     0.005 C 
BRANCH  12  13
ATOM     13  C   UNL     1     -14.070   5.829   3.964  1.00  0.00    -0.003 C 
ATOM     14  C   UNL     1     -13.984   6.483   2.585  1.00  0.00     0.004 C 
ENDBRANCH  12  13
ENDBRANCH  11  12
ENDBRANCH   2  11
BRANCH   3  15
ATOM     15  O   UNL     1     -13.071   3.853   7.265  1.00  0.00    -0.508 OA
ATOM     16  H   UNL     1     -13.724   4.025   6.514  1.00  0.00     0.293 HD
ENDBRANCH   3  15
TORSDOF 7
ENDMDL
MODEL 7
REMARK VINA RESULT:    -5.157     14.387     16.523
REMARK INTER + INTRA:          -8.182
REMARK INTER:                  -7.706
REMARK INTRA:                  -0.476
REMARK UNBOUND:                -1.066
REMARK SMILES CCCCc1cccc(O)c1CCCC
REMARK SMILES IDX 5 1 11 2 9 3 8 4 7 5 6 6 4 7 3 8 2 9 1 10 12 11 13 12 14 13
REMARK SMILES IDX 15 14 10 15
REMARK H PARENT 10 16
REMARK Flexibility Score: inf
ROOT
ATOM      1  C   UNL     1     -12.040   5.686   6.108  1.00  0.00    -0.041 A 
ATOM      2  C   UNL     1     -10.932   6.289   6.777  1.00  0.00    -0.003 A 
ATOM      3  C   UNL     1     -10.451   5.694   7.977  1.00  0.00     0.119 A 
ATOM      4  C   UNL     1     -11.007   4.498   8.438  1.00  0.00     0.046 A 
ATOM      5  C   UNL     1     -12.060   3.896   7.758  1.00  0.00     0.004 A 
ATOM      6  C   UNL     1     -12.578   4.488   6.611  1.00  0.00     0.004 A 
ENDROOT
BRANCH   1   7
ATOM      7  C   UNL     1     -12.686   6.264   4.861  1.00  0.00     0.036 C 
BRANCH   7   8
ATOM      8  C   UNL     1     -14.220   6.163   4.897  1.00  0.00     0.004 C 
BRANCH   8   9
ATOM      9  C   UNL     1     -14.831   5.954   3.506  1.00  0.00    -0.003 C 
ATOM     10  C   UNL     1     -13.964   6.590   2.423  1.00  0.00     0.004 C 
ENDBRANCH   8   9
ENDBRANCH   7   8
ENDBRANCH   1   7
BRANCH   2  11
ATOM     11  C   UNL     1     -10.297   7.567   6.260  1.00  0.00     0.040 C 
BRANCH  11  12
ATOM     12  C   UNL     1      -8.874   7.299   5.748  1.00  0.00     0.005 C 
BRANCH  12  13
ATOM     13  C   UNL     1      -8.252   8.526   5.063  1.00  0.00    -0.003 C 
ATOM     14  C   UNL     1      -7.515   9.438   6.043  1.00  0.00     0.004 C 
ENDBRANCH  12  13
ENDBRANCH  11  12
ENDBRANCH   2  11
BRANCH   3  15
ATOM     15  O   UNL     1      -9.431   6.261   8.747  1.00  0.00    -0.508 OA
ATOM     16  H   UNL     1      -9.380   7.240   8.993  1.00  0.00     0.293 HD
ENDBRANCH   3  15
TORSDOF 7
ENDMDL
MODEL 8
REMARK VINA RESULT:    -4.808     14.337     16.611
REMARK INTER + INTRA:          -7.701
REMARK INTER:                  -6.860
REMARK INTRA:                  -0.841
REMARK UNBOUND:                -1.066
REMARK SMILES CCCCc1cccc(O)c1CCCC
REMARK SMILES IDX 5 1 11 2 9 3 8 4 7 5 6 6 4 7 3 8 2 9 1 10 12 11 13 12 14 13
REMARK SMILES IDX 15 14 10 15
REMARK H PARENT 10 16
REMARK Flexibility Score: inf
ROOT
ATOM      1  C   UNL     1     -12.397   5.390   6.574  1.00  0.00    -0.041 A 
ATOM      2  C   UNL     1     -11.242   6.212   6.745  1.00  0.00    -0.003 A 
ATOM      3  C   UNL     1     -10.240   5.800   7.669  1.00  0.00     0.119 A 
ATOM      4  C   UNL     1     -10.357   4.575   8.330  1.00  0.00     0.046 A 
ATOM      5  C   UNL     1     -11.467   3.763   8.128  1.00  0.00     0.004 A 
ATOM      6  C   UNL     1     -12.482   4.170   7.268  1.00  0.00     0.004 A 
ENDROOT
BRANCH   1   7
ATOM      7  C   UNL     1     -13.563   5.755   5.673  1.00  0.00     0.036 C 
BRANCH   7   8
ATOM      8  C   UNL     1     -13.285   5.429   4.196  1.00  0.00     0.004 C 
BRANCH   8   9
ATOM      9  C   UNL     1     -14.437   5.843   3.272  1.00  0.00    -0.003 C 
ATOM     10  C   UNL     1     -14.042   7.031   2.399  1.00  0.00     0.004 C 
ENDBRANCH   8   9
ENDBRANCH   7   8
ENDBRANCH   1   7
BRANCH   2  11
ATOM     11  C   UNL     1     -11.089   7.525   6.001  1.00  0.00     0.040 C 
BRANCH  11  12
ATOM     12  C   UNL     1     -12.117   8.555   6.494  1.00  0.00     0.005 C 
BRANCH  12  13
ATOM     13  C   UNL     1     -12.755   9.350   5.345  1.00  0.00    -0.003 C 
ATOM     14  C   UNL     1     -14.282   9.339   5.398  1.00  0.00     0.004 C 
ENDBRANCH  12  13
ENDBRANCH  11  12
ENDBRANCH   2  11
BRANCH   3  15
ATOM     15  O   UNL     1      -9.120   6.581   7.968  1.00  0.00    -0.508 OA
ATOM     16  H   UNL     1      -8.299   6.239   8.448  1.00  0.00     0.293 HD
ENDBRANCH   3  15
TORSDOF 7
ENDMDL
MODEL 9
REMARK VINA RESULT:    -4.612     13.595     16.093
REMARK INTER + INTRA:          -7.430
REMARK INTER:                  -6.378
REMARK INTRA:                  -1.052
REMARK UNBOUND:                -1.066
REMARK SMILES CCCCc1cccc(O)c1CCCC
REMARK SMILES IDX 5 1 11 2 9 3 8 4 7 5 6 6 4 7 3 8 2 9 1 10 12 11 13 12 14 13
REMARK SMILES IDX 15 14 10 15
REMARK H PARENT 10 16
REMARK Flexibility Score: inf
ROOT
ATOM      1  C   UNL     1     -11.454   7.368   6.142  1.00  0.00    -0.041 A 
ATOM      2  C   UNL     1     -11.741   5.980   5.975  1.00  0.00    -0.003 A 
ATOM      3  C   UNL     1     -10.678   5.098   5.631  1.00  0.00     0.119 A 
ATOM      4  C   UNL     1      -9.369   5.580   5.540  1.00  0.00     0.046 A 
ATOM      5  C   UNL     1      -9.094   6.927   5.743  1.00  0.00     0.004 A 
ATOM      6  C   UNL     1     -10.125   7.815   6.030  1.00  0.00     0.004 A 
ENDROOT
BRANCH   1   7
ATOM      7  C   UNL     1     -12.512   8.416   6.440  1.00  0.00     0.036 C 
BRANCH   7   8
ATOM      8  C   UNL     1     -12.431   9.618   5.484  1.00  0.00     0.004 C 
BRANCH   8   9
ATOM      9  C   UNL     1     -13.615   9.681   4.511  1.00  0.00    -0.003 C 
ATOM     10  C   UNL     1     -14.935   9.430   5.234  1.00  0.00     0.004 C 
ENDBRANCH   8   9
ENDBRANCH   7   8
ENDBRANCH   1   7
BRANCH   2  11
ATOM     11  C   UNL     1     -13.153   5.442   6.111  1.00  0.00     0.040 C 
BRANCH  11  12
ATOM     12  C   UNL     1     -14.035   5.925   4.949  1.00  0.00     0.005 C 
BRANCH  12  13
ATOM     13  C   UNL     1     -13.366   5.729   3.580  1.00  0.00    -0.003 C 
ATOM     14  C   UNL     1     -14.046   6.530   2.471  1.00  0.00     0.004 C 
ENDBRANCH  12  13
ENDBRANCH  11  12
ENDBRANCH   2  11
BRANCH   3  15
ATOM     15  O   UNL     1     -10.877   3.741   5.361  1.00  0.00    -0.508 OA
ATOM     16  H   UNL     1     -11.717   3.360   4.947  1.00  0.00     0.293 HD
ENDBRANCH   3  15
TORSDOF 7
ENDMDL
