MODEL 1
REMARK VINA RESULT:    -3.611      0.000      0.000
REMARK INTER + INTRA:          -5.467
REMARK INTER:                  -5.089
REMARK INTRA:                  -0.377
REMARK UNBOUND:                -0.377
REMARK SMILES C=CCCCCCCC(=O)[O-]
REMARK SMILES IDX 6 1 7 2 8 3 9 4 10 5 11 6 5 7 4 8 3 9 2 10 1 11
REMARK H PARENT
REMARK Flexibility Score: inf
ROOT
ATOM      1  C   UNL     1     -21.371   0.738   6.241  1.00  0.00     0.000 C 
ENDROOT
BRANCH   1   2
ATOM      2  C   UNL     1     -20.479  -0.500   6.466  1.00  0.00     0.006 C 
BRANCH   2   3
ATOM      3  C   UNL     1     -21.221  -1.731   7.012  1.00  0.00     0.053 C 
BRANCH   3   4
ATOM      4  C   UNL     1     -20.598  -2.249   8.271  1.00  0.00     0.041 C 
ATOM      5  O   UNL     1     -20.665  -1.577   9.334  1.00  0.00    -0.550 OA
ATOM      6  O   UNL     1     -19.973  -3.489   8.280  1.00  0.00    -0.550 OA
ENDBRANCH   3   4
ENDBRANCH   2   3
ENDBRANCH   1   2
BRANCH   1   7
ATOM      7  C   UNL     1     -21.169   1.879   7.255  1.00  0.00     0.000 C 
BRANCH   7   8
ATOM      8  C   UNL     1     -21.754   1.560   8.641  1.00  0.00     0.004 C 
BRANCH   8   9
ATOM      9  C   UNL     1     -22.424   2.785   9.282  1.00  0.00     0.027 C 
BRANCH   9  10
ATOM     10  C   UNL     1     -22.456   3.970   8.353  1.00  0.00    -0.035 C 
ATOM     11  C   UNL     1     -22.106   5.195   8.761  1.00  0.00     0.004 C 
ENDBRANCH   9  10
ENDBRANCH   8   9
ENDBRANCH   7   8
ENDBRANCH   1   7
TORSDOF 7
ENDMDL
MODEL 2
REMARK VINA RESULT:    -3.553      2.187      5.689
REMARK INTER + INTRA:          -5.384
REMARK INTER:                  -5.023
REMARK INTRA:                  -0.361
REMARK UNBOUND:                -0.377
REMARK SMILES C=CCCCCCCC(=O)[O-]
REMARK SMILES IDX 6 1 7 2 8 3 9 4 10 5 11 6 5 7 4 8 3 9 2 10 1 11
REMARK H PARENT
REMARK Flexibility Score: inf
ROOT
ATOM      1  C   UNL     1     -20.566  -0.646   6.442  1.00  0.00     0.000 C 
ENDROOT
BRANCH   1   2
ATOM      2  C   UNL     1     -21.549   0.542   6.447  1.00  0.00     0.006 C 
BRANCH   2   3
ATOM      3  C   UNL     1     -21.053   1.779   7.215  1.00  0.00     0.053 C 
BRANCH   3   4
ATOM      4  C   UNL     1     -21.819   1.997   8.483  1.00  0.00     0.041 C 
ATOM      5  O   UNL     1     -21.817   1.117   9.383  1.00  0.00    -0.550 OA
ATOM      6  O   UNL     1     -22.508   3.186   8.685  1.00  0.00    -0.550 OA
ENDBRANCH   3   4
ENDBRANCH   2   3
ENDBRANCH   1   2
BRANCH   1   7
ATOM      7  C   UNL     1     -21.055  -1.898   7.190  1.00  0.00     0.000 C 
BRANCH   7   8
ATOM      8  C   UNL     1     -20.677  -1.892   8.681  1.00  0.00     0.004 C 
BRANCH   8   9
ATOM      9  C   UNL     1     -19.942  -3.175   9.097  1.00  0.00     0.027 C 
BRANCH   9  10
ATOM     10  C   UNL     1     -19.947  -4.216   8.008  1.00  0.00    -0.035 C 
ATOM     11  C   UNL     1     -20.361  -5.468   8.231  1.00  0.00     0.004 C 
ENDBRANCH   9  10
ENDBRANCH   8   9
ENDBRANCH   7   8
ENDBRANCH   1   7
TORSDOF 7
ENDMDL
MODEL 3
REMARK VINA RESULT:    -3.511      1.176      1.856
REMARK INTER + INTRA:          -5.325
REMARK INTER:                  -5.279
REMARK INTRA:                  -0.046
REMARK UNBOUND:                -0.377
REMARK SMILES C=CCCCCCCC(=O)[O-]
REMARK SMILES IDX 6 1 7 2 8 3 9 4 10 5 11 6 5 7 4 8 3 9 2 10 1 11
REMARK H PARENT
REMARK Flexibility Score: inf
ROOT
ATOM      1  C   UNL     1     -20.996  -0.010   6.318  1.00  0.00     0.000 C 
ENDROOT
BRANCH   1   2
ATOM      2  C   UNL     1     -21.047  -1.346   7.086  1.00  0.00     0.006 C 
BRANCH   2   3
ATOM      3  C   UNL     1     -21.123  -1.201   8.615  1.00  0.00     0.053 C 
BRANCH   3   4
ATOM      4  C   UNL     1     -20.341  -2.267   9.318  1.00  0.00     0.041 C 
ATOM      5  O   UNL     1     -20.016  -2.121  10.526  1.00  0.00    -0.550 OA
ATOM      6  O   UNL     1     -20.001  -3.437   8.651  1.00  0.00    -0.550 OA
ENDBRANCH   3   4
ENDBRANCH   2   3
ENDBRANCH   1   2
BRANCH   1   7
ATOM      7  C   UNL     1     -20.584   1.211   7.160  1.00  0.00     0.000 C 
BRANCH   7   8
ATOM      8  C   UNL     1     -21.669   2.300   7.208  1.00  0.00     0.004 C 
BRANCH   8   9
ATOM      9  C   UNL     1     -22.069   2.654   8.648  1.00  0.00     0.027 C 
BRANCH   9  10
ATOM     10  C   UNL     1     -21.908   1.489   9.590  1.00  0.00    -0.035 C 
ATOM     11  C   UNL     1     -22.180   1.595  10.894  1.00  0.00     0.004 C 
ENDBRANCH   9  10
ENDBRANCH   8   9
ENDBRANCH   7   8
ENDBRANCH   1   7
TORSDOF 7
ENDMDL
MODEL 4
REMARK VINA RESULT:    -3.480      2.561      4.865
REMARK INTER + INTRA:          -5.282
REMARK INTER:                  -5.349
REMARK INTRA:                   0.068
REMARK UNBOUND:                -0.377
REMARK SMILES C=CCCCCCCC(=O)[O-]
REMARK SMILES IDX 6 1 7 2 8 3 9 4 10 5 11 6 5 7 4 8 3 9 2 10 1 11
REMARK H PARENT
REMARK Flexibility Score: inf
ROOT
ATOM      1  C   UNL     1     -21.387   0.484   6.079  1.00  0.00     0.000 C 
ENDROOT
BRANCH   1   2
ATOM      2  C   UNL     1     -21.335   1.634   7.104  1.00  0.00     0.006 C 
BRANCH   2   3
ATOM      3  C   UNL     1     -21.423   1.186   8.572  1.00  0.00     0.053 C 
BRANCH   3   4
ATOM      4  C   UNL     1     -22.241   2.128   9.399  1.00  0.00     0.041 C 
ATOM      5  O   UNL     1     -22.637   1.786  10.544  1.00  0.00    -0.550 OA
ATOM      6  O   UNL     1     -22.538   3.398   8.919  1.00  0.00    -0.550 OA
ENDBRANCH   3   4
ENDBRANCH   2   3
ENDBRANCH   1   2
BRANCH   1   7
ATOM      7  C   UNL     1     -20.467  -0.710   6.391  1.00  0.00     0.000 C 
BRANCH   7   8
ATOM      8  C   UNL     1     -21.212  -1.886   7.044  1.00  0.00     0.004 C 
BRANCH   8   9
ATOM      9  C   UNL     1     -20.469  -2.430   8.274  1.00  0.00     0.027 C 
BRANCH   9  10
ATOM     10  C   UNL     1     -20.724  -1.603   9.507  1.00  0.00    -0.035 C 
ATOM     11  C   UNL     1     -20.429  -2.054  10.731  1.00  0.00     0.004 C 
ENDBRANCH   9  10
ENDBRANCH   8   9
ENDBRANCH   7   8
ENDBRANCH   1   7
TORSDOF 7
ENDMDL
MODEL 5
REMARK VINA RESULT:    -3.361      3.031      4.934
REMARK INTER + INTRA:          -5.114
REMARK INTER:                  -4.854
REMARK INTRA:                  -0.260
REMARK UNBOUND:                -0.377
REMARK SMILES C=CCCCCCCC(=O)[O-]
REMARK SMILES IDX 6 1 7 2 8 3 9 4 10 5 11 6 5 7 4 8 3 9 2 10 1 11
REMARK H PARENT
REMARK Flexibility Score: inf
ROOT
ATOM      1  C   UNL     1     -22.559   1.855  10.537  1.00  0.00     0.000 C 
ENDROOT
BRANCH   1   2
ATOM      2  C   UNL     1     -21.772   0.775  11.306  1.00  0.00     0.006 C 
BRANCH   2   3
ATOM      3  C   UNL     1     -21.765   0.955  12.833  1.00  0.00     0.053 C 
BRANCH   3   4
ATOM      4  C   UNL     1     -21.414  -0.314  13.547  1.00  0.00     0.041 C 
ATOM      5  O   UNL     1     -21.350  -0.336  14.804  1.00  0.00    -0.550 OA
ATOM      6  O   UNL     1     -21.191  -1.480  12.826  1.00  0.00    -0.550 OA
ENDBRANCH   3   4
ENDBRANCH   2   3
ENDBRANCH   1   2
BRANCH   1   7
ATOM      7  C   UNL     1     -22.114   2.070   9.080  1.00  0.00     0.000 C 
BRANCH   7   8
ATOM      8  C   UNL     1     -21.371   0.859   8.494  1.00  0.00     0.004 C 
BRANCH   8   9
ATOM      9  C   UNL     1     -21.011   1.061   7.014  1.00  0.00     0.027 C 
BRANCH   9  10
ATOM     10  C   UNL     1     -20.812  -0.244   6.289  1.00  0.00    -0.035 C 
ATOM     11  C   UNL     1     -21.016  -1.421   6.890  1.00  0.00     0.004 C 
ENDBRANCH   9  10
ENDBRANCH   8   9
ENDBRANCH   7   8
ENDBRANCH   1   7
TORSDOF 7
ENDMDL
MODEL 6
REMARK VINA RESULT:    -3.249      3.326      5.066
REMARK INTER + INTRA:          -4.956
REMARK INTER:                  -4.742
REMARK INTRA:                  -0.214
REMARK UNBOUND:                -0.377
REMARK SMILES C=CCCCCCCC(=O)[O-]
REMARK SMILES IDX 6 1 7 2 8 3 9 4 10 5 11 6 5 7 4 8 3 9 2 10 1 11
REMARK H PARENT
REMARK Flexibility Score: inf
ROOT
ATOM      1  C   UNL     1     -20.969  -2.561  10.447  1.00  0.00     0.000 C 
ENDROOT
BRANCH   1   2
ATOM      2  C   UNL     1     -20.636  -1.492  11.507  1.00  0.00     0.006 C 
BRANCH   2   3
ATOM      3  C   UNL     1     -21.384  -1.659  12.840  1.00  0.00     0.053 C 
BRANCH   3   4
ATOM      4  C   UNL     1     -21.475  -0.372  13.598  1.00  0.00     0.041 C 
ATOM      5  O   UNL     1     -21.145  -0.327  14.813  1.00  0.00    -0.550 OA
ATOM      6  O   UNL     1     -21.890   0.788  12.956  1.00  0.00    -0.550 OA
ENDBRANCH   3   4
ENDBRANCH   2   3
ENDBRANCH   1   2
BRANCH   1   7
ATOM      7  C   UNL     1     -20.454  -2.255   9.029  1.00  0.00     0.000 C 
BRANCH   7   8
ATOM      8  C   UNL     1     -21.030  -0.953   8.450  1.00  0.00     0.004 C 
BRANCH   8   9
ATOM      9  C   UNL     1     -21.056  -0.965   6.913  1.00  0.00     0.027 C 
BRANCH   9  10
ATOM     10  C   UNL     1     -21.281   0.406   6.334  1.00  0.00    -0.035 C 
ATOM     11  C   UNL     1     -21.082   1.516   7.052  1.00  0.00     0.004 C 
ENDBRANCH   9  10
ENDBRANCH   8   9
ENDBRANCH   7   8
ENDBRANCH   1   7
TORSDOF 7
ENDMDL
MODEL 7
REMARK VINA RESULT:    -2.944      2.448      4.833
REMARK INTER + INTRA:          -4.527
REMARK INTER:                  -4.067
REMARK INTRA:                  -0.460
REMARK UNBOUND:                -0.377
REMARK SMILES C=CCCCCCCC(=O)[O-]
REMARK SMILES IDX 6 1 7 2 8 3 9 4 10 5 11 6 5 7 4 8 3 9 2 10 1 11
REMARK H PARENT
REMARK Flexibility Score: inf
ROOT
ATOM      1  C   UNL     1     -22.095   2.309   8.629  1.00  0.00     0.000 C 
ENDROOT
BRANCH   1   2
ATOM      2  C   UNL     1     -21.793   1.301   9.755  1.00  0.00     0.006 C 
BRANCH   2   3
ATOM      3  C   UNL     1     -22.647   1.481  11.020  1.00  0.00     0.053 C 
BRANCH   3   4
ATOM      4  C   UNL     1     -21.867   1.204  12.268  1.00  0.00     0.041 C 
ATOM      5  O   UNL     1     -21.273   2.141  12.864  1.00  0.00    -0.550 OA
ATOM      6  O   UNL     1     -21.824  -0.082  12.793  1.00  0.00    -0.550 OA
ENDBRANCH   3   4
ENDBRANCH   2   3
ENDBRANCH   1   2
BRANCH   1   7
ATOM      7  C   UNL     1     -21.450   1.982   7.270  1.00  0.00     0.000 C 
BRANCH   7   8
ATOM      8  C   UNL     1     -20.567   0.725   7.313  1.00  0.00     0.004 C 
BRANCH   8   9
ATOM      9  C   UNL     1     -21.148  -0.420   6.469  1.00  0.00     0.027 C 
BRANCH   9  10
ATOM     10  C   UNL     1     -20.982  -1.762   7.132  1.00  0.00    -0.035 C 
ATOM     11  C   UNL     1     -20.645  -1.874   8.421  1.00  0.00     0.004 C 
ENDBRANCH   9  10
ENDBRANCH   8   9
ENDBRANCH   7   8
ENDBRANCH   1   7
TORSDOF 7
ENDMDL
MODEL 8
REMARK VINA RESULT:    -2.748      3.429      4.924
REMARK INTER + INTRA:          -4.250
REMARK INTER:                  -4.247
REMARK INTRA:                  -0.003
REMARK UNBOUND:                -0.377
REMARK SMILES C=CCCCCCCC(=O)[O-]
REMARK SMILES IDX 6 1 7 2 8 3 9 4 10 5 11 6 5 7 4 8 3 9 2 10 1 11
REMARK H PARENT
REMARK Flexibility Score: inf
ROOT
ATOM      1  C   UNL     1     -20.782  -1.094   8.998  1.00  0.00     0.000 C 
ENDROOT
BRANCH   1   2
ATOM      2  C   UNL     1     -21.056  -1.480   7.531  1.00  0.00     0.006 C 
BRANCH   2   3
ATOM      3  C   UNL     1     -21.517  -0.315   6.640  1.00  0.00     0.053 C 
BRANCH   3   4
ATOM      4  C   UNL     1     -21.083   1.011   7.181  1.00  0.00     0.041 C 
ATOM      5  O   UNL     1     -20.033   1.558   6.750  1.00  0.00    -0.550 OA
ATOM      6  O   UNL     1     -21.854   1.662   8.136  1.00  0.00    -0.550 OA
ENDBRANCH   3   4
ENDBRANCH   2   3
ENDBRANCH   1   2
BRANCH   1   7
ATOM      7  C   UNL     1     -20.807  -2.266   9.996  1.00  0.00     0.000 C 
BRANCH   7   8
ATOM      8  C   UNL     1     -20.253  -1.887  11.379  1.00  0.00     0.004 C 
BRANCH   8   9
ATOM      9  C   UNL     1     -21.320  -1.996  12.479  1.00  0.00     0.027 C 
BRANCH   9  10
ATOM     10  C   UNL     1     -21.562  -0.682  13.174  1.00  0.00    -0.035 C 
ATOM     11  C   UNL     1     -21.197  -0.478  14.444  1.00  0.00     0.004 C 
ENDBRANCH   9  10
ENDBRANCH   8   9
ENDBRANCH   7   8
ENDBRANCH   1   7
TORSDOF 7
ENDMDL
MODEL 9
REMARK VINA RESULT:    -2.682      2.976      3.967
REMARK INTER + INTRA:          -4.157
REMARK INTER:                  -3.896
REMARK INTRA:                  -0.261
REMARK UNBOUND:                -0.377
REMARK SMILES C=CCCCCCCC(=O)[O-]
REMARK SMILES IDX 6 1 7 2 8 3 9 4 10 5 11 6 5 7 4 8 3 9 2 10 1 11
REMARK H PARENT
REMARK Flexibility Score: inf
ROOT
ATOM      1  C   UNL     1     -22.105   1.958   8.753  1.00  0.00     0.000 C 
ENDROOT
BRANCH   1   2
ATOM      2  C   UNL     1     -21.229   1.705   7.511  1.00  0.00     0.006 C 
BRANCH   2   3
ATOM      3  C   UNL     1     -21.746   0.596   6.579  1.00  0.00     0.053 C 
BRANCH   3   4
ATOM      4  C   UNL     1     -20.877  -0.623   6.620  1.00  0.00     0.041 C 
ATOM      5  O   UNL     1     -21.021  -1.472   7.539  1.00  0.00    -0.550 OA
ATOM      6  O   UNL     1     -19.932  -0.839   5.626  1.00  0.00    -0.550 OA
ENDBRANCH   3   4
ENDBRANCH   2   3
ENDBRANCH   1   2
BRANCH   1   7
ATOM      7  C   UNL     1     -21.750   1.108   9.986  1.00  0.00     0.000 C 
BRANCH   7   8
ATOM      8  C   UNL     1     -22.506   1.542  11.252  1.00  0.00     0.004 C 
BRANCH   8   9
ATOM      9  C   UNL     1     -21.655   1.374  12.520  1.00  0.00     0.027 C 
BRANCH   9  10
ATOM     10  C   UNL     1     -21.771  -0.007  13.109  1.00  0.00    -0.035 C 
ATOM     11  C   UNL     1     -21.384  -0.275  14.360  1.00  0.00     0.004 C 
ENDBRANCH   9  10
ENDBRANCH   8   9
ENDBRANCH   7   8
ENDBRANCH   1   7
TORSDOF 7
ENDMDL
