MODEL 1
REMARK VINA RESULT:    -4.557      0.000      0.000
REMARK INTER + INTRA:         -11.980
REMARK INTER:                 -10.419
REMARK INTRA:                  -1.561
REMARK UNBOUND:                -1.561
REMARK SMILES CCCCCCCCCCCCCCCCCCCCCCCC(=O)[O-]
REMARK SMILES IDX 13 1 14 2 15 3 16 4 17 5 18 6 19 7 20 8 21 9 22 10 23 11
REMARK SMILES IDX 24 12 25 13 26 14 12 15 11 16 10 17 9 18 8 19 7 20 6 21 5 22
REMARK SMILES IDX 4 23 3 24 2 25 1 26
REMARK H PARENT
REMARK Flexibility Score: inf
ROOT
ATOM      1  C   UNL     1       8.789  -7.044  -4.060  1.00  0.00     0.000 C 
ENDROOT
BRANCH   1   2
ATOM      2  C   UNL     1       8.726  -8.305  -3.182  1.00  0.00     0.000 C 
BRANCH   2   3
ATOM      3  C   UNL     1       7.963  -8.071  -1.868  1.00  0.00     0.000 C 
BRANCH   3   4
ATOM      4  C   UNL     1       8.752  -8.544  -0.634  1.00  0.00     0.000 C 
BRANCH   4   5
ATOM      5  C   UNL     1       8.681 -10.068  -0.438  1.00  0.00     0.000 C 
BRANCH   5   6
ATOM      6  C   UNL     1       8.396 -10.460   1.023  1.00  0.00     0.000 C 
BRANCH   6   7
ATOM      7  C   UNL     1       7.306  -9.587   1.670  1.00  0.00     0.000 C 
BRANCH   7   8
ATOM      8  C   UNL     1       5.864  -9.954   1.270  1.00  0.00     0.000 C 
BRANCH   8   9
ATOM      9  C   UNL     1       5.114 -10.778   2.338  1.00  0.00     0.000 C 
BRANCH   9  10
ATOM     10  C   UNL     1       4.954 -10.007   3.661  1.00  0.00     0.006 C 
BRANCH  10  11
ATOM     11  C   UNL     1       3.532 -10.112   4.226  1.00  0.00     0.053 C 
BRANCH  11  12
ATOM     12  C   UNL     1       2.969  -8.763   4.559  1.00  0.00     0.041 C 
ATOM     13  O   UNL     1       2.676  -7.953   3.643  1.00  0.00    -0.550 OA
ATOM     14  O   UNL     1       2.737  -8.419   5.884  1.00  0.00    -0.550 OA
ENDBRANCH  11  12
ENDBRANCH  10  11
ENDBRANCH   9  10
ENDBRANCH   8   9
ENDBRANCH   7   8
ENDBRANCH   6   7
ENDBRANCH   5   6
ENDBRANCH   4   5
ENDBRANCH   3   4
ENDBRANCH   2   3
ENDBRANCH   1   2
BRANCH   1  15
ATOM     15  C   UNL     1       8.074  -5.844  -3.418  1.00  0.00     0.000 C 
BRANCH  15  16
ATOM     16  C   UNL     1       8.568  -4.495  -3.970  1.00  0.00     0.000 C 
BRANCH  16  17
ATOM     17  C   UNL     1       7.586  -3.866  -4.971  1.00  0.00     0.000 C 
BRANCH  17  18
ATOM     18  C   UNL     1       8.223  -3.623  -6.352  1.00  0.00    -0.000 C 
BRANCH  18  19
ATOM     19  C   UNL     1       8.712  -4.931  -7.011  1.00  0.00    -0.000 C 
BRANCH  19  20
ATOM     20  C   UNL     1       7.638  -5.647  -7.848  1.00  0.00    -0.000 C 
BRANCH  20  21
ATOM     21  C   UNL     1       8.012  -7.099  -8.189  1.00  0.00    -0.000 C 
BRANCH  21  22
ATOM     22  C   UNL     1       7.519  -7.514  -9.585  1.00  0.00    -0.000 C 
BRANCH  22  23
ATOM     23  C   UNL     1       6.973  -8.952  -9.610  1.00  0.00    -0.000 C 
BRANCH  23  24
ATOM     24  C   UNL     1       6.086  -9.261  -8.385  1.00  0.00    -0.000 C 
BRANCH  24  25
ATOM     25  C   UNL     1       4.642  -9.640  -8.754  1.00  0.00    -0.003 C 
ATOM     26  C   UNL     1       4.368  -9.552 -10.253  1.00  0.00     0.004 C 
ENDBRANCH  24  25
ENDBRANCH  23  24
ENDBRANCH  22  23
ENDBRANCH  21  22
ENDBRANCH  20  21
ENDBRANCH  19  20
ENDBRANCH  18  19
ENDBRANCH  17  18
ENDBRANCH  16  17
ENDBRANCH  15  16
ENDBRANCH   1  15
TORSDOF 22
ENDMDL
MODEL 2
REMARK VINA RESULT:    -4.367      4.453     10.453
REMARK INTER + INTRA:         -11.546
REMARK INTER:                 -10.238
REMARK INTRA:                  -1.308
REMARK UNBOUND:                -1.561
REMARK SMILES CCCCCCCCCCCCCCCCCCCCCCCC(=O)[O-]
REMARK SMILES IDX 13 1 14 2 15 3 16 4 17 5 18 6 19 7 20 8 21 9 22 10 23 11
REMARK SMILES IDX 24 12 25 13 26 14 12 15 11 16 10 17 9 18 8 19 7 20 6 21 5 22
REMARK SMILES IDX 4 23 3 24 2 25 1 26
REMARK H PARENT
REMARK Flexibility Score: inf
ROOT
ATOM      1  C   UNL     1       8.401  -6.033  -4.098  1.00  0.00     0.000 C 
ENDROOT
BRANCH   1   2
ATOM      2  C   UNL     1       7.619  -4.739  -4.381  1.00  0.00     0.000 C 
BRANCH   2   3
ATOM      3  C   UNL     1       8.286  -3.870  -5.459  1.00  0.00     0.000 C 
BRANCH   3   4
ATOM      4  C   UNL     1       8.000  -4.374  -6.885  1.00  0.00     0.000 C 
BRANCH   4   5
ATOM      5  C   UNL     1       9.106  -5.305  -7.412  1.00  0.00     0.000 C 
BRANCH   5   6
ATOM      6  C   UNL     1       8.541  -6.499  -8.203  1.00  0.00     0.000 C 
BRANCH   6   7
ATOM      7  C   UNL     1       9.095  -7.849  -7.714  1.00  0.00     0.000 C 
BRANCH   7   8
ATOM      8  C   UNL     1       8.073  -8.740  -6.983  1.00  0.00     0.000 C 
BRANCH   8   9
ATOM      9  C   UNL     1       7.507  -9.881  -7.856  1.00  0.00     0.000 C 
BRANCH   9  10
ATOM     10  C   UNL     1       6.061  -9.605  -8.308  1.00  0.00     0.006 C 
BRANCH  10  11
ATOM     11  C   UNL     1       5.463 -10.781  -9.091  1.00  0.00     0.053 C 
BRANCH  11  12
ATOM     12  C   UNL     1       4.830 -10.327 -10.371  1.00  0.00     0.041 C 
ATOM     13  O   UNL     1       3.609 -10.540 -10.587  1.00  0.00    -0.550 OA
ATOM     14  O   UNL     1       5.586  -9.636 -11.310  1.00  0.00    -0.550 OA
ENDBRANCH  11  12
ENDBRANCH  10  11
ENDBRANCH   9  10
ENDBRANCH   8   9
ENDBRANCH   7   8
ENDBRANCH   6   7
ENDBRANCH   5   6
ENDBRANCH   4   5
ENDBRANCH   3   4
ENDBRANCH   2   3
ENDBRANCH   1   2
BRANCH   1  15
ATOM     15  C   UNL     1       9.125  -5.998  -2.743  1.00  0.00     0.000 C 
BRANCH  15  16
ATOM     16  C   UNL     1       8.843  -7.246  -1.887  1.00  0.00     0.000 C 
BRANCH  16  17
ATOM     17  C   UNL     1       8.272  -8.412  -2.707  1.00  0.00     0.000 C 
BRANCH  17  18
ATOM     18  C   UNL     1       7.627  -9.497  -1.825  1.00  0.00    -0.000 C 
BRANCH  18  19
ATOM     19  C   UNL     1       7.614  -9.108  -0.331  1.00  0.00    -0.000 C 
BRANCH  19  20
ATOM     20  C   UNL     1       8.746  -9.748   0.490  1.00  0.00    -0.000 C 
BRANCH  20  21
ATOM     21  C   UNL     1       8.229 -10.666   1.611  1.00  0.00    -0.000 C 
BRANCH  21  22
ATOM     22  C   UNL     1       6.838 -10.246   2.111  1.00  0.00    -0.000 C 
BRANCH  22  23
ATOM     23  C   UNL     1       6.508 -10.838   3.493  1.00  0.00    -0.000 C 
BRANCH  23  24
ATOM     24  C   UNL     1       5.529  -9.950   4.290  1.00  0.00    -0.000 C 
BRANCH  24  25
ATOM     25  C   UNL     1       4.051 -10.244   3.986  1.00  0.00    -0.003 C 
ATOM     26  C   UNL     1       3.124  -9.092   4.369  1.00  0.00     0.004 C 
ENDBRANCH  24  25
ENDBRANCH  23  24
ENDBRANCH  22  23
ENDBRANCH  21  22
ENDBRANCH  20  21
ENDBRANCH  19  20
ENDBRANCH  18  19
ENDBRANCH  17  18
ENDBRANCH  16  17
ENDBRANCH  15  16
ENDBRANCH   1  15
TORSDOF 22
ENDMDL
MODEL 3
REMARK VINA RESULT:    -4.137      1.359      2.898
REMARK INTER + INTRA:         -11.019
REMARK INTER:                  -9.762
REMARK INTRA:                  -1.257
REMARK UNBOUND:                -1.561
REMARK SMILES CCCCCCCCCCCCCCCCCCCCCCCC(=O)[O-]
REMARK SMILES IDX 13 1 14 2 15 3 16 4 17 5 18 6 19 7 20 8 21 9 22 10 23 11
REMARK SMILES IDX 24 12 25 13 26 14 12 15 11 16 10 17 9 18 8 19 7 20 6 21 5 22
REMARK SMILES IDX 4 23 3 24 2 25 1 26
REMARK H PARENT
REMARK Flexibility Score: inf
ROOT
ATOM      1  C   UNL     1       7.434  -4.271  -4.562  1.00  0.00     0.000 C 
ENDROOT
BRANCH   1   2
ATOM      2  C   UNL     1       7.690  -5.601  -3.833  1.00  0.00     0.000 C 
BRANCH   2   3
ATOM      3  C   UNL     1       8.942  -5.554  -2.942  1.00  0.00     0.000 C 
BRANCH   3   4
ATOM      4  C   UNL     1       9.125  -6.838  -2.113  1.00  0.00     0.000 C 
BRANCH   4   5
ATOM      5  C   UNL     1       8.270  -8.004  -2.638  1.00  0.00     0.000 C 
BRANCH   5   6
ATOM      6  C   UNL     1       8.890  -9.377  -2.320  1.00  0.00     0.000 C 
BRANCH   6   7
ATOM      7  C   UNL     1       8.278 -10.029  -1.069  1.00  0.00     0.000 C 
BRANCH   7   8
ATOM      8  C   UNL     1       7.684  -9.038  -0.049  1.00  0.00     0.000 C 
BRANCH   8   9
ATOM      9  C   UNL     1       7.300  -9.688   1.298  1.00  0.00     0.000 C 
BRANCH   9  10
ATOM     10  C   UNL     1       5.785  -9.943   1.409  1.00  0.00     0.006 C 
BRANCH  10  11
ATOM     11  C   UNL     1       5.450 -10.997   2.472  1.00  0.00     0.053 C 
BRANCH  11  12
ATOM     12  C   UNL     1       4.853 -10.376   3.697  1.00  0.00     0.041 C 
ATOM     13  O   UNL     1       5.573  -9.717   4.491  1.00  0.00    -0.550 OA
ATOM     14  O   UNL     1       3.491 -10.497   3.940  1.00  0.00    -0.550 OA
ENDBRANCH  11  12
ENDBRANCH  10  11
ENDBRANCH   9  10
ENDBRANCH   8   9
ENDBRANCH   7   8
ENDBRANCH   6   7
ENDBRANCH   5   6
ENDBRANCH   4   5
ENDBRANCH   3   4
ENDBRANCH   2   3
ENDBRANCH   1   2
BRANCH   1  15
ATOM     15  C   UNL     1       8.460  -4.003  -5.676  1.00  0.00     0.000 C 
BRANCH  15  16
ATOM     16  C   UNL     1       7.999  -4.530  -7.046  1.00  0.00     0.000 C 
BRANCH  16  17
ATOM     17  C   UNL     1       8.944  -5.594  -7.623  1.00  0.00     0.000 C 
BRANCH  17  18
ATOM     18  C   UNL     1       8.391  -7.023  -7.474  1.00  0.00    -0.000 C 
BRANCH  18  19
ATOM     19  C   UNL     1       9.106  -8.029  -8.401  1.00  0.00    -0.000 C 
BRANCH  19  20
ATOM     20  C   UNL     1       8.656  -7.953  -9.870  1.00  0.00    -0.000 C 
BRANCH  20  21
ATOM     21  C   UNL     1       7.724  -9.109 -10.272  1.00  0.00    -0.000 C 
BRANCH  21  22
ATOM     22  C   UNL     1       6.248  -8.679 -10.312  1.00  0.00    -0.000 C 
BRANCH  22  23
ATOM     23  C   UNL     1       5.351  -9.584  -9.449  1.00  0.00    -0.000 C 
BRANCH  23  24
ATOM     24  C   UNL     1       3.850  -9.339  -9.712  1.00  0.00    -0.000 C 
BRANCH  24  25
ATOM     25  C   UNL     1       3.477  -9.372 -11.204  1.00  0.00    -0.003 C 
ATOM     26  C   UNL     1       2.334  -8.422 -11.553  1.00  0.00     0.004 C 
ENDBRANCH  24  25
ENDBRANCH  23  24
ENDBRANCH  22  23
ENDBRANCH  21  22
ENDBRANCH  20  21
ENDBRANCH  19  20
ENDBRANCH  18  19
ENDBRANCH  17  18
ENDBRANCH  16  17
ENDBRANCH  15  16
ENDBRANCH   1  15
TORSDOF 22
ENDMDL
MODEL 4
REMARK VINA RESULT:    -3.926      2.466      4.334
REMARK INTER + INTRA:         -10.537
REMARK INTER:                  -9.073
REMARK INTRA:                  -1.463
REMARK UNBOUND:                -1.561
REMARK SMILES CCCCCCCCCCCCCCCCCCCCCCCC(=O)[O-]
REMARK SMILES IDX 13 1 14 2 15 3 16 4 17 5 18 6 19 7 20 8 21 9 22 10 23 11
REMARK SMILES IDX 24 12 25 13 26 14 12 15 11 16 10 17 9 18 8 19 7 20 6 21 5 22
REMARK SMILES IDX 4 23 3 24 2 25 1 26
REMARK H PARENT
REMARK Flexibility Score: inf
ROOT
ATOM      1  C   UNL     1       7.499  -3.919  -5.759  1.00  0.00     0.000 C 
ENDROOT
BRANCH   1   2
ATOM      2  C   UNL     1       7.642  -3.882  -4.228  1.00  0.00     0.000 C 
BRANCH   2   3
ATOM      3  C   UNL     1       8.761  -4.804  -3.717  1.00  0.00     0.000 C 
BRANCH   3   4
ATOM      4  C   UNL     1       8.220  -6.121  -3.130  1.00  0.00     0.000 C 
BRANCH   4   5
ATOM      5  C   UNL     1       8.396  -7.309  -4.091  1.00  0.00     0.000 C 
BRANCH   5   6
ATOM      6  C   UNL     1       7.477  -8.492  -3.737  1.00  0.00     0.000 C 
BRANCH   6   7
ATOM      7  C   UNL     1       8.101  -9.854  -4.089  1.00  0.00     0.000 C 
BRANCH   7   8
ATOM      8  C   UNL     1       8.000 -10.917  -2.979  1.00  0.00     0.000 C 
BRANCH   8   9
ATOM      9  C   UNL     1       8.862 -10.603  -1.737  1.00  0.00     0.000 C 
BRANCH   9  10
ATOM     10  C   UNL     1       8.414  -9.312  -1.029  1.00  0.00     0.006 C 
BRANCH  10  11
ATOM     11  C   UNL     1       8.646  -9.369   0.486  1.00  0.00     0.053 C 
BRANCH  11  12
ATOM     12  C   UNL     1       7.417  -9.820   1.216  1.00  0.00     0.041 C 
ATOM     13  O   UNL     1       6.275  -9.542   0.769  1.00  0.00    -0.550 OA
ATOM     14  O   UNL     1       7.539 -10.578   2.373  1.00  0.00    -0.550 OA
ENDBRANCH  11  12
ENDBRANCH  10  11
ENDBRANCH   9  10
ENDBRANCH   8   9
ENDBRANCH   7   8
ENDBRANCH   6   7
ENDBRANCH   5   6
ENDBRANCH   4   5
ENDBRANCH   3   4
ENDBRANCH   2   3
ENDBRANCH   1   2
BRANCH   1  15
ATOM     15  C   UNL     1       8.853  -3.802  -6.478  1.00  0.00     0.000 C 
BRANCH  15  16
ATOM     16  C   UNL     1       9.124  -4.983  -7.427  1.00  0.00     0.000 C 
BRANCH  16  17
ATOM     17  C   UNL     1       7.861  -5.804  -7.731  1.00  0.00     0.000 C 
BRANCH  17  18
ATOM     18  C   UNL     1       8.177  -7.271  -8.076  1.00  0.00    -0.000 C 
BRANCH  18  19
ATOM     19  C   UNL     1       8.773  -7.426  -9.492  1.00  0.00    -0.000 C 
BRANCH  19  20
ATOM     20  C   UNL     1       8.642  -8.845 -10.072  1.00  0.00    -0.000 C 
BRANCH  20  21
ATOM     21  C   UNL     1       7.888  -8.878 -11.412  1.00  0.00    -0.000 C 
BRANCH  21  22
ATOM     22  C   UNL     1       6.405  -9.241 -11.236  1.00  0.00    -0.000 C 
BRANCH  22  23
ATOM     23  C   UNL     1       6.053  -9.574  -9.775  1.00  0.00    -0.000 C 
BRANCH  23  24
ATOM     24  C   UNL     1       4.536  -9.485  -9.505  1.00  0.00    -0.000 C 
BRANCH  24  25
ATOM     25  C   UNL     1       3.678  -9.660 -10.769  1.00  0.00    -0.003 C 
ATOM     26  C   UNL     1       2.945  -8.383 -11.174  1.00  0.00     0.004 C 
ENDBRANCH  24  25
ENDBRANCH  23  24
ENDBRANCH  22  23
ENDBRANCH  21  22
ENDBRANCH  20  21
ENDBRANCH  19  20
ENDBRANCH  18  19
ENDBRANCH  17  18
ENDBRANCH  16  17
ENDBRANCH  15  16
ENDBRANCH   1  15
TORSDOF 22
ENDMDL
MODEL 5
REMARK VINA RESULT:    -3.863      4.775     10.758
REMARK INTER + INTRA:         -10.392
REMARK INTER:                  -9.420
REMARK INTRA:                  -0.973
REMARK UNBOUND:                -1.561
REMARK SMILES CCCCCCCCCCCCCCCCCCCCCCCC(=O)[O-]
REMARK SMILES IDX 13 1 14 2 15 3 16 4 17 5 18 6 19 7 20 8 21 9 22 10 23 11
REMARK SMILES IDX 24 12 25 13 26 14 12 15 11 16 10 17 9 18 8 19 7 20 6 21 5 22
REMARK SMILES IDX 4 23 3 24 2 25 1 26
REMARK H PARENT
REMARK Flexibility Score: inf
ROOT
ATOM      1  C   UNL     1       7.848  -4.294  -5.724  1.00  0.00     0.000 C 
ENDROOT
BRANCH   1   2
ATOM      2  C   UNL     1       9.031  -5.069  -6.328  1.00  0.00     0.000 C 
BRANCH   2   3
ATOM      3  C   UNL     1       9.125  -4.907  -7.854  1.00  0.00     0.000 C 
BRANCH   3   4
ATOM      4  C   UNL     1       8.976  -6.246  -8.601  1.00  0.00     0.000 C 
BRANCH   4   5
ATOM      5  C   UNL     1       7.521  -6.745  -8.627  1.00  0.00     0.000 C 
BRANCH   5   6
ATOM      6  C   UNL     1       7.428  -8.272  -8.800  1.00  0.00     0.000 C 
BRANCH   6   7
ATOM      7  C   UNL     1       8.091  -8.764 -10.098  1.00  0.00     0.000 C 
BRANCH   7   8
ATOM      8  C   UNL     1       7.108  -9.237 -11.186  1.00  0.00     0.000 C 
BRANCH   8   9
ATOM      9  C   UNL     1       5.629  -9.208 -10.743  1.00  0.00     0.000 C 
BRANCH   9  10
ATOM     10  C   UNL     1       4.760  -8.341 -11.673  1.00  0.00     0.006 C 
BRANCH  10  11
ATOM     11  C   UNL     1       3.271  -8.416 -11.313  1.00  0.00     0.053 C 
BRANCH  11  12
ATOM     12  C   UNL     1       2.662  -9.714 -11.750  1.00  0.00     0.041 C 
ATOM     13  O   UNL     1       3.396 -10.681 -12.080  1.00  0.00    -0.550 OA
ATOM     14  O   UNL     1       1.282  -9.863 -11.756  1.00  0.00    -0.550 OA
ENDBRANCH  11  12
ENDBRANCH  10  11
ENDBRANCH   9  10
ENDBRANCH   8   9
ENDBRANCH   7   8
ENDBRANCH   6   7
ENDBRANCH   5   6
ENDBRANCH   4   5
ENDBRANCH   3   4
ENDBRANCH   2   3
ENDBRANCH   1   2
BRANCH   1  15
ATOM     15  C   UNL     1       7.510  -4.756  -4.297  1.00  0.00     0.000 C 
BRANCH  15  16
ATOM     16  C   UNL     1       8.762  -4.949  -3.424  1.00  0.00     0.000 C 
BRANCH  16  17
ATOM     17  C   UNL     1       9.125  -6.428  -3.223  1.00  0.00     0.000 C 
BRANCH  17  18
ATOM     18  C   UNL     1       7.978  -7.378  -3.616  1.00  0.00    -0.000 C 
BRANCH  18  19
ATOM     19  C   UNL     1       7.844  -8.570  -2.643  1.00  0.00    -0.000 C 
BRANCH  19  20
ATOM     20  C   UNL     1       8.108  -8.207  -1.172  1.00  0.00    -0.000 C 
BRANCH  20  21
ATOM     21  C   UNL     1       7.435  -9.176  -0.185  1.00  0.00    -0.000 C 
BRANCH  21  22
ATOM     22  C   UNL     1       8.459 -10.026   0.584  1.00  0.00    -0.000 C 
BRANCH  22  23
ATOM     23  C   UNL     1       7.896 -10.559   1.914  1.00  0.00    -0.000 C 
BRANCH  23  24
ATOM     24  C   UNL     1       6.379 -10.309   2.048  1.00  0.00    -0.000 C 
BRANCH  24  25
ATOM     25  C   UNL     1       5.760 -10.956   3.299  1.00  0.00    -0.003 C 
ATOM     26  C   UNL     1       4.404 -10.359   3.668  1.00  0.00     0.004 C 
ENDBRANCH  24  25
ENDBRANCH  23  24
ENDBRANCH  22  23
ENDBRANCH  21  22
ENDBRANCH  20  21
ENDBRANCH  19  20
ENDBRANCH  18  19
ENDBRANCH  17  18
ENDBRANCH  16  17
ENDBRANCH  15  16
ENDBRANCH   1  15
TORSDOF 22
ENDMDL
MODEL 6
REMARK VINA RESULT:    -3.627      4.425     10.447
REMARK INTER + INTRA:          -9.852
REMARK INTER:                  -8.422
REMARK INTRA:                  -1.430
REMARK UNBOUND:                -1.561
REMARK SMILES CCCCCCCCCCCCCCCCCCCCCCCC(=O)[O-]
REMARK SMILES IDX 13 1 14 2 15 3 16 4 17 5 18 6 19 7 20 8 21 9 22 10 23 11
REMARK SMILES IDX 24 12 25 13 26 14 12 15 11 16 10 17 9 18 8 19 7 20 6 21 5 22
REMARK SMILES IDX 4 23 3 24 2 25 1 26
REMARK H PARENT
REMARK Flexibility Score: inf
ROOT
ATOM      1  C   UNL     1       8.464  -3.584  -5.375  1.00  0.00     0.000 C 
ENDROOT
BRANCH   1   2
ATOM      2  C   UNL     1       7.836  -4.555  -6.389  1.00  0.00     0.000 C 
BRANCH   2   3
ATOM      3  C   UNL     1       8.820  -5.641  -6.854  1.00  0.00     0.000 C 
BRANCH   3   4
ATOM      4  C   UNL     1       9.125  -5.556  -8.361  1.00  0.00     0.000 C 
BRANCH   4   5
ATOM      5  C   UNL     1       9.000  -6.919  -9.063  1.00  0.00     0.000 C 
BRANCH   5   6
ATOM      6  C   UNL     1       7.621  -7.568  -8.845  1.00  0.00     0.000 C 
BRANCH   6   7
ATOM      7  C   UNL     1       7.652  -9.097  -9.010  1.00  0.00     0.000 C 
BRANCH   7   8
ATOM      8  C   UNL     1       8.625  -9.611 -10.088  1.00  0.00     0.000 C 
BRANCH   8   9
ATOM      9  C   UNL     1       7.925 -10.296 -11.281  1.00  0.00     0.000 C 
BRANCH   9  10
ATOM     10  C   UNL     1       6.709  -9.495 -11.780  1.00  0.00     0.006 C 
BRANCH  10  11
ATOM     11  C   UNL     1       5.458 -10.370 -11.930  1.00  0.00     0.053 C 
BRANCH  11  12
ATOM     12  C   UNL     1       4.419 -10.030 -10.906  1.00  0.00     0.041 C 
ATOM     13  O   UNL     1       4.390  -8.884 -10.387  1.00  0.00    -0.550 OA
ATOM     14  O   UNL     1       3.461 -10.971 -10.553  1.00  0.00    -0.550 OA
ENDBRANCH  11  12
ENDBRANCH  10  11
ENDBRANCH   9  10
ENDBRANCH   8   9
ENDBRANCH   7   8
ENDBRANCH   6   7
ENDBRANCH   5   6
ENDBRANCH   4   5
ENDBRANCH   3   4
ENDBRANCH   2   3
ENDBRANCH   1   2
BRANCH   1  15
ATOM     15  C   UNL     1       8.241  -4.027  -3.920  1.00  0.00     0.000 C 
BRANCH  15  16
ATOM     16  C   UNL     1       7.723  -5.472  -3.813  1.00  0.00     0.000 C 
BRANCH  16  17
ATOM     17  C   UNL     1       8.458  -6.289  -2.740  1.00  0.00     0.000 C 
BRANCH  17  18
ATOM     18  C   UNL     1       9.004  -7.624  -3.281  1.00  0.00    -0.000 C 
BRANCH  18  19
ATOM     19  C   UNL     1       7.889  -8.671  -3.493  1.00  0.00    -0.000 C 
BRANCH  19  20
ATOM     20  C   UNL     1       7.520  -9.455  -2.221  1.00  0.00    -0.000 C 
BRANCH  20  21
ATOM     21  C   UNL     1       8.740  -9.779  -1.342  1.00  0.00    -0.000 C 
BRANCH  21  22
ATOM     22  C   UNL     1       8.659  -9.103   0.036  1.00  0.00    -0.000 C 
BRANCH  22  23
ATOM     23  C   UNL     1       8.346 -10.103   1.163  1.00  0.00    -0.000 C 
BRANCH  23  24
ATOM     24  C   UNL     1       6.909  -9.945   1.701  1.00  0.00    -0.000 C 
BRANCH  24  25
ATOM     25  C   UNL     1       6.647 -10.740   2.991  1.00  0.00    -0.003 C 
ATOM     26  C   UNL     1       5.672 -10.041   3.935  1.00  0.00     0.004 C 
ENDBRANCH  24  25
ENDBRANCH  23  24
ENDBRANCH  22  23
ENDBRANCH  21  22
ENDBRANCH  20  21
ENDBRANCH  19  20
ENDBRANCH  18  19
ENDBRANCH  17  18
ENDBRANCH  16  17
ENDBRANCH  15  16
ENDBRANCH   1  15
TORSDOF 22
ENDMDL
MODEL 7
REMARK VINA RESULT:    -3.435      7.241     12.253
REMARK INTER + INTRA:          -9.413
REMARK INTER:                  -8.233
REMARK INTRA:                  -1.181
REMARK UNBOUND:                -1.561
REMARK SMILES CCCCCCCCCCCCCCCCCCCCCCCC(=O)[O-]
REMARK SMILES IDX 13 1 14 2 15 3 16 4 17 5 18 6 19 7 20 8 21 9 22 10 23 11
REMARK SMILES IDX 24 12 25 13 26 14 12 15 11 16 10 17 9 18 8 19 7 20 6 21 5 22
REMARK SMILES IDX 4 23 3 24 2 25 1 26
REMARK H PARENT
REMARK Flexibility Score: inf
ROOT
ATOM      1  C   UNL     1       0.592  -8.485 -11.646  1.00  0.00     0.000 C 
ENDROOT
BRANCH   1   2
ATOM      2  C   UNL     1       1.417  -9.702 -12.099  1.00  0.00     0.000 C 
BRANCH   2   3
ATOM      3  C   UNL     1       2.931  -9.471 -11.966  1.00  0.00     0.000 C 
BRANCH   3   4
ATOM      4  C   UNL     1       3.354  -9.139 -10.523  1.00  0.00     0.000 C 
BRANCH   4   5
ATOM      5  C   UNL     1       4.481 -10.054 -10.016  1.00  0.00     0.000 C 
BRANCH   5   6
ATOM      6  C   UNL     1       5.603  -9.269  -9.312  1.00  0.00     0.000 C 
BRANCH   6   7
ATOM      7  C   UNL     1       6.398  -8.375 -10.280  1.00  0.00     0.000 C 
BRANCH   7   8
ATOM      8  C   UNL     1       7.848  -8.085  -9.848  1.00  0.00     0.000 C 
BRANCH   8   9
ATOM      9  C   UNL     1       7.974  -7.585  -8.392  1.00  0.00     0.000 C 
BRANCH   9  10
ATOM     10  C   UNL     1       8.884  -8.492  -7.544  1.00  0.00     0.006 C 
BRANCH  10  11
ATOM     11  C   UNL     1       8.092  -9.312  -6.517  1.00  0.00     0.053 C 
BRANCH  11  12
ATOM     12  C   UNL     1       8.106  -8.665  -5.165  1.00  0.00     0.041 C 
ATOM     13  O   UNL     1       8.872  -7.695  -4.932  1.00  0.00    -0.550 OA
ATOM     14  O   UNL     1       7.243  -9.115  -4.174  1.00  0.00    -0.550 OA
ENDBRANCH  11  12
ENDBRANCH  10  11
ENDBRANCH   9  10
ENDBRANCH   8   9
ENDBRANCH   7   8
ENDBRANCH   6   7
ENDBRANCH   5   6
ENDBRANCH   4   5
ENDBRANCH   3   4
ENDBRANCH   2   3
ENDBRANCH   1   2
BRANCH   1  15
ATOM     15  C   UNL     1      -0.876  -8.569 -12.096  1.00  0.00     0.000 C 
BRANCH  15  16
ATOM     16  C   UNL     1      -1.501  -9.948 -11.823  1.00  0.00     0.000 C 
BRANCH  16  17
ATOM     17  C   UNL     1      -2.874  -9.854 -11.139  1.00  0.00     0.000 C 
BRANCH  17  18
ATOM     18  C   UNL     1      -3.706  -8.660 -11.643  1.00  0.00    -0.000 C 
BRANCH  18  19
ATOM     19  C   UNL     1      -4.606  -8.064 -10.538  1.00  0.00    -0.000 C 
BRANCH  19  20
ATOM     20  C   UNL     1      -6.074  -7.882 -10.961  1.00  0.00    -0.000 C 
BRANCH  20  21
ATOM     21  C   UNL     1      -6.519  -6.409 -10.960  1.00  0.00    -0.000 C 
BRANCH  21  22
ATOM     22  C   UNL     1      -5.344  -5.447 -10.723  1.00  0.00    -0.000 C 
BRANCH  22  23
ATOM     23  C   UNL     1      -5.755  -3.972 -10.878  1.00  0.00    -0.000 C 
BRANCH  23  24
ATOM     24  C   UNL     1      -4.580  -3.084 -11.340  1.00  0.00    -0.000 C 
BRANCH  24  25
ATOM     25  C   UNL     1      -3.759  -2.500 -10.178  1.00  0.00    -0.003 C 
ATOM     26  C   UNL     1      -2.714  -1.487 -10.637  1.00  0.00     0.004 C 
ENDBRANCH  24  25
ENDBRANCH  23  24
ENDBRANCH  22  23
ENDBRANCH  21  22
ENDBRANCH  20  21
ENDBRANCH  19  20
ENDBRANCH  18  19
ENDBRANCH  17  18
ENDBRANCH  16  17
ENDBRANCH  15  16
ENDBRANCH   1  15
TORSDOF 22
ENDMDL
MODEL 8
REMARK VINA RESULT:    -3.037      8.235     12.812
REMARK INTER + INTRA:          -8.505
REMARK INTER:                  -7.471
REMARK INTRA:                  -1.034
REMARK UNBOUND:                -1.561
REMARK SMILES CCCCCCCCCCCCCCCCCCCCCCCC(=O)[O-]
REMARK SMILES IDX 13 1 14 2 15 3 16 4 17 5 18 6 19 7 20 8 21 9 22 10 23 11
REMARK SMILES IDX 24 12 25 13 26 14 12 15 11 16 10 17 9 18 8 19 7 20 6 21 5 22
REMARK SMILES IDX 4 23 3 24 2 25 1 26
REMARK H PARENT
REMARK Flexibility Score: inf
ROOT
ATOM      1  C   UNL     1       0.700  -8.126 -11.377  1.00  0.00     0.000 C 
ENDROOT
BRANCH   1   2
ATOM      2  C   UNL     1       1.991  -8.741 -11.942  1.00  0.00     0.000 C 
BRANCH   2   3
ATOM      3  C   UNL     1       3.206  -8.503 -11.031  1.00  0.00     0.000 C 
BRANCH   3   4
ATOM      4  C   UNL     1       3.967  -9.803 -10.710  1.00  0.00     0.000 C 
BRANCH   4   5
ATOM      5  C   UNL     1       5.492  -9.598 -10.677  1.00  0.00     0.000 C 
BRANCH   5   6
ATOM      6  C   UNL     1       5.995  -9.152  -9.292  1.00  0.00     0.000 C 
BRANCH   6   7
ATOM      7  C   UNL     1       7.280  -9.883  -8.865  1.00  0.00     0.000 C 
BRANCH   7   8
ATOM      8  C   UNL     1       7.277 -10.399  -7.413  1.00  0.00     0.000 C 
BRANCH   8   9
ATOM      9  C   UNL     1       7.977  -9.451  -6.415  1.00  0.00     0.000 C 
BRANCH   9  10
ATOM     10  C   UNL     1       8.914  -8.454  -7.121  1.00  0.00     0.006 C 
BRANCH  10  11
ATOM     11  C   UNL     1       8.807  -7.041  -6.533  1.00  0.00     0.053 C 
BRANCH  11  12
ATOM     12  C   UNL     1       8.402  -6.040  -7.572  1.00  0.00     0.041 C 
ATOM     13  O   UNL     1       8.668  -6.240  -8.785  1.00  0.00    -0.550 OA
ATOM     14  O   UNL     1       7.699  -4.901  -7.200  1.00  0.00    -0.550 OA
ENDBRANCH  11  12
ENDBRANCH  10  11
ENDBRANCH   9  10
ENDBRANCH   8   9
ENDBRANCH   7   8
ENDBRANCH   6   7
ENDBRANCH   5   6
ENDBRANCH   4   5
ENDBRANCH   3   4
ENDBRANCH   2   3
ENDBRANCH   1   2
BRANCH   1  15
ATOM     15  C   UNL     1      -0.556  -8.604 -12.125  1.00  0.00     0.000 C 
BRANCH  15  16
ATOM     16  C   UNL     1      -0.919 -10.064 -11.800  1.00  0.00     0.000 C 
BRANCH  16  17
ATOM     17  C   UNL     1      -2.389 -10.233 -11.387  1.00  0.00     0.000 C 
BRANCH  17  18
ATOM     18  C   UNL     1      -3.276  -9.069 -11.864  1.00  0.00    -0.000 C 
BRANCH  18  19
ATOM     19  C   UNL     1      -4.668  -9.079 -11.195  1.00  0.00    -0.000 C 
BRANCH  19  20
ATOM     20  C   UNL     1      -5.731  -8.268 -11.955  1.00  0.00    -0.000 C 
BRANCH  20  21
ATOM     21  C   UNL     1      -6.323  -7.121 -11.118  1.00  0.00    -0.000 C 
BRANCH  21  22
ATOM     22  C   UNL     1      -5.990  -5.740 -11.707  1.00  0.00    -0.000 C 
BRANCH  22  23
ATOM     23  C   UNL     1      -6.367  -4.591 -10.755  1.00  0.00    -0.000 C 
BRANCH  23  24
ATOM     24  C   UNL     1      -7.871  -4.588 -10.411  1.00  0.00    -0.000 C 
BRANCH  24  25
ATOM     25  C   UNL     1      -8.664  -3.493 -11.143  1.00  0.00    -0.003 C 
ATOM     26  C   UNL     1      -9.576  -2.695 -10.213  1.00  0.00     0.004 C 
ENDBRANCH  24  25
ENDBRANCH  23  24
ENDBRANCH  22  23
ENDBRANCH  21  22
ENDBRANCH  20  21
ENDBRANCH  19  20
ENDBRANCH  18  19
ENDBRANCH  17  18
ENDBRANCH  16  17
ENDBRANCH  15  16
ENDBRANCH   1  15
TORSDOF 22
ENDMDL
