MODEL 1
REMARK VINA RESULT:    -3.671      0.000      0.000
REMARK INTER + INTRA:          -4.858
REMARK INTER:                  -4.529
REMARK INTRA:                  -0.328
REMARK UNBOUND:                -0.328
REMARK SMILES Oc1cc(O)c2cc(O)c(-c3cc(O)c(O)c(O)c3)[o+]c2c1
REMARK SMILES IDX 10 1 20 2 21 3 22 4 2 5 3 6 4 7 6 8 7 9 8 10 11 11 12 12
REMARK SMILES IDX 13 13 19 14 15 15 17 16 14 17 16 19 18 21 9 23 1 25 5 27
REMARK H PARENT 14 18 16 20 18 22 9 24 1 26 5 28
REMARK Flexibility Score: inf
ROOT
ATOM      1  C   UNL     1     -23.495 -18.893 -13.243  1.00  0.00     0.402 A 
ATOM      2  O   UNL     1     -24.052 -17.997 -14.053  1.00  0.00    -0.202 OA
ATOM      3  C   UNL     1     -23.480 -16.837 -14.362  1.00  0.00     0.368 A 
ATOM      4  C   UNL     1     -24.143 -15.961 -15.225  1.00  0.00     0.162 A 
ATOM      5  C   UNL     1     -23.566 -14.739 -15.570  1.00  0.00     0.128 A 
ATOM      6  C   UNL     1     -22.315 -14.387 -15.048  1.00  0.00     0.093 A 
ATOM      7  C   UNL     1     -21.630 -15.248 -14.182  1.00  0.00     0.136 A 
ATOM      8  C   UNL     1     -22.215 -16.491 -13.827  1.00  0.00     0.125 A 
ATOM      9  C   UNL     1     -21.609 -17.410 -12.955  1.00  0.00     0.078 A 
ATOM     10  C   UNL     1     -22.249 -18.614 -12.648  1.00  0.00     0.223 A 
ENDROOT
BRANCH   1  11
ATOM     11  C   UNL     1     -24.227 -20.154 -12.983  1.00  0.00     0.091 A 
ATOM     12  C   UNL     1     -24.929 -20.308 -11.778  1.00  0.00     0.068 A 
ATOM     13  C   UNL     1     -25.646 -21.480 -11.514  1.00  0.00     0.162 A 
ATOM     14  C   UNL     1     -24.281 -21.179 -13.942  1.00  0.00     0.068 A 
ATOM     15  C   UNL     1     -25.679 -22.512 -12.467  1.00  0.00     0.200 A 
ATOM     16  C   UNL     1     -24.998 -22.356 -13.686  1.00  0.00     0.162 A 
BRANCH  13  17
ATOM     17  O   UNL     1     -26.317 -21.600 -10.297  1.00  0.00    -0.504 OA
ATOM     18  H   UNL     1     -27.300 -21.840 -10.246  1.00  0.00     0.293 HD
ENDBRANCH  13  17
BRANCH  15  19
ATOM     19  O   UNL     1     -26.394 -23.679 -12.194  1.00  0.00    -0.502 OA
ATOM     20  H   UNL     1     -26.493 -24.423 -12.874  1.00  0.00     0.293 HD
ENDBRANCH  15  19
BRANCH  16  21
ATOM     21  O   UNL     1     -25.040 -23.370 -14.642  1.00  0.00    -0.504 OA
ATOM     22  H   UNL     1     -25.726 -23.368 -15.390  1.00  0.00     0.293 HD
ENDBRANCH  16  21
ENDBRANCH   1  11
BRANCH  10  23
ATOM     23  O   UNL     1     -21.671 -19.505 -11.744  1.00  0.00    -0.500 OA
ATOM     24  H   UNL     1     -22.198 -20.272 -11.342  1.00  0.00     0.294 HD
ENDBRANCH  10  23
BRANCH   5  25
ATOM     25  O   UNL     1     -24.242 -13.879 -16.432  1.00  0.00    -0.507 OA
ATOM     26  H   UNL     1     -25.235 -13.978 -16.609  1.00  0.00     0.293 HD
ENDBRANCH   5  25
BRANCH   7  27
ATOM     27  O   UNL     1     -20.385 -14.826 -13.706  1.00  0.00    -0.507 OA
ATOM     28  H   UNL     1     -20.206 -14.533 -12.758  1.00  0.00     0.293 HD
ENDBRANCH   7  27
TORSDOF 7
ENDMDL
MODEL 2
REMARK VINA RESULT:    -3.493      0.410      1.833
REMARK INTER + INTRA:          -4.638
REMARK INTER:                  -4.351
REMARK INTRA:                  -0.288
REMARK UNBOUND:                -0.328
REMARK SMILES Oc1cc(O)c2cc(O)c(-c3cc(O)c(O)c(O)c3)[o+]c2c1
REMARK SMILES IDX 10 1 20 2 21 3 22 4 2 5 3 6 4 7 6 8 7 9 8 10 11 11 12 12
REMARK SMILES IDX 13 13 19 14 15 15 17 16 14 17 16 19 18 21 9 23 1 25 5 27
REMARK H PARENT 14 18 16 20 18 22 9 24 1 26 5 28
REMARK Flexibility Score: inf
ROOT
ATOM      1  C   UNL     1     -23.567 -19.111 -13.373  1.00  0.00     0.402 A 
ATOM      2  O   UNL     1     -24.066 -18.144 -14.137  1.00  0.00    -0.202 OA
ATOM      3  C   UNL     1     -23.444 -16.988 -14.353  1.00  0.00     0.368 A 
ATOM      4  C   UNL     1     -24.048 -16.034 -15.174  1.00  0.00     0.162 A 
ATOM      5  C   UNL     1     -23.417 -14.815 -15.421  1.00  0.00     0.128 A 
ATOM      6  C   UNL     1     -22.171 -14.545 -14.843  1.00  0.00     0.093 A 
ATOM      7  C   UNL     1     -21.545 -15.485 -14.016  1.00  0.00     0.136 A 
ATOM      8  C   UNL     1     -22.185 -16.727 -13.761  1.00  0.00     0.125 A 
ATOM      9  C   UNL     1     -21.638 -17.723 -12.935  1.00  0.00     0.078 A 
ATOM     10  C   UNL     1     -22.330 -18.919 -12.727  1.00  0.00     0.223 A 
ENDROOT
BRANCH   1  11
ATOM     11  C   UNL     1     -24.351 -20.357 -13.218  1.00  0.00     0.091 A 
ATOM     12  C   UNL     1     -24.408 -21.273 -14.280  1.00  0.00     0.068 A 
ATOM     13  C   UNL     1     -25.124 -22.467 -14.157  1.00  0.00     0.162 A 
ATOM     14  C   UNL     1     -24.995 -20.672 -12.010  1.00  0.00     0.068 A 
ATOM     15  C   UNL     1     -25.785 -22.768 -12.954  1.00  0.00     0.200 A 
ATOM     16  C   UNL     1     -25.714 -21.868 -11.877  1.00  0.00     0.162 A 
BRANCH  13  17
ATOM     17  O   UNL     1     -25.168 -23.343 -15.242  1.00  0.00    -0.504 OA
ATOM     18  H   UNL     1     -25.918 -23.319 -15.923  1.00  0.00     0.293 HD
ENDBRANCH  13  17
BRANCH  15  19
ATOM     19  O   UNL     1     -26.500 -23.961 -12.839  1.00  0.00    -0.502 OA
ATOM     20  H   UNL     1     -26.988 -24.375 -13.624  1.00  0.00     0.293 HD
ENDBRANCH  15  19
BRANCH  16  21
ATOM     21  O   UNL     1     -26.355 -22.167 -10.675  1.00  0.00    -0.504 OA
ATOM     22  H   UNL     1     -26.432 -21.485  -9.929  1.00  0.00     0.293 HD
ENDBRANCH  16  21
ENDBRANCH   1  11
BRANCH  10  23
ATOM     23  O   UNL     1     -21.812 -19.888 -11.868  1.00  0.00    -0.500 OA
ATOM     24  H   UNL     1     -22.349 -20.706 -11.603  1.00  0.00     0.294 HD
ENDBRANCH  10  23
BRANCH   5  25
ATOM     25  O   UNL     1     -24.036 -13.875 -16.243  1.00  0.00    -0.507 OA
ATOM     26  H   UNL     1     -23.545 -13.443 -17.017  1.00  0.00     0.293 HD
ENDBRANCH   5  25
BRANCH   7  27
ATOM     27  O   UNL     1     -20.300 -15.144 -13.479  1.00  0.00    -0.507 OA
ATOM     28  H   UNL     1     -19.618 -14.563 -13.944  1.00  0.00     0.293 HD
ENDBRANCH   7  27
TORSDOF 7
ENDMDL
MODEL 3
REMARK VINA RESULT:    -1.482      1.510      3.112
REMARK INTER + INTRA:          -2.157
REMARK INTER:                  -1.962
REMARK INTRA:                  -0.195
REMARK UNBOUND:                -0.328
REMARK SMILES Oc1cc(O)c2cc(O)c(-c3cc(O)c(O)c(O)c3)[o+]c2c1
REMARK SMILES IDX 10 1 20 2 21 3 22 4 2 5 3 6 4 7 6 8 7 9 8 10 11 11 12 12
REMARK SMILES IDX 13 13 19 14 15 15 17 16 14 17 16 19 18 21 9 23 1 25 5 27
REMARK H PARENT 14 18 16 20 18 22 9 24 1 26 5 28
REMARK Flexibility Score: inf
ROOT
ATOM      1  C   UNL     1     -23.563 -18.460 -13.501  1.00  0.00     0.402 A 
ATOM      2  O   UNL     1     -22.480 -17.754 -13.191  1.00  0.00    -0.202 OA
ATOM      3  C   UNL     1     -22.254 -16.525 -13.646  1.00  0.00     0.368 A 
ATOM      4  C   UNL     1     -21.086 -15.862 -13.262  1.00  0.00     0.162 A 
ATOM      5  C   UNL     1     -20.826 -14.571 -13.720  1.00  0.00     0.128 A 
ATOM      6  C   UNL     1     -21.739 -13.935 -14.570  1.00  0.00     0.093 A 
ATOM      7  C   UNL     1     -22.917 -14.578 -14.969  1.00  0.00     0.136 A 
ATOM      8  C   UNL     1     -23.185 -15.893 -14.506  1.00  0.00     0.125 A 
ATOM      9  C   UNL     1     -24.332 -16.620 -14.864  1.00  0.00     0.078 A 
ATOM     10  C   UNL     1     -24.525 -17.914 -14.372  1.00  0.00     0.223 A 
ENDROOT
BRANCH   1  11
ATOM     11  C   UNL     1     -23.705 -19.816 -12.922  1.00  0.00     0.091 A 
ATOM     12  C   UNL     1     -22.688 -20.762 -13.123  1.00  0.00     0.068 A 
ATOM     13  C   UNL     1     -22.785 -22.044 -12.572  1.00  0.00     0.162 A 
ATOM     14  C   UNL     1     -24.811 -20.161 -12.127  1.00  0.00     0.068 A 
ATOM     15  C   UNL     1     -23.903 -22.391 -11.796  1.00  0.00     0.200 A 
ATOM     16  C   UNL     1     -24.916 -21.443 -11.570  1.00  0.00     0.162 A 
BRANCH  13  17
ATOM     17  O   UNL     1     -21.759 -22.959 -12.810  1.00  0.00    -0.504 OA
ATOM     18  H   UNL     1     -21.091 -22.836 -13.561  1.00  0.00     0.293 HD
ENDBRANCH  13  17
BRANCH  15  19
ATOM     19  O   UNL     1     -23.994 -23.673 -11.252  1.00  0.00    -0.502 OA
ATOM     20  H   UNL     1     -24.625 -23.894 -10.492  1.00  0.00     0.293 HD
ENDBRANCH  15  19
BRANCH  16  21
ATOM     21  O   UNL     1     -26.020 -21.776 -10.787  1.00  0.00    -0.504 OA
ATOM     22  H   UNL     1     -25.930 -22.347  -9.955  1.00  0.00     0.293 HD
ENDBRANCH  16  21
ENDBRANCH   1  11
BRANCH  10  23
ATOM     23  O   UNL     1     -25.639 -18.655 -14.766  1.00  0.00    -0.500 OA
ATOM     24  H   UNL     1     -26.152 -18.434 -15.612  1.00  0.00     0.294 HD
ENDBRANCH  10  23
BRANCH   5  25
ATOM     25  O   UNL     1     -19.655 -13.925 -13.327  1.00  0.00    -0.507 OA
ATOM     26  H   UNL     1     -18.745 -14.348 -13.464  1.00  0.00     0.293 HD
ENDBRANCH   5  25
BRANCH   7  27
ATOM     27  O   UNL     1     -23.780 -13.876 -15.816  1.00  0.00    -0.507 OA
ATOM     28  H   UNL     1     -24.305 -13.059 -15.544  1.00  0.00     0.293 HD
ENDBRANCH   7  27
TORSDOF 7
ENDMDL
MODEL 4
REMARK VINA RESULT:    -0.997      1.207      7.015
REMARK INTER + INTRA:          -1.558
REMARK INTER:                  -1.495
REMARK INTRA:                  -0.063
REMARK UNBOUND:                -0.328
REMARK SMILES Oc1cc(O)c2cc(O)c(-c3cc(O)c(O)c(O)c3)[o+]c2c1
REMARK SMILES IDX 10 1 20 2 21 3 22 4 2 5 3 6 4 7 6 8 7 9 8 10 11 11 12 12
REMARK SMILES IDX 13 13 19 14 15 15 17 16 14 17 16 19 18 21 9 23 1 25 5 27
REMARK H PARENT 14 18 16 20 18 22 9 24 1 26 5 28
REMARK Flexibility Score: inf
ROOT
ATOM      1  C   UNL     1     -23.377 -18.914 -13.205  1.00  0.00     0.402 A 
ATOM      2  O   UNL     1     -23.903 -19.726 -14.117  1.00  0.00    -0.202 OA
ATOM      3  C   UNL     1     -24.434 -20.909 -13.823  1.00  0.00     0.368 A 
ATOM      4  C   UNL     1     -24.966 -21.690 -14.853  1.00  0.00     0.162 A 
ATOM      5  C   UNL     1     -25.533 -22.933 -14.573  1.00  0.00     0.128 A 
ATOM      6  C   UNL     1     -25.570 -23.401 -13.255  1.00  0.00     0.093 A 
ATOM      7  C   UNL     1     -25.045 -22.638 -12.206  1.00  0.00     0.136 A 
ATOM      8  C   UNL     1     -24.465 -21.373 -12.486  1.00  0.00     0.125 A 
ATOM      9  C   UNL     1     -23.902 -20.545 -11.501  1.00  0.00     0.078 A 
ATOM     10  C   UNL     1     -23.345 -19.313 -11.855  1.00  0.00     0.223 A 
ENDROOT
BRANCH   1  11
ATOM     11  C   UNL     1     -22.824 -17.617 -13.656  1.00  0.00     0.091 A 
ATOM     12  C   UNL     1     -23.631 -16.746 -14.403  1.00  0.00     0.068 A 
ATOM     13  C   UNL     1     -23.144 -15.505 -14.826  1.00  0.00     0.162 A 
ATOM     14  C   UNL     1     -21.525 -17.212 -13.305  1.00  0.00     0.068 A 
ATOM     15  C   UNL     1     -21.837 -15.114 -14.491  1.00  0.00     0.200 A 
ATOM     16  C   UNL     1     -21.029 -15.970 -13.723  1.00  0.00     0.162 A 
BRANCH  13  17
ATOM     17  O   UNL     1     -23.974 -14.676 -15.580  1.00  0.00    -0.504 OA
ATOM     18  H   UNL     1     -24.334 -14.954 -16.485  1.00  0.00     0.293 HD
ENDBRANCH  13  17
BRANCH  15  19
ATOM     19  O   UNL     1     -21.356 -13.876 -14.919  1.00  0.00    -0.502 OA
ATOM     20  H   UNL     1     -21.679 -13.437 -15.773  1.00  0.00     0.293 HD
ENDBRANCH  15  19
BRANCH  16  21
ATOM     21  O   UNL     1     -19.736 -15.581 -13.374  1.00  0.00    -0.504 OA
ATOM     22  H   UNL     1     -19.272 -15.953 -12.552  1.00  0.00     0.293 HD
ENDBRANCH  16  21
ENDBRANCH   1  11
BRANCH  10  23
ATOM     23  O   UNL     1     -22.741 -18.513 -10.885  1.00  0.00    -0.500 OA
ATOM     24  H   UNL     1     -21.812 -18.712 -10.533  1.00  0.00     0.294 HD
ENDBRANCH  10  23
BRANCH   5  25
ATOM     25  O   UNL     1     -26.058 -23.698 -15.613  1.00  0.00    -0.507 OA
ATOM     26  H   UNL     1     -26.265 -24.683 -15.494  1.00  0.00     0.293 HD
ENDBRANCH   5  25
BRANCH   7  27
ATOM     27  O   UNL     1     -25.124 -23.173 -10.916  1.00  0.00    -0.507 OA
ATOM     28  H   UNL     1     -25.916 -23.063 -10.301  1.00  0.00     0.293 HD
ENDBRANCH   7  27
TORSDOF 7
ENDMDL
MODEL 5
REMARK VINA RESULT:    -0.940      1.234      6.984
REMARK INTER + INTRA:          -1.488
REMARK INTER:                  -1.471
REMARK INTRA:                  -0.017
REMARK UNBOUND:                -0.328
REMARK SMILES Oc1cc(O)c2cc(O)c(-c3cc(O)c(O)c(O)c3)[o+]c2c1
REMARK SMILES IDX 10 1 20 2 21 3 22 4 2 5 3 6 4 7 6 8 7 9 8 10 11 11 12 12
REMARK SMILES IDX 13 13 19 14 15 15 17 16 14 17 16 19 18 21 9 23 1 25 5 27
REMARK H PARENT 14 18 16 20 18 22 9 24 1 26 5 28
REMARK Flexibility Score: inf
ROOT
ATOM      1  C   UNL     1     -23.343 -18.898 -13.203  1.00  0.00     0.402 A 
ATOM      2  O   UNL     1     -23.902 -19.694 -14.110  1.00  0.00    -0.202 OA
ATOM      3  C   UNL     1     -24.398 -20.893 -13.823  1.00  0.00     0.368 A 
ATOM      4  C   UNL     1     -24.968 -21.656 -14.846  1.00  0.00     0.162 A 
ATOM      5  C   UNL     1     -25.500 -22.916 -14.573  1.00  0.00     0.128 A 
ATOM      6  C   UNL     1     -25.464 -23.420 -13.268  1.00  0.00     0.093 A 
ATOM      7  C   UNL     1     -24.898 -22.676 -12.226  1.00  0.00     0.136 A 
ATOM      8  C   UNL     1     -24.354 -21.394 -12.499  1.00  0.00     0.125 A 
ATOM      9  C   UNL     1     -23.756 -20.583 -11.521  1.00  0.00     0.078 A 
ATOM     10  C   UNL     1     -23.237 -19.332 -11.867  1.00  0.00     0.223 A 
ENDROOT
BRANCH   1  11
ATOM     11  C   UNL     1     -22.836 -17.579 -13.645  1.00  0.00     0.091 A 
ATOM     12  C   UNL     1     -21.527 -17.196 -13.311  1.00  0.00     0.068 A 
ATOM     13  C   UNL     1     -21.013 -15.965 -13.731  1.00  0.00     0.162 A 
ATOM     14  C   UNL     1     -23.615 -16.723 -14.440  1.00  0.00     0.068 A 
ATOM     15  C   UNL     1     -21.805 -15.103 -14.508  1.00  0.00     0.200 A 
ATOM     16  C   UNL     1     -23.108 -15.488 -14.867  1.00  0.00     0.162 A 
BRANCH  13  17
ATOM     17  O   UNL     1     -19.713 -15.617 -13.364  1.00  0.00    -0.504 OA
ATOM     18  H   UNL     1     -19.085 -15.138 -13.998  1.00  0.00     0.293 HD
ENDBRANCH  13  17
BRANCH  15  19
ATOM     19  O   UNL     1     -21.286 -13.876 -14.921  1.00  0.00    -0.502 OA
ATOM     20  H   UNL     1     -21.874 -13.067 -15.081  1.00  0.00     0.293 HD
ENDBRANCH  15  19
BRANCH  16  21
ATOM     21  O   UNL     1     -23.893 -14.644 -15.651  1.00  0.00    -0.504 OA
ATOM     22  H   UNL     1     -23.978 -14.775 -16.653  1.00  0.00     0.293 HD
ENDBRANCH  16  21
ENDBRANCH   1  11
BRANCH  10  23
ATOM     23  O   UNL     1     -22.598 -18.548 -10.907  1.00  0.00    -0.500 OA
ATOM     24  H   UNL     1     -21.651 -18.212 -11.039  1.00  0.00     0.294 HD
ENDBRANCH  10  23
BRANCH   5  25
ATOM     25  O   UNL     1     -26.064 -23.661 -15.606  1.00  0.00    -0.507 OA
ATOM     26  H   UNL     1     -26.940 -24.157 -15.485  1.00  0.00     0.293 HD
ENDBRANCH   5  25
BRANCH   7  27
ATOM     27  O   UNL     1     -24.903 -23.247 -10.949  1.00  0.00    -0.507 OA
ATOM     28  H   UNL     1     -24.432 -22.855 -10.148  1.00  0.00     0.293 HD
ENDBRANCH   7  27
TORSDOF 7
ENDMDL
