MODEL 1
REMARK VINA RESULT:    -6.439      0.000      0.000
REMARK INTER + INTRA:         -10.883
REMARK INTER:                 -10.016
REMARK INTRA:                  -0.867
REMARK UNBOUND:                -0.867
REMARK SMILES COc1cc(CNC(=O)CCCCC=CC(C)C)ccc1O
REMARK SMILES IDX 11 1 12 2 13 3 14 4 15 5 16 6 17 7 18 8 10 9 8 10 9 11 7 12
REMARK SMILES IDX 6 14 5 15 4 16 19 17 3 18 20 19 21 20 2 21 1 22 22 23
REMARK H PARENT 7 13 22 24
REMARK Flexibility Score: inf
ROOT
ATOM      1  C   UNL     1      13.239  27.265  39.670  1.00  0.00     0.010 C 
ENDROOT
BRANCH   1   2
ATOM      2  C   UNL     1      13.429  28.246  38.502  1.00  0.00     0.005 C 
BRANCH   2   3
ATOM      3  C   UNL     1      12.768  27.727  37.219  1.00  0.00     0.027 C 
BRANCH   3   4
ATOM      4  C   UNL     1      12.246  26.331  37.415  1.00  0.00    -0.031 C 
ATOM      5  C   UNL     1      12.618  25.328  36.603  1.00  0.00    -0.028 C 
BRANCH   5   6
ATOM      6  C   UNL     1      12.110  23.912  36.762  1.00  0.00     0.005 C 
ATOM      7  C   UNL     1      12.395  23.371  38.166  1.00  0.00     0.012 C 
ATOM      8  C   UNL     1      10.622  23.815  36.420  1.00  0.00     0.012 C 
ENDBRANCH   5   6
ENDBRANCH   3   4
ENDBRANCH   2   3
ENDBRANCH   1   2
BRANCH   1   9
ATOM      9  C   UNL     1      13.355  27.956  41.037  1.00  0.00     0.100 C 
BRANCH   9  10
ATOM     10  C   UNL     1      12.015  28.389  41.559  1.00  0.00     0.220 C 
ATOM     11  O   UNL     1      11.885  29.529  42.080  1.00  0.00    -0.275 OA
ATOM     12  N   UNL     1      10.885  27.519  41.430  1.00  0.00    -0.352 N 
ATOM     13  H   UNL     1      11.048  26.534  41.121  1.00  0.00     0.163 HD
BRANCH  12  14
ATOM     14  C   UNL     1       9.518  28.006  41.605  1.00  0.00     0.151 C 
BRANCH  14  15
ATOM     15  C   UNL     1       8.804  27.200  42.656  1.00  0.00    -0.025 A 
ATOM     16  C   UNL     1       8.059  26.067  42.291  1.00  0.00     0.056 A 
ATOM     17  C   UNL     1       8.815  27.618  43.996  1.00  0.00     0.009 A 
ATOM     18  C   UNL     1       7.353  25.330  43.262  1.00  0.00     0.160 A 
ATOM     19  C   UNL     1       8.117  26.891  44.963  1.00  0.00     0.050 A 
ATOM     20  C   UNL     1       7.388  25.748  44.600  1.00  0.00     0.157 A 
BRANCH  18  21
ATOM     21  O   UNL     1       6.610  24.183  42.935  1.00  0.00    -0.493 OA
ATOM     22  C   UNL     1       6.958  23.272  41.898  1.00  0.00     0.278 C 
ENDBRANCH  18  21
BRANCH  20  23
ATOM     23  O   UNL     1       6.693  25.021  45.568  1.00  0.00    -0.504 OA
ATOM     24  H   UNL     1       5.853  24.501  45.337  1.00  0.00     0.293 HD
ENDBRANCH  20  23
ENDBRANCH  14  15
ENDBRANCH  12  14
ENDBRANCH   9  10
ENDBRANCH   1   9
TORSDOF 10
ENDMDL
MODEL 2
REMARK VINA RESULT:    -6.199      2.673      5.599
REMARK INTER + INTRA:         -10.509
REMARK INTER:                  -9.623
REMARK INTRA:                  -0.886
REMARK UNBOUND:                -0.867
REMARK SMILES COc1cc(CNC(=O)CCCCC=CC(C)C)ccc1O
REMARK SMILES IDX 11 1 12 2 13 3 14 4 15 5 16 6 17 7 18 8 10 9 8 10 9 11 7 12
REMARK SMILES IDX 6 14 5 15 4 16 19 17 3 18 20 19 21 20 2 21 1 22 22 23
REMARK H PARENT 7 13 22 24
REMARK Flexibility Score: inf
ROOT
ATOM      1  C   UNL     1      12.346  27.397  38.427  1.00  0.00     0.010 C 
ENDROOT
BRANCH   1   2
ATOM      2  C   UNL     1      13.760  27.894  38.768  1.00  0.00     0.005 C 
BRANCH   2   3
ATOM      3  C   UNL     1      14.150  27.533  40.207  1.00  0.00     0.027 C 
BRANCH   3   4
ATOM      4  C   UNL     1      13.005  27.784  41.148  1.00  0.00    -0.031 C 
ATOM      5  C   UNL     1      12.773  29.008  41.652  1.00  0.00    -0.028 C 
BRANCH   5   6
ATOM      6  C   UNL     1      11.637  29.301  42.606  1.00  0.00     0.005 C 
ATOM      7  C   UNL     1      11.633  30.770  43.038  1.00  0.00     0.012 C 
ATOM      8  C   UNL     1      10.289  28.895  42.003  1.00  0.00     0.012 C 
ENDBRANCH   5   6
ENDBRANCH   3   4
ENDBRANCH   2   3
ENDBRANCH   1   2
BRANCH   1   9
ATOM      9  C   UNL     1      12.233  26.905  36.976  1.00  0.00     0.100 C 
BRANCH   9  10
ATOM     10  C   UNL     1      12.011  25.422  36.905  1.00  0.00     0.220 C 
ATOM     11  O   UNL     1      12.967  24.660  36.603  1.00  0.00    -0.275 OA
ATOM     12  N   UNL     1      10.722  24.880  37.214  1.00  0.00    -0.352 N 
ATOM     13  H   UNL     1       9.918  25.539  37.326  1.00  0.00     0.163 HD
BRANCH  12  14
ATOM     14  C   UNL     1      10.535  23.457  37.487  1.00  0.00     0.151 C 
BRANCH  14  15
ATOM     15  C   UNL     1       9.331  23.244  38.366  1.00  0.00    -0.025 A 
ATOM     16  C   UNL     1       9.046  24.147  39.403  1.00  0.00     0.056 A 
ATOM     17  C   UNL     1       8.532  22.101  38.204  1.00  0.00     0.009 A 
ATOM     18  C   UNL     1       7.946  23.933  40.256  1.00  0.00     0.160 A 
ATOM     19  C   UNL     1       7.439  21.885  39.046  1.00  0.00     0.050 A 
ATOM     20  C   UNL     1       7.143  22.798  40.070  1.00  0.00     0.157 A 
BRANCH  18  21
ATOM     21  O   UNL     1       7.622  24.824  41.293  1.00  0.00    -0.493 OA
ATOM     22  C   UNL     1       6.995  26.088  41.098  1.00  0.00     0.278 C 
ENDBRANCH  18  21
BRANCH  20  23
ATOM     23  O   UNL     1       6.050  22.581  40.910  1.00  0.00    -0.504 OA
ATOM     24  H   UNL     1       5.114  22.873  40.647  1.00  0.00     0.293 HD
ENDBRANCH  20  23
ENDBRANCH  14  15
ENDBRANCH  12  14
ENDBRANCH   9  10
ENDBRANCH   1   9
TORSDOF 10
ENDMDL
MODEL 3
REMARK VINA RESULT:    -6.165      2.126      3.487
REMARK INTER + INTRA:         -10.456
REMARK INTER:                  -9.529
REMARK INTRA:                  -0.927
REMARK UNBOUND:                -0.867
REMARK SMILES COc1cc(CNC(=O)CCCCC=CC(C)C)ccc1O
REMARK SMILES IDX 11 1 12 2 13 3 14 4 15 5 16 6 17 7 18 8 10 9 8 10 9 11 7 12
REMARK SMILES IDX 6 14 5 15 4 16 19 17 3 18 20 19 21 20 2 21 1 22 22 23
REMARK H PARENT 7 13 22 24
REMARK Flexibility Score: inf
ROOT
ATOM      1  C   UNL     1      11.211  28.964  42.338  1.00  0.00     0.010 C 
ENDROOT
BRANCH   1   2
ATOM      2  C   UNL     1      12.101  27.853  41.758  1.00  0.00     0.005 C 
BRANCH   2   3
ATOM      3  C   UNL     1      11.288  26.870  40.906  1.00  0.00     0.027 C 
BRANCH   3   4
ATOM      4  C   UNL     1      11.884  26.737  39.531  1.00  0.00    -0.031 C 
ATOM      5  C   UNL     1      11.416  27.456  38.498  1.00  0.00    -0.028 C 
BRANCH   5   6
ATOM      6  C   UNL     1      11.982  27.347  37.100  1.00  0.00     0.005 C 
ATOM      7  C   UNL     1      12.961  28.487  36.802  1.00  0.00     0.012 C 
ATOM      8  C   UNL     1      12.634  25.981  36.871  1.00  0.00     0.012 C 
ENDBRANCH   5   6
ENDBRANCH   3   4
ENDBRANCH   2   3
ENDBRANCH   1   2
BRANCH   1   9
ATOM      9  C   UNL     1      11.278  29.024  43.872  1.00  0.00     0.100 C 
BRANCH   9  10
ATOM     10  C   UNL     1      10.537  27.884  44.509  1.00  0.00     0.220 C 
ATOM     11  O   UNL     1      10.998  27.339  45.546  1.00  0.00    -0.275 OA
ATOM     12  N   UNL     1       9.292  27.445  43.952  1.00  0.00    -0.352 N 
ATOM     13  H   UNL     1       9.003  27.820  43.021  1.00  0.00     0.163 HD
BRANCH  12  14
ATOM     14  C   UNL     1       8.377  26.588  44.703  1.00  0.00     0.151 C 
BRANCH  14  15
ATOM     15  C   UNL     1       7.745  25.569  43.793  1.00  0.00    -0.025 A 
ATOM     16  C   UNL     1       7.418  25.911  42.471  1.00  0.00     0.056 A 
ATOM     17  C   UNL     1       7.409  24.297  44.282  1.00  0.00     0.009 A 
ATOM     18  C   UNL     1       6.788  24.977  41.624  1.00  0.00     0.160 A 
ATOM     19  C   UNL     1       6.786  23.367  43.448  1.00  0.00     0.050 A 
ATOM     20  C   UNL     1       6.476  23.703  42.120  1.00  0.00     0.157 A 
BRANCH  18  21
ATOM     21  O   UNL     1       6.461  25.279  40.292  1.00  0.00    -0.493 OA
ATOM     22  C   UNL     1       5.519  26.273  39.903  1.00  0.00     0.278 C 
ENDBRANCH  18  21
BRANCH  20  23
ATOM     23  O   UNL     1       5.855  22.772  41.286  1.00  0.00    -0.504 OA
ATOM     24  H   UNL     1       6.391  22.192  40.649  1.00  0.00     0.293 HD
ENDBRANCH  20  23
ENDBRANCH  14  15
ENDBRANCH  12  14
ENDBRANCH   9  10
ENDBRANCH   1   9
TORSDOF 10
ENDMDL
MODEL 4
REMARK VINA RESULT:    -6.151      3.009      8.160
REMARK INTER + INTRA:         -10.435
REMARK INTER:                  -9.626
REMARK INTRA:                  -0.809
REMARK UNBOUND:                -0.867
REMARK SMILES COc1cc(CNC(=O)CCCCC=CC(C)C)ccc1O
REMARK SMILES IDX 11 1 12 2 13 3 14 4 15 5 16 6 17 7 18 8 10 9 8 10 9 11 7 12
REMARK SMILES IDX 6 14 5 15 4 16 19 17 3 18 20 19 21 20 2 21 1 22 22 23
REMARK H PARENT 7 13 22 24
REMARK Flexibility Score: inf
ROOT
ATOM      1  C   UNL     1       6.662  23.554  40.313  1.00  0.00     0.010 C 
ENDROOT
BRANCH   1   2
ATOM      2  C   UNL     1       5.840  23.581  41.612  1.00  0.00     0.005 C 
BRANCH   2   3
ATOM      3  C   UNL     1       6.664  23.090  42.809  1.00  0.00     0.027 C 
BRANCH   3   4
ATOM      4  C   UNL     1       7.231  24.251  43.578  1.00  0.00    -0.031 C 
ATOM      5  C   UNL     1       7.327  25.471  43.026  1.00  0.00    -0.028 C 
BRANCH   5   6
ATOM      6  C   UNL     1       7.896  26.663  43.762  1.00  0.00     0.005 C 
ATOM      7  C   UNL     1       8.039  27.876  42.838  1.00  0.00     0.012 C 
ATOM      8  C   UNL     1       7.060  27.001  44.999  1.00  0.00     0.012 C 
ENDBRANCH   5   6
ENDBRANCH   3   4
ENDBRANCH   2   3
ENDBRANCH   1   2
BRANCH   1   9
ATOM      9  C   UNL     1       7.143  22.139  39.956  1.00  0.00     0.100 C 
BRANCH   9  10
ATOM     10  C   UNL     1       8.389  22.168  39.118  1.00  0.00     0.220 C 
ATOM     11  O   UNL     1       9.266  21.277  39.271  1.00  0.00    -0.275 OA
ATOM     12  N   UNL     1       8.557  23.188  38.127  1.00  0.00    -0.352 N 
ATOM     13  H   UNL     1       7.884  23.988  38.115  1.00  0.00     0.163 HD
BRANCH  12  14
ATOM     14  C   UNL     1       9.565  23.075  37.074  1.00  0.00     0.151 C 
BRANCH  14  15
ATOM     15  C   UNL     1      10.532  24.226  37.146  1.00  0.00    -0.025 A 
ATOM     16  C   UNL     1      10.139  25.442  37.731  1.00  0.00     0.056 A 
ATOM     17  C   UNL     1      11.804  24.118  36.562  1.00  0.00     0.009 A 
ATOM     18  C   UNL     1      11.023  26.538  37.765  1.00  0.00     0.160 A 
ATOM     19  C   UNL     1      12.684  25.201  36.594  1.00  0.00     0.050 A 
ATOM     20  C   UNL     1      12.298  26.410  37.195  1.00  0.00     0.157 A 
BRANCH  18  21
ATOM     21  O   UNL     1      10.670  27.763  38.355  1.00  0.00    -0.493 OA
ATOM     22  C   UNL     1       9.837  27.890  39.503  1.00  0.00     0.278 C 
ENDBRANCH  18  21
BRANCH  20  23
ATOM     23  O   UNL     1      13.180  27.491  37.228  1.00  0.00    -0.504 OA
ATOM     24  H   UNL     1      13.747  27.687  38.047  1.00  0.00     0.293 HD
ENDBRANCH  20  23
ENDBRANCH  14  15
ENDBRANCH  12  14
ENDBRANCH   9  10
ENDBRANCH   1   9
TORSDOF 10
ENDMDL
MODEL 5
REMARK VINA RESULT:    -6.144      2.210      4.497
REMARK INTER + INTRA:         -10.423
REMARK INTER:                  -9.471
REMARK INTRA:                  -0.952
REMARK UNBOUND:                -0.867
REMARK SMILES COc1cc(CNC(=O)CCCCC=CC(C)C)ccc1O
REMARK SMILES IDX 11 1 12 2 13 3 14 4 15 5 16 6 17 7 18 8 10 9 8 10 9 11 7 12
REMARK SMILES IDX 6 14 5 15 4 16 19 17 3 18 20 19 21 20 2 21 1 22 22 23
REMARK H PARENT 7 13 22 24
REMARK Flexibility Score: inf
ROOT
ATOM      1  C   UNL     1       9.582  24.150  38.467  1.00  0.00     0.010 C 
ENDROOT
BRANCH   1   2
ATOM      2  C   UNL     1       9.976  23.933  36.997  1.00  0.00     0.005 C 
BRANCH   2   3
ATOM      3  C   UNL     1      11.404  24.420  36.720  1.00  0.00     0.027 C 
BRANCH   3   4
ATOM      4  C   UNL     1      11.549  25.874  37.073  1.00  0.00    -0.031 C 
ATOM      5  C   UNL     1      12.612  26.320  37.762  1.00  0.00    -0.028 C 
BRANCH   5   6
ATOM      6  C   UNL     1      12.792  27.773  38.143  1.00  0.00     0.005 C 
ATOM      7  C   UNL     1      13.927  27.949  39.156  1.00  0.00     0.012 C 
ATOM      8  C   UNL     1      13.012  28.646  36.905  1.00  0.00     0.012 C 
ENDBRANCH   5   6
ENDBRANCH   3   4
ENDBRANCH   2   3
ENDBRANCH   1   2
BRANCH   1   9
ATOM      9  C   UNL     1      10.034  22.993  39.370  1.00  0.00     0.100 C 
BRANCH   9  10
ATOM     10  C   UNL     1       8.958  22.584  40.334  1.00  0.00     0.220 C 
ATOM     11  O   UNL     1       9.218  21.760  41.250  1.00  0.00    -0.275 OA
ATOM     12  N   UNL     1       7.651  23.160  40.228  1.00  0.00    -0.352 N 
ATOM     13  H   UNL     1       7.425  23.732  39.383  1.00  0.00     0.163 HD
BRANCH  12  14
ATOM     14  C   UNL     1       6.680  23.062  41.316  1.00  0.00     0.151 C 
BRANCH  14  15
ATOM     15  C   UNL     1       6.978  24.084  42.380  1.00  0.00    -0.025 A 
ATOM     16  C   UNL     1       7.339  25.392  42.020  1.00  0.00     0.056 A 
ATOM     17  C   UNL     1       6.972  23.716  43.734  1.00  0.00     0.009 A 
ATOM     18  C   UNL     1       7.661  26.344  43.007  1.00  0.00     0.160 A 
ATOM     19  C   UNL     1       7.289  24.655  44.718  1.00  0.00     0.050 A 
ATOM     20  C   UNL     1       7.631  25.968  44.358  1.00  0.00     0.157 A 
BRANCH  18  21
ATOM     21  O   UNL     1       8.010  27.666  42.684  1.00  0.00    -0.493 OA
ATOM     22  C   UNL     1       7.478  28.389  41.580  1.00  0.00     0.278 C 
ENDBRANCH  18  21
BRANCH  20  23
ATOM     23  O   UNL     1       7.946  26.907  45.342  1.00  0.00    -0.504 OA
ATOM     24  H   UNL     1       8.797  26.833  45.891  1.00  0.00     0.293 HD
ENDBRANCH  20  23
ENDBRANCH  14  15
ENDBRANCH  12  14
ENDBRANCH   9  10
ENDBRANCH   1   9
TORSDOF 10
ENDMDL
MODEL 6
REMARK VINA RESULT:    -6.122      2.661      6.840
REMARK INTER + INTRA:         -10.389
REMARK INTER:                  -9.603
REMARK INTRA:                  -0.786
REMARK UNBOUND:                -0.867
REMARK SMILES COc1cc(CNC(=O)CCCCC=CC(C)C)ccc1O
REMARK SMILES IDX 11 1 12 2 13 3 14 4 15 5 16 6 17 7 18 8 10 9 8 10 9 11 7 12
REMARK SMILES IDX 6 14 5 15 4 16 19 17 3 18 20 19 21 20 2 21 1 22 22 23
REMARK H PARENT 7 13 22 24
REMARK Flexibility Score: inf
ROOT
ATOM      1  C   UNL     1       9.763  28.217  43.659  1.00  0.00     0.010 C 
ENDROOT
BRANCH   1   2
ATOM      2  C   UNL     1       9.349  27.235  44.767  1.00  0.00     0.005 C 
BRANCH   2   3
ATOM      3  C   UNL     1       7.848  26.923  44.709  1.00  0.00     0.027 C 
BRANCH   3   4
ATOM      4  C   UNL     1       7.615  25.494  44.303  1.00  0.00    -0.031 C 
ATOM      5  C   UNL     1       7.258  25.177  43.047  1.00  0.00    -0.028 C 
BRANCH   5   6
ATOM      6  C   UNL     1       7.008  23.754  42.600  1.00  0.00     0.005 C 
ATOM      7  C   UNL     1       6.674  22.845  43.787  1.00  0.00     0.012 C 
ATOM      8  C   UNL     1       5.916  23.694  41.530  1.00  0.00     0.012 C 
ENDBRANCH   5   6
ENDBRANCH   3   4
ENDBRANCH   2   3
ENDBRANCH   1   2
BRANCH   1   9
ATOM      9  C   UNL     1      10.970  27.712  42.853  1.00  0.00     0.100 C 
BRANCH   9  10
ATOM     10  C   UNL     1      10.852  28.058  41.396  1.00  0.00     0.220 C 
ATOM     11  O   UNL     1      10.335  29.154  41.053  1.00  0.00    -0.275 OA
ATOM     12  N   UNL     1      11.360  27.154  40.407  1.00  0.00    -0.352 N 
ATOM     13  H   UNL     1      11.656  26.199  40.710  1.00  0.00     0.163 HD
BRANCH  12  14
ATOM     14  C   UNL     1      11.577  27.576  39.024  1.00  0.00     0.151 C 
BRANCH  14  15
ATOM     15  C   UNL     1      11.531  26.389  38.100  1.00  0.00    -0.025 A 
ATOM     16  C   UNL     1      10.441  25.504  38.142  1.00  0.00     0.056 A 
ATOM     17  C   UNL     1      12.611  26.117  37.246  1.00  0.00     0.009 A 
ATOM     18  C   UNL     1      10.409  24.368  37.309  1.00  0.00     0.160 A 
ATOM     19  C   UNL     1      12.585  24.993  36.418  1.00  0.00     0.050 A 
ATOM     20  C   UNL     1      11.486  24.119  36.446  1.00  0.00     0.157 A 
BRANCH  18  21
ATOM     21  O   UNL     1       9.328  23.470  37.313  1.00  0.00    -0.493 OA
ATOM     22  C   UNL     1       8.761  22.902  38.489  1.00  0.00     0.278 C 
ENDBRANCH  18  21
BRANCH  20  23
ATOM     23  O   UNL     1      11.460  22.996  35.617  1.00  0.00    -0.504 OA
ATOM     24  H   UNL     1      11.564  23.079  34.611  1.00  0.00     0.293 HD
ENDBRANCH  20  23
ENDBRANCH  14  15
ENDBRANCH  12  14
ENDBRANCH   9  10
ENDBRANCH   1   9
TORSDOF 10
ENDMDL
MODEL 7
REMARK VINA RESULT:    -5.991      2.972      7.338
REMARK INTER + INTRA:         -10.185
REMARK INTER:                  -8.729
REMARK INTRA:                  -1.456
REMARK UNBOUND:                -0.867
REMARK SMILES COc1cc(CNC(=O)CCCCC=CC(C)C)ccc1O
REMARK SMILES IDX 11 1 12 2 13 3 14 4 15 5 16 6 17 7 18 8 10 9 8 10 9 11 7 12
REMARK SMILES IDX 6 14 5 15 4 16 19 17 3 18 20 19 21 20 2 21 1 22 22 23
REMARK H PARENT 7 13 22 24
REMARK Flexibility Score: inf
ROOT
ATOM      1  C   UNL     1       6.579  23.637  40.987  1.00  0.00     0.010 C 
ENDROOT
BRANCH   1   2
ATOM      2  C   UNL     1       6.618  23.529  42.520  1.00  0.00     0.005 C 
BRANCH   2   3
ATOM      3  C   UNL     1       8.059  23.544  43.047  1.00  0.00     0.027 C 
BRANCH   3   4
ATOM      4  C   UNL     1       8.368  24.856  43.715  1.00  0.00    -0.031 C 
ATOM      5  C   UNL     1       7.484  25.867  43.704  1.00  0.00    -0.028 C 
BRANCH   5   6
ATOM      6  C   UNL     1       7.758  27.203  44.358  1.00  0.00     0.005 C 
ATOM      7  C   UNL     1       6.696  27.541  45.409  1.00  0.00     0.012 C 
ATOM      8  C   UNL     1       9.166  27.249  44.956  1.00  0.00     0.012 C 
ENDBRANCH   5   6
ENDBRANCH   3   4
ENDBRANCH   2   3
ENDBRANCH   1   2
BRANCH   1   9
ATOM      9  C   UNL     1       5.383  24.465  40.491  1.00  0.00     0.100 C 
BRANCH   9  10
ATOM     10  C   UNL     1       5.786  25.866  40.130  1.00  0.00     0.220 C 
ATOM     11  O   UNL     1       4.916  26.682  39.726  1.00  0.00    -0.275 OA
ATOM     12  N   UNL     1       7.150  26.276  40.281  1.00  0.00    -0.352 N 
ATOM     13  H   UNL     1       7.869  25.547  40.486  1.00  0.00     0.163 HD
BRANCH  12  14
ATOM     14  C   UNL     1       7.531  27.687  40.271  1.00  0.00     0.151 C 
BRANCH  14  15
ATOM     15  C   UNL     1       9.022  27.829  40.415  1.00  0.00    -0.025 A 
ATOM     16  C   UNL     1       9.564  28.474  41.538  1.00  0.00     0.056 A 
ATOM     17  C   UNL     1       9.876  27.387  39.392  1.00  0.00     0.009 A 
ATOM     18  C   UNL     1      10.957  28.649  41.661  1.00  0.00     0.160 A 
ATOM     19  C   UNL     1      11.257  27.557  39.508  1.00  0.00     0.050 A 
ATOM     20  C   UNL     1      11.800  28.184  40.641  1.00  0.00     0.157 A 
BRANCH  18  21
ATOM     21  O   UNL     1      11.535  29.275  42.778  1.00  0.00    -0.493 OA
ATOM     22  C   UNL     1      11.584  30.685  42.971  1.00  0.00     0.278 C 
ENDBRANCH  18  21
BRANCH  20  23
ATOM     23  O   UNL     1      13.180  28.352  40.757  1.00  0.00    -0.504 OA
ATOM     24  H   UNL     1      13.814  28.047  40.025  1.00  0.00     0.293 HD
ENDBRANCH  20  23
ENDBRANCH  14  15
ENDBRANCH  12  14
ENDBRANCH   9  10
ENDBRANCH   1   9
TORSDOF 10
ENDMDL
MODEL 8
REMARK VINA RESULT:    -5.964      2.574      4.418
REMARK INTER + INTRA:         -10.144
REMARK INTER:                  -8.265
REMARK INTRA:                  -1.878
REMARK UNBOUND:                -0.867
REMARK SMILES COc1cc(CNC(=O)CCCCC=CC(C)C)ccc1O
REMARK SMILES IDX 11 1 12 2 13 3 14 4 15 5 16 6 17 7 18 8 10 9 8 10 9 11 7 12
REMARK SMILES IDX 6 14 5 15 4 16 19 17 3 18 20 19 21 20 2 21 1 22 22 23
REMARK H PARENT 7 13 22 24
REMARK Flexibility Score: inf
ROOT
ATOM      1  C   UNL     1      11.808  26.245  37.391  1.00  0.00     0.010 C 
ENDROOT
BRANCH   1   2
ATOM      2  C   UNL     1      12.715  27.481  37.269  1.00  0.00     0.005 C 
BRANCH   2   3
ATOM      3  C   UNL     1      13.291  27.891  38.630  1.00  0.00     0.027 C 
BRANCH   3   4
ATOM      4  C   UNL     1      12.188  28.187  39.609  1.00  0.00    -0.031 C 
ATOM      5  C   UNL     1      12.453  28.432  40.902  1.00  0.00    -0.028 C 
BRANCH   5   6
ATOM      6  C   UNL     1      11.373  28.727  41.919  1.00  0.00     0.005 C 
ATOM      7  C   UNL     1      11.690  29.993  42.721  1.00  0.00     0.012 C 
ATOM      8  C   UNL     1       9.997  28.819  41.256  1.00  0.00     0.012 C 
ENDBRANCH   5   6
ENDBRANCH   3   4
ENDBRANCH   2   3
ENDBRANCH   1   2
BRANCH   1   9
ATOM      9  C   UNL     1      12.591  24.931  37.253  1.00  0.00     0.100 C 
BRANCH   9  10
ATOM     10  C   UNL     1      12.710  24.211  38.565  1.00  0.00     0.220 C 
ATOM     11  O   UNL     1      13.311  23.105  38.620  1.00  0.00    -0.275 OA
ATOM     12  N   UNL     1      12.170  24.802  39.753  1.00  0.00    -0.352 N 
ATOM     13  H   UNL     1      11.561  25.646  39.657  1.00  0.00     0.163 HD
BRANCH  12  14
ATOM     14  C   UNL     1      12.541  24.325  41.083  1.00  0.00     0.151 C 
BRANCH  14  15
ATOM     15  C   UNL     1      11.617  24.898  42.124  1.00  0.00    -0.025 A 
ATOM     16  C   UNL     1      10.242  25.007  41.863  1.00  0.00     0.056 A 
ATOM     17  C   UNL     1      12.134  25.396  43.330  1.00  0.00     0.009 A 
ATOM     18  C   UNL     1       9.375  25.580  42.815  1.00  0.00     0.160 A 
ATOM     19  C   UNL     1      11.280  25.964  44.278  1.00  0.00     0.050 A 
ATOM     20  C   UNL     1       9.903  26.056  44.024  1.00  0.00     0.157 A 
BRANCH  18  21
ATOM     21  O   UNL     1       7.992  25.690  42.594  1.00  0.00    -0.493 OA
ATOM     22  C   UNL     1       7.034  24.722  43.007  1.00  0.00     0.278 C 
ENDBRANCH  18  21
BRANCH  20  23
ATOM     23  O   UNL     1       9.050  26.622  44.973  1.00  0.00    -0.504 OA
ATOM     24  H   UNL     1       9.355  27.382  45.572  1.00  0.00     0.293 HD
ENDBRANCH  20  23
ENDBRANCH  14  15
ENDBRANCH  12  14
ENDBRANCH   9  10
ENDBRANCH   1   9
TORSDOF 10
ENDMDL
MODEL 9
REMARK VINA RESULT:    -5.882      2.336      3.955
REMARK INTER + INTRA:         -10.015
REMARK INTER:                  -8.639
REMARK INTRA:                  -1.376
REMARK UNBOUND:                -0.867
REMARK SMILES COc1cc(CNC(=O)CCCCC=CC(C)C)ccc1O
REMARK SMILES IDX 11 1 12 2 13 3 14 4 15 5 16 6 17 7 18 8 10 9 8 10 9 11 7 12
REMARK SMILES IDX 6 14 5 15 4 16 19 17 3 18 20 19 21 20 2 21 1 22 22 23
REMARK H PARENT 7 13 22 24
REMARK Flexibility Score: inf
ROOT
ATOM      1  C   UNL     1       8.196  28.700  40.462  1.00  0.00     0.010 C 
ENDROOT
BRANCH   1   2
ATOM      2  C   UNL     1       8.489  28.492  38.967  1.00  0.00     0.005 C 
BRANCH   2   3
ATOM      3  C   UNL     1       8.588  27.001  38.617  1.00  0.00     0.027 C 
BRANCH   3   4
ATOM      4  C   UNL     1       9.987  26.644  38.199  1.00  0.00    -0.031 C 
ATOM      5  C   UNL     1      10.921  27.591  38.012  1.00  0.00    -0.028 C 
BRANCH   5   6
ATOM      6  C   UNL     1      12.337  27.275  37.586  1.00  0.00     0.005 C 
ATOM      7  C   UNL     1      12.417  25.922  36.872  1.00  0.00     0.012 C 
ATOM      8  C   UNL     1      12.919  28.395  36.721  1.00  0.00     0.012 C 
ENDBRANCH   5   6
ENDBRANCH   3   4
ENDBRANCH   2   3
ENDBRANCH   1   2
BRANCH   1   9
ATOM      9  C   UNL     1       9.477  28.735  41.309  1.00  0.00     0.100 C 
BRANCH   9  10
ATOM     10  C   UNL     1       9.545  27.580  42.266  1.00  0.00     0.220 C 
ATOM     11  O   UNL     1       9.128  27.721  43.446  1.00  0.00    -0.275 OA
ATOM     12  N   UNL     1      10.050  26.316  41.822  1.00  0.00    -0.352 N 
ATOM     13  H   UNL     1      10.512  26.265  40.886  1.00  0.00     0.163 HD
BRANCH  12  14
ATOM     14  C   UNL     1       9.831  25.091  42.589  1.00  0.00     0.151 C 
BRANCH  14  15
ATOM     15  C   UNL     1       8.662  24.324  42.033  1.00  0.00    -0.025 A 
ATOM     16  C   UNL     1       8.729  23.772  40.743  1.00  0.00     0.056 A 
ATOM     17  C   UNL     1       7.470  24.222  42.768  1.00  0.00     0.009 A 
ATOM     18  C   UNL     1       7.624  23.089  40.198  1.00  0.00     0.160 A 
ATOM     19  C   UNL     1       6.372  23.545  42.233  1.00  0.00     0.050 A 
ATOM     20  C   UNL     1       6.446  22.977  40.952  1.00  0.00     0.157 A 
BRANCH  18  21
ATOM     21  O   UNL     1       7.662  22.510  38.918  1.00  0.00    -0.493 OA
ATOM     22  C   UNL     1       7.910  21.131  38.669  1.00  0.00     0.278 C 
ENDBRANCH  18  21
BRANCH  20  23
ATOM     23  O   UNL     1       5.349  22.299  40.419  1.00  0.00    -0.504 OA
ATOM     24  H   UNL     1       4.657  21.859  41.017  1.00  0.00     0.293 HD
ENDBRANCH  20  23
ENDBRANCH  14  15
ENDBRANCH  12  14
ENDBRANCH   9  10
ENDBRANCH   1   9
TORSDOF 10
ENDMDL
