MODEL 1
REMARK VINA RESULT:    -3.826      0.000      0.000
REMARK INTER + INTRA:          -7.998
REMARK INTER:                  -6.510
REMARK INTRA:                  -1.488
REMARK UNBOUND:                -1.488
REMARK SMILES CCCCCCCCCCCCCC(=O)[O-]
REMARK SMILES IDX 8 1 9 2 10 3 11 4 12 5 13 6 14 7 15 8 16 9 7 10 6 11 5 12
REMARK SMILES IDX 4 13 3 14 2 15 1 16
REMARK H PARENT
REMARK Flexibility Score: inf
ROOT
ATOM      1  C   UNL     1      -3.714  -5.430   5.839  1.00  0.00     0.000 C 
ENDROOT
BRANCH   1   2
ATOM      2  C   UNL     1      -3.025  -4.459   6.805  1.00  0.00     0.000 C 
BRANCH   2   3
ATOM      3  C   UNL     1      -2.802  -3.091   6.144  1.00  0.00     0.000 C 
BRANCH   3   4
ATOM      4  C   UNL     1      -4.115  -2.413   5.709  1.00  0.00     0.000 C 
BRANCH   4   5
ATOM      5  C   UNL     1      -4.742  -1.478   6.759  1.00  0.00     0.006 C 
BRANCH   5   6
ATOM      6  C   UNL     1      -5.645  -0.403   6.139  1.00  0.00     0.053 C 
BRANCH   6   7
ATOM      7  C   UNL     1      -5.802   0.751   7.078  1.00  0.00     0.041 C 
ATOM      8  O   UNL     1      -6.949   1.116   7.448  1.00  0.00    -0.550 OA
ATOM      9  O   UNL     1      -4.684   1.457   7.507  1.00  0.00    -0.550 OA
ENDBRANCH   6   7
ENDBRANCH   5   6
ENDBRANCH   4   5
ENDBRANCH   3   4
ENDBRANCH   2   3
ENDBRANCH   1   2
BRANCH   1  10
ATOM     10  C   UNL     1      -4.924  -6.104   6.505  1.00  0.00     0.000 C 
BRANCH  10  11
ATOM     11  C   UNL     1      -5.536  -5.259   7.637  1.00  0.00    -0.000 C 
BRANCH  11  12
ATOM     12  C   UNL     1      -6.840  -4.525   7.273  1.00  0.00    -0.000 C 
BRANCH  12  13
ATOM     13  C   UNL     1      -7.166  -4.591   5.771  1.00  0.00    -0.000 C 
BRANCH  13  14
ATOM     14  C   UNL     1      -8.644  -4.914   5.504  1.00  0.00    -0.000 C 
BRANCH  14  15
ATOM     15  C   UNL     1      -8.827  -6.116   4.566  1.00  0.00    -0.003 C 
ATOM     16  C   UNL     1      -8.132  -7.356   5.120  1.00  0.00     0.004 C 
ENDBRANCH  14  15
ENDBRANCH  13  14
ENDBRANCH  12  13
ENDBRANCH  11  12
ENDBRANCH  10  11
ENDBRANCH   1  10
TORSDOF 12
ENDMDL
MODEL 2
REMARK VINA RESULT:    -3.629      1.230      3.917
REMARK INTER + INTRA:          -7.662
REMARK INTER:                  -6.216
REMARK INTRA:                  -1.446
REMARK UNBOUND:                -1.488
REMARK SMILES CCCCCCCCCCCCCC(=O)[O-]
REMARK SMILES IDX 8 1 9 2 10 3 11 4 12 5 13 6 14 7 15 8 16 9 7 10 6 11 5 12
REMARK SMILES IDX 4 13 3 14 2 15 1 16
REMARK H PARENT
REMARK Flexibility Score: inf
ROOT
ATOM      1  C   UNL     1      -7.820  -5.360   5.209  1.00  0.00     0.000 C 
ENDROOT
BRANCH   1   2
ATOM      2  C   UNL     1      -8.971  -4.676   5.956  1.00  0.00     0.000 C 
BRANCH   2   3
ATOM      3  C   UNL     1      -8.462  -3.484   6.780  1.00  0.00     0.000 C 
BRANCH   3   4
ATOM      4  C   UNL     1      -7.476  -2.593   6.001  1.00  0.00     0.000 C 
BRANCH   4   5
ATOM      5  C   UNL     1      -7.434  -1.123   6.454  1.00  0.00     0.006 C 
BRANCH   5   6
ATOM      6  C   UNL     1      -6.119  -0.749   7.152  1.00  0.00     0.053 C 
BRANCH   6   7
ATOM      7  C   UNL     1      -6.024   0.734   7.325  1.00  0.00     0.041 C 
ATOM      8  O   UNL     1      -7.056   1.411   7.570  1.00  0.00    -0.550 OA
ATOM      9  O   UNL     1      -4.801   1.376   7.169  1.00  0.00    -0.550 OA
ENDBRANCH   6   7
ENDBRANCH   5   6
ENDBRANCH   4   5
ENDBRANCH   3   4
ENDBRANCH   2   3
ENDBRANCH   1   2
BRANCH   1  10
ATOM     10  C   UNL     1      -7.481  -6.717   5.843  1.00  0.00     0.000 C 
BRANCH  10  11
ATOM     11  C   UNL     1      -6.370  -6.626   6.905  1.00  0.00    -0.000 C 
BRANCH  11  12
ATOM     12  C   UNL     1      -4.962  -6.333   6.355  1.00  0.00    -0.000 C 
BRANCH  12  13
ATOM     13  C   UNL     1      -4.498  -4.893   6.635  1.00  0.00    -0.000 C 
BRANCH  13  14
ATOM     14  C   UNL     1      -4.268  -4.088   5.346  1.00  0.00    -0.000 C 
BRANCH  14  15
ATOM     15  C   UNL     1      -3.387  -2.850   5.571  1.00  0.00    -0.003 C 
ATOM     16  C   UNL     1      -2.943  -2.749   7.027  1.00  0.00     0.004 C 
ENDBRANCH  14  15
ENDBRANCH  13  14
ENDBRANCH  12  13
ENDBRANCH  11  12
ENDBRANCH  10  11
ENDBRANCH   1  10
TORSDOF 12
ENDMDL
MODEL 3
REMARK VINA RESULT:    -3.623      1.287      2.145
REMARK INTER + INTRA:          -7.653
REMARK INTER:                  -6.164
REMARK INTRA:                  -1.489
REMARK UNBOUND:                -1.488
REMARK SMILES CCCCCCCCCCCCCC(=O)[O-]
REMARK SMILES IDX 8 1 9 2 10 3 11 4 12 5 13 6 14 7 15 8 16 9 7 10 6 11 5 12
REMARK SMILES IDX 4 13 3 14 2 15 1 16
REMARK H PARENT
REMARK Flexibility Score: inf
ROOT
ATOM      1  C   UNL     1      -3.608  -3.381   5.765  1.00  0.00     0.000 C 
ENDROOT
BRANCH   1   2
ATOM      2  C   UNL     1      -4.885  -3.320   4.919  1.00  0.00     0.000 C 
BRANCH   2   3
ATOM      3  C   UNL     1      -5.751  -2.115   5.316  1.00  0.00     0.000 C 
BRANCH   3   4
ATOM      4  C   UNL     1      -6.653  -2.399   6.531  1.00  0.00     0.000 C 
BRANCH   4   5
ATOM      5  C   UNL     1      -6.541  -1.376   7.677  1.00  0.00     0.006 C 
BRANCH   5   6
ATOM      6  C   UNL     1      -5.263  -0.530   7.600  1.00  0.00     0.053 C 
BRANCH   6   7
ATOM      7  C   UNL     1      -5.603   0.911   7.390  1.00  0.00     0.041 C 
ATOM      8  O   UNL     1      -4.693   1.750   7.159  1.00  0.00    -0.550 OA
ATOM      9  O   UNL     1      -6.921   1.339   7.499  1.00  0.00    -0.550 OA
ENDBRANCH   6   7
ENDBRANCH   5   6
ENDBRANCH   4   5
ENDBRANCH   3   4
ENDBRANCH   2   3
ENDBRANCH   1   2
BRANCH   1  10
ATOM     10  C   UNL     1      -3.341  -4.812   6.257  1.00  0.00     0.000 C 
BRANCH  10  11
ATOM     11  C   UNL     1      -4.537  -5.422   7.011  1.00  0.00    -0.000 C 
BRANCH  11  12
ATOM     12  C   UNL     1      -5.182  -6.645   6.332  1.00  0.00    -0.000 C 
BRANCH  12  13
ATOM     13  C   UNL     1      -6.582  -6.966   6.883  1.00  0.00    -0.000 C 
BRANCH  13  14
ATOM     14  C   UNL     1      -7.589  -5.834   6.628  1.00  0.00    -0.000 C 
BRANCH  14  15
ATOM     15  C   UNL     1      -7.863  -5.610   5.134  1.00  0.00    -0.003 C 
ATOM     16  C   UNL     1      -8.516  -6.838   4.506  1.00  0.00     0.004 C 
ENDBRANCH  14  15
ENDBRANCH  13  14
ENDBRANCH  12  13
ENDBRANCH  11  12
ENDBRANCH  10  11
ENDBRANCH   1  10
TORSDOF 12
ENDMDL
MODEL 4
REMARK VINA RESULT:    -3.599      2.933      4.296
REMARK INTER + INTRA:          -7.612
REMARK INTER:                  -5.879
REMARK INTRA:                  -1.733
REMARK UNBOUND:                -1.488
REMARK SMILES CCCCCCCCCCCCCC(=O)[O-]
REMARK SMILES IDX 8 1 9 2 10 3 11 4 12 5 13 6 14 7 15 8 16 9 7 10 6 11 5 12
REMARK SMILES IDX 4 13 3 14 2 15 1 16
REMARK H PARENT
REMARK Flexibility Score: inf
ROOT
ATOM      1  C   UNL     1      -6.836  -0.539   6.382  1.00  0.00     0.000 C 
ENDROOT
BRANCH   1   2
ATOM      2  C   UNL     1      -5.310  -0.567   6.237  1.00  0.00     0.000 C 
BRANCH   2   3
ATOM      3  C   UNL     1      -4.659  -1.320   7.406  1.00  0.00     0.000 C 
BRANCH   3   4
ATOM      4  C   UNL     1      -3.780  -2.499   6.947  1.00  0.00     0.000 C 
BRANCH   4   5
ATOM      5  C   UNL     1      -3.889  -2.845   5.450  1.00  0.00     0.006 C 
BRANCH   5   6
ATOM      6  C   UNL     1      -4.546  -4.208   5.198  1.00  0.00     0.053 C 
BRANCH   6   7
ATOM      7  C   UNL     1      -3.729  -5.302   5.810  1.00  0.00     0.041 C 
ATOM      8  O   UNL     1      -4.206  -6.007   6.738  1.00  0.00    -0.550 OA
ATOM      9  O   UNL     1      -2.422  -5.514   5.389  1.00  0.00    -0.550 OA
ENDBRANCH   6   7
ENDBRANCH   5   6
ENDBRANCH   4   5
ENDBRANCH   3   4
ENDBRANCH   2   3
ENDBRANCH   1   2
BRANCH   1  10
ATOM     10  C   UNL     1      -7.469  -1.811   5.799  1.00  0.00     0.000 C 
BRANCH  10  11
ATOM     11  C   UNL     1      -8.297  -2.599   6.829  1.00  0.00    -0.000 C 
BRANCH  11  12
ATOM     12  C   UNL     1      -7.477  -3.470   7.799  1.00  0.00    -0.000 C 
BRANCH  12  13
ATOM     13  C   UNL     1      -7.517  -4.965   7.441  1.00  0.00    -0.000 C 
BRANCH  13  14
ATOM     14  C   UNL     1      -8.547  -5.280   6.343  1.00  0.00    -0.000 C 
BRANCH  14  15
ATOM     15  C   UNL     1      -7.904  -5.874   5.081  1.00  0.00    -0.003 C 
ATOM     16  C   UNL     1      -8.967  -6.323   4.083  1.00  0.00     0.004 C 
ENDBRANCH  14  15
ENDBRANCH  13  14
ENDBRANCH  12  13
ENDBRANCH  11  12
ENDBRANCH  10  11
ENDBRANCH   1  10
TORSDOF 12
ENDMDL
MODEL 5
REMARK VINA RESULT:    -3.470      1.076      2.019
REMARK INTER + INTRA:          -7.392
REMARK INTER:                  -6.364
REMARK INTRA:                  -1.028
REMARK UNBOUND:                -1.488
REMARK SMILES CCCCCCCCCCCCCC(=O)[O-]
REMARK SMILES IDX 8 1 9 2 10 3 11 4 12 5 13 6 14 7 15 8 16 9 7 10 6 11 5 12
REMARK SMILES IDX 4 13 3 14 2 15 1 16
REMARK H PARENT
REMARK Flexibility Score: inf
ROOT
ATOM      1  C   UNL     1      -4.985  -4.966   6.205  1.00  0.00     0.000 C 
ENDROOT
BRANCH   1   2
ATOM      2  C   UNL     1      -4.879  -3.992   5.026  1.00  0.00     0.000 C 
BRANCH   2   3
ATOM      3  C   UNL     1      -3.930  -2.830   5.355  1.00  0.00     0.000 C 
BRANCH   3   4
ATOM      4  C   UNL     1      -4.007  -2.392   6.830  1.00  0.00     0.000 C 
BRANCH   4   5
ATOM      5  C   UNL     1      -5.278  -1.610   7.209  1.00  0.00     0.006 C 
BRANCH   5   6
ATOM      6  C   UNL     1      -5.532  -0.403   6.296  1.00  0.00     0.053 C 
BRANCH   6   7
ATOM      7  C   UNL     1      -5.685   0.843   7.109  1.00  0.00     0.041 C 
ATOM      8  O   UNL     1      -6.827   1.223   7.481  1.00  0.00    -0.550 OA
ATOM      9  O   UNL     1      -4.571   1.616   7.417  1.00  0.00    -0.550 OA
ENDBRANCH   6   7
ENDBRANCH   5   6
ENDBRANCH   4   5
ENDBRANCH   3   4
ENDBRANCH   2   3
ENDBRANCH   1   2
BRANCH   1  10
ATOM     10  C   UNL     1      -6.451  -5.186   6.609  1.00  0.00     0.000 C 
BRANCH  10  11
ATOM     11  C   UNL     1      -7.449  -4.704   5.541  1.00  0.00    -0.000 C 
BRANCH  11  12
ATOM     12  C   UNL     1      -8.727  -5.553   5.409  1.00  0.00    -0.000 C 
BRANCH  12  13
ATOM     13  C   UNL     1      -8.722  -6.451   4.160  1.00  0.00    -0.000 C 
BRANCH  13  14
ATOM     14  C   UNL     1      -8.823  -7.944   4.509  1.00  0.00    -0.000 C 
BRANCH  14  15
ATOM     15  C   UNL     1      -7.627  -8.441   5.335  1.00  0.00    -0.003 C 
ATOM     16  C   UNL     1      -6.948  -9.629   4.660  1.00  0.00     0.004 C 
ENDBRANCH  14  15
ENDBRANCH  13  14
ENDBRANCH  12  13
ENDBRANCH  11  12
ENDBRANCH  10  11
ENDBRANCH   1  10
TORSDOF 12
ENDMDL
MODEL 6
REMARK VINA RESULT:    -3.390      2.204      3.362
REMARK INTER + INTRA:          -7.256
REMARK INTER:                  -6.525
REMARK INTRA:                  -0.731
REMARK UNBOUND:                -1.488
REMARK SMILES CCCCCCCCCCCCCC(=O)[O-]
REMARK SMILES IDX 8 1 9 2 10 3 11 4 12 5 13 6 14 7 15 8 16 9 7 10 6 11 5 12
REMARK SMILES IDX 4 13 3 14 2 15 1 16
REMARK H PARENT
REMARK Flexibility Score: inf
ROOT
ATOM      1  C   UNL     1      -3.968  -5.020   6.979  1.00  0.00     0.000 C 
ENDROOT
BRANCH   1   2
ATOM      2  C   UNL     1      -3.942  -4.575   5.512  1.00  0.00     0.000 C 
BRANCH   2   3
ATOM      3  C   UNL     1      -4.102  -3.052   5.396  1.00  0.00     0.000 C 
BRANCH   3   4
ATOM      4  C   UNL     1      -5.573  -2.598   5.429  1.00  0.00     0.000 C 
BRANCH   4   5
ATOM      5  C   UNL     1      -5.783  -1.097   5.697  1.00  0.00     0.006 C 
BRANCH   5   6
ATOM      6  C   UNL     1      -5.215  -0.645   7.048  1.00  0.00     0.053 C 
BRANCH   6   7
ATOM      7  C   UNL     1      -5.511   0.803   7.281  1.00  0.00     0.041 C 
ATOM      8  O   UNL     1      -4.570   1.635   7.379  1.00  0.00    -0.550 OA
ATOM      9  O   UNL     1      -6.824   1.230   7.438  1.00  0.00    -0.550 OA
ENDBRANCH   6   7
ENDBRANCH   5   6
ENDBRANCH   4   5
ENDBRANCH   3   4
ENDBRANCH   2   3
ENDBRANCH   1   2
BRANCH   1  10
ATOM     10  C   UNL     1      -5.204  -5.884   7.271  1.00  0.00     0.000 C 
BRANCH  10  11
ATOM     11  C   UNL     1      -5.414  -7.004   6.236  1.00  0.00    -0.000 C 
BRANCH  11  12
ATOM     12  C   UNL     1      -6.259  -8.196   6.724  1.00  0.00    -0.000 C 
BRANCH  12  13
ATOM     13  C   UNL     1      -5.921  -9.508   5.996  1.00  0.00    -0.000 C 
BRANCH  13  14
ATOM     14  C   UNL     1      -4.410  -9.691   5.785  1.00  0.00    -0.000 C 
BRANCH  14  15
ATOM     15  C   UNL     1      -4.039  -9.896   4.309  1.00  0.00    -0.003 C 
ATOM     16  C   UNL     1      -2.694  -9.250   3.985  1.00  0.00     0.004 C 
ENDBRANCH  14  15
ENDBRANCH  13  14
ENDBRANCH  12  13
ENDBRANCH  11  12
ENDBRANCH  10  11
ENDBRANCH   1  10
TORSDOF 12
ENDMDL
MODEL 7
REMARK VINA RESULT:    -3.345      2.441      4.074
REMARK INTER + INTRA:          -7.179
REMARK INTER:                  -5.633
REMARK INTRA:                  -1.546
REMARK UNBOUND:                -1.488
REMARK SMILES CCCCCCCCCCCCCC(=O)[O-]
REMARK SMILES IDX 8 1 9 2 10 3 11 4 12 5 13 6 14 7 15 8 16 9 7 10 6 11 5 12
REMARK SMILES IDX 4 13 3 14 2 15 1 16
REMARK H PARENT
REMARK Flexibility Score: inf
ROOT
ATOM      1  C   UNL     1      -6.915  -1.361   5.847  1.00  0.00     0.000 C 
ENDROOT
BRANCH   1   2
ATOM      2  C   UNL     1      -5.604  -2.151   5.763  1.00  0.00     0.000 C 
BRANCH   2   3
ATOM      3  C   UNL     1      -5.850  -3.572   5.235  1.00  0.00     0.000 C 
BRANCH   3   4
ATOM      4  C   UNL     1      -5.201  -4.659   6.112  1.00  0.00     0.000 C 
BRANCH   4   5
ATOM      5  C   UNL     1      -3.704  -4.899   5.848  1.00  0.00     0.006 C 
BRANCH   5   6
ATOM      6  C   UNL     1      -2.805  -4.375   6.976  1.00  0.00     0.053 C 
BRANCH   6   7
ATOM      7  C   UNL     1      -2.096  -3.131   6.544  1.00  0.00     0.041 C 
ATOM      8  O   UNL     1      -1.605  -3.051   5.387  1.00  0.00    -0.550 OA
ATOM      9  O   UNL     1      -1.933  -2.077   7.434  1.00  0.00    -0.550 OA
ENDBRANCH   6   7
ENDBRANCH   5   6
ENDBRANCH   4   5
ENDBRANCH   3   4
ENDBRANCH   2   3
ENDBRANCH   1   2
BRANCH   1  10
ATOM     10  C   UNL     1      -7.748  -1.802   7.060  1.00  0.00     0.000 C 
BRANCH  10  11
ATOM     11  C   UNL     1      -9.219  -2.086   6.709  1.00  0.00    -0.000 C 
BRANCH  11  12
ATOM     12  C   UNL     1      -9.774  -3.419   7.245  1.00  0.00    -0.000 C 
BRANCH  12  13
ATOM     13  C   UNL     1      -8.671  -4.444   7.557  1.00  0.00    -0.000 C 
BRANCH  13  14
ATOM     14  C   UNL     1      -8.764  -5.697   6.671  1.00  0.00    -0.000 C 
BRANCH  14  15
ATOM     15  C   UNL     1      -9.154  -5.370   5.222  1.00  0.00    -0.003 C 
ATOM     16  C   UNL     1      -8.692  -6.468   4.268  1.00  0.00     0.004 C 
ENDBRANCH  14  15
ENDBRANCH  13  14
ENDBRANCH  12  13
ENDBRANCH  11  12
ENDBRANCH  10  11
ENDBRANCH   1  10
TORSDOF 12
ENDMDL
MODEL 8
REMARK VINA RESULT:    -3.317      2.438      4.611
REMARK INTER + INTRA:          -7.132
REMARK INTER:                  -5.428
REMARK INTRA:                  -1.703
REMARK UNBOUND:                -1.488
REMARK SMILES CCCCCCCCCCCCCC(=O)[O-]
REMARK SMILES IDX 8 1 9 2 10 3 11 4 12 5 13 6 14 7 15 8 16 9 7 10 6 11 5 12
REMARK SMILES IDX 4 13 3 14 2 15 1 16
REMARK H PARENT
REMARK Flexibility Score: inf
ROOT
ATOM      1  C   UNL     1      -7.491  -5.185   5.454  1.00  0.00     0.000 C 
ENDROOT
BRANCH   1   2
ATOM      2  C   UNL     1      -6.664  -6.136   6.328  1.00  0.00     0.000 C 
BRANCH   2   3
ATOM      3  C   UNL     1      -6.501  -5.576   7.749  1.00  0.00     0.000 C 
BRANCH   3   4
ATOM      4  C   UNL     1      -5.454  -4.450   7.834  1.00  0.00     0.000 C 
BRANCH   4   5
ATOM      5  C   UNL     1      -4.135  -4.733   7.093  1.00  0.00     0.006 C 
BRANCH   5   6
ATOM      6  C   UNL     1      -3.134  -3.573   7.188  1.00  0.00     0.053 C 
BRANCH   6   7
ATOM      7  C   UNL     1      -2.706  -3.140   5.822  1.00  0.00     0.041 C 
ATOM      8  O   UNL     1      -3.498  -3.239   4.848  1.00  0.00    -0.550 OA
ATOM      9  O   UNL     1      -1.414  -2.671   5.612  1.00  0.00    -0.550 OA
ENDBRANCH   6   7
ENDBRANCH   5   6
ENDBRANCH   4   5
ENDBRANCH   3   4
ENDBRANCH   2   3
ENDBRANCH   1   2
BRANCH   1  10
ATOM     10  C   UNL     1      -8.980  -5.563   5.484  1.00  0.00     0.000 C 
BRANCH  10  11
ATOM     11  C   UNL     1      -9.900  -4.365   5.780  1.00  0.00    -0.000 C 
BRANCH  11  12
ATOM     12  C   UNL     1      -9.459  -3.476   6.958  1.00  0.00    -0.000 C 
BRANCH  12  13
ATOM     13  C   UNL     1      -9.047  -2.061   6.519  1.00  0.00    -0.000 C 
BRANCH  13  14
ATOM     14  C   UNL     1      -7.612  -1.708   6.941  1.00  0.00    -0.000 C 
BRANCH  14  15
ATOM     15  C   UNL     1      -6.647  -1.628   5.749  1.00  0.00    -0.003 C 
ATOM     16  C   UNL     1      -5.576  -0.566   5.980  1.00  0.00     0.004 C 
ENDBRANCH  14  15
ENDBRANCH  13  14
ENDBRANCH  12  13
ENDBRANCH  11  12
ENDBRANCH  10  11
ENDBRANCH   1  10
TORSDOF 12
ENDMDL
MODEL 9
REMARK VINA RESULT:    -3.304      3.039      4.962
REMARK INTER + INTRA:          -7.110
REMARK INTER:                  -5.756
REMARK INTRA:                  -1.354
REMARK UNBOUND:                -1.488
REMARK SMILES CCCCCCCCCCCCCC(=O)[O-]
REMARK SMILES IDX 8 1 9 2 10 3 11 4 12 5 13 6 14 7 15 8 16 9 7 10 6 11 5 12
REMARK SMILES IDX 4 13 3 14 2 15 1 16
REMARK H PARENT
REMARK Flexibility Score: inf
ROOT
ATOM      1  C   UNL     1      -8.906  -4.894   6.141  1.00  0.00     0.000 C 
ENDROOT
BRANCH   1   2
ATOM      2  C   UNL     1      -7.428  -4.708   5.776  1.00  0.00     0.000 C 
BRANCH   2   3
ATOM      3  C   UNL     1      -6.862  -3.428   6.407  1.00  0.00     0.000 C 
BRANCH   3   4
ATOM      4  C   UNL     1      -5.895  -2.675   5.474  1.00  0.00     0.000 C 
BRANCH   4   5
ATOM      5  C   UNL     1      -4.837  -3.558   4.788  1.00  0.00     0.006 C 
BRANCH   5   6
ATOM      6  C   UNL     1      -3.497  -3.577   5.536  1.00  0.00     0.053 C 
BRANCH   6   7
ATOM      7  C   UNL     1      -3.177  -4.963   5.997  1.00  0.00     0.041 C 
ATOM      8  O   UNL     1      -2.448  -5.712   5.295  1.00  0.00    -0.550 OA
ATOM      9  O   UNL     1      -3.722  -5.448   7.180  1.00  0.00    -0.550 OA
ENDBRANCH   6   7
ENDBRANCH   5   6
ENDBRANCH   4   5
ENDBRANCH   3   4
ENDBRANCH   2   3
ENDBRANCH   1   2
BRANCH   1  10
ATOM     10  C   UNL     1      -9.590  -5.883   5.185  1.00  0.00     0.000 C 
BRANCH  10  11
ATOM     11  C   UNL     1      -8.694  -6.296   4.003  1.00  0.00    -0.000 C 
BRANCH  11  12
ATOM     12  C   UNL     1      -9.105  -7.600   3.294  1.00  0.00    -0.000 C 
BRANCH  12  13
ATOM     13  C   UNL     1      -8.953  -8.841   4.189  1.00  0.00    -0.000 C 
BRANCH  13  14
ATOM     14  C   UNL     1      -7.483  -9.159   4.508  1.00  0.00    -0.000 C 
BRANCH  14  15
ATOM     15  C   UNL     1      -7.160  -9.025   6.003  1.00  0.00    -0.003 C 
ATOM     16  C   UNL     1      -6.011  -8.047   6.231  1.00  0.00     0.004 C 
ENDBRANCH  14  15
ENDBRANCH  13  14
ENDBRANCH  12  13
ENDBRANCH  11  12
ENDBRANCH  10  11
ENDBRANCH   1  10
TORSDOF 12
ENDMDL
