MODEL 1
REMARK VINA RESULT:    -4.516      0.000      0.000
REMARK INTER + INTRA:          -6.872
REMARK INTER:                  -6.101
REMARK INTRA:                  -0.772
REMARK UNBOUND:                -0.772
REMARK SMILES CC(=O)CCC=C(C)CCC=C(C)C
REMARK SMILES IDX 7 1 6 2 8 3 9 4 10 5 11 6 13 7 12 8 14 9 5 10 4 11 2 12 3 13
REMARK SMILES IDX 1 14
REMARK H PARENT
REMARK Flexibility Score: inf
ROOT
ATOM      1  C   UNL     1       1.967   0.495  24.747  1.00  0.00    -0.077 C 
ATOM      2  C   UNL     1       2.935   1.432  24.650  1.00  0.00    -0.028 C 
ATOM      3  C   UNL     1       1.013   0.227  23.607  1.00  0.00     0.039 C 
ENDROOT
BRANCH   1   4
ATOM      4  C   UNL     1       1.834  -0.305  26.027  1.00  0.00     0.034 C 
BRANCH   4   5
ATOM      5  C   UNL     1       0.542  -1.134  26.052  1.00  0.00     0.032 C 
BRANCH   5   6
ATOM      6  C   UNL     1      -0.434  -0.621  27.084  1.00  0.00    -0.028 C 
ATOM      7  C   UNL     1      -2.584   0.169  27.973  1.00  0.00     0.039 C 
ATOM      8  C   UNL     1      -1.715  -0.279  26.826  1.00  0.00    -0.080 C 
ATOM      9  C   UNL     1      -2.289  -0.317  25.428  1.00  0.00     0.039 C 
ENDBRANCH   5   6
ENDBRANCH   4   5
ENDBRANCH   1   4
BRANCH   2  10
ATOM     10  C   UNL     1       3.148   2.272  23.411  1.00  0.00     0.035 C 
BRANCH  10  11
ATOM     11  C   UNL     1       2.481   3.650  23.524  1.00  0.00     0.079 C 
BRANCH  11  12
ATOM     12  C   UNL     1       1.640   3.964  22.314  1.00  0.00     0.130 C 
ATOM     13  O   UNL     1       2.136   3.899  21.199  1.00  0.00    -0.300 OA
ATOM     14  C   UNL     1       0.209   4.388  22.458  1.00  0.00     0.087 C 
ENDBRANCH  11  12
ENDBRANCH  10  11
ENDBRANCH   2  10
TORSDOF 6
ENDMDL
MODEL 2
REMARK VINA RESULT:    -4.195      2.164      5.691
REMARK INTER + INTRA:          -6.438
REMARK INTER:                  -5.645
REMARK INTRA:                  -0.793
REMARK UNBOUND:                -0.772
REMARK SMILES CC(=O)CCC=C(C)CCC=C(C)C
REMARK SMILES IDX 7 1 6 2 8 3 9 4 10 5 11 6 13 7 12 8 14 9 5 10 4 11 2 12 3 13
REMARK SMILES IDX 1 14
REMARK H PARENT
REMARK Flexibility Score: inf
ROOT
ATOM      1  C   UNL     1       2.777   0.726  24.193  1.00  0.00    -0.077 C 
ATOM      2  C   UNL     1       1.983   0.464  25.253  1.00  0.00    -0.028 C 
ATOM      3  C   UNL     1       2.626  -0.024  22.890  1.00  0.00     0.039 C 
ENDROOT
BRANCH   1   4
ATOM      4  C   UNL     1       3.844   1.795  24.311  1.00  0.00     0.034 C 
BRANCH   4   5
ATOM      5  C   UNL     1       3.726   2.847  23.198  1.00  0.00     0.032 C 
BRANCH   5   6
ATOM      6  C   UNL     1       2.436   3.627  23.298  1.00  0.00    -0.028 C 
ATOM      7  C   UNL     1       0.298   4.574  22.545  1.00  0.00     0.039 C 
ATOM      8  C   UNL     1       1.572   3.814  22.277  1.00  0.00    -0.080 C 
ATOM      9  C   UNL     1       1.855   3.303  20.883  1.00  0.00     0.039 C 
ENDBRANCH   5   6
ENDBRANCH   4   5
ENDBRANCH   1   4
BRANCH   2  10
ATOM     10  C   UNL     1       0.888  -0.577  25.225  1.00  0.00     0.035 C 
BRANCH  10  11
ATOM     11  C   UNL     1       0.288  -0.824  26.616  1.00  0.00     0.079 C 
BRANCH  11  12
ATOM     12  C   UNL     1      -1.159  -0.409  26.683  1.00  0.00     0.130 C 
ATOM     13  O   UNL     1      -1.836  -0.406  25.666  1.00  0.00    -0.300 OA
ATOM     14  C   UNL     1      -1.776   0.033  27.976  1.00  0.00     0.087 C 
ENDBRANCH  11  12
ENDBRANCH  10  11
ENDBRANCH   2  10
TORSDOF 6
ENDMDL
MODEL 3
REMARK VINA RESULT:    -4.083      8.113     10.674
REMARK INTER + INTRA:          -6.286
REMARK INTER:                  -5.226
REMARK INTRA:                  -1.060
REMARK UNBOUND:                -0.772
REMARK SMILES CC(=O)CCC=C(C)CCC=C(C)C
REMARK SMILES IDX 7 1 6 2 8 3 9 4 10 5 11 6 13 7 12 8 14 9 5 10 4 11 2 12 3 13
REMARK SMILES IDX 1 14
REMARK H PARENT
REMARK Flexibility Score: inf
ROOT
ATOM      1  C   UNL     1       0.959  -2.252  16.298  1.00  0.00    -0.077 C 
ATOM      2  C   UNL     1       0.842  -3.596  16.372  1.00  0.00    -0.028 C 
ATOM      3  C   UNL     1       0.821  -1.381  17.524  1.00  0.00     0.039 C 
ENDROOT
BRANCH   1   4
ATOM      4  C   UNL     1       1.231  -1.604  14.956  1.00  0.00     0.034 C 
BRANCH   4   5
ATOM      5  C   UNL     1       2.600  -2.012  14.391  1.00  0.00     0.032 C 
BRANCH   5   6
ATOM      6  C   UNL     1       3.736  -1.389  15.168  1.00  0.00    -0.028 C 
ATOM      7  C   UNL     1       5.762  -1.324  16.556  1.00  0.00     0.039 C 
ATOM      8  C   UNL     1       4.654  -2.085  15.874  1.00  0.00    -0.080 C 
ATOM      9  C   UNL     1       4.591  -3.589  16.010  1.00  0.00     0.039 C 
ENDBRANCH   5   6
ENDBRANCH   4   5
ENDBRANCH   1   4
BRANCH   2  10
ATOM     10  C   UNL     1       0.579  -4.330  17.667  1.00  0.00     0.035 C 
BRANCH  10  11
ATOM     11  C   UNL     1      -0.915  -4.602  17.885  1.00  0.00     0.079 C 
BRANCH  11  12
ATOM     12  C   UNL     1      -1.378  -4.131  19.239  1.00  0.00     0.130 C 
ATOM     13  O   UNL     1      -2.491  -3.645  19.363  1.00  0.00    -0.300 OA
ATOM     14  C   UNL     1      -0.478  -4.222  20.436  1.00  0.00     0.087 C 
ENDBRANCH  11  12
ENDBRANCH  10  11
ENDBRANCH   2  10
TORSDOF 6
ENDMDL
MODEL 4
REMARK VINA RESULT:    -4.081      7.860     10.158
REMARK INTER + INTRA:          -6.284
REMARK INTER:                  -5.305
REMARK INTRA:                  -0.980
REMARK UNBOUND:                -0.772
REMARK SMILES CC(=O)CCC=C(C)CCC=C(C)C
REMARK SMILES IDX 7 1 6 2 8 3 9 4 10 5 11 6 13 7 12 8 14 9 5 10 4 11 2 12 3 13
REMARK SMILES IDX 1 14
REMARK H PARENT
REMARK Flexibility Score: inf
ROOT
ATOM      1  C   UNL     1       1.129  -2.465  16.252  1.00  0.00    -0.077 C 
ATOM      2  C   UNL     1       0.703  -3.741  16.369  1.00  0.00    -0.028 C 
ATOM      3  C   UNL     1       1.517  -1.650  17.463  1.00  0.00     0.039 C 
ENDROOT
BRANCH   1   4
ATOM      4  C   UNL     1       1.218  -1.835  14.877  1.00  0.00     0.034 C 
BRANCH   4   5
ATOM      5  C   UNL     1       1.141  -0.303  14.943  1.00  0.00     0.032 C 
BRANCH   5   6
ATOM      6  C   UNL     1      -0.162   0.218  14.386  1.00  0.00    -0.028 C 
ATOM      7  C   UNL     1      -2.398   1.235  14.429  1.00  0.00     0.039 C 
ATOM      8  C   UNL     1      -1.178   0.702  15.134  1.00  0.00    -0.080 C 
ATOM      9  C   UNL     1      -1.129   0.707  16.645  1.00  0.00     0.039 C 
ENDBRANCH   5   6
ENDBRANCH   4   5
ENDBRANCH   1   4
BRANCH   2  10
ATOM     10  C   UNL     1       0.589  -4.454  17.697  1.00  0.00     0.035 C 
BRANCH  10  11
ATOM     11  C   UNL     1      -0.867  -4.578  18.165  1.00  0.00     0.079 C 
BRANCH  11  12
ATOM     12  C   UNL     1      -1.108  -3.824  19.447  1.00  0.00     0.130 C 
ATOM     13  O   UNL     1      -0.850  -4.352  20.518  1.00  0.00    -0.300 OA
ATOM     14  C   UNL     1      -1.691  -2.442  19.431  1.00  0.00     0.087 C 
ENDBRANCH  11  12
ENDBRANCH  10  11
ENDBRANCH   2  10
TORSDOF 6
ENDMDL
MODEL 5
REMARK VINA RESULT:    -4.055      8.579     10.019
REMARK INTER + INTRA:          -6.249
REMARK INTER:                  -5.256
REMARK INTRA:                  -0.993
REMARK UNBOUND:                -0.772
REMARK SMILES CC(=O)CCC=C(C)CCC=C(C)C
REMARK SMILES IDX 7 1 6 2 8 3 9 4 10 5 11 6 13 7 12 8 14 9 5 10 4 11 2 12 3 13
REMARK SMILES IDX 1 14
REMARK H PARENT
REMARK Flexibility Score: inf
ROOT
ATOM      1  C   UNL     1       1.374  -0.996  15.107  1.00  0.00    -0.077 C 
ATOM      2  C   UNL     1       0.163  -0.462  14.841  1.00  0.00    -0.028 C 
ATOM      3  C   UNL     1       2.528  -0.141  15.575  1.00  0.00     0.039 C 
ENDROOT
BRANCH   1   4
ATOM      4  C   UNL     1       1.583  -2.487  14.930  1.00  0.00     0.034 C 
BRANCH   4   5
ATOM      5  C   UNL     1       1.899  -3.182  16.262  1.00  0.00     0.032 C 
BRANCH   5   6
ATOM      6  C   UNL     1       0.782  -4.101  16.695  1.00  0.00    -0.028 C 
ATOM      7  C   UNL     1      -1.245  -4.790  17.901  1.00  0.00     0.039 C 
ATOM      8  C   UNL     1      -0.161  -3.784  17.610  1.00  0.00    -0.080 C 
ATOM      9  C   UNL     1      -0.145  -2.470  18.355  1.00  0.00     0.039 C 
ENDBRANCH   5   6
ENDBRANCH   4   5
ENDBRANCH   1   4
BRANCH   2  10
ATOM     10  C   UNL     1      -0.140   1.011  14.995  1.00  0.00     0.035 C 
BRANCH  10  11
ATOM     11  C   UNL     1      -0.722   1.620  13.713  1.00  0.00     0.079 C 
BRANCH  11  12
ATOM     12  C   UNL     1       0.313   1.728  12.624  1.00  0.00     0.130 C 
ATOM     13  O   UNL     1       0.051   1.333  11.498  1.00  0.00    -0.300 OA
ATOM     14  C   UNL     1       1.676   2.286  12.908  1.00  0.00     0.087 C 
ENDBRANCH  11  12
ENDBRANCH  10  11
ENDBRANCH   2  10
TORSDOF 6
ENDMDL
MODEL 6
REMARK VINA RESULT:    -4.032      7.311      9.584
REMARK INTER + INTRA:          -6.217
REMARK INTER:                  -5.131
REMARK INTRA:                  -1.086
REMARK UNBOUND:                -0.772
REMARK SMILES CC(=O)CCC=C(C)CCC=C(C)C
REMARK SMILES IDX 7 1 6 2 8 3 9 4 10 5 11 6 13 7 12 8 14 9 5 10 4 11 2 12 3 13
REMARK SMILES IDX 1 14
REMARK H PARENT
REMARK Flexibility Score: inf
ROOT
ATOM      1  C   UNL     1       0.697  -3.915  17.441  1.00  0.00    -0.077 C 
ATOM      2  C   UNL     1      -0.556  -4.183  17.866  1.00  0.00    -0.028 C 
ATOM      3  C   UNL     1       1.839  -3.739  18.414  1.00  0.00     0.039 C 
ENDROOT
BRANCH   1   4
ATOM      4  C   UNL     1       0.965  -3.786  15.955  1.00  0.00     0.034 C 
BRANCH   4   5
ATOM      5  C   UNL     1       1.811  -2.545  15.632  1.00  0.00     0.032 C 
BRANCH   5   6
ATOM      6  C   UNL     1       1.034  -1.531  14.827  1.00  0.00    -0.028 C 
ATOM      7  C   UNL     1      -0.323   0.476  14.417  1.00  0.00     0.039 C 
ATOM      8  C   UNL     1       0.364  -0.483  15.355  1.00  0.00    -0.080 C 
ATOM      9  C   UNL     1       0.273  -0.259  16.847  1.00  0.00     0.039 C 
ENDBRANCH   5   6
ENDBRANCH   4   5
ENDBRANCH   1   4
BRANCH   2  10
ATOM     10  C   UNL     1      -0.916  -4.337  19.326  1.00  0.00     0.035 C 
BRANCH  10  11
ATOM     11  C   UNL     1      -2.025  -3.367  19.754  1.00  0.00     0.079 C 
BRANCH  11  12
ATOM     12  C   UNL     1      -1.518  -1.953  19.866  1.00  0.00     0.130 C 
ATOM     13  O   UNL     1      -0.429  -1.739  20.377  1.00  0.00    -0.300 OA
ATOM     14  C   UNL     1      -2.345  -0.797  19.388  1.00  0.00     0.087 C 
ENDBRANCH  11  12
ENDBRANCH  10  11
ENDBRANCH   2  10
TORSDOF 6
ENDMDL
MODEL 7
REMARK VINA RESULT:    -4.029      7.909     10.388
REMARK INTER + INTRA:          -6.214
REMARK INTER:                  -4.776
REMARK INTRA:                  -1.439
REMARK UNBOUND:                -0.772
REMARK SMILES CC(=O)CCC=C(C)CCC=C(C)C
REMARK SMILES IDX 7 1 6 2 8 3 9 4 10 5 11 6 13 7 12 8 14 9 5 10 4 11 2 12 3 13
REMARK SMILES IDX 1 14
REMARK H PARENT
REMARK Flexibility Score: inf
ROOT
ATOM      1  C   UNL     1       0.910  -2.470  16.140  1.00  0.00    -0.077 C 
ATOM      2  C   UNL     1       0.725  -3.731  16.587  1.00  0.00    -0.028 C 
ATOM      3  C   UNL     1       0.554  -1.273  16.989  1.00  0.00     0.039 C 
ENDROOT
BRANCH   1   4
ATOM      4  C   UNL     1       1.484  -2.251  14.755  1.00  0.00     0.034 C 
BRANCH   4   5
ATOM      5  C   UNL     1       2.883  -1.620  14.809  1.00  0.00     0.032 C 
BRANCH   5   6
ATOM      6  C   UNL     1       3.936  -2.624  15.215  1.00  0.00    -0.028 C 
ATOM      7  C   UNL     1       5.548  -3.743  16.694  1.00  0.00     0.039 C 
ATOM      8  C   UNL     1       4.553  -2.645  16.417  1.00  0.00    -0.080 C 
ATOM      9  C   UNL     1       4.288  -1.597  17.473  1.00  0.00     0.039 C 
ENDBRANCH   5   6
ENDBRANCH   4   5
ENDBRANCH   1   4
BRANCH   2  10
ATOM     10  C   UNL     1       0.166  -4.047  17.955  1.00  0.00     0.035 C 
BRANCH  10  11
ATOM     11  C   UNL     1       1.119  -4.920  18.783  1.00  0.00     0.079 C 
BRANCH  11  12
ATOM     12  C   UNL     1       2.230  -4.108  19.396  1.00  0.00     0.130 C 
ATOM     13  O   UNL     1       3.377  -4.528  19.362  1.00  0.00    -0.300 OA
ATOM     14  C   UNL     1       1.947  -2.802  20.076  1.00  0.00     0.087 C 
ENDBRANCH  11  12
ENDBRANCH  10  11
ENDBRANCH   2  10
TORSDOF 6
ENDMDL
MODEL 8
REMARK VINA RESULT:    -3.958      8.896     11.395
REMARK INTER + INTRA:          -6.118
REMARK INTER:                  -5.406
REMARK INTRA:                  -0.713
REMARK UNBOUND:                -0.772
REMARK SMILES CC(=O)CCC=C(C)CCC=C(C)C
REMARK SMILES IDX 7 1 6 2 8 3 9 4 10 5 11 6 13 7 12 8 14 9 5 10 4 11 2 12 3 13
REMARK SMILES IDX 1 14
REMARK H PARENT
REMARK Flexibility Score: inf
ROOT
ATOM      1  C   UNL     1       2.745  -2.260  15.094  1.00  0.00    -0.077 C 
ATOM      2  C   UNL     1       1.438  -2.597  15.147  1.00  0.00    -0.028 C 
ATOM      3  C   UNL     1       3.776  -2.964  15.945  1.00  0.00     0.039 C 
ENDROOT
BRANCH   1   4
ATOM      4  C   UNL     1       3.188  -1.150  14.162  1.00  0.00     0.034 C 
BRANCH   4   5
ATOM      5  C   UNL     1       2.531   0.192  14.518  1.00  0.00     0.032 C 
BRANCH   5   6
ATOM      6  C   UNL     1       1.875   0.831  13.316  1.00  0.00    -0.028 C 
ATOM      7  C   UNL     1       0.040   1.704  11.935  1.00  0.00     0.039 C 
ATOM      8  C   UNL     1       0.542   1.001  13.170  1.00  0.00    -0.080 C 
ATOM      9  C   UNL     1      -0.448   0.495  14.193  1.00  0.00     0.039 C 
ENDBRANCH   5   6
ENDBRANCH   4   5
ENDBRANCH   1   4
BRANCH   2  10
ATOM     10  C   UNL     1       0.906  -3.695  16.040  1.00  0.00     0.035 C 
BRANCH  10  11
ATOM     11  C   UNL     1       0.225  -3.139  17.298  1.00  0.00     0.079 C 
BRANCH  11  12
ATOM     12  C   UNL     1      -0.355  -4.237  18.151  1.00  0.00     0.130 C 
ATOM     13  O   UNL     1      -1.278  -4.914  17.722  1.00  0.00    -0.300 OA
ATOM     14  C   UNL     1       0.163  -4.494  19.534  1.00  0.00     0.087 C 
ENDBRANCH  11  12
ENDBRANCH  10  11
ENDBRANCH   2  10
TORSDOF 6
ENDMDL
MODEL 9
REMARK VINA RESULT:    -3.911      6.983      8.222
REMARK INTER + INTRA:          -6.055
REMARK INTER:                  -5.022
REMARK INTRA:                  -1.033
REMARK UNBOUND:                -0.772
REMARK SMILES CC(=O)CCC=C(C)CCC=C(C)C
REMARK SMILES IDX 7 1 6 2 8 3 9 4 10 5 11 6 13 7 12 8 14 9 5 10 4 11 2 12 3 13
REMARK SMILES IDX 1 14
REMARK H PARENT
REMARK Flexibility Score: inf
ROOT
ATOM      1  C   UNL     1      -0.648  -3.562  18.271  1.00  0.00    -0.077 C 
ATOM      2  C   UNL     1       0.451  -3.030  17.695  1.00  0.00    -0.028 C 
ATOM      3  C   UNL     1      -1.200  -4.898  17.830  1.00  0.00     0.039 C 
ENDROOT
BRANCH   1   4
ATOM      4  C   UNL     1      -1.345  -2.804  19.383  1.00  0.00     0.034 C 
BRANCH   4   5
ATOM      5  C   UNL     1      -0.438  -2.625  20.609  1.00  0.00     0.032 C 
BRANCH   5   6
ATOM      6  C   UNL     1      -0.476  -3.833  21.515  1.00  0.00    -0.028 C 
ATOM      7  C   UNL     1       0.362  -5.857  22.627  1.00  0.00     0.039 C 
ATOM      8  C   UNL     1       0.527  -4.729  21.641  1.00  0.00    -0.080 C 
ATOM      9  C   UNL     1       1.789  -4.642  20.814  1.00  0.00     0.039 C 
ENDBRANCH   5   6
ENDBRANCH   4   5
ENDBRANCH   1   4
BRANCH   2  10
ATOM     10  C   UNL     1       1.215  -3.717  16.586  1.00  0.00     0.035 C 
BRANCH  10  11
ATOM     11  C   UNL     1       0.981  -3.052  15.223  1.00  0.00     0.079 C 
BRANCH  11  12
ATOM     12  C   UNL     1       1.447  -1.620  15.212  1.00  0.00     0.130 C 
ATOM     13  O   UNL     1       2.601  -1.356  15.512  1.00  0.00    -0.300 OA
ATOM     14  C   UNL     1       0.505  -0.505  14.866  1.00  0.00     0.087 C 
ENDBRANCH  11  12
ENDBRANCH  10  11
ENDBRANCH   2  10
TORSDOF 6
ENDMDL
