MODEL 1
REMARK VINA RESULT:    -3.585      0.000      0.000
REMARK INTER + INTRA:          -4.422
REMARK INTER:                  -4.318
REMARK INTRA:                  -0.104
REMARK UNBOUND:                -0.104
REMARK SMILES CC[C@H](C)[C@H]([NH3+])C(=O)[O-]
REMARK SMILES IDX 3 1 4 2 5 3 6 4 7 8 8 9 9 10 2 11 1 12
REMARK H PARENT 6 5 6 6 6 7
REMARK Flexibility Score: inf
ROOT
ATOM      1  C   UNL     1      36.607  15.031 135.574  1.00  0.00     0.050 C 
ATOM      2  C   UNL     1      35.413  14.057 135.563  1.00  0.00     0.014 C 
ENDROOT
BRANCH   1   3
ATOM      3  C   UNL     1      36.418  16.270 136.506  1.00  0.00     0.230 C 
BRANCH   3   4
ATOM      4  N   UNL     1      37.123  16.099 137.785  1.00  0.00    -0.350 N 
ATOM      5  H   UNL     1      37.816  16.872 137.909  1.00  0.00     0.345 HD
ATOM      6  H   UNL     1      37.647  15.193 137.790  1.00  0.00     0.345 HD
ATOM      7  H   UNL     1      36.459  16.117 138.592  1.00  0.00     0.345 HD
ENDBRANCH   3   4
BRANCH   3   8
ATOM      8  C   UNL     1      34.976  16.635 136.753  1.00  0.00     0.099 C 
ATOM      9  O   UNL     1      34.320  17.292 135.900  1.00  0.00    -0.544 OA
ATOM     10  O   UNL     1      34.351  16.228 137.925  1.00  0.00    -0.544 OA
ENDBRANCH   3   8
ENDBRANCH   1   3
BRANCH   1  11
ATOM     11  C   UNL     1      37.086  15.402 134.143  1.00  0.00     0.006 C 
ATOM     12  C   UNL     1      35.982  15.807 133.159  1.00  0.00     0.004 C 
ENDBRANCH   1  11
TORSDOF 4
ENDMDL
MODEL 2
REMARK VINA RESULT:    -3.567      2.690      3.373
REMARK INTER + INTRA:          -4.401
REMARK INTER:                  -4.323
REMARK INTRA:                  -0.079
REMARK UNBOUND:                -0.104
REMARK SMILES CC[C@H](C)[C@H]([NH3+])C(=O)[O-]
REMARK SMILES IDX 3 1 4 2 5 3 6 4 7 8 8 9 9 10 2 11 1 12
REMARK H PARENT 6 5 6 6 6 7
REMARK Flexibility Score: inf
ROOT
ATOM      1  C   UNL     1      34.851  15.876 137.754  1.00  0.00     0.050 C 
ATOM      2  C   UNL     1      35.199  14.396 138.004  1.00  0.00     0.014 C 
ENDROOT
BRANCH   1   3
ATOM      3  C   UNL     1      33.325  16.156 137.569  1.00  0.00     0.230 C 
BRANCH   3   4
ATOM      4  N   UNL     1      32.620  16.193 138.859  1.00  0.00    -0.350 N 
ATOM      5  H   UNL     1      33.296  15.994 139.632  1.00  0.00     0.345 HD
ATOM      6  H   UNL     1      31.876  15.458 138.885  1.00  0.00     0.345 HD
ATOM      7  H   UNL     1      32.186  17.129 139.029  1.00  0.00     0.345 HD
ENDBRANCH   3   4
BRANCH   3   8
ATOM      8  C   UNL     1      32.638  15.198 136.628  1.00  0.00     0.099 C 
ATOM      9  O   UNL     1      31.818  14.344 137.061  1.00  0.00    -0.544 OA
ATOM     10  O   UNL     1      32.892  15.267 135.264  1.00  0.00    -0.544 OA
ENDBRANCH   3   8
ENDBRANCH   1   3
BRANCH   1  11
ATOM     11  C   UNL     1      35.734  16.517 136.648  1.00  0.00     0.006 C 
ATOM     12  C   UNL     1      37.125  15.898 136.469  1.00  0.00     0.004 C 
ENDBRANCH   1  11
TORSDOF 4
ENDMDL
MODEL 3
REMARK VINA RESULT:    -3.521     14.347     15.432
REMARK INTER + INTRA:          -4.345
REMARK INTER:                  -4.264
REMARK INTRA:                  -0.081
REMARK UNBOUND:                -0.104
REMARK SMILES CC[C@H](C)[C@H]([NH3+])C(=O)[O-]
REMARK SMILES IDX 3 1 4 2 5 3 6 4 7 8 8 9 9 10 2 11 1 12
REMARK H PARENT 6 5 6 6 6 7
REMARK Flexibility Score: inf
ROOT
ATOM      1  C   UNL     1      28.754   3.367 141.238  1.00  0.00     0.050 C 
ATOM      2  C   UNL     1      28.655   4.187 139.938  1.00  0.00     0.014 C 
ENDROOT
BRANCH   1   3
ATOM      3  C   UNL     1      29.571   4.060 142.376  1.00  0.00     0.230 C 
BRANCH   3   4
ATOM      4  N   UNL     1      30.279   3.078 143.211  1.00  0.00    -0.350 N 
ATOM      5  H   UNL     1      30.885   2.477 142.606  1.00  0.00     0.345 HD
ATOM      6  H   UNL     1      29.592   2.456 143.697  1.00  0.00     0.345 HD
ATOM      7  H   UNL     1      30.882   3.548 143.923  1.00  0.00     0.345 HD
ENDBRANCH   3   4
BRANCH   3   8
ATOM      8  C   UNL     1      28.751   4.983 143.242  1.00  0.00     0.099 C 
ATOM      9  O   UNL     1      27.827   4.534 143.971  1.00  0.00    -0.544 OA
ATOM     10  O   UNL     1      29.028   6.345 143.255  1.00  0.00    -0.544 OA
ENDBRANCH   3   8
ENDBRANCH   1   3
BRANCH   1  11
ATOM     11  C   UNL     1      29.179   1.894 140.983  1.00  0.00     0.006 C 
ATOM     12  C   UNL     1      28.034   0.911 140.715  1.00  0.00     0.004 C 
ENDBRANCH   1  11
TORSDOF 4
ENDMDL
MODEL 4
REMARK VINA RESULT:    -3.450      2.339      3.584
REMARK INTER + INTRA:          -4.260
REMARK INTER:                  -4.133
REMARK INTRA:                  -0.127
REMARK UNBOUND:                -0.104
REMARK SMILES CC[C@H](C)[C@H]([NH3+])C(=O)[O-]
REMARK SMILES IDX 3 1 4 2 5 3 6 4 7 8 8 9 9 10 2 11 1 12
REMARK H PARENT 6 5 6 6 6 7
REMARK Flexibility Score: inf
ROOT
ATOM      1  C   UNL     1      34.674  16.491 137.441  1.00  0.00     0.050 C 
ATOM      2  C   UNL     1      34.405  17.033 136.024  1.00  0.00     0.014 C 
ENDROOT
BRANCH   1   3
ATOM      3  C   UNL     1      35.782  15.392 137.511  1.00  0.00     0.230 C 
BRANCH   3   4
ATOM      4  N   UNL     1      37.123  15.982 137.639  1.00  0.00    -0.350 N 
ATOM      5  H   UNL     1      37.152  16.897 137.132  1.00  0.00     0.345 HD
ATOM      6  H   UNL     1      37.837  15.352 137.206  1.00  0.00     0.345 HD
ATOM      7  H   UNL     1      37.373  16.149 138.640  1.00  0.00     0.345 HD
ENDBRANCH   3   4
BRANCH   3   8
ATOM      8  C   UNL     1      35.750  14.418 136.360  1.00  0.00     0.099 C 
ATOM      9  O   UNL     1      36.720  14.331 135.561  1.00  0.00    -0.544 OA
ATOM     10  O   UNL     1      34.648  13.589 136.188  1.00  0.00    -0.544 OA
ENDBRANCH   3   8
ENDBRANCH   1   3
BRANCH   1  11
ATOM     11  C   UNL     1      33.368  16.099 138.186  1.00  0.00     0.006 C 
ATOM     12  C   UNL     1      32.084  16.160 137.351  1.00  0.00     0.004 C 
ENDBRANCH   1  11
TORSDOF 4
ENDMDL
MODEL 5
REMARK VINA RESULT:    -3.441      1.784      2.167
REMARK INTER + INTRA:          -4.249
REMARK INTER:                  -4.203
REMARK INTRA:                  -0.046
REMARK UNBOUND:                -0.104
REMARK SMILES CC[C@H](C)[C@H]([NH3+])C(=O)[O-]
REMARK SMILES IDX 3 1 4 2 5 3 6 4 7 8 8 9 9 10 2 11 1 12
REMARK H PARENT 6 5 6 6 6 7
REMARK Flexibility Score: inf
ROOT
ATOM      1  C   UNL     1      36.481  16.159 136.120  1.00  0.00     0.050 C 
ATOM      2  C   UNL     1      37.123  15.765 137.464  1.00  0.00     0.014 C 
ENDROOT
BRANCH   1   3
ATOM      3  C   UNL     1      34.919  16.113 136.114  1.00  0.00     0.230 C 
BRANCH   3   4
ATOM      4  N   UNL     1      34.337  17.463 136.123  1.00  0.00    -0.350 N 
ATOM      5  H   UNL     1      34.201  17.779 137.111  1.00  0.00     0.345 HD
ATOM      6  H   UNL     1      33.401  17.455 135.656  1.00  0.00     0.345 HD
ATOM      7  H   UNL     1      34.958  18.149 135.637  1.00  0.00     0.345 HD
ENDBRANCH   3   4
BRANCH   3   8
ATOM      8  C   UNL     1      34.328  15.285 137.227  1.00  0.00     0.099 C 
ATOM      9  O   UNL     1      34.348  14.026 137.177  1.00  0.00    -0.544 OA
ATOM     10  O   UNL     1      33.771  15.913 138.334  1.00  0.00    -0.544 OA
ENDBRANCH   3   8
ENDBRANCH   1   3
BRANCH   1  11
ATOM     11  C   UNL     1      37.125  15.421 134.913  1.00  0.00     0.006 C 
ATOM     12  C   UNL     1      36.530  15.752 133.540  1.00  0.00     0.004 C 
ENDBRANCH   1  11
TORSDOF 4
ENDMDL
MODEL 6
REMARK VINA RESULT:    -3.374      3.345      4.092
REMARK INTER + INTRA:          -4.168
REMARK INTER:                  -4.089
REMARK INTRA:                  -0.080
REMARK UNBOUND:                -0.104
REMARK SMILES CC[C@H](C)[C@H]([NH3+])C(=O)[O-]
REMARK SMILES IDX 3 1 4 2 5 3 6 4 7 8 8 9 9 10 2 11 1 12
REMARK H PARENT 6 5 6 6 6 7
REMARK Flexibility Score: inf
ROOT
ATOM      1  C   UNL     1      32.555  16.059 137.350  1.00  0.00     0.050 C 
ATOM      2  C   UNL     1      31.415  16.611 138.227  1.00  0.00     0.014 C 
ENDROOT
BRANCH   1   3
ATOM      3  C   UNL     1      33.881  15.770 138.124  1.00  0.00     0.230 C 
BRANCH   3   4
ATOM      4  N   UNL     1      34.908  16.782 137.838  1.00  0.00    -0.350 N 
ATOM      5  H   UNL     1      34.451  17.712 137.692  1.00  0.00     0.345 HD
ATOM      6  H   UNL     1      35.424  16.537 136.961  1.00  0.00     0.345 HD
ATOM      7  H   UNL     1      35.590  16.867 138.626  1.00  0.00     0.345 HD
ENDBRANCH   3   4
BRANCH   3   8
ATOM      8  C   UNL     1      34.436  14.387 137.890  1.00  0.00     0.099 C 
ATOM      9  O   UNL     1      35.629  14.111 138.185  1.00  0.00    -0.544 OA
ATOM     10  O   UNL     1      33.618  13.395 137.362  1.00  0.00    -0.544 OA
ENDBRANCH   3   8
ENDBRANCH   1   3
BRANCH   1  11
ATOM     11  C   UNL     1      32.766  16.891 136.054  1.00  0.00     0.006 C 
ATOM     12  C   UNL     1      31.521  17.604 135.515  1.00  0.00     0.004 C 
ENDBRANCH   1  11
TORSDOF 4
ENDMDL
MODEL 7
REMARK VINA RESULT:    -3.361      2.907      3.960
REMARK INTER + INTRA:          -4.152
REMARK INTER:                  -4.088
REMARK INTRA:                  -0.064
REMARK UNBOUND:                -0.104
REMARK SMILES CC[C@H](C)[C@H]([NH3+])C(=O)[O-]
REMARK SMILES IDX 3 1 4 2 5 3 6 4 7 8 8 9 9 10 2 11 1 12
REMARK H PARENT 6 5 6 6 6 7
REMARK Flexibility Score: inf
ROOT
ATOM      1  C   UNL     1      35.985  14.636 137.085  1.00  0.00     0.050 C 
ATOM      2  C   UNL     1      37.063  15.671 137.461  1.00  0.00     0.014 C 
ENDROOT
BRANCH   1   3
ATOM      3  C   UNL     1      35.513  14.710 135.597  1.00  0.00     0.230 C 
BRANCH   3   4
ATOM      4  N   UNL     1      34.410  13.774 135.331  1.00  0.00    -0.350 N 
ATOM      5  H   UNL     1      34.799  12.856 135.016  1.00  0.00     0.345 HD
ATOM      6  H   UNL     1      33.799  14.144 134.566  1.00  0.00     0.345 HD
ATOM      7  H   UNL     1      33.832  13.614 136.186  1.00  0.00     0.345 HD
ENDBRANCH   3   4
BRANCH   3   8
ATOM      8  C   UNL     1      36.620  14.507 134.594  1.00  0.00     0.099 C 
ATOM      9  O   UNL     1      37.125  15.485 133.981  1.00  0.00    -0.544 OA
ATOM     10  O   UNL     1      37.108  13.228 134.353  1.00  0.00    -0.544 OA
ENDBRANCH   3   8
ENDBRANCH   1   3
BRANCH   1  11
ATOM     11  C   UNL     1      34.812  14.600 138.104  1.00  0.00     0.006 C 
ATOM     12  C   UNL     1      33.919  15.845 138.130  1.00  0.00     0.004 C 
ENDBRANCH   1  11
TORSDOF 4
ENDMDL
MODEL 8
REMARK VINA RESULT:    -3.341      1.565      2.247
REMARK INTER + INTRA:          -4.129
REMARK INTER:                  -3.970
REMARK INTRA:                  -0.159
REMARK UNBOUND:                -0.104
REMARK SMILES CC[C@H](C)[C@H]([NH3+])C(=O)[O-]
REMARK SMILES IDX 3 1 4 2 5 3 6 4 7 8 8 9 9 10 2 11 1 12
REMARK H PARENT 6 5 6 6 6 7
REMARK Flexibility Score: inf
ROOT
ATOM      1  C   UNL     1      35.787  16.162 135.650  1.00  0.00     0.050 C 
ATOM      2  C   UNL     1      36.859  15.216 135.075  1.00  0.00     0.014 C 
ENDROOT
BRANCH   1   3
ATOM      3  C   UNL     1      35.773  16.248 137.210  1.00  0.00     0.230 C 
BRANCH   3   4
ATOM      4  N   UNL     1      37.125  16.109 137.772  1.00  0.00    -0.350 N 
ATOM      5  H   UNL     1      37.296  16.874 138.465  1.00  0.00     0.345 HD
ATOM      6  H   UNL     1      37.842  16.194 137.015  1.00  0.00     0.345 HD
ATOM      7  H   UNL     1      37.243  15.190 138.257  1.00  0.00     0.345 HD
ENDBRANCH   3   4
BRANCH   3   8
ATOM      8  C   UNL     1      34.834  15.269 137.867  1.00  0.00     0.099 C 
ATOM      9  O   UNL     1      35.112  14.042 137.920  1.00  0.00    -0.544 OA
ATOM     10  O   UNL     1      33.653  15.725 138.442  1.00  0.00    -0.544 OA
ENDBRANCH   3   8
ENDBRANCH   1   3
BRANCH   1  11
ATOM     11  C   UNL     1      34.382  15.915 135.033  1.00  0.00     0.006 C 
ATOM     12  C   UNL     1      33.484  17.151 134.915  1.00  0.00     0.004 C 
ENDBRANCH   1  11
TORSDOF 4
ENDMDL
