MODEL 1
REMARK VINA RESULT:    -3.168      0.000      0.000
REMARK INTER + INTRA:          -6.380
REMARK INTER:                  -6.686
REMARK INTRA:                   0.306
REMARK UNBOUND:                 0.306
REMARK SMILES CCC(=O)CCCCC[C@H]1NC(=O)[C@H]2CCCCN2C(=O)[C@@H]([C@H](C)CC)NC(=O)[C@@H](Cc2cn(OC)c3ccccc23)NC1=O
REMARK SMILES IDX 9 1 10 2 44 3 43 4 45 6 30 7 28 8 27 9 29 11 22 12 23 14
REMARK SMILES IDX 24 15 25 16 26 17 31 18 32 19 33 20 42 21 34 22 37 23 41 24
REMARK SMILES IDX 38 25 40 26 39 27 35 28 36 29 11 30 12 31 13 33 14 34 19 35
REMARK SMILES IDX 15 36 18 37 16 38 17 39 20 40 21 41 8 43 7 44 6 45 5 46 3 47
REMARK SMILES IDX 4 48 2 49 1 50
REMARK H PARENT 43 5 27 10 11 32
REMARK Flexibility Score: 80.00
ROOT
ATOM      1  C   UNL     1     -15.805  -2.736 -19.166  1.00  0.00     0.035 C 
ENDROOT
BRANCH   1   2
ATOM      2  C   UNL     1     -17.270  -3.165 -18.939  1.00  0.00     0.171 C 
BRANCH   2   3
ATOM      3  C   UNL     1     -18.258  -2.048 -18.680  1.00  0.00     0.243 C 
ATOM      4  N   UNL     1     -17.972  -0.953 -17.794  1.00  0.00    -0.342 N 
ATOM      5  H   UNL     1     -16.987  -0.776 -17.500  1.00  0.00     0.164 HD
ATOM      6  O   UNL     1     -19.397  -2.128 -19.217  1.00  0.00    -0.273 OA
BRANCH   4   7
ATOM      7  C   UNL     1     -19.030  -0.300 -17.020  1.00  0.00     0.175 C 
BRANCH   7   8
ATOM      8  C   UNL     1     -19.189  -1.030 -15.718  1.00  0.00     0.243 C 
ATOM      9  N   UNL     1     -19.195  -2.466 -15.687  1.00  0.00    -0.342 N 
ATOM     10  H   UNL     1     -19.532  -2.954 -16.546  1.00  0.00     0.164 HD
ATOM     11  O   UNL     1     -19.341  -0.365 -14.662  1.00  0.00    -0.273 OA
BRANCH   9  12
ATOM     12  C   UNL     1     -18.413  -3.268 -14.732  1.00  0.00     0.174 CG0
ATOM     13  G   UNL     1     -19.031  -4.654 -14.576  1.00  0.00     0.000 G0
BRANCH  12  14
ATOM     14  C   UNL     1     -16.869  -3.141 -14.966  1.00  0.00     0.018 C 
ATOM     15  C   UNL     1     -16.109  -3.949 -13.895  1.00  0.00     0.010 C 
BRANCH  14  16
ATOM     16  C   UNL     1     -16.322  -1.694 -15.034  1.00  0.00     0.002 C 
ATOM     17  C   UNL     1     -14.931  -1.618 -15.670  1.00  0.00     0.004 C 
ENDBRANCH  14  16
ENDBRANCH  12  14
ENDBRANCH   9  12
ENDBRANCH   7   8
BRANCH   7  18
ATOM     18  C   UNL     1     -18.681   1.179 -16.784  1.00  0.00     0.073 C 
BRANCH  18  19
ATOM     19  C   UNL     1     -19.233   2.046 -17.879  1.00  0.00    -0.016 A 
ATOM     20  C   UNL     1     -19.471   1.659 -19.195  1.00  0.00     0.134 A 
ATOM     21  C   UNL     1     -19.379   3.423 -17.860  1.00  0.00     0.006 A 
ATOM     22  N   UNL     1     -19.792   2.738 -19.940  1.00  0.00    -0.191 N 
ATOM     23  C   UNL     1     -19.713   3.815 -19.134  1.00  0.00     0.087 A 
ATOM     24  C   UNL     1     -19.153   4.349 -16.842  1.00  0.00     0.011 A 
ATOM     25  C   UNL     1     -19.813   5.166 -19.478  1.00  0.00     0.030 A 
ATOM     26  C   UNL     1     -19.281   5.713 -17.153  1.00  0.00     0.001 A 
ATOM     27  C   UNL     1     -19.605   6.120 -18.466  1.00  0.00     0.002 A 
BRANCH  22  28
ATOM     28  O   UNL     1     -19.986   2.725 -21.307  1.00  0.00    -0.417 OA
ATOM     29  C   UNL     1     -19.131   3.447 -22.182  1.00  0.00     0.313 C 
ENDBRANCH  22  28
ENDBRANCH  18  19
ENDBRANCH   7  18
ENDBRANCH   4   7
ENDBRANCH   2   3
BRANCH   2  30
ATOM     30  N   UNL     1     -17.371  -4.180 -17.881  1.00  0.00    -0.343 N 
ATOM     31  C   UNL     1     -18.584  -4.851 -17.491  1.00  0.00     0.243 C 
ATOM     32  H   UNL     1     -16.474  -4.502 -17.453  1.00  0.00     0.164 HD
ATOM     33  O   UNL     1     -19.705  -4.394 -17.835  1.00  0.00    -0.273 OA
BRANCH  31  34
ATOM     34  C   UNL     1     -18.508  -6.118 -16.665  1.00  0.00     0.174 C 
ATOM     35  N   UNL     1     -18.443  -5.866 -15.208  1.00  0.00    -0.329 N 
ATOM     36  C   UNL     1     -17.299  -6.967 -17.094  1.00  0.00     0.035 C 
ATOM     37  C   UNL     1     -18.404  -7.075 -14.373  1.00  0.00     0.120 C 
ATOM     38  C   UNL     1     -17.232  -8.260 -16.270  1.00  0.00     0.004 C 
ATOM     39  C   UNL     1     -17.214  -7.955 -14.768  1.00  0.00     0.022 C 
BRANCH  35  40
ATOM     40  C   UNL     1     -19.036  -4.678 -14.646  1.00  0.00     0.246 CG0
ATOM     41  O   UNL     1     -20.125  -4.788 -14.020  1.00  0.00    -0.272 OA
ATOM     42  G   UNL     1     -18.397  -3.294 -14.712  1.00  0.00     0.000 G0
ENDBRANCH  35  40
ENDBRANCH  31  34
ENDBRANCH   2  30
ENDBRANCH   1   2
BRANCH   1  43
ATOM     43  C   UNL     1     -15.558  -2.269 -20.612  1.00  0.00     0.003 C 
BRANCH  43  44
ATOM     44  C   UNL     1     -16.401  -1.041 -20.988  1.00  0.00     0.001 C 
BRANCH  44  45
ATOM     45  C   UNL     1     -17.260  -1.284 -22.239  1.00  0.00     0.008 C 
BRANCH  45  46
ATOM     46  C   UNL     1     -18.120  -0.054 -22.564  1.00  0.00     0.075 C 
BRANCH  46  47
ATOM     47  C   UNL     1     -19.115  -0.261 -23.687  1.00  0.00     0.132 C 
ATOM     48  O   UNL     1     -19.704   0.721 -24.114  1.00  0.00    -0.300 OA
BRANCH  47  49
ATOM     49  C   UNL     1     -19.395  -1.627 -24.285  1.00  0.00     0.072 C 
ATOM     50  C   UNL     1     -19.861  -1.566 -25.740  1.00  0.00     0.012 C 
ENDBRANCH  47  49
ENDBRANCH  46  47
ENDBRANCH  45  46
ENDBRANCH  44  45
ENDBRANCH  43  44
ENDBRANCH   1  43
TORSDOF 12
ENDMDL
