MODEL 1
REMARK VINA RESULT:    -4.876      0.000      0.000
REMARK INTER + INTRA:          -7.579
REMARK INTER:                  -6.872
REMARK INTRA:                  -0.708
REMARK UNBOUND:                -0.708
REMARK SMILES CC(=O)OCC[C@@H](C)CCC=C(C)C
REMARK SMILES IDX 8 1 7 2 9 3 10 4 11 5 12 6 13 7 14 8 6 9 5 10 4 11 2 12 3 13
REMARK SMILES IDX 1 14
REMARK H PARENT
REMARK Flexibility Score: inf
ROOT
ATOM      1  C   UNL     1      -9.129  -4.625   5.287  1.00  0.00     0.008 C 
ATOM      2  C   UNL     1      -9.224  -6.022   4.656  1.00  0.00    -0.011 C 
ENDROOT
BRANCH   2   3
ATOM      3  C   UNL     1      -9.517  -5.903   3.138  1.00  0.00     0.007 C 
BRANCH   3   4
ATOM      4  C   UNL     1      -8.476  -6.579   2.230  1.00  0.00     0.027 C 
BRANCH   4   5
ATOM      5  C   UNL     1      -9.085  -7.651   1.358  1.00  0.00    -0.028 C 
ATOM      6  C   UNL     1      -8.805  -8.970   1.454  1.00  0.00    -0.080 C 
ATOM      7  C   UNL     1      -7.876  -9.518   2.511  1.00  0.00     0.039 C 
ATOM      8  C   UNL     1      -9.465  -9.915   0.484  1.00  0.00     0.039 C 
ENDBRANCH   4   5
ENDBRANCH   3   4
ENDBRANCH   2   3
BRANCH   2   9
ATOM      9  C   UNL     1      -7.983  -6.884   5.002  1.00  0.00     0.045 C 
BRANCH   9  10
ATOM     10  C   UNL     1      -6.892  -6.147   5.794  1.00  0.00     0.233 C 
BRANCH  10  11
ATOM     11  O   UNL     1      -6.788  -6.684   7.112  1.00  0.00    -0.466 OA
BRANCH  11  12
ATOM     12  C   UNL     1      -7.141  -5.971   8.262  1.00  0.00     0.302 C 
ATOM     13  O   UNL     1      -7.151  -4.711   8.265  1.00  0.00    -0.253 OA
ATOM     14  C   UNL     1      -7.455  -6.713   9.518  1.00  0.00     0.139 C 
ENDBRANCH  11  12
ENDBRANCH  10  11
ENDBRANCH   9  10
ENDBRANCH   2   9
TORSDOF 7
ENDMDL
MODEL 2
REMARK VINA RESULT:    -4.793      3.654      6.254
REMARK INTER + INTRA:          -7.462
REMARK INTER:                  -6.844
REMARK INTRA:                  -0.618
REMARK UNBOUND:                -0.708
REMARK SMILES CC(=O)OCC[C@@H](C)CCC=C(C)C
REMARK SMILES IDX 8 1 7 2 9 3 10 4 11 5 12 6 13 7 14 8 6 9 5 10 4 11 2 12 3 13
REMARK SMILES IDX 1 14
REMARK H PARENT
REMARK Flexibility Score: inf
ROOT
ATOM      1  C   UNL     1      -9.820  -4.900   4.107  1.00  0.00     0.008 C 
ATOM      2  C   UNL     1      -9.139  -4.843   5.482  1.00  0.00    -0.011 C 
ENDROOT
BRANCH   2   3
ATOM      3  C   UNL     1      -7.748  -5.526   5.418  1.00  0.00     0.007 C 
BRANCH   3   4
ATOM      4  C   UNL     1      -6.858  -5.281   6.648  1.00  0.00     0.027 C 
BRANCH   4   5
ATOM      5  C   UNL     1      -7.041  -6.339   7.710  1.00  0.00    -0.028 C 
ATOM      6  C   UNL     1      -7.618  -6.127   8.914  1.00  0.00    -0.080 C 
ATOM      7  C   UNL     1      -8.201  -4.789   9.300  1.00  0.00     0.039 C 
ATOM      8  C   UNL     1      -7.694  -7.277   9.884  1.00  0.00     0.039 C 
ENDBRANCH   4   5
ENDBRANCH   3   4
ENDBRANCH   2   3
BRANCH   2   9
ATOM      9  C   UNL     1      -9.117  -3.397   6.042  1.00  0.00     0.045 C 
BRANCH   9  10
ATOM     10  C   UNL     1     -10.164  -2.456   5.428  1.00  0.00     0.233 C 
BRANCH  10  11
ATOM     11  O   UNL     1     -10.713  -1.604   6.432  1.00  0.00    -0.466 OA
BRANCH  11  12
ATOM     12  C   UNL     1     -10.312  -0.277   6.617  1.00  0.00     0.302 C 
ATOM     13  O   UNL     1      -9.093   0.040   6.591  1.00  0.00    -0.253 OA
ATOM     14  C   UNL     1     -11.340   0.766   6.905  1.00  0.00     0.139 C 
ENDBRANCH  11  12
ENDBRANCH  10  11
ENDBRANCH   9  10
ENDBRANCH   2   9
TORSDOF 7
ENDMDL
MODEL 3
REMARK VINA RESULT:    -4.741      2.534      4.446
REMARK INTER + INTRA:          -7.389
REMARK INTER:                  -6.806
REMARK INTRA:                  -0.583
REMARK UNBOUND:                -0.708
REMARK SMILES CC(=O)OCC[C@@H](C)CCC=C(C)C
REMARK SMILES IDX 8 1 7 2 9 3 10 4 11 5 12 6 13 7 14 8 6 9 5 10 4 11 2 12 3 13
REMARK SMILES IDX 1 14
REMARK H PARENT
REMARK Flexibility Score: inf
ROOT
ATOM      1  C   UNL     1      -6.783  -5.331   8.126  1.00  0.00     0.008 C 
ATOM      2  C   UNL     1      -7.292  -4.889   6.746  1.00  0.00    -0.011 C 
ENDROOT
BRANCH   2   3
ATOM      3  C   UNL     1      -6.925  -5.949   5.676  1.00  0.00     0.007 C 
BRANCH   3   4
ATOM      4  C   UNL     1      -8.097  -6.839   5.228  1.00  0.00     0.027 C 
BRANCH   4   5
ATOM      5  C   UNL     1      -8.060  -7.134   3.747  1.00  0.00    -0.028 C 
ATOM      6  C   UNL     1      -8.861  -6.550   2.828  1.00  0.00    -0.080 C 
ATOM      7  C   UNL     1      -9.857  -5.476   3.197  1.00  0.00     0.039 C 
ATOM      8  C   UNL     1      -8.731  -6.978   1.389  1.00  0.00     0.039 C 
ENDBRANCH   4   5
ENDBRANCH   3   4
ENDBRANCH   2   3
BRANCH   2   9
ATOM      9  C   UNL     1      -8.798  -4.520   6.792  1.00  0.00     0.045 C 
BRANCH   9  10
ATOM     10  C   UNL     1      -9.176  -3.270   5.983  1.00  0.00     0.233 C 
BRANCH  10  11
ATOM     11  O   UNL     1      -9.897  -2.350   6.802  1.00  0.00    -0.466 OA
BRANCH  11  12
ATOM     12  C   UNL     1     -10.220  -1.051   6.397  1.00  0.00     0.302 C 
ATOM     13  O   UNL     1      -9.883  -0.054   7.092  1.00  0.00    -0.253 OA
ATOM     14  C   UNL     1     -11.024  -0.848   5.157  1.00  0.00     0.139 C 
ENDBRANCH  11  12
ENDBRANCH  10  11
ENDBRANCH   9  10
ENDBRANCH   2   9
TORSDOF 7
ENDMDL
MODEL 4
REMARK VINA RESULT:    -4.582      1.444      2.026
REMARK INTER + INTRA:          -7.164
REMARK INTER:                  -6.496
REMARK INTRA:                  -0.668
REMARK UNBOUND:                -0.708
REMARK SMILES CC(=O)OCC[C@@H](C)CCC=C(C)C
REMARK SMILES IDX 8 1 7 2 9 3 10 4 11 5 12 6 13 7 14 8 6 9 5 10 4 11 2 12 3 13
REMARK SMILES IDX 1 14
REMARK H PARENT
REMARK Flexibility Score: inf
ROOT
ATOM      1  C   UNL     1      -7.952  -7.387   5.214  1.00  0.00     0.008 C 
ATOM      2  C   UNL     1      -8.367  -5.947   4.877  1.00  0.00    -0.011 C 
ENDROOT
BRANCH   2   3
ATOM      3  C   UNL     1      -9.773  -5.936   4.223  1.00  0.00     0.007 C 
BRANCH   3   4
ATOM      4  C   UNL     1      -9.847  -5.196   2.877  1.00  0.00     0.027 C 
BRANCH   4   5
ATOM      5  C   UNL     1     -10.328  -6.088   1.757  1.00  0.00    -0.028 C 
ATOM      6  C   UNL     1      -9.533  -6.901   1.026  1.00  0.00    -0.080 C 
ATOM      7  C   UNL     1      -8.056  -7.042   1.306  1.00  0.00     0.039 C 
ATOM      8  C   UNL     1     -10.157  -7.703  -0.086  1.00  0.00     0.039 C 
ENDBRANCH   4   5
ENDBRANCH   3   4
ENDBRANCH   2   3
BRANCH   2   9
ATOM      9  C   UNL     1      -8.227  -5.017   6.109  1.00  0.00     0.045 C 
BRANCH   9  10
ATOM     10  C   UNL     1      -6.808  -4.933   6.691  1.00  0.00     0.233 C 
BRANCH  10  11
ATOM     11  O   UNL     1      -6.858  -4.912   8.117  1.00  0.00    -0.466 OA
BRANCH  11  12
ATOM     12  C   UNL     1      -7.324  -5.983   8.886  1.00  0.00     0.302 C 
ATOM     13  O   UNL     1      -6.981  -7.167   8.622  1.00  0.00    -0.253 OA
ATOM     14  C   UNL     1      -8.285  -5.724   9.997  1.00  0.00     0.139 C 
ENDBRANCH  11  12
ENDBRANCH  10  11
ENDBRANCH   9  10
ENDBRANCH   2   9
TORSDOF 7
ENDMDL
MODEL 5
REMARK VINA RESULT:    -4.482      1.103      1.729
REMARK INTER + INTRA:          -7.023
REMARK INTER:                  -6.441
REMARK INTRA:                  -0.582
REMARK UNBOUND:                -0.708
REMARK SMILES CC(=O)OCC[C@@H](C)CCC=C(C)C
REMARK SMILES IDX 8 1 7 2 9 3 10 4 11 5 12 6 13 7 14 8 6 9 5 10 4 11 2 12 3 13
REMARK SMILES IDX 1 14
REMARK H PARENT
REMARK Flexibility Score: inf
ROOT
ATOM      1  C   UNL     1      -9.892  -4.901   3.460  1.00  0.00     0.008 C 
ATOM      2  C   UNL     1      -9.363  -5.980   4.416  1.00  0.00    -0.011 C 
ENDROOT
BRANCH   2   3
ATOM      3  C   UNL     1      -8.652  -7.101   3.615  1.00  0.00     0.007 C 
BRANCH   3   4
ATOM      4  C   UNL     1      -8.380  -6.761   2.140  1.00  0.00     0.027 C 
BRANCH   4   5
ATOM      5  C   UNL     1      -8.878  -7.834   1.202  1.00  0.00    -0.028 C 
ATOM      6  C   UNL     1      -9.901  -7.680   0.332  1.00  0.00    -0.080 C 
ATOM      7  C   UNL     1     -10.626  -6.364   0.170  1.00  0.00     0.039 C 
ATOM      8  C   UNL     1     -10.307  -8.859  -0.513  1.00  0.00     0.039 C 
ENDBRANCH   4   5
ENDBRANCH   3   4
ENDBRANCH   2   3
BRANCH   2   9
ATOM      9  C   UNL     1      -8.504  -5.360   5.548  1.00  0.00     0.045 C 
BRANCH   9  10
ATOM     10  C   UNL     1      -7.225  -6.141   5.884  1.00  0.00     0.233 C 
BRANCH  10  11
ATOM     11  O   UNL     1      -6.582  -5.572   7.023  1.00  0.00    -0.466 OA
BRANCH  11  12
ATOM     12  C   UNL     1      -7.162  -5.536   8.296  1.00  0.00     0.302 C 
ATOM     13  O   UNL     1      -7.637  -4.465   8.760  1.00  0.00    -0.253 OA
ATOM     14  C   UNL     1      -7.167  -6.770   9.135  1.00  0.00     0.139 C 
ENDBRANCH  11  12
ENDBRANCH  10  11
ENDBRANCH   9  10
ENDBRANCH   2   9
TORSDOF 7
ENDMDL
MODEL 6
REMARK VINA RESULT:    -4.371      4.386      7.408
REMARK INTER + INTRA:          -6.868
REMARK INTER:                  -6.312
REMARK INTRA:                  -0.556
REMARK UNBOUND:                -0.708
REMARK SMILES CC(=O)OCC[C@@H](C)CCC=C(C)C
REMARK SMILES IDX 8 1 7 2 9 3 10 4 11 5 12 6 13 7 14 8 6 9 5 10 4 11 2 12 3 13
REMARK SMILES IDX 1 14
REMARK H PARENT
REMARK Flexibility Score: inf
ROOT
ATOM      1  C   UNL     1      -9.928  -5.576   1.987  1.00  0.00     0.008 C 
ATOM      2  C   UNL     1      -8.941  -6.687   1.600  1.00  0.00    -0.011 C 
ENDROOT
BRANCH   2   3
ATOM      3  C   UNL     1      -8.388  -7.378   2.873  1.00  0.00     0.007 C 
BRANCH   3   4
ATOM      4  C   UNL     1      -8.935  -6.815   4.196  1.00  0.00     0.027 C 
BRANCH   4   5
ATOM      5  C   UNL     1      -7.839  -6.531   5.196  1.00  0.00    -0.028 C 
ATOM      6  C   UNL     1      -7.775  -5.427   5.973  1.00  0.00    -0.080 C 
ATOM      7  C   UNL     1      -8.855  -4.371   5.957  1.00  0.00     0.039 C 
ATOM      8  C   UNL     1      -6.596  -5.268   6.896  1.00  0.00     0.039 C 
ENDBRANCH   4   5
ENDBRANCH   3   4
ENDBRANCH   2   3
BRANCH   2   9
ATOM      9  C   UNL     1      -9.561  -7.658   0.563  1.00  0.00     0.045 C 
BRANCH   9  10
ATOM     10  C   UNL     1     -10.591  -7.016  -0.380  1.00  0.00     0.233 C 
BRANCH  10  11
ATOM     11  O   UNL     1      -9.958  -6.586  -1.584  1.00  0.00    -0.466 OA
BRANCH  11  12
ATOM     12  C   UNL     1     -10.392  -5.484  -2.329  1.00  0.00     0.302 C 
ATOM     13  O   UNL     1      -9.947  -5.271  -3.489  1.00  0.00    -0.253 OA
ATOM     14  C   UNL     1     -11.353  -4.519  -1.719  1.00  0.00     0.139 C 
ENDBRANCH  11  12
ENDBRANCH  10  11
ENDBRANCH   9  10
ENDBRANCH   2   9
TORSDOF 7
ENDMDL
MODEL 7
REMARK VINA RESULT:    -4.340      2.260      5.581
REMARK INTER + INTRA:          -6.823
REMARK INTER:                  -6.004
REMARK INTRA:                  -0.819
REMARK UNBOUND:                -0.708
REMARK SMILES CC(=O)OCC[C@@H](C)CCC=C(C)C
REMARK SMILES IDX 8 1 7 2 9 3 10 4 11 5 12 6 13 7 14 8 6 9 5 10 4 11 2 12 3 13
REMARK SMILES IDX 1 14
REMARK H PARENT
REMARK Flexibility Score: inf
ROOT
ATOM      1  C   UNL     1      -9.731  -5.260   2.328  1.00  0.00     0.008 C 
ATOM      2  C   UNL     1      -9.216  -5.502   3.754  1.00  0.00    -0.011 C 
ENDROOT
BRANCH   2   3
ATOM      3  C   UNL     1      -9.869  -4.494   4.735  1.00  0.00     0.007 C 
BRANCH   3   4
ATOM      4  C   UNL     1      -8.883  -3.799   5.690  1.00  0.00     0.027 C 
BRANCH   4   5
ATOM      5  C   UNL     1      -8.579  -4.637   6.909  1.00  0.00    -0.028 C 
ATOM      6  C   UNL     1      -7.379  -5.201   7.174  1.00  0.00    -0.080 C 
ATOM      7  C   UNL     1      -6.180  -4.992   6.280  1.00  0.00     0.039 C 
ATOM      8  C   UNL     1      -7.242  -6.043   8.415  1.00  0.00     0.039 C 
ENDBRANCH   4   5
ENDBRANCH   3   4
ENDBRANCH   2   3
BRANCH   2   9
ATOM      9  C   UNL     1      -9.372  -6.988   4.167  1.00  0.00     0.045 C 
BRANCH   9  10
ATOM     10  C   UNL     1      -8.055  -7.696   4.522  1.00  0.00     0.233 C 
BRANCH  10  11
ATOM     11  O   UNL     1      -8.150  -9.090   4.237  1.00  0.00    -0.466 OA
BRANCH  11  12
ATOM     12  C   UNL     1      -7.672  -9.668   3.056  1.00  0.00     0.302 C 
ATOM     13  O   UNL     1      -6.500 -10.125   2.988  1.00  0.00    -0.253 OA
ATOM     14  C   UNL     1      -8.545  -9.691   1.847  1.00  0.00     0.139 C 
ENDBRANCH  11  12
ENDBRANCH  10  11
ENDBRANCH   9  10
ENDBRANCH   2   9
TORSDOF 7
ENDMDL
MODEL 8
REMARK VINA RESULT:    -4.305      2.841      6.603
REMARK INTER + INTRA:          -6.774
REMARK INTER:                  -6.095
REMARK INTRA:                  -0.680
REMARK UNBOUND:                -0.708
REMARK SMILES CC(=O)OCC[C@@H](C)CCC=C(C)C
REMARK SMILES IDX 8 1 7 2 9 3 10 4 11 5 12 6 13 7 14 8 6 9 5 10 4 11 2 12 3 13
REMARK SMILES IDX 1 14
REMARK H PARENT
REMARK Flexibility Score: inf
ROOT
ATOM      1  C   UNL     1      -7.888  -7.974   4.829  1.00  0.00     0.008 C 
ATOM      2  C   UNL     1      -8.136  -6.565   5.386  1.00  0.00    -0.011 C 
ENDROOT
BRANCH   2   3
ATOM      3  C   UNL     1      -6.788  -5.827   5.592  1.00  0.00     0.007 C 
BRANCH   3   4
ATOM      4  C   UNL     1      -6.558  -5.299   7.018  1.00  0.00     0.027 C 
BRANCH   4   5
ATOM      5  C   UNL     1      -6.950  -6.305   8.074  1.00  0.00    -0.028 C 
ATOM      6  C   UNL     1      -7.744  -6.036   9.134  1.00  0.00    -0.080 C 
ATOM      7  C   UNL     1      -8.380  -4.681   9.338  1.00  0.00     0.039 C 
ATOM      8  C   UNL     1      -8.014  -7.139  10.125  1.00  0.00     0.039 C 
ENDBRANCH   4   5
ENDBRANCH   3   4
ENDBRANCH   2   3
BRANCH   2   9
ATOM      9  C   UNL     1      -9.164  -5.789   4.523  1.00  0.00     0.045 C 
BRANCH   9  10
ATOM     10  C   UNL     1     -10.169  -6.675   3.772  1.00  0.00     0.233 C 
BRANCH  10  11
ATOM     11  O   UNL     1     -10.654  -6.002   2.612  1.00  0.00    -0.466 OA
BRANCH  11  12
ATOM     12  C   UNL     1     -10.159  -6.236   1.324  1.00  0.00     0.302 C 
ATOM     13  O   UNL     1     -10.691  -5.693   0.319  1.00  0.00    -0.253 OA
ATOM     14  C   UNL     1      -9.024  -7.185   1.136  1.00  0.00     0.139 C 
ENDBRANCH  11  12
ENDBRANCH  10  11
ENDBRANCH   9  10
ENDBRANCH   2   9
TORSDOF 7
ENDMDL
MODEL 9
REMARK VINA RESULT:    -4.248      3.338      6.727
REMARK INTER + INTRA:          -6.694
REMARK INTER:                  -5.937
REMARK INTRA:                  -0.757
REMARK UNBOUND:                -0.708
REMARK SMILES CC(=O)OCC[C@@H](C)CCC=C(C)C
REMARK SMILES IDX 8 1 7 2 9 3 10 4 11 5 12 6 13 7 14 8 6 9 5 10 4 11 2 12 3 13
REMARK SMILES IDX 1 14
REMARK H PARENT
REMARK Flexibility Score: inf
ROOT
ATOM      1  C   UNL     1     -10.101  -8.338   3.666  1.00  0.00     0.008 C 
ATOM      2  C   UNL     1      -9.125  -7.198   3.991  1.00  0.00    -0.011 C 
ENDROOT
BRANCH   2   3
ATOM      3  C   UNL     1      -7.964  -7.724   4.874  1.00  0.00     0.007 C 
BRANCH   3   4
ATOM      4  C   UNL     1      -6.971  -6.645   5.337  1.00  0.00     0.027 C 
BRANCH   4   5
ATOM      5  C   UNL     1      -7.127  -6.311   6.801  1.00  0.00    -0.028 C 
ATOM      6  C   UNL     1      -7.800  -5.240   7.278  1.00  0.00    -0.080 C 
ATOM      7  C   UNL     1      -8.530  -4.281   6.367  1.00  0.00     0.039 C 
ATOM      8  C   UNL     1      -7.834  -5.020   8.768  1.00  0.00     0.039 C 
ENDBRANCH   4   5
ENDBRANCH   3   4
ENDBRANCH   2   3
BRANCH   2   9
ATOM      9  C   UNL     1      -8.667  -6.462   2.705  1.00  0.00     0.045 C 
BRANCH   9  10
ATOM     10  C   UNL     1      -8.312  -7.386   1.530  1.00  0.00     0.233 C 
BRANCH  10  11
ATOM     11  O   UNL     1      -9.012  -6.984   0.354  1.00  0.00    -0.466 OA
BRANCH  11  12
ATOM     12  C   UNL     1     -10.154  -7.637  -0.122  1.00  0.00     0.302 C 
ATOM     13  O   UNL     1     -10.059  -8.691  -0.806  1.00  0.00    -0.253 OA
ATOM     14  C   UNL     1     -11.499  -7.045   0.137  1.00  0.00     0.139 C 
ENDBRANCH  11  12
ENDBRANCH  10  11
ENDBRANCH   9  10
ENDBRANCH   2   9
TORSDOF 7
ENDMDL
