MODEL 1
REMARK VINA RESULT:    -6.173      0.000      0.000
REMARK INTER + INTRA:         -10.228
REMARK INTER:                  -8.519
REMARK INTRA:                  -1.710
REMARK UNBOUND:                -1.710
REMARK SMILES CC[C@H](CC[C@@H](C)[C@@H]1CC[C@H]2[C@@H]3CC=C4C[C@H](O)CC[C@]4(C)[C@@H]3CC[C@]21C)C(C)C
REMARK SMILES IDX 5 1 4 2 3 3 2 4 1 5 28 6 29 7 30 8 6 9 7 10 8 11 9 12 26 13
REMARK SMILES IDX 10 14 11 15 25 16 27 17 12 18 24 19 23 20 13 21 21 22 14 23
REMARK SMILES IDX 15 24 20 25 22 26 16 27 19 28 17 29 18 30
REMARK H PARENT 18 31
REMARK Flexibility Score: inf
ROOT
ATOM      1  C   UNL     1      -2.874  -6.619  37.494  1.00  0.00     0.004 C 
ENDROOT
BRANCH   1   2
ATOM      2  C   UNL     1      -4.341  -6.560  37.013  1.00  0.00     0.004 C 
BRANCH   2   3
ATOM      3  C   UNL     1      -4.459  -6.387  35.467  1.00  0.00    -0.009 C 
BRANCH   3   4
ATOM      4  C   UNL     1      -5.213  -7.599  34.847  1.00  0.00     0.000 C 
ATOM      5  C   UNL     1      -5.451  -8.757  35.819  1.00  0.00     0.004 C 
ENDBRANCH   3   4
BRANCH   3   6
ATOM      6  C   UNL     1      -5.072  -4.999  35.067  1.00  0.00    -0.014 C 
ATOM      7  C   UNL     1      -5.853  -4.364  36.231  1.00  0.00     0.007 C 
ATOM      8  C   UNL     1      -4.000  -3.999  34.596  1.00  0.00     0.007 C 
ENDBRANCH   3   6
ENDBRANCH   2   3
ENDBRANCH   1   2
BRANCH   1   9
ATOM      9  C   UNL     1      -2.120  -7.922  37.118  1.00  0.00    -0.011 C 
ATOM     10  C   UNL     1      -0.983  -7.625  36.117  1.00  0.00     0.008 C 
BRANCH   9  11
ATOM     11  C   UNL     1      -1.728  -8.780  38.387  1.00  0.00    -0.002 C 
ATOM     12  C   UNL     1      -0.269  -9.252  38.449  1.00  0.00     0.005 C 
ATOM     13  C   UNL     1      -2.574 -10.052  38.673  1.00  0.00    -0.026 C 
ATOM     14  C   UNL     1      -0.251 -10.505  39.326  1.00  0.00     0.005 C 
ATOM     15  C   UNL     1      -1.709 -10.820  39.729  1.00  0.00    -0.001 C 
ATOM     16  C   UNL     1      -4.025  -9.690  39.140  1.00  0.00     0.007 C 
ATOM     17  C   UNL     1      -2.692 -10.941  37.402  1.00  0.00     0.012 C 
ATOM     18  C   UNL     1      -1.971 -10.394  41.205  1.00  0.00     0.000 C 
ATOM     19  C   UNL     1      -4.222  -9.423  40.641  1.00  0.00     0.005 C 
ATOM     20  C   UNL     1      -3.464 -10.385  41.578  1.00  0.00     0.003 C 
ATOM     21  C   UNL     1      -1.211 -11.228  42.252  1.00  0.00     0.031 C 
ATOM     22  C   UNL     1      -4.123 -11.814  41.860  1.00  0.00    -0.008 C 
ATOM     23  C   UNL     1      -1.770 -12.605  42.394  1.00  0.00    -0.027 C 
ATOM     24  C   UNL     1      -3.086 -12.868  42.290  1.00  0.00    -0.065 C 
ATOM     25  C   UNL     1      -4.860 -12.394  40.613  1.00  0.00     0.014 C 
ATOM     26  C   UNL     1      -5.143 -11.636  43.018  1.00  0.00     0.016 C 
ATOM     27  C   UNL     1      -3.554 -14.298  42.473  1.00  0.00     0.063 C 
ATOM     28  C   UNL     1      -5.355 -13.848  40.766  1.00  0.00     0.033 C 
ATOM     29  C   UNL     1      -4.231 -14.802  41.191  1.00  0.00     0.118 C 
BRANCH  29  30
ATOM     30  O   UNL     1      -3.288 -14.919  40.152  1.00  0.00    -0.393 OA
ATOM     31  H   UNL     1      -3.234 -14.027  39.718  1.00  0.00     0.210 HD
ENDBRANCH  29  30
ENDBRANCH   9  11
ENDBRANCH   1   9
TORSDOF 7
ENDMDL
MODEL 2
REMARK VINA RESULT:    -6.129      1.515      2.530
REMARK INTER + INTRA:         -10.167
REMARK INTER:                  -8.139
REMARK INTRA:                  -2.028
REMARK UNBOUND:                -1.710
REMARK SMILES CC[C@H](CC[C@@H](C)[C@@H]1CC[C@H]2[C@@H]3CC=C4C[C@H](O)CC[C@]4(C)[C@@H]3CC[C@]21C)C(C)C
REMARK SMILES IDX 5 1 4 2 3 3 2 4 1 5 28 6 29 7 30 8 6 9 7 10 8 11 9 12 26 13
REMARK SMILES IDX 10 14 11 15 25 16 27 17 12 18 24 19 23 20 13 21 21 22 14 23
REMARK SMILES IDX 15 24 20 25 22 26 16 27 19 28 17 29 18 30
REMARK H PARENT 18 31
REMARK Flexibility Score: inf
ROOT
ATOM      1  C   UNL     1      -2.169  -6.840  34.056  1.00  0.00     0.004 C 
ENDROOT
BRANCH   1   2
ATOM      2  C   UNL     1      -3.482  -6.855  33.243  1.00  0.00     0.004 C 
BRANCH   2   3
ATOM      3  C   UNL     1      -4.628  -6.056  33.938  1.00  0.00    -0.009 C 
BRANCH   3   4
ATOM      4  C   UNL     1      -5.696  -7.033  34.508  1.00  0.00     0.000 C 
ATOM      5  C   UNL     1      -5.642  -8.442  33.913  1.00  0.00     0.004 C 
ENDBRANCH   3   4
BRANCH   3   6
ATOM      6  C   UNL     1      -4.083  -5.038  35.001  1.00  0.00    -0.014 C 
ATOM      7  C   UNL     1      -4.034  -3.604  34.446  1.00  0.00     0.007 C 
ATOM      8  C   UNL     1      -4.924  -5.032  36.291  1.00  0.00     0.007 C 
ENDBRANCH   3   6
ENDBRANCH   2   3
ENDBRANCH   1   2
BRANCH   1   9
ATOM      9  C   UNL     1      -1.696  -8.233  34.550  1.00  0.00    -0.011 C 
ATOM     10  C   UNL     1      -0.525  -8.750  33.685  1.00  0.00     0.008 C 
BRANCH   9  11
ATOM     11  C   UNL     1      -1.482  -8.279  36.115  1.00  0.00    -0.002 C 
ATOM     12  C   UNL     1      -0.031  -8.443  36.587  1.00  0.00     0.005 C 
ATOM     13  C   UNL     1      -2.286  -9.343  36.912  1.00  0.00    -0.026 C 
ATOM     14  C   UNL     1      -0.091  -9.075  37.979  1.00  0.00     0.005 C 
ATOM     15  C   UNL     1      -1.576  -9.351  38.308  1.00  0.00    -0.001 C 
ATOM     16  C   UNL     1      -3.816  -9.007  36.947  1.00  0.00     0.007 C 
ATOM     17  C   UNL     1      -2.125 -10.754  36.276  1.00  0.00     0.012 C 
ATOM     18  C   UNL     1      -2.119  -8.288  39.309  1.00  0.00     0.000 C 
ATOM     19  C   UNL     1      -4.290  -8.059  38.060  1.00  0.00     0.005 C 
ATOM     20  C   UNL     1      -3.651  -8.306  39.442  1.00  0.00     0.003 C 
ATOM     21  C   UNL     1      -1.506  -8.371  40.719  1.00  0.00     0.031 C 
ATOM     22  C   UNL     1      -4.262  -9.481  40.338  1.00  0.00    -0.008 C 
ATOM     23  C   UNL     1      -1.997  -9.557  41.481  1.00  0.00    -0.027 C 
ATOM     24  C   UNL     1      -3.255 -10.021  41.370  1.00  0.00    -0.065 C 
ATOM     25  C   UNL     1      -4.732 -10.703  39.489  1.00  0.00     0.014 C 
ATOM     26  C   UNL     1      -5.479  -8.896  41.106  1.00  0.00     0.016 C 
ATOM     27  C   UNL     1      -3.661 -11.219  42.205  1.00  0.00     0.063 C 
ATOM     28  C   UNL     1      -5.157 -11.941  40.308  1.00  0.00     0.033 C 
ATOM     29  C   UNL     1      -4.069 -12.385  41.295  1.00  0.00     0.118 C 
BRANCH  29  30
ATOM     30  O   UNL     1      -2.953 -12.869  40.587  1.00  0.00    -0.393 OA
ATOM     31  H   UNL     1      -2.961 -12.415  39.703  1.00  0.00     0.210 HD
ENDBRANCH  29  30
ENDBRANCH   9  11
ENDBRANCH   1   9
TORSDOF 7
ENDMDL
MODEL 3
REMARK VINA RESULT:    -6.002      2.364      7.880
REMARK INTER + INTRA:          -9.992
REMARK INTER:                  -8.010
REMARK INTRA:                  -1.982
REMARK UNBOUND:                -1.710
REMARK SMILES CC[C@H](CC[C@@H](C)[C@@H]1CC[C@H]2[C@@H]3CC=C4C[C@H](O)CC[C@]4(C)[C@@H]3CC[C@]21C)C(C)C
REMARK SMILES IDX 5 1 4 2 3 3 2 4 1 5 28 6 29 7 30 8 6 9 7 10 8 11 9 12 26 13
REMARK SMILES IDX 10 14 11 15 25 16 27 17 12 18 24 19 23 20 13 21 21 22 14 23
REMARK SMILES IDX 15 24 20 25 22 26 16 27 19 28 17 29 18 30
REMARK H PARENT 18 31
REMARK Flexibility Score: inf
ROOT
ATOM      1  C   UNL     1      -5.877 -13.610  41.561  1.00  0.00     0.004 C 
ENDROOT
BRANCH   1   2
ATOM      2  C   UNL     1      -5.696 -14.778  42.557  1.00  0.00     0.004 C 
BRANCH   2   3
ATOM      3  C   UNL     1      -4.362 -15.556  42.333  1.00  0.00    -0.009 C 
BRANCH   3   4
ATOM      4  C   UNL     1      -3.801 -15.264  40.911  1.00  0.00     0.000 C 
ATOM      5  C   UNL     1      -3.621 -16.509  40.037  1.00  0.00     0.004 C 
ENDBRANCH   3   4
BRANCH   3   6
ATOM      6  C   UNL     1      -3.322 -15.298  43.479  1.00  0.00    -0.014 C 
ATOM      7  C   UNL     1      -2.827 -16.612  44.108  1.00  0.00     0.007 C 
ATOM      8  C   UNL     1      -2.098 -14.500  42.992  1.00  0.00     0.007 C 
ENDBRANCH   3   6
ENDBRANCH   2   3
ENDBRANCH   1   2
BRANCH   1   9
ATOM      9  C   UNL     1      -5.503 -12.214  42.125  1.00  0.00    -0.011 C 
ATOM     10  C   UNL     1      -5.686 -12.178  43.658  1.00  0.00     0.008 C 
BRANCH   9  11
ATOM     11  C   UNL     1      -4.116 -11.692  41.574  1.00  0.00    -0.002 C 
ATOM     12  C   UNL     1      -3.153 -11.120  42.624  1.00  0.00     0.005 C 
ATOM     13  C   UNL     1      -4.156 -10.627  40.443  1.00  0.00    -0.026 C 
ATOM     14  C   UNL     1      -2.228 -10.149  41.887  1.00  0.00     0.005 C 
ATOM     15  C   UNL     1      -2.685 -10.090  40.412  1.00  0.00    -0.001 C 
ATOM     16  C   UNL     1      -4.670 -11.234  39.093  1.00  0.00     0.007 C 
ATOM     17  C   UNL     1      -5.096  -9.446  40.822  1.00  0.00     0.012 C 
ATOM     18  C   UNL     1      -1.720 -10.917  39.509  1.00  0.00     0.000 C 
ATOM     19  C   UNL     1      -3.621 -11.908  38.195  1.00  0.00     0.005 C 
ATOM     20  C   UNL     1      -2.274 -11.164  38.096  1.00  0.00     0.003 C 
ATOM     21  C   UNL     1      -0.305 -10.324  39.382  1.00  0.00     0.031 C 
ATOM     22  C   UNL     1      -2.185  -9.930  37.083  1.00  0.00    -0.008 C 
ATOM     23  C   UNL     1      -0.280  -9.093  38.538  1.00  0.00    -0.027 C 
ATOM     24  C   UNL     1      -1.071  -8.936  37.460  1.00  0.00    -0.065 C 
ATOM     25  C   UNL     1      -3.511  -9.110  37.014  1.00  0.00     0.014 C 
ATOM     26  C   UNL     1      -1.867 -10.504  35.676  1.00  0.00     0.016 C 
ATOM     27  C   UNL     1      -0.952  -7.657  36.657  1.00  0.00     0.063 C 
ATOM     28  C   UNL     1      -3.427  -7.803  36.199  1.00  0.00     0.033 C 
ATOM     29  C   UNL     1      -2.284  -6.895  36.673  1.00  0.00     0.118 C 
BRANCH  29  30
ATOM     30  O   UNL     1      -2.561  -6.419  37.968  1.00  0.00    -0.393 OA
ATOM     31  H   UNL     1      -1.699  -6.095  38.341  1.00  0.00     0.210 HD
ENDBRANCH  29  30
ENDBRANCH   9  11
ENDBRANCH   1   9
TORSDOF 7
ENDMDL
MODEL 4
REMARK VINA RESULT:    -5.917      2.503      7.794
REMARK INTER + INTRA:          -9.875
REMARK INTER:                  -7.535
REMARK INTRA:                  -2.340
REMARK UNBOUND:                -1.710
REMARK SMILES CC[C@H](CC[C@@H](C)[C@@H]1CC[C@H]2[C@@H]3CC=C4C[C@H](O)CC[C@]4(C)[C@@H]3CC[C@]21C)C(C)C
REMARK SMILES IDX 5 1 4 2 3 3 2 4 1 5 28 6 29 7 30 8 6 9 7 10 8 11 9 12 26 13
REMARK SMILES IDX 10 14 11 15 25 16 27 17 12 18 24 19 23 20 13 21 21 22 14 23
REMARK SMILES IDX 15 24 20 25 22 26 16 27 19 28 17 29 18 30
REMARK H PARENT 18 31
REMARK Flexibility Score: inf
ROOT
ATOM      1  C   UNL     1      -1.720  -8.687  40.516  1.00  0.00     0.004 C 
ENDROOT
BRANCH   1   2
ATOM      2  C   UNL     1      -2.219  -9.752  41.518  1.00  0.00     0.004 C 
BRANCH   2   3
ATOM      3  C   UNL     1      -3.774  -9.876  41.536  1.00  0.00    -0.009 C 
BRANCH   3   4
ATOM      4  C   UNL     1      -4.403  -8.921  40.481  1.00  0.00     0.000 C 
ATOM      5  C   UNL     1      -5.400  -9.596  39.535  1.00  0.00     0.004 C 
ENDBRANCH   3   4
BRANCH   3   6
ATOM      6  C   UNL     1      -4.254 -11.364  41.397  1.00  0.00    -0.014 C 
ATOM      7  C   UNL     1      -3.131 -12.281  40.883  1.00  0.00     0.007 C 
ATOM      8  C   UNL     1      -4.781 -11.936  42.726  1.00  0.00     0.007 C 
ENDBRANCH   3   6
ENDBRANCH   2   3
ENDBRANCH   1   2
BRANCH   1   9
ATOM      9  C   UNL     1      -1.066  -9.262  39.232  1.00  0.00    -0.011 C 
ATOM     10  C   UNL     1      -0.194 -10.492  39.568  1.00  0.00     0.008 C 
BRANCH   9  11
ATOM     11  C   UNL     1      -2.103  -9.442  38.054  1.00  0.00    -0.002 C 
ATOM     12  C   UNL     1      -2.066 -10.796  37.331  1.00  0.00     0.005 C 
ATOM     13  C   UNL     1      -2.081  -8.380  36.919  1.00  0.00    -0.026 C 
ATOM     14  C   UNL     1      -2.629 -10.559  35.928  1.00  0.00     0.005 C 
ATOM     15  C   UNL     1      -2.937  -9.050  35.791  1.00  0.00    -0.001 C 
ATOM     16  C   UNL     1      -2.608  -6.990  37.415  1.00  0.00     0.007 C 
ATOM     17  C   UNL     1      -0.637  -8.174  36.377  1.00  0.00     0.012 C 
ATOM     18  C   UNL     1      -4.469  -8.794  35.911  1.00  0.00     0.000 C 
ATOM     19  C   UNL     1      -4.128  -6.770  37.365  1.00  0.00     0.005 C 
ATOM     20  C   UNL     1      -4.823  -7.308  36.098  1.00  0.00     0.003 C 
ATOM     21  C   UNL     1      -5.300  -9.350  34.740  1.00  0.00     0.031 C 
ATOM     22  C   UNL     1      -4.761  -6.404  34.781  1.00  0.00    -0.008 C 
ATOM     23  C   UNL     1      -5.114  -8.560  33.488  1.00  0.00    -0.027 C 
ATOM     24  C   UNL     1      -4.942  -7.225  33.491  1.00  0.00    -0.065 C 
ATOM     25  C   UNL     1      -3.408  -5.640  34.638  1.00  0.00     0.014 C 
ATOM     26  C   UNL     1      -5.921  -5.374  34.868  1.00  0.00     0.016 C 
ATOM     27  C   UNL     1      -4.785  -6.513  32.162  1.00  0.00     0.063 C 
ATOM     28  C   UNL     1      -3.216  -4.899  33.298  1.00  0.00     0.033 C 
ATOM     29  C   UNL     1      -3.416  -5.823  32.089  1.00  0.00     0.118 C 
BRANCH  29  30
ATOM     30  O   UNL     1      -2.386  -6.781  32.048  1.00  0.00    -0.393 OA
ATOM     31  H   UNL     1      -2.192  -6.946  31.087  1.00  0.00     0.210 HD
ENDBRANCH  29  30
ENDBRANCH   9  11
ENDBRANCH   1   9
TORSDOF 7
ENDMDL
MODEL 5
REMARK VINA RESULT:    -5.914      2.517      7.727
REMARK INTER + INTRA:          -9.871
REMARK INTER:                  -7.890
REMARK INTRA:                  -1.981
REMARK UNBOUND:                -1.710
REMARK SMILES CC[C@H](CC[C@@H](C)[C@@H]1CC[C@H]2[C@@H]3CC=C4C[C@H](O)CC[C@]4(C)[C@@H]3CC[C@]21C)C(C)C
REMARK SMILES IDX 5 1 4 2 3 3 2 4 1 5 28 6 29 7 30 8 6 9 7 10 8 11 9 12 26 13
REMARK SMILES IDX 10 14 11 15 25 16 27 17 12 18 24 19 23 20 13 21 21 22 14 23
REMARK SMILES IDX 15 24 20 25 22 26 16 27 19 28 17 29 18 30
REMARK H PARENT 18 31
REMARK Flexibility Score: inf
ROOT
ATOM      1  C   UNL     1      -1.373  -8.626  40.421  1.00  0.00     0.004 C 
ENDROOT
BRANCH   1   2
ATOM      2  C   UNL     1      -1.819  -9.641  41.496  1.00  0.00     0.004 C 
BRANCH   2   3
ATOM      3  C   UNL     1      -3.196 -10.298  41.168  1.00  0.00    -0.009 C 
BRANCH   3   4
ATOM      4  C   UNL     1      -3.390 -11.590  42.011  1.00  0.00     0.000 C 
ATOM      5  C   UNL     1      -2.129 -12.446  42.153  1.00  0.00     0.004 C 
ENDBRANCH   3   4
BRANCH   3   6
ATOM      6  C   UNL     1      -4.386  -9.283  41.297  1.00  0.00    -0.014 C 
ATOM      7  C   UNL     1      -5.125  -9.095  39.960  1.00  0.00     0.007 C 
ATOM      8  C   UNL     1      -5.410  -9.713  42.363  1.00  0.00     0.007 C 
ENDBRANCH   3   6
ENDBRANCH   2   3
ENDBRANCH   1   2
BRANCH   1   9
ATOM      9  C   UNL     1      -0.893  -9.261  39.089  1.00  0.00    -0.011 C 
ATOM     10  C   UNL     1      -0.064 -10.535  39.361  1.00  0.00     0.008 C 
BRANCH   9  11
ATOM     11  C   UNL     1      -2.059  -9.398  38.030  1.00  0.00    -0.002 C 
ATOM     12  C   UNL     1      -2.227 -10.787  37.398  1.00  0.00     0.005 C 
ATOM     13  C   UNL     1      -2.050  -8.409  36.832  1.00  0.00    -0.026 C 
ATOM     14  C   UNL     1      -2.905 -10.572  36.044  1.00  0.00     0.005 C 
ATOM     15  C   UNL     1      -3.078  -9.049  35.838  1.00  0.00    -0.001 C 
ATOM     16  C   UNL     1      -2.386  -6.947  37.284  1.00  0.00     0.007 C 
ATOM     17  C   UNL     1      -0.656  -8.384  36.140  1.00  0.00     0.012 C 
ATOM     18  C   UNL     1      -4.557  -8.630  36.088  1.00  0.00     0.000 C 
ATOM     19  C   UNL     1      -3.875  -6.574  37.366  1.00  0.00     0.005 C 
ATOM     20  C   UNL     1      -4.745  -7.108  36.209  1.00  0.00     0.003 C 
ATOM     21  C   UNL     1      -5.554  -9.162  35.042  1.00  0.00     0.031 C 
ATOM     22  C   UNL     1      -4.730  -6.289  34.836  1.00  0.00    -0.008 C 
ATOM     23  C   UNL     1      -5.422  -8.466  33.728  1.00  0.00    -0.027 C 
ATOM     24  C   UNL     1      -5.122  -7.158  33.627  1.00  0.00    -0.065 C 
ATOM     25  C   UNL     1      -3.332  -5.678  34.514  1.00  0.00     0.014 C 
ATOM     26  C   UNL     1      -5.770  -5.143  34.967  1.00  0.00     0.016 C 
ATOM     27  C   UNL     1      -5.034  -6.541  32.245  1.00  0.00     0.063 C 
ATOM     28  C   UNL     1      -3.207  -5.037  33.116  1.00  0.00     0.033 C 
ATOM     29  C   UNL     1      -3.619  -6.002  31.996  1.00  0.00     0.118 C 
BRANCH  29  30
ATOM     30  O   UNL     1      -2.696  -7.061  31.918  1.00  0.00    -0.393 OA
ATOM     31  H   UNL     1      -1.792  -6.655  31.990  1.00  0.00     0.210 HD
ENDBRANCH  29  30
ENDBRANCH   9  11
ENDBRANCH   1   9
TORSDOF 7
ENDMDL
MODEL 6
REMARK VINA RESULT:    -5.822      2.693      8.141
REMARK INTER + INTRA:          -9.744
REMARK INTER:                  -7.125
REMARK INTRA:                  -2.619
REMARK UNBOUND:                -1.710
REMARK SMILES CC[C@H](CC[C@@H](C)[C@@H]1CC[C@H]2[C@@H]3CC=C4C[C@H](O)CC[C@]4(C)[C@@H]3CC[C@]21C)C(C)C
REMARK SMILES IDX 5 1 4 2 3 3 2 4 1 5 28 6 29 7 30 8 6 9 7 10 8 11 9 12 26 13
REMARK SMILES IDX 10 14 11 15 25 16 27 17 12 18 24 19 23 20 13 21 21 22 14 23
REMARK SMILES IDX 15 24 20 25 22 26 16 27 19 28 17 29 18 30
REMARK H PARENT 18 31
REMARK Flexibility Score: inf
ROOT
ATOM      1  C   UNL     1      -3.169 -11.933  38.938  1.00  0.00     0.004 C 
ENDROOT
BRANCH   1   2
ATOM      2  C   UNL     1      -2.007 -10.915  38.936  1.00  0.00     0.004 C 
BRANCH   2   3
ATOM      3  C   UNL     1      -1.536 -10.539  40.375  1.00  0.00    -0.009 C 
BRANCH   3   4
ATOM      4  C   UNL     1      -1.795  -9.029  40.649  1.00  0.00     0.000 C 
ATOM      5  C   UNL     1      -1.388  -8.102  39.500  1.00  0.00     0.004 C 
ENDBRANCH   3   4
BRANCH   3   6
ATOM      6  C   UNL     1      -2.147 -11.485  41.468  1.00  0.00    -0.014 C 
ATOM      7  C   UNL     1      -1.081 -11.967  42.467  1.00  0.00     0.007 C 
ATOM      8  C   UNL     1      -3.285 -10.811  42.257  1.00  0.00     0.007 C 
ENDBRANCH   3   6
ENDBRANCH   2   3
ENDBRANCH   1   2
BRANCH   1   9
ATOM      9  C   UNL     1      -4.556 -11.334  38.584  1.00  0.00    -0.011 C 
ATOM     10  C   UNL     1      -5.629 -11.816  39.585  1.00  0.00     0.008 C 
BRANCH   9  11
ATOM     11  C   UNL     1      -4.493  -9.776  38.324  1.00  0.00    -0.002 C 
ATOM     12  C   UNL     1      -5.335  -8.906  39.268  1.00  0.00     0.005 C 
ATOM     13  C   UNL     1      -4.849  -9.280  36.895  1.00  0.00    -0.026 C 
ATOM     14  C   UNL     1      -5.641  -7.611  38.513  1.00  0.00     0.005 C 
ATOM     15  C   UNL     1      -5.040  -7.738  37.094  1.00  0.00    -0.001 C 
ATOM     16  C   UNL     1      -3.752  -9.683  35.851  1.00  0.00     0.007 C 
ATOM     17  C   UNL     1      -6.202  -9.880  36.417  1.00  0.00     0.012 C 
ATOM     18  C   UNL     1      -3.726  -6.909  36.984  1.00  0.00     0.000 C 
ATOM     19  C   UNL     1      -2.555  -8.730  35.705  1.00  0.00     0.005 C 
ATOM     20  C   UNL     1      -2.911  -7.230  35.719  1.00  0.00     0.003 C 
ATOM     21  C   UNL     1      -3.927  -5.384  37.060  1.00  0.00     0.031 C 
ATOM     22  C   UNL     1      -3.447  -6.585  34.358  1.00  0.00    -0.008 C 
ATOM     23  C   UNL     1      -4.555  -4.833  35.824  1.00  0.00    -0.027 C 
ATOM     24  C   UNL     1      -4.291  -5.320  34.597  1.00  0.00    -0.065 C 
ATOM     25  C   UNL     1      -4.338  -7.568  33.536  1.00  0.00     0.014 C 
ATOM     26  C   UNL     1      -2.208  -6.189  33.510  1.00  0.00     0.016 C 
ATOM     27  C   UNL     1      -4.965  -4.673  33.403  1.00  0.00     0.063 C 
ATOM     28  C   UNL     1      -5.035  -6.944  32.309  1.00  0.00     0.033 C 
ATOM     29  C   UNL     1      -5.849  -5.696  32.676  1.00  0.00     0.118 C 
BRANCH  29  30
ATOM     30  O   UNL     1      -6.942  -6.061  33.484  1.00  0.00    -0.393 OA
ATOM     31  H   UNL     1      -7.441  -5.224  33.679  1.00  0.00     0.210 HD
ENDBRANCH  29  30
ENDBRANCH   9  11
ENDBRANCH   1   9
TORSDOF 7
ENDMDL
MODEL 7
REMARK VINA RESULT:    -5.714      2.480      7.921
REMARK INTER + INTRA:          -9.594
REMARK INTER:                  -7.259
REMARK INTRA:                  -2.335
REMARK UNBOUND:                -1.710
REMARK SMILES CC[C@H](CC[C@@H](C)[C@@H]1CC[C@H]2[C@@H]3CC=C4C[C@H](O)CC[C@]4(C)[C@@H]3CC[C@]21C)C(C)C
REMARK SMILES IDX 5 1 4 2 3 3 2 4 1 5 28 6 29 7 30 8 6 9 7 10 8 11 9 12 26 13
REMARK SMILES IDX 10 14 11 15 25 16 27 17 12 18 24 19 23 20 13 21 21 22 14 23
REMARK SMILES IDX 15 24 20 25 22 26 16 27 19 28 17 29 18 30
REMARK H PARENT 18 31
REMARK Flexibility Score: inf
ROOT
ATOM      1  C   UNL     1      -6.634 -14.663  42.043  1.00  0.00     0.004 C 
ENDROOT
BRANCH   1   2
ATOM      2  C   UNL     1      -5.709 -15.160  43.176  1.00  0.00     0.004 C 
BRANCH   2   3
ATOM      3  C   UNL     1      -4.364 -15.743  42.640  1.00  0.00    -0.009 C 
BRANCH   3   4
ATOM      4  C   UNL     1      -4.271 -15.553  41.099  1.00  0.00     0.000 C 
ATOM      5  C   UNL     1      -3.625 -16.726  40.357  1.00  0.00     0.004 C 
ENDBRANCH   3   4
BRANCH   3   6
ATOM      6  C   UNL     1      -3.121 -15.181  43.415  1.00  0.00    -0.014 C 
ATOM      7  C   UNL     1      -2.111 -16.291  43.758  1.00  0.00     0.007 C 
ATOM      8  C   UNL     1      -2.386 -14.081  42.625  1.00  0.00     0.007 C 
ENDBRANCH   3   6
ENDBRANCH   2   3
ENDBRANCH   1   2
BRANCH   1   9
ATOM      9  C   UNL     1      -7.006 -13.159  42.122  1.00  0.00    -0.011 C 
ATOM     10  C   UNL     1      -8.037 -12.912  43.246  1.00  0.00     0.008 C 
BRANCH   9  11
ATOM     11  C   UNL     1      -5.734 -12.221  42.122  1.00  0.00    -0.002 C 
ATOM     12  C   UNL     1      -5.601 -11.275  43.323  1.00  0.00     0.005 C 
ATOM     13  C   UNL     1      -5.517 -11.320  40.875  1.00  0.00    -0.026 C 
ATOM     14  C   UNL     1      -4.747 -10.094  42.858  1.00  0.00     0.005 C 
ATOM     15  C   UNL     1      -4.430 -10.302  41.360  1.00  0.00    -0.001 C 
ATOM     16  C   UNL     1      -5.123 -12.160  39.613  1.00  0.00     0.007 C 
ATOM     17  C   UNL     1      -6.809 -10.523  40.531  1.00  0.00     0.012 C 
ATOM     18  C   UNL     1      -2.963 -10.795  41.177  1.00  0.00     0.000 C 
ATOM     19  C   UNL     1      -3.631 -12.481  39.435  1.00  0.00     0.005 C 
ATOM     20  C   UNL     1      -2.671 -11.319  39.760  1.00  0.00     0.003 C 
ATOM     21  C   UNL     1      -1.891  -9.751  41.542  1.00  0.00     0.031 C 
ATOM     22  C   UNL     1      -2.452 -10.205  38.634  1.00  0.00    -0.008 C 
ATOM     23  C   UNL     1      -1.805  -8.652  40.535  1.00  0.00    -0.027 C 
ATOM     24  C   UNL     1      -1.985  -8.859  39.218  1.00  0.00    -0.065 C 
ATOM     25  C   UNL     1      -3.747  -9.913  37.815  1.00  0.00     0.014 C 
ATOM     26  C   UNL     1      -1.347 -10.726  37.674  1.00  0.00     0.016 C 
ATOM     27  C   UNL     1      -1.854  -7.679  38.276  1.00  0.00     0.063 C 
ATOM     28  C   UNL     1      -3.647  -8.720  36.842  1.00  0.00     0.033 C 
ATOM     29  C   UNL     1      -3.180  -7.437  37.542  1.00  0.00     0.118 C 
BRANCH  29  30
ATOM     30  O   UNL     1      -4.168  -7.000  38.445  1.00  0.00    -0.393 OA
ATOM     31  H   UNL     1      -3.715  -6.391  39.086  1.00  0.00     0.210 HD
ENDBRANCH  29  30
ENDBRANCH   9  11
ENDBRANCH   1   9
TORSDOF 7
ENDMDL
MODEL 8
REMARK VINA RESULT:    -5.623      2.269      5.063
REMARK INTER + INTRA:          -9.469
REMARK INTER:                  -7.067
REMARK INTRA:                  -2.401
REMARK UNBOUND:                -1.710
REMARK SMILES CC[C@H](CC[C@@H](C)[C@@H]1CC[C@H]2[C@@H]3CC=C4C[C@H](O)CC[C@]4(C)[C@@H]3CC[C@]21C)C(C)C
REMARK SMILES IDX 5 1 4 2 3 3 2 4 1 5 28 6 29 7 30 8 6 9 7 10 8 11 9 12 26 13
REMARK SMILES IDX 10 14 11 15 25 16 27 17 12 18 24 19 23 20 13 21 21 22 14 23
REMARK SMILES IDX 15 24 20 25 22 26 16 27 19 28 17 29 18 30
REMARK H PARENT 18 31
REMARK Flexibility Score: inf
ROOT
ATOM      1  C   UNL     1      -4.296  -5.103  33.585  1.00  0.00     0.004 C 
ENDROOT
BRANCH   1   2
ATOM      2  C   UNL     1      -2.853  -5.644  33.473  1.00  0.00     0.004 C 
BRANCH   2   3
ATOM      3  C   UNL     1      -2.608  -6.433  32.149  1.00  0.00    -0.009 C 
BRANCH   3   4
ATOM      4  C   UNL     1      -2.400  -7.944  32.455  1.00  0.00     0.000 C 
ATOM      5  C   UNL     1      -1.103  -8.262  33.204  1.00  0.00     0.004 C 
ENDBRANCH   3   4
BRANCH   3   6
ATOM      6  C   UNL     1      -3.723  -6.160  31.079  1.00  0.00    -0.014 C 
ATOM      7  C   UNL     1      -3.144  -6.094  29.655  1.00  0.00     0.007 C 
ATOM      8  C   UNL     1      -4.833  -7.227  31.104  1.00  0.00     0.007 C 
ENDBRANCH   3   6
ENDBRANCH   2   3
ENDBRANCH   1   2
BRANCH   1   9
ATOM      9  C   UNL     1      -5.159  -5.783  34.679  1.00  0.00    -0.011 C 
ATOM     10  C   UNL     1      -6.659  -5.710  34.314  1.00  0.00     0.008 C 
BRANCH   9  11
ATOM     11  C   UNL     1      -4.608  -7.208  35.086  1.00  0.00    -0.002 C 
ATOM     12  C   UNL     1      -5.485  -8.403  34.686  1.00  0.00     0.005 C 
ATOM     13  C   UNL     1      -4.274  -7.438  36.586  1.00  0.00    -0.026 C 
ATOM     14  C   UNL     1      -5.149  -9.536  35.657  1.00  0.00     0.005 C 
ATOM     15  C   UNL     1      -4.123  -8.995  36.679  1.00  0.00    -0.001 C 
ATOM     16  C   UNL     1      -3.013  -6.622  37.031  1.00  0.00     0.007 C 
ATOM     17  C   UNL     1      -5.462  -7.010  37.494  1.00  0.00     0.012 C 
ATOM     18  C   UNL     1      -2.694  -9.521  36.347  1.00  0.00     0.000 C 
ATOM     19  C   UNL     1      -1.644  -7.280  36.796  1.00  0.00     0.005 C 
ATOM     20  C   UNL     1      -1.583  -8.787  37.117  1.00  0.00     0.003 C 
ATOM     21  C   UNL     1      -2.512 -11.036  36.553  1.00  0.00     0.031 C 
ATOM     22  C   UNL     1      -1.398  -9.209  38.649  1.00  0.00    -0.008 C 
ATOM     23  C   UNL     1      -2.478 -11.412  37.997  1.00  0.00    -0.027 C 
ATOM     24  C   UNL     1      -1.916 -10.629  38.937  1.00  0.00    -0.065 C 
ATOM     25  C   UNL     1      -2.144  -8.253  39.631  1.00  0.00     0.014 C 
ATOM     26  C   UNL     1       0.124  -9.174  38.960  1.00  0.00     0.016 C 
ATOM     27  C   UNL     1      -1.913 -11.114  40.373  1.00  0.00     0.063 C 
ATOM     28  C   UNL     1      -2.156  -8.713  41.104  1.00  0.00     0.033 C 
ATOM     29  C   UNL     1      -2.699 -10.140  41.262  1.00  0.00     0.118 C 
BRANCH  29  30
ATOM     30  O   UNL     1      -4.066 -10.169  40.931  1.00  0.00    -0.393 OA
ATOM     31  H   UNL     1      -4.521  -9.541  41.554  1.00  0.00     0.210 HD
ENDBRANCH  29  30
ENDBRANCH   9  11
ENDBRANCH   1   9
TORSDOF 7
ENDMDL
