MODEL 1
REMARK VINA RESULT:    -4.001      0.000      0.000
REMARK INTER + INTRA:          -5.501
REMARK INTER:                  -5.404
REMARK INTRA:                  -0.098
REMARK UNBOUND:                -0.098
REMARK SMILES [NH3+]CCCC[C@@H]([NH3+])C(=O)[O-]
REMARK SMILES IDX 4 1 3 2 2 3 1 4 5 8 6 9 7 10 8 14 9 15 10 16
REMARK H PARENT 1 5 1 6 1 7 7 11 7 12 7 13
REMARK Flexibility Score: inf
ROOT
ATOM      1  C   UNL     1      -2.856  10.642  17.460  1.00  0.00     0.012 C 
ENDROOT
BRANCH   1   2
ATOM      2  C   UNL     1      -2.441   9.423  18.303  1.00  0.00     0.061 C 
BRANCH   2   3
ATOM      3  C   UNL     1      -1.625   8.356  17.547  1.00  0.00     0.258 C 
BRANCH   3   4
ATOM      4  N   UNL     1      -1.665   8.549  16.095  1.00  0.00    -0.358 N 
ATOM      5  H   UNL     1      -1.105   9.389  15.827  1.00  0.00     0.344 HD
ATOM      6  H   UNL     1      -1.244   7.712  15.630  1.00  0.00     0.344 HD
ATOM      7  H   UNL     1      -2.652   8.654  15.767  1.00  0.00     0.344 HD
ENDBRANCH   3   4
ENDBRANCH   2   3
ENDBRANCH   1   2
BRANCH   1   8
ATOM      8  C   UNL     1      -4.382  10.780  17.319  1.00  0.00     0.072 C 
BRANCH   8   9
ATOM      9  C   UNL     1      -4.823  12.232  17.017  1.00  0.00     0.227 C 
BRANCH   9  10
ATOM     10  N   UNL     1      -4.553  12.607  15.621  1.00  0.00    -0.350 N 
ATOM     11  H   UNL     1      -3.817  11.980  15.221  1.00  0.00     0.345 HD
ATOM     12  H   UNL     1      -4.227  13.599  15.559  1.00  0.00     0.345 HD
ATOM     13  H   UNL     1      -5.414  12.487  15.041  1.00  0.00     0.345 HD
ENDBRANCH   9  10
BRANCH   9  14
ATOM     14  C   UNL     1      -6.289  12.388  17.321  1.00  0.00     0.099 C 
ATOM     15  O   UNL     1      -6.794  13.534  17.458  1.00  0.00    -0.544 OA
ATOM     16  O   UNL     1      -7.098  11.265  17.434  1.00  0.00    -0.544 OA
ENDBRANCH   9  14
ENDBRANCH   8   9
ENDBRANCH   1   8
TORSDOF 7
ENDMDL
MODEL 2
REMARK VINA RESULT:    -3.918      2.714      3.805
REMARK INTER + INTRA:          -5.390
REMARK INTER:                  -4.875
REMARK INTRA:                  -0.515
REMARK UNBOUND:                -0.098
REMARK SMILES [NH3+]CCCC[C@@H]([NH3+])C(=O)[O-]
REMARK SMILES IDX 4 1 3 2 2 3 1 4 5 8 6 9 7 10 8 14 9 15 10 16
REMARK H PARENT 1 5 1 6 1 7 7 11 7 12 7 13
REMARK Flexibility Score: inf
ROOT
ATOM      1  C   UNL     1      -7.401  11.675  17.770  1.00  0.00     0.012 C 
ENDROOT
BRANCH   1   2
ATOM      2  C   UNL     1      -7.582  10.506  16.785  1.00  0.00     0.061 C 
BRANCH   2   3
ATOM      3  C   UNL     1      -7.350   9.106  17.386  1.00  0.00     0.258 C 
BRANCH   3   4
ATOM      4  N   UNL     1      -6.129   8.476  16.879  1.00  0.00    -0.358 N 
ATOM      5  H   UNL     1      -6.309   7.472  16.650  1.00  0.00     0.344 HD
ATOM      6  H   UNL     1      -5.834   8.964  16.003  1.00  0.00     0.344 HD
ATOM      7  H   UNL     1      -5.358   8.553  17.582  1.00  0.00     0.344 HD
ENDBRANCH   3   4
ENDBRANCH   2   3
ENDBRANCH   1   2
BRANCH   1   8
ATOM      8  C   UNL     1      -6.286  12.647  17.346  1.00  0.00     0.072 C 
BRANCH   8   9
ATOM      9  C   UNL     1      -5.185  11.960  16.504  1.00  0.00     0.227 C 
BRANCH   9  10
ATOM     10  N   UNL     1      -4.674  12.844  15.446  1.00  0.00    -0.350 N 
ATOM     11  H   UNL     1      -5.435  13.483  15.118  1.00  0.00     0.345 HD
ATOM     12  H   UNL     1      -4.324  12.287  14.632  1.00  0.00     0.345 HD
ATOM     13  H   UNL     1      -3.902  13.442  15.816  1.00  0.00     0.345 HD
ENDBRANCH   9  10
BRANCH   9  14
ATOM     14  C   UNL     1      -4.059  11.523  17.403  1.00  0.00     0.099 C 
ATOM     15  O   UNL     1      -3.470  12.358  18.138  1.00  0.00    -0.544 OA
ATOM     16  O   UNL     1      -3.678  10.189  17.439  1.00  0.00    -0.544 OA
ENDBRANCH   9  14
ENDBRANCH   8   9
ENDBRANCH   1   8
TORSDOF 7
ENDMDL
MODEL 3
REMARK VINA RESULT:    -3.896      2.031      2.431
REMARK INTER + INTRA:          -5.361
REMARK INTER:                  -5.255
REMARK INTRA:                  -0.106
REMARK UNBOUND:                -0.098
REMARK SMILES [NH3+]CCCC[C@@H]([NH3+])C(=O)[O-]
REMARK SMILES IDX 4 1 3 2 2 3 1 4 5 8 6 9 7 10 8 14 9 15 10 16
REMARK H PARENT 1 5 1 6 1 7 7 11 7 12 7 13
REMARK Flexibility Score: inf
ROOT
ATOM      1  C   UNL     1      -2.797  10.857  17.538  1.00  0.00     0.012 C 
ENDROOT
BRANCH   1   2
ATOM      2  C   UNL     1      -2.287  11.326  18.913  1.00  0.00     0.061 C 
BRANCH   2   3
ATOM      3  C   UNL     1      -1.960  12.829  19.007  1.00  0.00     0.258 C 
BRANCH   3   4
ATOM      4  N   UNL     1      -0.519  13.090  18.981  1.00  0.00    -0.358 N 
ATOM      5  H   UNL     1      -0.065  12.690  19.833  1.00  0.00     0.344 HD
ATOM      6  H   UNL     1      -0.105  12.626  18.140  1.00  0.00     0.344 HD
ATOM      7  H   UNL     1      -0.334  14.118  18.923  1.00  0.00     0.344 HD
ENDBRANCH   3   4
ENDBRANCH   2   3
ENDBRANCH   1   2
BRANCH   1   8
ATOM      8  C   UNL     1      -4.331  10.767  17.468  1.00  0.00     0.072 C 
BRANCH   8   9
ATOM      9  C   UNL     1      -4.988  12.108  17.063  1.00  0.00     0.227 C 
BRANCH   9  10
ATOM     10  N   UNL     1      -4.530  12.566  15.744  1.00  0.00    -0.350 N 
ATOM     11  H   UNL     1      -3.636  13.101  15.844  1.00  0.00     0.345 HD
ATOM     12  H   UNL     1      -5.247  13.181  15.293  1.00  0.00     0.345 HD
ATOM     13  H   UNL     1      -4.335  11.748  15.124  1.00  0.00     0.345 HD
ENDBRANCH   9  10
BRANCH   9  14
ATOM     14  C   UNL     1      -6.486  11.958  17.068  1.00  0.00     0.099 C 
ATOM     15  O   UNL     1      -7.205  12.761  17.720  1.00  0.00    -0.544 OA
ATOM     16  O   UNL     1      -7.085  10.942  16.335  1.00  0.00    -0.544 OA
ENDBRANCH   9  14
ENDBRANCH   8   9
ENDBRANCH   1   8
TORSDOF 7
ENDMDL
MODEL 4
REMARK VINA RESULT:    -3.878      2.758      4.881
REMARK INTER + INTRA:          -5.335
REMARK INTER:                  -5.212
REMARK INTRA:                  -0.124
REMARK UNBOUND:                -0.098
REMARK SMILES [NH3+]CCCC[C@@H]([NH3+])C(=O)[O-]
REMARK SMILES IDX 4 1 3 2 2 3 1 4 5 8 6 9 7 10 8 14 9 15 10 16
REMARK H PARENT 1 5 1 6 1 7 7 11 7 12 7 13
REMARK Flexibility Score: inf
ROOT
ATOM      1  C   UNL     1      -5.389  11.784  17.474  1.00  0.00     0.012 C 
ENDROOT
BRANCH   1   2
ATOM      2  C   UNL     1      -6.089  12.994  16.831  1.00  0.00     0.061 C 
BRANCH   2   3
ATOM      3  C   UNL     1      -6.081  13.007  15.289  1.00  0.00     0.258 C 
BRANCH   3   4
ATOM      4  N   UNL     1      -5.260  14.092  14.744  1.00  0.00    -0.358 N 
ATOM      5  H   UNL     1      -4.329  14.112  15.218  1.00  0.00     0.344 HD
ATOM      6  H   UNL     1      -5.106  13.921  13.724  1.00  0.00     0.344 HD
ATOM      7  H   UNL     1      -5.745  15.011  14.861  1.00  0.00     0.344 HD
ENDBRANCH   3   4
ENDBRANCH   2   3
ENDBRANCH   1   2
BRANCH   1   8
ATOM      8  C   UNL     1      -3.908  11.665  17.073  1.00  0.00     0.072 C 
BRANCH   8   9
ATOM      9  C   UNL     1      -3.132  10.655  17.950  1.00  0.00     0.227 C 
BRANCH   9  10
ATOM     10  N   UNL     1      -2.273   9.777  17.143  1.00  0.00    -0.350 N 
ATOM     11  H   UNL     1      -2.376   8.786  17.465  1.00  0.00     0.345 HD
ATOM     12  H   UNL     1      -1.269  10.059  17.227  1.00  0.00     0.345 HD
ATOM     13  H   UNL     1      -2.561   9.810  16.140  1.00  0.00     0.345 HD
ENDBRANCH   9  10
BRANCH   9  14
ATOM     14  C   UNL     1      -2.306  11.399  18.965  1.00  0.00     0.099 C 
ATOM     15  O   UNL     1      -1.680  10.772  19.860  1.00  0.00    -0.544 OA
ATOM     16  O   UNL     1      -2.214  12.783  18.906  1.00  0.00    -0.544 OA
ENDBRANCH   9  14
ENDBRANCH   8   9
ENDBRANCH   1   8
TORSDOF 7
ENDMDL
MODEL 5
REMARK VINA RESULT:    -3.840      3.016      4.963
REMARK INTER + INTRA:          -5.284
REMARK INTER:                  -5.165
REMARK INTRA:                  -0.120
REMARK UNBOUND:                -0.098
REMARK SMILES [NH3+]CCCC[C@@H]([NH3+])C(=O)[O-]
REMARK SMILES IDX 4 1 3 2 2 3 1 4 5 8 6 9 7 10 8 14 9 15 10 16
REMARK H PARENT 1 5 1 6 1 7 7 11 7 12 7 13
REMARK Flexibility Score: inf
ROOT
ATOM      1  C   UNL     1      -6.015  12.264  17.071  1.00  0.00     0.012 C 
ENDROOT
BRANCH   1   2
ATOM      2  C   UNL     1      -6.059  12.539  15.557  1.00  0.00     0.061 C 
BRANCH   2   3
ATOM      3  C   UNL     1      -5.935  14.023  15.162  1.00  0.00     0.258 C 
BRANCH   3   4
ATOM      4  N   UNL     1      -6.203  14.246  13.738  1.00  0.00    -0.358 N 
ATOM      5  H   UNL     1      -6.613  15.195  13.593  1.00  0.00     0.344 HD
ATOM      6  H   UNL     1      -5.301  14.194  13.211  1.00  0.00     0.344 HD
ATOM      7  H   UNL     1      -6.851  13.512  13.369  1.00  0.00     0.344 HD
ENDBRANCH   3   4
ENDBRANCH   2   3
ENDBRANCH   1   2
BRANCH   1   8
ATOM      8  C   UNL     1      -5.193  11.013  17.428  1.00  0.00     0.072 C 
BRANCH   8   9
ATOM      9  C   UNL     1      -3.669  11.274  17.400  1.00  0.00     0.227 C 
BRANCH   9  10
ATOM     10  N   UNL     1      -3.303  12.470  18.172  1.00  0.00    -0.350 N 
ATOM     11  H   UNL     1      -3.224  13.295  17.534  1.00  0.00     0.345 HD
ATOM     12  H   UNL     1      -2.390  12.331  18.664  1.00  0.00     0.345 HD
ATOM     13  H   UNL     1      -4.046  12.688  18.874  1.00  0.00     0.345 HD
ENDBRANCH   9  10
BRANCH   9  14
ATOM     14  C   UNL     1      -2.940  10.069  17.934  1.00  0.00     0.099 C 
ATOM     15  O   UNL     1      -3.137   9.675  19.113  1.00  0.00    -0.544 OA
ATOM     16  O   UNL     1      -2.057   9.374  17.117  1.00  0.00    -0.544 OA
ENDBRANCH   9  14
ENDBRANCH   8   9
ENDBRANCH   1   8
TORSDOF 7
ENDMDL
MODEL 6
REMARK VINA RESULT:    -3.801      2.907      5.041
REMARK INTER + INTRA:          -5.232
REMARK INTER:                  -5.123
REMARK INTRA:                  -0.110
REMARK UNBOUND:                -0.098
REMARK SMILES [NH3+]CCCC[C@@H]([NH3+])C(=O)[O-]
REMARK SMILES IDX 4 1 3 2 2 3 1 4 5 8 6 9 7 10 8 14 9 15 10 16
REMARK H PARENT 1 5 1 6 1 7 7 11 7 12 7 13
REMARK Flexibility Score: inf
ROOT
ATOM      1  C   UNL     1      -4.853  11.347  17.297  1.00  0.00     0.012 C 
ENDROOT
BRANCH   1   2
ATOM      2  C   UNL     1      -5.373  12.766  17.004  1.00  0.00     0.061 C 
BRANCH   2   3
ATOM      3  C   UNL     1      -5.888  12.988  15.569  1.00  0.00     0.258 C 
BRANCH   3   4
ATOM      4  N   UNL     1      -5.003  13.855  14.786  1.00  0.00    -0.358 N 
ATOM      5  H   UNL     1      -5.491  14.184  13.923  1.00  0.00     0.344 HD
ATOM      6  H   UNL     1      -4.753  14.692  15.361  1.00  0.00     0.344 HD
ATOM      7  H   UNL     1      -4.124  13.348  14.533  1.00  0.00     0.344 HD
ENDBRANCH   3   4
ENDBRANCH   2   3
ENDBRANCH   1   2
BRANCH   1   8
ATOM      8  C   UNL     1      -3.323  11.289  17.445  1.00  0.00     0.072 C 
BRANCH   8   9
ATOM      9  C   UNL     1      -2.814   9.879  17.826  1.00  0.00     0.227 C 
BRANCH   9  10
ATOM     10  N   UNL     1      -1.984   9.291  16.765  1.00  0.00    -0.350 N 
ATOM     11  H   UNL     1      -2.409   8.393  16.437  1.00  0.00     0.345 HD
ATOM     12  H   UNL     1      -1.015   9.102  17.112  1.00  0.00     0.345 HD
ATOM     13  H   UNL     1      -1.938   9.934  15.943  1.00  0.00     0.345 HD
ENDBRANCH   9  10
BRANCH   9  14
ATOM     14  C   UNL     1      -2.036   9.952  19.112  1.00  0.00     0.099 C 
ATOM     15  O   UNL     1      -1.288   9.001  19.461  1.00  0.00    -0.544 OA
ATOM     16  O   UNL     1      -2.125  11.083  19.914  1.00  0.00    -0.544 OA
ENDBRANCH   9  14
ENDBRANCH   8   9
ENDBRANCH   1   8
TORSDOF 7
ENDMDL
MODEL 7
REMARK VINA RESULT:    -3.747      2.427      4.594
REMARK INTER + INTRA:          -5.159
REMARK INTER:                  -4.904
REMARK INTRA:                  -0.255
REMARK UNBOUND:                -0.098
REMARK SMILES [NH3+]CCCC[C@@H]([NH3+])C(=O)[O-]
REMARK SMILES IDX 4 1 3 2 2 3 1 4 5 8 6 9 7 10 8 14 9 15 10 16
REMARK H PARENT 1 5 1 6 1 7 7 11 7 12 7 13
REMARK Flexibility Score: inf
ROOT
ATOM      1  C   UNL     1      -6.787  11.728  17.581  1.00  0.00     0.012 C 
ENDROOT
BRANCH   1   2
ATOM      2  C   UNL     1      -6.483  13.098  16.949  1.00  0.00     0.061 C 
BRANCH   2   3
ATOM      3  C   UNL     1      -6.167  13.063  15.441  1.00  0.00     0.258 C 
BRANCH   3   4
ATOM      4  N   UNL     1      -4.727  13.072  15.171  1.00  0.00    -0.358 N 
ATOM      5  H   UNL     1      -4.318  12.131  15.367  1.00  0.00     0.344 HD
ATOM      6  H   UNL     1      -4.572  13.294  14.161  1.00  0.00     0.344 HD
ATOM      7  H   UNL     1      -4.251  13.800  15.752  1.00  0.00     0.344 HD
ENDBRANCH   3   4
ENDBRANCH   2   3
ENDBRANCH   1   2
BRANCH   1   8
ATOM      8  C   UNL     1      -5.968  10.585  16.956  1.00  0.00     0.072 C 
BRANCH   8   9
ATOM      9  C   UNL     1      -4.905  10.015  17.924  1.00  0.00     0.227 C 
BRANCH   9  10
ATOM     10  N   UNL     1      -4.790   8.554  17.813  1.00  0.00    -0.350 N 
ATOM     11  H   UNL     1      -5.743   8.123  17.789  1.00  0.00     0.345 HD
ATOM     12  H   UNL     1      -4.258   8.159  18.623  1.00  0.00     0.345 HD
ATOM     13  H   UNL     1      -4.309   8.296  16.922  1.00  0.00     0.345 HD
ENDBRANCH   9  10
BRANCH   9  14
ATOM     14  C   UNL     1      -3.573  10.662  17.651  1.00  0.00     0.099 C 
ATOM     15  O   UNL     1      -2.590   9.966  17.283  1.00  0.00    -0.544 OA
ATOM     16  O   UNL     1      -3.429  12.037  17.784  1.00  0.00    -0.544 OA
ENDBRANCH   9  14
ENDBRANCH   8   9
ENDBRANCH   1   8
TORSDOF 7
ENDMDL
MODEL 8
REMARK VINA RESULT:    -3.743     19.498     20.284
REMARK INTER + INTRA:          -5.154
REMARK INTER:                  -4.994
REMARK INTRA:                  -0.160
REMARK UNBOUND:                -0.098
REMARK SMILES [NH3+]CCCC[C@@H]([NH3+])C(=O)[O-]
REMARK SMILES IDX 4 1 3 2 2 3 1 4 5 8 6 9 7 10 8 14 9 15 10 16
REMARK H PARENT 1 5 1 6 1 7 7 11 7 12 7 13
REMARK Flexibility Score: inf
ROOT
ATOM      1  C   UNL     1       8.947  27.051  17.906  1.00  0.00     0.012 C 
ENDROOT
BRANCH   1   2
ATOM      2  C   UNL     1       8.712  28.051  16.761  1.00  0.00     0.061 C 
BRANCH   2   3
ATOM      3  C   UNL     1       7.308  27.999  16.128  1.00  0.00     0.258 C 
BRANCH   3   4
ATOM      4  N   UNL     1       6.976  26.667  15.615  1.00  0.00    -0.358 N 
ATOM      5  H   UNL     1       6.540  26.743  14.669  1.00  0.00     0.344 HD
ATOM      6  H   UNL     1       7.856  26.109  15.526  1.00  0.00     0.344 HD
ATOM      7  H   UNL     1       6.330  26.173  16.272  1.00  0.00     0.344 HD
ENDBRANCH   3   4
ENDBRANCH   2   3
ENDBRANCH   1   2
BRANCH   1   8
ATOM      8  C   UNL     1       8.406  27.551  19.257  1.00  0.00     0.072 C 
BRANCH   8   9
ATOM      9  C   UNL     1       6.939  27.126  19.506  1.00  0.00     0.227 C 
BRANCH   9  10
ATOM     10  N   UNL     1       6.674  25.764  19.019  1.00  0.00    -0.350 N 
ATOM     11  H   UNL     1       7.295  25.551  18.204  1.00  0.00     0.345 HD
ATOM     12  H   UNL     1       5.675  25.663  18.722  1.00  0.00     0.345 HD
ATOM     13  H   UNL     1       6.887  25.065  19.765  1.00  0.00     0.345 HD
ENDBRANCH   9  10
BRANCH   9  14
ATOM     14  C   UNL     1       6.628  27.220  20.976  1.00  0.00     0.099 C 
ATOM     15  O   UNL     1       7.403  27.837  21.754  1.00  0.00    -0.544 OA
ATOM     16  O   UNL     1       5.471  26.640  21.479  1.00  0.00    -0.544 OA
ENDBRANCH   9  14
ENDBRANCH   8   9
ENDBRANCH   1   8
TORSDOF 7
ENDMDL
MODEL 9
REMARK VINA RESULT:    -3.508      3.581      4.739
REMARK INTER + INTRA:          -4.836
REMARK INTER:                  -4.674
REMARK INTRA:                  -0.163
REMARK UNBOUND:                -0.098
REMARK SMILES [NH3+]CCCC[C@@H]([NH3+])C(=O)[O-]
REMARK SMILES IDX 4 1 3 2 2 3 1 4 5 8 6 9 7 10 8 14 9 15 10 16
REMARK H PARENT 1 5 1 6 1 7 7 11 7 12 7 13
REMARK Flexibility Score: inf
ROOT
ATOM      1  C   UNL     1      -7.504  12.152  17.865  1.00  0.00     0.012 C 
ENDROOT
BRANCH   1   2
ATOM      2  C   UNL     1      -6.124  12.669  17.419  1.00  0.00     0.061 C 
BRANCH   2   3
ATOM      3  C   UNL     1      -6.119  13.445  16.088  1.00  0.00     0.258 C 
BRANCH   3   4
ATOM      4  N   UNL     1      -4.968  13.103  15.248  1.00  0.00    -0.358 N 
ATOM      5  H   UNL     1      -4.401  12.351  15.700  1.00  0.00     0.344 HD
ATOM      6  H   UNL     1      -5.314  12.745  14.328  1.00  0.00     0.344 HD
ATOM      7  H   UNL     1      -4.376  13.948  15.077  1.00  0.00     0.344 HD
ENDBRANCH   3   4
ENDBRANCH   2   3
ENDBRANCH   1   2
BRANCH   1   8
ATOM      8  C   UNL     1      -7.591  10.616  17.884  1.00  0.00     0.072 C 
BRANCH   8   9
ATOM      9  C   UNL     1      -6.854   9.963  16.690  1.00  0.00     0.227 C 
BRANCH   9  10
ATOM     10  N   UNL     1      -5.800   9.040  17.136  1.00  0.00    -0.350 N 
ATOM     11  H   UNL     1      -5.149   8.835  16.343  1.00  0.00     0.345 HD
ATOM     12  H   UNL     1      -6.213   8.141  17.478  1.00  0.00     0.345 HD
ATOM     13  H   UNL     1      -5.236   9.476  17.899  1.00  0.00     0.345 HD
ENDBRANCH   9  10
BRANCH   9  14
ATOM     14  C   UNL     1      -7.846   9.237  15.821  1.00  0.00     0.099 C 
ATOM     15  O   UNL     1      -7.529   8.155  15.259  1.00  0.00    -0.544 OA
ATOM     16  O   UNL     1      -9.125   9.749  15.650  1.00  0.00    -0.544 OA
ENDBRANCH   9  14
ENDBRANCH   8   9
ENDBRANCH   1   8
TORSDOF 7
ENDMDL
