MODEL 1
REMARK VINA RESULT:    -2.770      0.000      0.000
REMARK INTER + INTRA:          -3.090
REMARK INTER:                  -3.094
REMARK INTRA:                   0.004
REMARK UNBOUND:                 0.004
REMARK SMILES CCCC(=O)[O-]
REMARK SMILES IDX 3 1 4 2 5 3 6 4 2 5 1 6
REMARK H PARENT
REMARK Flexibility Score: inf
ROOT
ATOM      1  C   UNL     1      38.516  51.831  34.837  1.00  0.00     0.052 C 
ENDROOT
BRANCH   1   2
ATOM      2  C   UNL     1      38.763  50.705  33.881  1.00  0.00     0.041 C 
ATOM      3  O   UNL     1      37.857  49.864  33.644  1.00  0.00    -0.550 OA
ATOM      4  O   UNL     1      39.985  50.605  33.226  1.00  0.00    -0.550 OA
ENDBRANCH   1   2
BRANCH   1   5
ATOM      5  C   UNL     1      39.332  51.672  36.125  1.00  0.00     0.003 C 
ATOM      6  C   UNL     1      40.697  52.355  36.037  1.00  0.00     0.004 C 
ENDBRANCH   1   5
TORSDOF 2
ENDMDL
MODEL 2
REMARK VINA RESULT:    -2.593     18.928     19.938
REMARK INTER + INTRA:          -2.892
REMARK INTER:                  -2.886
REMARK INTRA:                  -0.006
REMARK UNBOUND:                 0.004
REMARK SMILES CCCC(=O)[O-]
REMARK SMILES IDX 3 1 4 2 5 3 6 4 2 5 1 6
REMARK H PARENT
REMARK Flexibility Score: inf
ROOT
ATOM      1  C   UNL     1      37.677  37.810  20.350  1.00  0.00     0.052 C 
ENDROOT
BRANCH   1   2
ATOM      2  C   UNL     1      37.338  39.227  20.003  1.00  0.00     0.041 C 
ATOM      3  O   UNL     1      36.214  39.704  20.310  1.00  0.00    -0.550 OA
ATOM      4  O   UNL     1      38.278  40.031  19.370  1.00  0.00    -0.550 OA
ENDBRANCH   1   2
BRANCH   1   5
ATOM      5  C   UNL     1      38.493  37.134  19.242  1.00  0.00     0.003 C 
ATOM      6  C   UNL     1      38.465  35.609  19.346  1.00  0.00     0.004 C 
ENDBRANCH   1   5
TORSDOF 2
ENDMDL
MODEL 3
REMARK VINA RESULT:    -2.576     11.567     12.411
REMARK INTER + INTRA:          -2.873
REMARK INTER:                  -2.866
REMARK INTRA:                  -0.007
REMARK UNBOUND:                 0.004
REMARK SMILES CCCC(=O)[O-]
REMARK SMILES IDX 3 1 4 2 5 3 6 4 2 5 1 6
REMARK H PARENT
REMARK Flexibility Score: inf
ROOT
ATOM      1  C   UNL     1      35.217  46.872  24.469  1.00  0.00     0.052 C 
ENDROOT
BRANCH   1   2
ATOM      2  C   UNL     1      34.022  46.401  25.241  1.00  0.00     0.041 C 
ATOM      3  O   UNL     1      33.367  45.401  24.848  1.00  0.00    -0.550 OA
ATOM      4  O   UNL     1      33.653  47.049  26.413  1.00  0.00    -0.550 OA
ENDBRANCH   1   2
BRANCH   1   5
ATOM      5  C   UNL     1      34.942  46.902  22.961  1.00  0.00     0.003 C 
ATOM      6  C   UNL     1      35.648  48.064  22.263  1.00  0.00     0.004 C 
ENDBRANCH   1   5
TORSDOF 2
ENDMDL
MODEL 4
REMARK VINA RESULT:    -2.541     18.947     19.674
REMARK INTER + INTRA:          -2.834
REMARK INTER:                  -2.825
REMARK INTRA:                  -0.009
REMARK UNBOUND:                 0.004
REMARK SMILES CCCC(=O)[O-]
REMARK SMILES IDX 3 1 4 2 5 3 6 4 2 5 1 6
REMARK H PARENT
REMARK Flexibility Score: inf
ROOT
ATOM      1  C   UNL     1      38.372  39.820  19.269  1.00  0.00     0.052 C 
ENDROOT
BRANCH   1   2
ATOM      2  C   UNL     1      37.330  39.082  20.052  1.00  0.00     0.041 C 
ATOM      3  O   UNL     1      36.276  39.667  20.415  1.00  0.00    -0.550 OA
ATOM      4  O   UNL     1      37.509  37.737  20.351  1.00  0.00    -0.550 OA
ENDBRANCH   1   2
BRANCH   1   5
ATOM      5  C   UNL     1      39.330  38.860  18.553  1.00  0.00     0.003 C 
ATOM      6  C   UNL     1      39.995  39.502  17.336  1.00  0.00     0.004 C 
ENDBRANCH   1   5
TORSDOF 2
ENDMDL
MODEL 5
REMARK VINA RESULT:    -2.540     19.499     20.362
REMARK INTER + INTRA:          -2.833
REMARK INTER:                  -2.794
REMARK INTRA:                  -0.039
REMARK UNBOUND:                 0.004
REMARK SMILES CCCC(=O)[O-]
REMARK SMILES IDX 3 1 4 2 5 3 6 4 2 5 1 6
REMARK H PARENT
REMARK Flexibility Score: inf
ROOT
ATOM      1  C   UNL     1      37.557  37.220  20.434  1.00  0.00     0.052 C 
ENDROOT
BRANCH   1   2
ATOM      2  C   UNL     1      38.398  36.759  19.283  1.00  0.00     0.041 C 
ATOM      3  O   UNL     1      39.309  37.498  18.826  1.00  0.00    -0.550 OA
ATOM      4  O   UNL     1      38.195  35.498  18.736  1.00  0.00    -0.550 OA
ENDBRANCH   1   2
BRANCH   1   5
ATOM      5  C   UNL     1      37.739  38.719  20.704  1.00  0.00     0.003 C 
ATOM      6  C   UNL     1      36.601  39.557  20.121  1.00  0.00     0.004 C 
ENDBRANCH   1   5
TORSDOF 2
ENDMDL
MODEL 6
REMARK VINA RESULT:    -2.439     19.519     19.966
REMARK INTER + INTRA:          -2.721
REMARK INTER:                  -2.707
REMARK INTRA:                  -0.014
REMARK UNBOUND:                 0.004
REMARK SMILES CCCC(=O)[O-]
REMARK SMILES IDX 3 1 4 2 5 3 6 4 2 5 1 6
REMARK H PARENT
REMARK Flexibility Score: inf
ROOT
ATOM      1  C   UNL     1      38.720  39.976  19.005  1.00  0.00     0.052 C 
ENDROOT
BRANCH   1   2
ATOM      2  C   UNL     1      39.557  39.150  18.076  1.00  0.00     0.041 C 
ATOM      3  O   UNL     1      39.887  39.602  16.949  1.00  0.00    -0.550 OA
ATOM      4  O   UNL     1      39.999  37.894  18.471  1.00  0.00    -0.550 OA
ENDBRANCH   1   2
BRANCH   1   5
ATOM      5  C   UNL     1      38.056  39.116  20.087  1.00  0.00     0.003 C 
ATOM      6  C   UNL     1      36.573  39.442  20.260  1.00  0.00     0.004 C 
ENDBRANCH   1   5
TORSDOF 2
ENDMDL
MODEL 7
REMARK VINA RESULT:    -2.316     17.472     18.020
REMARK INTER + INTRA:          -2.582
REMARK INTER:                  -2.577
REMARK INTRA:                  -0.005
REMARK UNBOUND:                 0.004
REMARK SMILES CCCC(=O)[O-]
REMARK SMILES IDX 3 1 4 2 5 3 6 4 2 5 1 6
REMARK H PARENT
REMARK Flexibility Score: inf
ROOT
ATOM      1  C   UNL     1      23.217  53.831  28.346  1.00  0.00     0.052 C 
ENDROOT
BRANCH   1   2
ATOM      2  C   UNL     1      22.199  54.594  29.137  1.00  0.00     0.041 C 
ATOM      3  O   UNL     1      21.212  55.121  28.560  1.00  0.00    -0.550 OA
ATOM      4  O   UNL     1      22.323  54.693  30.517  1.00  0.00    -0.550 OA
ENDBRANCH   1   2
BRANCH   1   5
ATOM      5  C   UNL     1      22.968  52.319  28.409  1.00  0.00     0.003 C 
ATOM      6  C   UNL     1      23.781  51.552  27.366  1.00  0.00     0.004 C 
ENDBRANCH   1   5
TORSDOF 2
ENDMDL
MODEL 8
REMARK VINA RESULT:    -2.264     19.805     20.909
REMARK INTER + INTRA:          -2.525
REMARK INTER:                  -2.520
REMARK INTRA:                  -0.005
REMARK UNBOUND:                 0.004
REMARK SMILES CCCC(=O)[O-]
REMARK SMILES IDX 3 1 4 2 5 3 6 4 2 5 1 6
REMARK H PARENT
REMARK Flexibility Score: inf
ROOT
ATOM      1  C   UNL     1      38.664  37.420  19.260  1.00  0.00     0.052 C 
ENDROOT
BRANCH   1   2
ATOM      2  C   UNL     1      38.441  35.942  19.163  1.00  0.00     0.041 C 
ATOM      3  O   UNL     1      38.290  35.395  18.039  1.00  0.00    -0.550 OA
ATOM      4  O   UNL     1      38.435  35.163  20.314  1.00  0.00    -0.550 OA
ENDBRANCH   1   2
BRANCH   1   5
ATOM      5  C   UNL     1      37.657  38.085  20.206  1.00  0.00     0.003 C 
ATOM      6  C   UNL     1      37.407  39.551  19.853  1.00  0.00     0.004 C 
ENDBRANCH   1   5
TORSDOF 2
ENDMDL
MODEL 9
REMARK VINA RESULT:    -2.155     27.779     28.313
REMARK INTER + INTRA:          -2.403
REMARK INTER:                  -2.350
REMARK INTRA:                  -0.053
REMARK UNBOUND:                 0.004
REMARK SMILES CCCC(=O)[O-]
REMARK SMILES IDX 3 1 4 2 5 3 6 4 2 5 1 6
REMARK H PARENT
REMARK Flexibility Score: inf
ROOT
ATOM      1  C   UNL     1      22.284  37.071  17.349  1.00  0.00     0.052 C 
ENDROOT
BRANCH   1   2
ATOM      2  C   UNL     1      23.103  35.836  17.128  1.00  0.00     0.041 C 
ATOM      3  O   UNL     1      22.700  34.940  16.341  1.00  0.00    -0.550 OA
ATOM      4  O   UNL     1      24.327  35.691  17.768  1.00  0.00    -0.550 OA
ENDBRANCH   1   2
BRANCH   1   5
ATOM      5  C   UNL     1      20.886  36.737  17.884  1.00  0.00     0.003 C 
ATOM      6  C   UNL     1      20.883  36.492  19.392  1.00  0.00     0.004 C 
ENDBRANCH   1   5
TORSDOF 2
ENDMDL
