MODEL 1
REMARK VINA RESULT:    -5.347      0.000      0.000
REMARK INTER + INTRA:          -9.327
REMARK INTER:                  -8.160
REMARK INTRA:                  -1.167
REMARK UNBOUND:                -1.167
REMARK SMILES CCCCCCCCCCC(=O)[O-]
REMARK SMILES IDX 7 1 8 2 9 3 10 4 11 5 12 6 13 7 6 8 5 9 4 10 3 11 2 12 1 13
REMARK H PARENT
REMARK Flexibility Score: inf
ROOT
ATOM      1  C   UNL     1      -4.600  36.813 101.437  1.00  0.00     0.000 C 
ENDROOT
BRANCH   1   2
ATOM      2  C   UNL     1      -3.101  36.681 101.757  1.00  0.00     0.000 C 
BRANCH   2   3
ATOM      3  C   UNL     1      -2.229  37.887 101.355  1.00  0.00     0.006 C 
BRANCH   3   4
ATOM      4  C   UNL     1      -2.934  39.249 101.499  1.00  0.00     0.053 C 
BRANCH   4   5
ATOM      5  C   UNL     1      -2.318  40.110 102.561  1.00  0.00     0.041 C 
ATOM      6  O   UNL     1      -3.038  40.873 103.257  1.00  0.00    -0.550 OA
ATOM      7  O   UNL     1      -0.942  40.101 102.754  1.00  0.00    -0.550 OA
ENDBRANCH   4   5
ENDBRANCH   3   4
ENDBRANCH   2   3
ENDBRANCH   1   2
BRANCH   1   8
ATOM      8  C   UNL     1      -5.149  35.623 100.633  1.00  0.00     0.000 C 
BRANCH   8   9
ATOM      9  C   UNL     1      -4.053  34.616 100.248  1.00  0.00    -0.000 C 
BRANCH   9  10
ATOM     10  C   UNL     1      -3.803  34.563  98.729  1.00  0.00    -0.000 C 
BRANCH  10  11
ATOM     11  C   UNL     1      -2.872  35.687  98.246  1.00  0.00    -0.000 C 
BRANCH  11  12
ATOM     12  C   UNL     1      -3.576  36.669  97.298  1.00  0.00    -0.003 C 
ATOM     13  C   UNL     1      -3.949  37.960  98.022  1.00  0.00     0.004 C 
ENDBRANCH  11  12
ENDBRANCH  10  11
ENDBRANCH   9  10
ENDBRANCH   8   9
ENDBRANCH   1   8
TORSDOF 9
ENDMDL
MODEL 2
REMARK VINA RESULT:    -5.209      2.737      4.812
REMARK INTER + INTRA:          -9.116
REMARK INTER:                  -8.279
REMARK INTRA:                  -0.837
REMARK UNBOUND:                -1.167
REMARK SMILES CCCCCCCCCCC(=O)[O-]
REMARK SMILES IDX 7 1 8 2 9 3 10 4 11 5 12 6 13 7 6 8 5 9 4 10 3 11 2 12 1 13
REMARK H PARENT
REMARK Flexibility Score: inf
ROOT
ATOM      1  C   UNL     1      -3.390  34.976 100.078  1.00  0.00     0.000 C 
ENDROOT
BRANCH   1   2
ATOM      2  C   UNL     1      -3.077  35.042  98.574  1.00  0.00     0.000 C 
BRANCH   2   3
ATOM      3  C   UNL     1      -3.182  36.441  97.936  1.00  0.00     0.006 C 
BRANCH   3   4
ATOM      4  C   UNL     1      -4.429  36.639  97.054  1.00  0.00     0.053 C 
BRANCH   4   5
ATOM      5  C   UNL     1      -5.240  37.834  97.459  1.00  0.00     0.041 C 
ATOM      6  O   UNL     1      -6.410  37.986  97.019  1.00  0.00    -0.550 OA
ATOM      7  O   UNL     1      -4.688  38.803  98.288  1.00  0.00    -0.550 OA
ENDBRANCH   4   5
ENDBRANCH   3   4
ENDBRANCH   2   3
ENDBRANCH   1   2
BRANCH   1   8
ATOM      8  C   UNL     1      -4.812  35.456 100.417  1.00  0.00     0.000 C 
BRANCH   8   9
ATOM      9  C   UNL     1      -4.814  36.748 101.249  1.00  0.00    -0.000 C 
BRANCH   9  10
ATOM     10  C   UNL     1      -3.424  37.094 101.813  1.00  0.00    -0.000 C 
BRANCH  10  11
ATOM     11  C   UNL     1      -2.920  38.466 101.337  1.00  0.00    -0.000 C 
BRANCH  11  12
ATOM     12  C   UNL     1      -2.228  39.260 102.455  1.00  0.00    -0.003 C 
ATOM     13  C   UNL     1      -2.794  40.674 102.555  1.00  0.00     0.004 C 
ENDBRANCH  11  12
ENDBRANCH  10  11
ENDBRANCH   9  10
ENDBRANCH   8   9
ENDBRANCH   1   8
TORSDOF 9
ENDMDL
MODEL 3
REMARK VINA RESULT:    -5.198      1.011      2.382
REMARK INTER + INTRA:          -9.099
REMARK INTER:                  -8.056
REMARK INTRA:                  -1.043
REMARK UNBOUND:                -1.167
REMARK SMILES CCCCCCCCCCC(=O)[O-]
REMARK SMILES IDX 7 1 8 2 9 3 10 4 11 5 12 6 13 7 6 8 5 9 4 10 3 11 2 12 1 13
REMARK H PARENT
REMARK Flexibility Score: inf
ROOT
ATOM      1  C   UNL     1      -3.403  38.601  99.710  1.00  0.00     0.000 C 
ENDROOT
BRANCH   1   2
ATOM      2  C   UNL     1      -3.906  37.849 100.953  1.00  0.00     0.000 C 
BRANCH   2   3
ATOM      3  C   UNL     1      -2.815  37.421 101.954  1.00  0.00     0.006 C 
BRANCH   3   4
ATOM      4  C   UNL     1      -2.799  38.242 103.257  1.00  0.00     0.053 C 
BRANCH   4   5
ATOM      5  C   UNL     1      -2.372  39.663 103.040  1.00  0.00     0.041 C 
ATOM      6  O   UNL     1      -3.102  40.612 103.432  1.00  0.00    -0.550 OA
ATOM      7  O   UNL     1      -1.190  39.941 102.365  1.00  0.00    -0.550 OA
ENDBRANCH   4   5
ENDBRANCH   3   4
ENDBRANCH   2   3
ENDBRANCH   1   2
BRANCH   1   8
ATOM      8  C   UNL     1      -4.412  38.582  98.548  1.00  0.00     0.000 C 
BRANCH   8   9
ATOM      9  C   UNL     1      -4.545  37.192  97.907  1.00  0.00    -0.000 C 
BRANCH   9  10
ATOM     10  C   UNL     1      -3.189  36.602  97.480  1.00  0.00    -0.000 C 
BRANCH  10  11
ATOM     11  C   UNL     1      -2.862  35.289  98.208  1.00  0.00    -0.000 C 
BRANCH  11  12
ATOM     12  C   UNL     1      -4.112  34.608  98.786  1.00  0.00    -0.003 C 
ATOM     13  C   UNL     1      -3.918  34.267 100.261  1.00  0.00     0.004 C 
ENDBRANCH  11  12
ENDBRANCH  10  11
ENDBRANCH   9  10
ENDBRANCH   8   9
ENDBRANCH   1   8
TORSDOF 9
ENDMDL
MODEL 4
REMARK VINA RESULT:    -5.146      3.266      4.378
REMARK INTER + INTRA:          -9.019
REMARK INTER:                  -8.046
REMARK INTRA:                  -0.974
REMARK UNBOUND:                -1.167
REMARK SMILES CCCCCCCCCCC(=O)[O-]
REMARK SMILES IDX 7 1 8 2 9 3 10 4 11 5 12 6 13 7 6 8 5 9 4 10 3 11 2 12 1 13
REMARK H PARENT
REMARK Flexibility Score: inf
ROOT
ATOM      1  C   UNL     1      -3.373  38.396 101.370  1.00  0.00     0.000 C 
ENDROOT
BRANCH   1   2
ATOM      2  C   UNL     1      -2.994  38.580  99.890  1.00  0.00     0.000 C 
BRANCH   2   3
ATOM      3  C   UNL     1      -4.126  39.088  98.975  1.00  0.00     0.006 C 
BRANCH   3   4
ATOM      4  C   UNL     1      -4.557  38.082  97.891  1.00  0.00     0.053 C 
BRANCH   4   5
ATOM      5  C   UNL     1      -5.741  38.556  97.102  1.00  0.00     0.041 C 
ATOM      6  O   UNL     1      -6.782  37.849  97.032  1.00  0.00    -0.550 OA
ATOM      7  O   UNL     1      -5.682  39.758  96.408  1.00  0.00    -0.550 OA
ENDBRANCH   4   5
ENDBRANCH   3   4
ENDBRANCH   2   3
ENDBRANCH   1   2
BRANCH   1   8
ATOM      8  C   UNL     1      -2.879  37.062 101.955  1.00  0.00     0.000 C 
BRANCH   8   9
ATOM      9  C   UNL     1      -2.293  36.130 100.882  1.00  0.00    -0.000 C 
BRANCH   9  10
ATOM     10  C   UNL     1      -3.262  35.002 100.483  1.00  0.00    -0.000 C 
BRANCH  10  11
ATOM     11  C   UNL     1      -3.352  34.814  98.960  1.00  0.00    -0.000 C 
BRANCH  11  12
ATOM     12  C   UNL     1      -4.724  34.289  98.511  1.00  0.00    -0.003 C 
ATOM     13  C   UNL     1      -5.855  35.063  99.182  1.00  0.00     0.004 C 
ENDBRANCH  11  12
ENDBRANCH  10  11
ENDBRANCH   9  10
ENDBRANCH   8   9
ENDBRANCH   1   8
TORSDOF 9
ENDMDL
MODEL 5
REMARK VINA RESULT:    -4.988      1.247      1.680
REMARK INTER + INTRA:          -8.780
REMARK INTER:                  -7.995
REMARK INTRA:                  -0.785
REMARK UNBOUND:                -1.167
REMARK SMILES CCCCCCCCCCC(=O)[O-]
REMARK SMILES IDX 7 1 8 2 9 3 10 4 11 5 12 6 13 7 6 8 5 9 4 10 3 11 2 12 1 13
REMARK H PARENT
REMARK Flexibility Score: inf
ROOT
ATOM      1  C   UNL     1      -3.908  37.378 100.964  1.00  0.00     0.000 C 
ENDROOT
BRANCH   1   2
ATOM      2  C   UNL     1      -3.086  38.614 100.559  1.00  0.00     0.000 C 
BRANCH   2   3
ATOM      3  C   UNL     1      -2.083  39.116 101.616  1.00  0.00     0.006 C 
BRANCH   3   4
ATOM      4  C   UNL     1      -2.737  39.811 102.825  1.00  0.00     0.053 C 
BRANCH   4   5
ATOM      5  C   UNL     1      -2.589  41.303 102.785  1.00  0.00     0.041 C 
ATOM      6  O   UNL     1      -3.482  42.015 102.254  1.00  0.00    -0.550 OA
ATOM      7  O   UNL     1      -1.445  41.904 103.294  1.00  0.00    -0.550 OA
ENDBRANCH   4   5
ENDBRANCH   3   4
ENDBRANCH   2   3
ENDBRANCH   1   2
BRANCH   1   8
ATOM      8  C   UNL     1      -3.039  36.133 101.207  1.00  0.00     0.000 C 
BRANCH   8   9
ATOM      9  C   UNL     1      -3.377  34.982 100.246  1.00  0.00    -0.000 C 
BRANCH   9  10
ATOM     10  C   UNL     1      -4.858  34.974  99.826  1.00  0.00    -0.000 C 
BRANCH  10  11
ATOM     11  C   UNL     1      -5.038  34.860  98.304  1.00  0.00    -0.000 C 
BRANCH  11  12
ATOM     12  C   UNL     1      -5.149  36.230  97.619  1.00  0.00    -0.003 C 
ATOM     13  C   UNL     1      -3.805  36.666  97.043  1.00  0.00     0.004 C 
ENDBRANCH  11  12
ENDBRANCH  10  11
ENDBRANCH   9  10
ENDBRANCH   8   9
ENDBRANCH   1   8
TORSDOF 9
ENDMDL
MODEL 6
REMARK VINA RESULT:    -4.970      1.484      2.686
REMARK INTER + INTRA:          -8.751
REMARK INTER:                  -8.130
REMARK INTRA:                  -0.621
REMARK UNBOUND:                -1.167
REMARK SMILES CCCCCCCCCCC(=O)[O-]
REMARK SMILES IDX 7 1 8 2 9 3 10 4 11 5 12 6 13 7 6 8 5 9 4 10 3 11 2 12 1 13
REMARK H PARENT
REMARK Flexibility Score: inf
ROOT
ATOM      1  C   UNL     1      -2.465  37.847 101.412  1.00  0.00     0.000 C 
ENDROOT
BRANCH   1   2
ATOM      2  C   UNL     1      -2.684  39.364 101.546  1.00  0.00     0.000 C 
BRANCH   2   3
ATOM      3  C   UNL     1      -2.433  39.947 102.951  1.00  0.00     0.006 C 
BRANCH   3   4
ATOM      4  C   UNL     1      -2.744  41.451 103.073  1.00  0.00     0.053 C 
BRANCH   4   5
ATOM      5  C   UNL     1      -1.528  42.269 103.392  1.00  0.00     0.041 C 
ATOM      6  O   UNL     1      -1.649  43.429 103.866  1.00  0.00    -0.550 OA
ATOM      7  O   UNL     1      -0.260  41.766 103.125  1.00  0.00    -0.550 OA
ENDBRANCH   4   5
ENDBRANCH   3   4
ENDBRANCH   2   3
ENDBRANCH   1   2
BRANCH   1   8
ATOM      8  C   UNL     1      -3.413  37.023 102.300  1.00  0.00     0.000 C 
BRANCH   8   9
ATOM      9  C   UNL     1      -4.775  36.773 101.634  1.00  0.00    -0.000 C 
BRANCH   9  10
ATOM     10  C   UNL     1      -4.656  36.505 100.122  1.00  0.00    -0.000 C 
BRANCH  10  11
ATOM     11  C   UNL     1      -5.218  35.132  99.722  1.00  0.00    -0.000 C 
BRANCH  11  12
ATOM     12  C   UNL     1      -4.181  34.258  98.999  1.00  0.00    -0.003 C 
ATOM     13  C   UNL     1      -2.906  35.045  98.710  1.00  0.00     0.004 C 
ENDBRANCH  11  12
ENDBRANCH  10  11
ENDBRANCH   9  10
ENDBRANCH   8   9
ENDBRANCH   1   8
TORSDOF 9
ENDMDL
MODEL 7
REMARK VINA RESULT:    -4.964      3.084      5.495
REMARK INTER + INTRA:          -8.743
REMARK INTER:                  -8.184
REMARK INTRA:                  -0.559
REMARK UNBOUND:                -1.167
REMARK SMILES CCCCCCCCCCC(=O)[O-]
REMARK SMILES IDX 7 1 8 2 9 3 10 4 11 5 12 6 13 7 6 8 5 9 4 10 3 11 2 12 1 13
REMARK H PARENT
REMARK Flexibility Score: inf
ROOT
ATOM      1  C   UNL     1      -2.878  35.375 100.661  1.00  0.00     0.000 C 
ENDROOT
BRANCH   1   2
ATOM      2  C   UNL     1      -2.945  35.125  99.144  1.00  0.00     0.000 C 
BRANCH   2   3
ATOM      3  C   UNL     1      -4.252  34.487  98.636  1.00  0.00     0.006 C 
BRANCH   3   4
ATOM      4  C   UNL     1      -5.496  35.382  98.803  1.00  0.00     0.053 C 
BRANCH   4   5
ATOM      5  C   UNL     1      -5.385  36.672  98.046  1.00  0.00     0.041 C 
ATOM      6  O   UNL     1      -5.327  37.768  98.665  1.00  0.00    -0.550 OA
ATOM      7  O   UNL     1      -5.389  36.669  96.658  1.00  0.00    -0.550 OA
ENDBRANCH   4   5
ENDBRANCH   3   4
ENDBRANCH   2   3
ENDBRANCH   1   2
BRANCH   1   8
ATOM      8  C   UNL     1      -2.769  36.867 101.019  1.00  0.00     0.000 C 
BRANCH   8   9
ATOM      9  C   UNL     1      -3.521  37.219 102.312  1.00  0.00    -0.000 C 
BRANCH   9  10
ATOM     10  C   UNL     1      -2.859  38.370 103.091  1.00  0.00    -0.000 C 
BRANCH  10  11
ATOM     11  C   UNL     1      -2.287  39.455 102.164  1.00  0.00    -0.000 C 
BRANCH  11  12
ATOM     12  C   UNL     1      -2.066  40.792 102.888  1.00  0.00    -0.003 C 
ATOM     13  C   UNL     1      -0.579  41.117 102.998  1.00  0.00     0.004 C 
ENDBRANCH  11  12
ENDBRANCH  10  11
ENDBRANCH   9  10
ENDBRANCH   8   9
ENDBRANCH   1   8
TORSDOF 9
ENDMDL
MODEL 8
REMARK VINA RESULT:    -4.944      2.858      5.222
REMARK INTER + INTRA:          -8.712
REMARK INTER:                  -8.001
REMARK INTRA:                  -0.711
REMARK UNBOUND:                -1.167
REMARK SMILES CCCCCCCCCCC(=O)[O-]
REMARK SMILES IDX 7 1 8 2 9 3 10 4 11 5 12 6 13 7 6 8 5 9 4 10 3 11 2 12 1 13
REMARK H PARENT
REMARK Flexibility Score: inf
ROOT
ATOM      1  C   UNL     1      -3.083  37.500  97.964  1.00  0.00     0.000 C 
ENDROOT
BRANCH   1   2
ATOM      2  C   UNL     1      -3.378  35.991  97.925  1.00  0.00     0.000 C 
BRANCH   2   3
ATOM      3  C   UNL     1      -2.845  35.181  99.123  1.00  0.00     0.006 C 
BRANCH   3   4
ATOM      4  C   UNL     1      -3.937  34.436  99.915  1.00  0.00     0.053 C 
BRANCH   4   5
ATOM      5  C   UNL     1      -5.203  35.230 100.041  1.00  0.00     0.041 C 
ATOM      6  O   UNL     1      -5.366  36.015 101.012  1.00  0.00    -0.550 OA
ATOM      7  O   UNL     1      -6.220  35.071  99.109  1.00  0.00    -0.550 OA
ENDBRANCH   4   5
ENDBRANCH   3   4
ENDBRANCH   2   3
ENDBRANCH   1   2
BRANCH   1   8
ATOM      8  C   UNL     1      -4.187  38.309  98.667  1.00  0.00     0.000 C 
BRANCH   8   9
ATOM      9  C   UNL     1      -3.646  39.156  99.830  1.00  0.00    -0.000 C 
BRANCH   9  10
ATOM     10  C   UNL     1      -2.576  38.418 100.655  1.00  0.00    -0.000 C 
BRANCH  10  11
ATOM     11  C   UNL     1      -3.034  38.134 102.094  1.00  0.00    -0.000 C 
BRANCH  11  12
ATOM     12  C   UNL     1      -2.619  39.241 103.075  1.00  0.00    -0.003 C 
ATOM     13  C   UNL     1      -1.394  39.995 102.565  1.00  0.00     0.004 C 
ENDBRANCH  11  12
ENDBRANCH  10  11
ENDBRANCH   9  10
ENDBRANCH   8   9
ENDBRANCH   1   8
TORSDOF 9
ENDMDL
MODEL 9
REMARK VINA RESULT:    -4.720      3.070      5.866
REMARK INTER + INTRA:          -8.370
REMARK INTER:                  -7.849
REMARK INTRA:                  -0.521
REMARK UNBOUND:                -1.167
REMARK SMILES CCCCCCCCCCC(=O)[O-]
REMARK SMILES IDX 7 1 8 2 9 3 10 4 11 5 12 6 13 7 6 8 5 9 4 10 3 11 2 12 1 13
REMARK H PARENT
REMARK Flexibility Score: inf
ROOT
ATOM      1  C   UNL     1      -3.661  37.233 101.458  1.00  0.00     0.000 C 
ENDROOT
BRANCH   1   2
ATOM      2  C   UNL     1      -2.826  35.980 101.141  1.00  0.00     0.000 C 
BRANCH   2   3
ATOM      3  C   UNL     1      -3.424  35.038 100.077  1.00  0.00     0.006 C 
BRANCH   3   4
ATOM      4  C   UNL     1      -2.864  35.256  98.658  1.00  0.00     0.053 C 
BRANCH   4   5
ATOM      5  C   UNL     1      -3.711  36.182  97.838  1.00  0.00     0.041 C 
ATOM      6  O   UNL     1      -3.241  36.721  96.801  1.00  0.00    -0.550 OA
ATOM      7  O   UNL     1      -5.006  36.483  98.241  1.00  0.00    -0.550 OA
ENDBRANCH   4   5
ENDBRANCH   3   4
ENDBRANCH   2   3
ENDBRANCH   1   2
BRANCH   1   8
ATOM      8  C   UNL     1      -2.846  38.535 101.369  1.00  0.00     0.000 C 
BRANCH   8   9
ATOM      9  C   UNL     1      -2.575  39.154 102.749  1.00  0.00    -0.000 C 
BRANCH   9  10
ATOM     10  C   UNL     1      -1.344  40.079 102.753  1.00  0.00    -0.000 C 
BRANCH  10  11
ATOM     11  C   UNL     1      -1.696  41.527 103.127  1.00  0.00    -0.000 C 
BRANCH  11  12
ATOM     12  C   UNL     1      -3.205  41.735 103.326  1.00  0.00    -0.003 C 
ATOM     13  C   UNL     1      -3.720  42.881 102.461  1.00  0.00     0.004 C 
ENDBRANCH  11  12
ENDBRANCH  10  11
ENDBRANCH   9  10
ENDBRANCH   8   9
ENDBRANCH   1   8
TORSDOF 9
ENDMDL
