MODEL 1
REMARK VINA RESULT:    -4.423      0.000      0.000
REMARK INTER + INTRA:          -5.951
REMARK INTER:                  -5.716
REMARK INTRA:                  -0.235
REMARK UNBOUND:                -0.235
REMARK SMILES C=CC(=O)CCCCC
REMARK SMILES IDX 6 1 7 2 8 3 9 4 5 5 3 6 4 7 2 8 1 9
REMARK H PARENT
REMARK Flexibility Score: inf
ROOT
ATOM      1  C   UNL     1     -12.205 -16.083  29.829  1.00  0.00     0.008 C 
ENDROOT
BRANCH   1   2
ATOM      2  C   UNL     1     -13.200 -16.727  30.809  1.00  0.00     0.000 C 
BRANCH   2   3
ATOM      3  C   UNL     1     -13.354 -15.922  32.108  1.00  0.00    -0.003 C 
ATOM      4  C   UNL     1     -14.458 -14.876  31.978  1.00  0.00     0.004 C 
ENDBRANCH   2   3
ENDBRANCH   1   2
BRANCH   1   5
ATOM      5  C   UNL     1     -12.898 -15.448  28.617  1.00  0.00     0.080 C 
BRANCH   5   6
ATOM      6  C   UNL     1     -12.847 -16.375  27.438  1.00  0.00     0.155 C 
ATOM      7  O   UNL     1     -13.820 -16.407  26.636  1.00  0.00    -0.295 OA
BRANCH   6   8
ATOM      8  C   UNL     1     -11.649 -17.203  27.200  1.00  0.00     0.039 C 
ATOM      9  C   UNL     1     -11.112 -17.353  25.991  1.00  0.00     0.012 C 
ENDBRANCH   6   8
ENDBRANCH   5   6
ENDBRANCH   1   5
TORSDOF 5
ENDMDL
MODEL 2
REMARK VINA RESULT:    -4.353      1.706      4.970
REMARK INTER + INTRA:          -5.860
REMARK INTER:                  -5.644
REMARK INTRA:                  -0.216
REMARK UNBOUND:                -0.235
REMARK SMILES C=CC(=O)CCCCC
REMARK SMILES IDX 6 1 7 2 8 3 9 4 5 5 3 6 4 7 2 8 1 9
REMARK H PARENT
REMARK Flexibility Score: inf
ROOT
ATOM      1  C   UNL     1     -12.881 -15.438  28.512  1.00  0.00     0.008 C 
ENDROOT
BRANCH   1   2
ATOM      2  C   UNL     1     -12.967 -16.612  27.522  1.00  0.00     0.000 C 
BRANCH   2   3
ATOM      3  C   UNL     1     -11.630 -17.353  27.369  1.00  0.00    -0.003 C 
ATOM      4  C   UNL     1     -11.149 -17.323  25.921  1.00  0.00     0.004 C 
ENDBRANCH   2   3
ENDBRANCH   1   2
BRANCH   1   5
ATOM      5  C   UNL     1     -12.213 -15.829  29.836  1.00  0.00     0.080 C 
BRANCH   5   6
ATOM      6  C   UNL     1     -13.248 -16.085  30.891  1.00  0.00     0.155 C 
ATOM      7  O   UNL     1     -13.337 -17.234  31.403  1.00  0.00    -0.295 OA
BRANCH   6   8
ATOM      8  C   UNL     1     -14.119 -14.987  31.354  1.00  0.00     0.039 C 
ATOM      9  C   UNL     1     -14.635 -14.953  32.580  1.00  0.00     0.012 C 
ENDBRANCH   6   8
ENDBRANCH   5   6
ENDBRANCH   1   5
TORSDOF 5
ENDMDL
MODEL 3
REMARK VINA RESULT:    -4.314      1.758      4.590
REMARK INTER + INTRA:          -5.809
REMARK INTER:                  -5.501
REMARK INTRA:                  -0.308
REMARK UNBOUND:                -0.235
REMARK SMILES C=CC(=O)CCCCC
REMARK SMILES IDX 6 1 7 2 8 3 9 4 5 5 3 6 4 7 2 8 1 9
REMARK H PARENT
REMARK Flexibility Score: inf
ROOT
ATOM      1  C   UNL     1     -12.702 -15.456  28.664  1.00  0.00     0.008 C 
ENDROOT
BRANCH   1   2
ATOM      2  C   UNL     1     -12.990 -16.427  27.507  1.00  0.00     0.000 C 
BRANCH   2   3
ATOM      3  C   UNL     1     -11.915 -17.515  27.369  1.00  0.00    -0.003 C 
ATOM      4  C   UNL     1     -11.129 -17.348  26.071  1.00  0.00     0.004 C 
ENDBRANCH   2   3
ENDBRANCH   1   2
BRANCH   1   5
ATOM      5  C   UNL     1     -12.131 -16.163  29.900  1.00  0.00     0.080 C 
BRANCH   5   6
ATOM      6  C   UNL     1     -13.144 -16.186  31.007  1.00  0.00     0.155 C 
ATOM      7  O   UNL     1     -13.961 -15.231  31.116  1.00  0.00    -0.295 OA
BRANCH   6   8
ATOM      8  C   UNL     1     -13.207 -17.337  31.927  1.00  0.00     0.039 C 
ATOM      9  C   UNL     1     -12.912 -18.577  31.542  1.00  0.00     0.012 C 
ENDBRANCH   6   8
ENDBRANCH   5   6
ENDBRANCH   1   5
TORSDOF 5
ENDMDL
MODEL 4
REMARK VINA RESULT:    -4.308      3.063      4.094
REMARK INTER + INTRA:          -5.802
REMARK INTER:                  -5.325
REMARK INTRA:                  -0.477
REMARK UNBOUND:                -0.235
REMARK SMILES C=CC(=O)CCCCC
REMARK SMILES IDX 6 1 7 2 8 3 9 4 5 5 3 6 4 7 2 8 1 9
REMARK H PARENT
REMARK Flexibility Score: inf
ROOT
ATOM      1  C   UNL     1     -12.290 -17.116  31.262  1.00  0.00     0.008 C 
ENDROOT
BRANCH   1   2
ATOM      2  C   UNL     1     -13.170 -16.044  30.597  1.00  0.00     0.000 C 
BRANCH   2   3
ATOM      3  C   UNL     1     -12.745 -15.748  29.151  1.00  0.00    -0.003 C 
ATOM      4  C   UNL     1     -11.231 -15.854  28.990  1.00  0.00     0.004 C 
ENDBRANCH   2   3
ENDBRANCH   1   2
BRANCH   1   5
ATOM      5  C   UNL     1     -13.091 -18.347  31.703  1.00  0.00     0.080 C 
BRANCH   5   6
ATOM      6  C   UNL     1     -12.631 -19.566  30.959  1.00  0.00     0.155 C 
ATOM      7  O   UNL     1     -12.304 -20.598  31.606  1.00  0.00    -0.295 OA
BRANCH   6   8
ATOM      8  C   UNL     1     -12.609 -19.567  29.483  1.00  0.00     0.039 C 
ATOM      9  C   UNL     1     -13.648 -19.964  28.753  1.00  0.00     0.012 C 
ENDBRANCH   6   8
ENDBRANCH   5   6
ENDBRANCH   1   5
TORSDOF 5
ENDMDL
MODEL 5
REMARK VINA RESULT:    -4.249      1.817      2.370
REMARK INTER + INTRA:          -5.726
REMARK INTER:                  -5.174
REMARK INTRA:                  -0.552
REMARK UNBOUND:                -0.235
REMARK SMILES C=CC(=O)CCCCC
REMARK SMILES IDX 6 1 7 2 8 3 9 4 5 5 3 6 4 7 2 8 1 9
REMARK H PARENT
REMARK Flexibility Score: inf
ROOT
ATOM      1  C   UNL     1     -11.934 -17.287  31.533  1.00  0.00     0.008 C 
ENDROOT
BRANCH   1   2
ATOM      2  C   UNL     1     -12.512 -16.151  32.394  1.00  0.00     0.000 C 
BRANCH   2   3
ATOM      3  C   UNL     1     -14.047 -16.124  32.381  1.00  0.00    -0.003 C 
ATOM      4  C   UNL     1     -14.569 -14.708  32.151  1.00  0.00     0.004 C 
ENDBRANCH   2   3
ENDBRANCH   1   2
BRANCH   1   5
ATOM      5  C   UNL     1     -12.849 -17.663  30.361  1.00  0.00     0.080 C 
BRANCH   5   6
ATOM      6  C   UNL     1     -12.246 -17.217  29.061  1.00  0.00     0.155 C 
ATOM      7  O   UNL     1     -11.865 -18.085  28.228  1.00  0.00    -0.295 OA
BRANCH   6   8
ATOM      8  C   UNL     1     -12.145 -15.779  28.747  1.00  0.00     0.039 C 
ATOM      9  C   UNL     1     -13.217 -15.007  28.581  1.00  0.00     0.012 C 
ENDBRANCH   6   8
ENDBRANCH   5   6
ENDBRANCH   1   5
TORSDOF 5
ENDMDL
MODEL 6
REMARK VINA RESULT:    -4.236      2.614      3.377
REMARK INTER + INTRA:          -5.708
REMARK INTER:                  -5.297
REMARK INTRA:                  -0.411
REMARK UNBOUND:                -0.235
REMARK SMILES C=CC(=O)CCCCC
REMARK SMILES IDX 6 1 7 2 8 3 9 4 5 5 3 6 4 7 2 8 1 9
REMARK H PARENT
REMARK Flexibility Score: inf
ROOT
ATOM      1  C   UNL     1     -11.850 -16.576  31.186  1.00  0.00     0.008 C 
ENDROOT
BRANCH   1   2
ATOM      2  C   UNL     1     -12.478 -16.102  32.507  1.00  0.00     0.000 C 
BRANCH   2   3
ATOM      3  C   UNL     1     -14.013 -16.128  32.472  1.00  0.00    -0.003 C 
ATOM      4  C   UNL     1     -14.588 -14.716  32.561  1.00  0.00     0.004 C 
ENDBRANCH   2   3
ENDBRANCH   1   2
BRANCH   1   5
ATOM      5  C   UNL     1     -12.891 -17.113  30.195  1.00  0.00     0.080 C 
BRANCH   5   6
ATOM      6  C   UNL     1     -12.689 -18.582  29.967  1.00  0.00     0.155 C 
ATOM      7  O   UNL     1     -12.152 -18.972  28.894  1.00  0.00    -0.295 OA
BRANCH   6   8
ATOM      8  C   UNL     1     -13.077 -19.552  31.009  1.00  0.00     0.039 C 
ATOM      9  C   UNL     1     -12.182 -20.174  31.774  1.00  0.00     0.012 C 
ENDBRANCH   6   8
ENDBRANCH   5   6
ENDBRANCH   1   5
TORSDOF 5
ENDMDL
MODEL 7
REMARK VINA RESULT:    -4.186      2.561      4.214
REMARK INTER + INTRA:          -5.645
REMARK INTER:                  -5.060
REMARK INTRA:                  -0.584
REMARK UNBOUND:                -0.235
REMARK SMILES C=CC(=O)CCCCC
REMARK SMILES IDX 6 1 7 2 8 3 9 4 5 5 3 6 4 7 2 8 1 9
REMARK H PARENT
REMARK Flexibility Score: inf
ROOT
ATOM      1  C   UNL     1     -11.863 -16.360  29.269  1.00  0.00     0.008 C 
ENDROOT
BRANCH   1   2
ATOM      2  C   UNL     1     -12.889 -15.792  28.273  1.00  0.00     0.000 C 
BRANCH   2   3
ATOM      3  C   UNL     1     -13.004 -16.640  26.998  1.00  0.00    -0.003 C 
ATOM      4  C   UNL     1     -11.671 -17.301  26.656  1.00  0.00     0.004 C 
ENDBRANCH   2   3
ENDBRANCH   1   2
BRANCH   1   5
ATOM      5  C   UNL     1     -12.508 -17.249  30.339  1.00  0.00     0.080 C 
BRANCH   5   6
ATOM      6  C   UNL     1     -12.140 -18.687  30.119  1.00  0.00     0.155 C 
ATOM      7  O   UNL     1     -10.928 -19.031  30.187  1.00  0.00    -0.295 OA
BRANCH   6   8
ATOM      8  C   UNL     1     -13.193 -19.690  29.870  1.00  0.00     0.039 C 
ATOM      9  C   UNL     1     -13.617 -19.992  28.645  1.00  0.00     0.012 C 
ENDBRANCH   6   8
ENDBRANCH   5   6
ENDBRANCH   1   5
TORSDOF 5
ENDMDL
MODEL 8
REMARK VINA RESULT:    -4.179      2.770      4.050
REMARK INTER + INTRA:          -5.635
REMARK INTER:                  -5.145
REMARK INTRA:                  -0.489
REMARK UNBOUND:                -0.235
REMARK SMILES C=CC(=O)CCCCC
REMARK SMILES IDX 6 1 7 2 8 3 9 4 5 5 3 6 4 7 2 8 1 9
REMARK H PARENT
REMARK Flexibility Score: inf
ROOT
ATOM      1  C   UNL     1     -13.217 -18.647  31.641  1.00  0.00     0.008 C 
ENDROOT
BRANCH   1   2
ATOM      2  C   UNL     1     -12.703 -19.906  30.925  1.00  0.00     0.000 C 
BRANCH   2   3
ATOM      3  C   UNL     1     -12.537 -19.698  29.412  1.00  0.00    -0.003 C 
ATOM      4  C   UNL     1     -13.851 -19.943  28.676  1.00  0.00     0.004 C 
ENDBRANCH   2   3
ENDBRANCH   1   2
BRANCH   1   5
ATOM      5  C   UNL     1     -12.307 -17.431  31.426  1.00  0.00     0.080 C 
BRANCH   5   6
ATOM      6  C   UNL     1     -13.087 -16.286  30.850  1.00  0.00     0.155 C 
ATOM      7  O   UNL     1     -13.939 -15.696  31.569  1.00  0.00    -0.295 OA
BRANCH   6   8
ATOM      8  C   UNL     1     -12.823 -15.832  29.471  1.00  0.00     0.039 C 
ATOM      9  C   UNL     1     -11.670 -16.069  28.849  1.00  0.00     0.012 C 
ENDBRANCH   6   8
ENDBRANCH   5   6
ENDBRANCH   1   5
TORSDOF 5
ENDMDL
MODEL 9
REMARK VINA RESULT:    -4.113      2.193      2.990
REMARK INTER + INTRA:          -5.550
REMARK INTER:                  -5.094
REMARK INTRA:                  -0.456
REMARK UNBOUND:                -0.235
REMARK SMILES C=CC(=O)CCCCC
REMARK SMILES IDX 6 1 7 2 8 3 9 4 5 5 3 6 4 7 2 8 1 9
REMARK H PARENT
REMARK Flexibility Score: inf
ROOT
ATOM      1  C   UNL     1     -12.551 -19.578  29.045  1.00  0.00     0.008 C 
ENDROOT
BRANCH   1   2
ATOM      2  C   UNL     1     -13.206 -19.775  30.422  1.00  0.00     0.000 C 
BRANCH   2   3
ATOM      3  C   UNL     1     -12.430 -19.078  31.549  1.00  0.00    -0.003 C 
ATOM      4  C   UNL     1     -13.098 -17.765  31.946  1.00  0.00     0.004 C 
ENDBRANCH   2   3
ENDBRANCH   1   2
BRANCH   1   5
ATOM      5  C   UNL     1     -13.166 -18.413  28.259  1.00  0.00     0.080 C 
BRANCH   5   6
ATOM      6  C   UNL     1     -12.098 -17.460  27.812  1.00  0.00     0.155 C 
ATOM      7  O   UNL     1     -11.366 -17.768  26.832  1.00  0.00    -0.295 OA
BRANCH   6   8
ATOM      8  C   UNL     1     -11.940 -16.157  28.486  1.00  0.00     0.039 C 
ATOM      9  C   UNL     1     -12.976 -15.369  28.770  1.00  0.00     0.012 C 
ENDBRANCH   6   8
ENDBRANCH   5   6
ENDBRANCH   1   5
TORSDOF 5
ENDMDL
