MODEL 1
REMARK VINA RESULT:     0.000      0.000      0.000
REMARK INTER + INTRA:          -1.302
REMARK INTER:                   0.000
REMARK INTRA:                  -1.302
REMARK UNBOUND:                -1.302
REMARK SMILES O=C([O-])CCCCCCCCC(=O)[O-]
REMARK SMILES IDX 7 1 6 2 5 3 4 4 2 5 1 6 3 7 8 8 9 9 10 10 11 11 12 12 13 13
REMARK SMILES IDX 14 14
REMARK H PARENT
REMARK Flexibility Score: inf
ROOT
ATOM      1  C   UNL     1     178.623 179.838 179.436  1.00  0.00     0.000 C 
ENDROOT
BRANCH   1   2
ATOM      2  C   UNL     1     178.539 178.669 178.446  1.00  0.00     0.000 C 
BRANCH   2   3
ATOM      3  C   UNL     1     177.714 179.052 177.211  1.00  0.00     0.006 C 
BRANCH   3   4
ATOM      4  C   UNL     1     178.544 178.910 175.930  1.00  0.00     0.053 C 
BRANCH   4   5
ATOM      5  C   UNL     1     178.531 180.189 175.155  1.00  0.00     0.041 C 
ATOM      6  O   UNL     1     177.632 181.046 175.360  1.00  0.00    -0.550 OA
ATOM      7  O   UNL     1     179.484 180.415 174.170  1.00  0.00    -0.550 OA
ENDBRANCH   4   5
ENDBRANCH   3   4
ENDBRANCH   2   3
ENDBRANCH   1   2
BRANCH   1   8
ATOM      8  C   UNL     1     178.019 181.140 178.879  1.00  0.00     0.000 C 
BRANCH   8   9
ATOM      9  C   UNL     1     179.043 182.237 178.524  1.00  0.00     0.000 C 
BRANCH   9  10
ATOM     10  C   UNL     1     180.518 181.819 178.659  1.00  0.00     0.006 C 
BRANCH  10  11
ATOM     11  C   UNL     1     181.188 181.555 177.304  1.00  0.00     0.053 C 
BRANCH  11  12
ATOM     12  C   UNL     1     181.803 180.192 177.284  1.00  0.00     0.041 C 
ATOM     13  O   UNL     1     182.059 179.628 176.187  1.00  0.00    -0.550 OA
ATOM     14  O   UNL     1     182.048 179.521 178.476  1.00  0.00    -0.550 OA
ENDBRANCH  11  12
ENDBRANCH  10  11
ENDBRANCH   9  10
ENDBRANCH   8   9
ENDBRANCH   1   8
TORSDOF 9
ENDMDL
MODEL 2
REMARK VINA RESULT:     0.000      4.437      6.245
REMARK INTER + INTRA:          -1.302
REMARK INTER:                   0.000
REMARK INTRA:                  -1.302
REMARK UNBOUND:                -1.302
REMARK SMILES O=C([O-])CCCCCCCCC(=O)[O-]
REMARK SMILES IDX 7 1 6 2 5 3 4 4 2 5 1 6 3 7 8 8 9 9 10 10 11 11 12 12 13 13
REMARK SMILES IDX 14 14
REMARK H PARENT
REMARK Flexibility Score: inf
ROOT
ATOM      1  C   UNL     1     181.409 177.114 180.367  1.00  0.00     0.000 C 
ENDROOT
BRANCH   1   2
ATOM      2  C   UNL     1     181.907 178.085 179.288  1.00  0.00     0.000 C 
BRANCH   2   3
ATOM      3  C   UNL     1     183.250 178.708 179.687  1.00  0.00     0.006 C 
BRANCH   3   4
ATOM      4  C   UNL     1     183.146 180.234 179.764  1.00  0.00     0.053 C 
BRANCH   4   5
ATOM      5  C   UNL     1     183.713 180.732 181.056  1.00  0.00     0.041 C 
ATOM      6  O   UNL     1     184.321 179.944 181.827  1.00  0.00    -0.550 OA
ATOM      7  O   UNL     1     183.526 182.056 181.433  1.00  0.00    -0.550 OA
ENDBRANCH   4   5
ENDBRANCH   3   4
ENDBRANCH   2   3
ENDBRANCH   1   2
BRANCH   1   8
ATOM      8  C   UNL     1     182.344 177.043 181.588  1.00  0.00     0.000 C 
BRANCH   8   9
ATOM      9  C   UNL     1     181.762 177.627 182.891  1.00  0.00     0.000 C 
BRANCH   9  10
ATOM     10  C   UNL     1     180.427 178.376 182.731  1.00  0.00     0.006 C 
BRANCH  10  11
ATOM     11  C   UNL     1     180.589 179.900 182.794  1.00  0.00     0.053 C 
BRANCH  11  12
ATOM     12  C   UNL     1     179.939 180.542 181.609  1.00  0.00     0.041 C 
ATOM     13  O   UNL     1     179.211 179.862 180.839  1.00  0.00    -0.550 OA
ATOM     14  O   UNL     1     180.178 181.881 181.326  1.00  0.00    -0.550 OA
ENDBRANCH  11  12
ENDBRANCH  10  11
ENDBRANCH   9  10
ENDBRANCH   8   9
ENDBRANCH   1   8
TORSDOF 9
ENDMDL
MODEL 3
REMARK VINA RESULT:     0.000      5.175      7.103
REMARK INTER + INTRA:          -1.302
REMARK INTER:                   0.000
REMARK INTRA:                  -1.302
REMARK UNBOUND:                -1.302
REMARK SMILES O=C([O-])CCCCCCCCC(=O)[O-]
REMARK SMILES IDX 7 1 6 2 5 3 4 4 2 5 1 6 3 7 8 8 9 9 10 10 11 11 12 12 13 13
REMARK SMILES IDX 14 14
REMARK H PARENT
REMARK Flexibility Score: inf
ROOT
ATOM      1  C   UNL     1     184.127 181.380 183.786  1.00  0.00     0.000 C 
ENDROOT
BRANCH   1   2
ATOM      2  C   UNL     1     184.667 179.999 183.392  1.00  0.00     0.000 C 
BRANCH   2   3
ATOM      3  C   UNL     1     183.894 178.883 184.105  1.00  0.00     0.006 C 
BRANCH   3   4
ATOM      4  C   UNL     1     183.234 177.939 183.096  1.00  0.00     0.053 C 
BRANCH   4   5
ATOM      5  C   UNL     1     181.770 177.815 183.375  1.00  0.00     0.041 C 
ATOM      6  O   UNL     1     181.312 178.124 184.507  1.00  0.00    -0.550 OA
ATOM      7  O   UNL     1     180.916 177.312 182.402  1.00  0.00    -0.550 OA
ENDBRANCH   4   5
ENDBRANCH   3   4
ENDBRANCH   2   3
ENDBRANCH   1   2
BRANCH   1   8
ATOM      8  C   UNL     1     182.866 181.303 184.664  1.00  0.00     0.000 C 
BRANCH   8   9
ATOM      9  C   UNL     1     181.557 181.729 183.967  1.00  0.00     0.000 C 
BRANCH   9  10
ATOM     10  C   UNL     1     181.693 182.062 182.471  1.00  0.00     0.006 C 
BRANCH  10  11
ATOM     11  C   UNL     1     181.125 180.964 181.563  1.00  0.00     0.053 C 
BRANCH  11  12
ATOM     12  C   UNL     1     182.165 180.497 180.595  1.00  0.00     0.041 C 
ATOM     13  O   UNL     1     183.174 181.212 180.355  1.00  0.00    -0.550 OA
ATOM     14  O   UNL     1     181.997 179.295 179.919  1.00  0.00    -0.550 OA
ENDBRANCH  11  12
ENDBRANCH  10  11
ENDBRANCH   9  10
ENDBRANCH   8   9
ENDBRANCH   1   8
TORSDOF 9
ENDMDL
MODEL 4
REMARK VINA RESULT:     0.001      8.658     10.413
REMARK INTER + INTRA:          -1.301
REMARK INTER:                   0.000
REMARK INTRA:                  -1.301
REMARK UNBOUND:                -1.302
REMARK SMILES O=C([O-])CCCCCCCCC(=O)[O-]
REMARK SMILES IDX 7 1 6 2 5 3 4 4 2 5 1 6 3 7 8 8 9 9 10 10 11 11 12 12 13 13
REMARK SMILES IDX 14 14
REMARK H PARENT
REMARK Flexibility Score: inf
ROOT
ATOM      1  C   UNL     1     182.267 180.101 186.535  1.00  0.00     0.000 C 
ENDROOT
BRANCH   1   2
ATOM      2  C   UNL     1     182.373 179.252 185.260  1.00  0.00     0.000 C 
BRANCH   2   3
ATOM      3  C   UNL     1     183.279 179.926 184.224  1.00  0.00     0.006 C 
BRANCH   3   4
ATOM      4  C   UNL     1     184.465 179.027 183.862  1.00  0.00     0.053 C 
BRANCH   4   5
ATOM      5  C   UNL     1     185.756 179.755 184.068  1.00  0.00     0.041 C 
ATOM      6  O   UNL     1     185.776 181.014 184.091  1.00  0.00    -0.550 OA
ATOM      7  O   UNL     1     186.944 179.046 184.184  1.00  0.00    -0.550 OA
ENDBRANCH   4   5
ENDBRANCH   3   4
ENDBRANCH   2   3
ENDBRANCH   1   2
BRANCH   1   8
ATOM      8  C   UNL     1     183.219 181.310 186.531  1.00  0.00     0.000 C 
BRANCH   8   9
ATOM      9  C   UNL     1     184.422 181.197 187.489  1.00  0.00     0.000 C 
BRANCH   9  10
ATOM     10  C   UNL     1     184.541 179.854 188.231  1.00  0.00     0.006 C 
BRANCH  10  11
ATOM     11  C   UNL     1     185.656 178.961 187.671  1.00  0.00     0.053 C 
BRANCH  11  12
ATOM     12  C   UNL     1     185.110 177.622 187.289  1.00  0.00     0.041 C 
ATOM     13  O   UNL     1     185.727 176.898 186.464  1.00  0.00    -0.550 OA
ATOM     14  O   UNL     1     183.893 177.195 187.805  1.00  0.00    -0.550 OA
ENDBRANCH  11  12
ENDBRANCH  10  11
ENDBRANCH   9  10
ENDBRANCH   8   9
ENDBRANCH   1   8
TORSDOF 9
ENDMDL
MODEL 5
REMARK VINA RESULT:     0.001      7.371      8.861
REMARK INTER + INTRA:          -1.301
REMARK INTER:                   0.000
REMARK INTRA:                  -1.301
REMARK UNBOUND:                -1.302
REMARK SMILES O=C([O-])CCCCCCCCC(=O)[O-]
REMARK SMILES IDX 7 1 6 2 5 3 4 4 2 5 1 6 3 7 8 8 9 9 10 10 11 11 12 12 13 13
REMARK SMILES IDX 14 14
REMARK H PARENT
REMARK Flexibility Score: inf
ROOT
ATOM      1  C   UNL     1     177.371 178.123 182.123  1.00  0.00     0.000 C 
ENDROOT
BRANCH   1   2
ATOM      2  C   UNL     1     176.331 177.050 182.474  1.00  0.00     0.000 C 
BRANCH   2   3
ATOM      3  C   UNL     1     175.236 177.621 183.383  1.00  0.00     0.006 C 
BRANCH   3   4
ATOM      4  C   UNL     1     175.250 179.153 183.363  1.00  0.00     0.053 C 
BRANCH   4   5
ATOM      5  C   UNL     1     175.191 179.695 184.756  1.00  0.00     0.041 C 
ATOM      6  O   UNL     1     175.965 180.625 185.107  1.00  0.00    -0.550 OA
ATOM      7  O   UNL     1     174.316 179.142 185.682  1.00  0.00    -0.550 OA
ENDBRANCH   4   5
ENDBRANCH   3   4
ENDBRANCH   2   3
ENDBRANCH   1   2
BRANCH   1   8
ATOM      8  C   UNL     1     178.686 177.961 182.907  1.00  0.00     0.000 C 
BRANCH   8   9
ATOM      9  C   UNL     1     178.996 179.096 183.905  1.00  0.00     0.000 C 
BRANCH   9  10
ATOM     10  C   UNL     1     178.934 178.694 185.388  1.00  0.00     0.006 C 
BRANCH  10  11
ATOM     11  C   UNL     1     178.409 177.268 185.597  1.00  0.00     0.053 C 
BRANCH  11  12
ATOM     12  C   UNL     1     177.256 177.271 186.550  1.00  0.00     0.041 C 
ATOM     13  O   UNL     1     176.386 176.362 186.496  1.00  0.00    -0.550 OA
ATOM     14  O   UNL     1     177.114 178.306 187.466  1.00  0.00    -0.550 OA
ENDBRANCH  11  12
ENDBRANCH  10  11
ENDBRANCH   9  10
ENDBRANCH   8   9
ENDBRANCH   1   8
TORSDOF 9
ENDMDL
MODEL 6
REMARK VINA RESULT:     0.001      5.560      8.034
REMARK INTER + INTRA:          -1.301
REMARK INTER:                   0.000
REMARK INTRA:                  -1.301
REMARK UNBOUND:                -1.302
REMARK SMILES O=C([O-])CCCCCCCCC(=O)[O-]
REMARK SMILES IDX 7 1 6 2 5 3 4 4 2 5 1 6 3 7 8 8 9 9 10 10 11 11 12 12 13 13
REMARK SMILES IDX 14 14
REMARK H PARENT
REMARK Flexibility Score: inf
ROOT
ATOM      1  C   UNL     1     183.885 183.651 182.603  1.00  0.00     0.000 C 
ENDROOT
BRANCH   1   2
ATOM      2  C   UNL     1     185.125 182.901 183.109  1.00  0.00     0.000 C 
BRANCH   2   3
ATOM      3  C   UNL     1     184.845 182.221 184.455  1.00  0.00     0.006 C 
BRANCH   3   4
ATOM      4  C   UNL     1     185.053 180.706 184.359  1.00  0.00     0.053 C 
BRANCH   4   5
ATOM      5  C   UNL     1     183.825 179.980 184.807  1.00  0.00     0.041 C 
ATOM      6  O   UNL     1     182.994 180.548 185.564  1.00  0.00    -0.550 OA
ATOM      7  O   UNL     1     183.620 178.660 184.428  1.00  0.00    -0.550 OA
ENDBRANCH   4   5
ENDBRANCH   3   4
ENDBRANCH   2   3
ENDBRANCH   1   2
BRANCH   1   8
ATOM      8  C   UNL     1     182.635 183.393 183.464  1.00  0.00     0.000 C 
BRANCH   8   9
ATOM      9  C   UNL     1     181.562 182.502 182.807  1.00  0.00     0.000 C 
BRANCH   9  10
ATOM     10  C   UNL     1     181.940 181.933 181.428  1.00  0.00     0.006 C 
BRANCH  10  11
ATOM     11  C   UNL     1     182.305 180.444 181.478  1.00  0.00     0.053 C 
BRANCH  11  12
ATOM     12  C   UNL     1     183.663 180.220 180.892  1.00  0.00     0.041 C 
ATOM     13  O   UNL     1     184.318 179.186 181.189  1.00  0.00    -0.550 OA
ATOM     14  O   UNL     1     184.226 181.176 180.057  1.00  0.00    -0.550 OA
ENDBRANCH  11  12
ENDBRANCH  10  11
ENDBRANCH   9  10
ENDBRANCH   8   9
ENDBRANCH   1   8
TORSDOF 9
ENDMDL
MODEL 7
REMARK VINA RESULT:     0.001      7.230      9.171
REMARK INTER + INTRA:          -1.300
REMARK INTER:                   0.000
REMARK INTRA:                  -1.300
REMARK UNBOUND:                -1.302
REMARK SMILES O=C([O-])CCCCCCCCC(=O)[O-]
REMARK SMILES IDX 7 1 6 2 5 3 4 4 2 5 1 6 3 7 8 8 9 9 10 10 11 11 12 12 13 13
REMARK SMILES IDX 14 14
REMARK H PARENT
REMARK Flexibility Score: inf
ROOT
ATOM      1  C   UNL     1     176.583 178.987 186.431  1.00  0.00     0.000 C 
ENDROOT
BRANCH   1   2
ATOM      2  C   UNL     1     175.583 178.396 185.428  1.00  0.00     0.000 C 
BRANCH   2   3
ATOM      3  C   UNL     1     175.736 176.874 185.330  1.00  0.00     0.006 C 
BRANCH   3   4
ATOM      4  C   UNL     1     176.407 176.307 186.585  1.00  0.00     0.053 C 
BRANCH   4   5
ATOM      5  C   UNL     1     177.471 175.324 186.212  1.00  0.00     0.041 C 
ATOM      6  O   UNL     1     178.616 175.402 186.731  1.00  0.00    -0.550 OA
ATOM      7  O   UNL     1     177.215 174.353 185.253  1.00  0.00    -0.550 OA
ENDBRANCH   4   5
ENDBRANCH   3   4
ENDBRANCH   2   3
ENDBRANCH   1   2
BRANCH   1   8
ATOM      8  C   UNL     1     177.818 179.606 185.752  1.00  0.00     0.000 C 
BRANCH   8   9
ATOM      9  C   UNL     1     179.156 178.905 186.066  1.00  0.00     0.000 C 
BRANCH   9  10
ATOM     10  C   UNL     1     179.797 178.163 184.881  1.00  0.00     0.006 C 
BRANCH  10  11
ATOM     11  C   UNL     1     178.905 178.151 183.633  1.00  0.00     0.053 C 
BRANCH  11  12
ATOM     12  C   UNL     1     178.771 176.759 183.101  1.00  0.00     0.041 C 
ATOM     13  O   UNL     1     177.762 176.435 182.421  1.00  0.00    -0.550 OA
ATOM     14  O   UNL     1     179.736 175.806 183.397  1.00  0.00    -0.550 OA
ENDBRANCH  11  12
ENDBRANCH  10  11
ENDBRANCH   9  10
ENDBRANCH   8   9
ENDBRANCH   1   8
TORSDOF 9
ENDMDL
MODEL 8
REMARK VINA RESULT:     0.002      6.260      8.173
REMARK INTER + INTRA:          -1.299
REMARK INTER:                   0.000
REMARK INTRA:                  -1.299
REMARK UNBOUND:                -1.302
REMARK SMILES O=C([O-])CCCCCCCCC(=O)[O-]
REMARK SMILES IDX 7 1 6 2 5 3 4 4 2 5 1 6 3 7 8 8 9 9 10 10 11 11 12 12 13 13
REMARK SMILES IDX 14 14
REMARK H PARENT
REMARK Flexibility Score: inf
ROOT
ATOM      1  C   UNL     1     183.422 180.792 184.736  1.00  0.00     0.000 C 
ENDROOT
BRANCH   1   2
ATOM      2  C   UNL     1     183.422 179.259 184.652  1.00  0.00     0.000 C 
BRANCH   2   3
ATOM      3  C   UNL     1     182.543 178.649 185.750  1.00  0.00     0.006 C 
BRANCH   3   4
ATOM      4  C   UNL     1     181.399 177.828 185.146  1.00  0.00     0.053 C 
BRANCH   4   5
ATOM      5  C   UNL     1     180.082 178.297 185.677  1.00  0.00     0.041 C 
ATOM      6  O   UNL     1     180.022 178.905 186.778  1.00  0.00    -0.550 OA
ATOM      7  O   UNL     1     178.913 178.021 184.980  1.00  0.00    -0.550 OA
ENDBRANCH   4   5
ENDBRANCH   3   4
ENDBRANCH   2   3
ENDBRANCH   1   2
BRANCH   1   8
ATOM      8  C   UNL     1     182.434 181.335 185.783  1.00  0.00     0.000 C 
BRANCH   8   9
ATOM      9  C   UNL     1     181.165 181.995 185.204  1.00  0.00     0.000 C 
BRANCH   9  10
ATOM     10  C   UNL     1     181.069 181.987 183.669  1.00  0.00     0.006 C 
BRANCH  10  11
ATOM     11  C   UNL     1     180.028 180.992 183.142  1.00  0.00     0.053 C 
BRANCH  11  12
ATOM     12  C   UNL     1     180.665 180.019 182.201  1.00  0.00     0.041 C 
ATOM     13  O   UNL     1     181.742 180.312 181.619  1.00  0.00    -0.550 OA
ATOM     14  O   UNL     1     180.044 178.806 181.929  1.00  0.00    -0.550 OA
ENDBRANCH  11  12
ENDBRANCH  10  11
ENDBRANCH   9  10
ENDBRANCH   8   9
ENDBRANCH   1   8
TORSDOF 9
ENDMDL
MODEL 9
REMARK VINA RESULT:     0.003      3.840      6.043
REMARK INTER + INTRA:          -1.298
REMARK INTER:                   0.000
REMARK INTRA:                  -1.298
REMARK UNBOUND:                -1.302
REMARK SMILES O=C([O-])CCCCCCCCC(=O)[O-]
REMARK SMILES IDX 7 1 6 2 5 3 4 4 2 5 1 6 3 7 8 8 9 9 10 10 11 11 12 12 13 13
REMARK SMILES IDX 14 14
REMARK H PARENT
REMARK Flexibility Score: inf
ROOT
ATOM      1  C   UNL     1     182.918 179.239 175.459  1.00  0.00     0.000 C 
ENDROOT
BRANCH   1   2
ATOM      2  C   UNL     1     182.760 179.982 176.793  1.00  0.00     0.000 C 
BRANCH   2   3
ATOM      3  C   UNL     1     183.729 179.432 177.846  1.00  0.00     0.006 C 
BRANCH   3   4
ATOM      4  C   UNL     1     184.560 178.276 177.279  1.00  0.00     0.053 C 
BRANCH   4   5
ATOM      5  C   UNL     1     184.486 177.086 178.183  1.00  0.00     0.041 C 
ATOM      6  O   UNL     1     184.545 175.922 177.704  1.00  0.00    -0.550 OA
ATOM      7  O   UNL     1     184.303 177.259 179.548  1.00  0.00    -0.550 OA
ENDBRANCH   4   5
ENDBRANCH   3   4
ENDBRANCH   2   3
ENDBRANCH   1   2
BRANCH   1   8
ATOM      8  C   UNL     1     181.659 178.448 175.061  1.00  0.00     0.000 C 
BRANCH   8   9
ATOM      9  C   UNL     1     181.828 176.915 175.049  1.00  0.00     0.000 C 
BRANCH   9  10
ATOM     10  C   UNL     1     181.313 176.193 176.306  1.00  0.00     0.006 C 
BRANCH  10  11
ATOM     11  C   UNL     1     180.416 177.082 177.178  1.00  0.00     0.053 C 
BRANCH  11  12
ATOM     12  C   UNL     1     180.839 177.002 178.611  1.00  0.00     0.041 C 
ATOM     13  O   UNL     1     180.843 178.037 179.328  1.00  0.00    -0.550 OA
ATOM     14  O   UNL     1     181.274 175.795 179.141  1.00  0.00    -0.550 OA
ENDBRANCH  11  12
ENDBRANCH  10  11
ENDBRANCH   9  10
ENDBRANCH   8   9
ENDBRANCH   1   8
TORSDOF 9
ENDMDL
