MODEL 1
REMARK VINA RESULT:    12.655      0.000      0.000
REMARK INTER + INTRA:          22.184
REMARK INTER:                  23.013
REMARK INTRA:                  -0.829
REMARK UNBOUND:                -0.829
REMARK SMILES CCCCCCCCCCCCCC[C@@H](C)C(=O)[O-]
REMARK SMILES IDX 9 1 10 2 11 3 12 4 13 5 14 6 15 7 16 8 17 9 18 10 19 11 8 12
REMARK SMILES IDX 7 13 6 14 5 15 4 16 3 17 2 18 1 19
REMARK H PARENT
REMARK Flexibility Score: inf
ROOT
ATOM      1  C   UNL     1       7.160  17.284  27.144  1.00  0.00     0.000 C 
ENDROOT
BRANCH   1   2
ATOM      2  C   UNL     1       6.789  18.279  26.033  1.00  0.00     0.000 C 
BRANCH   2   3
ATOM      3  C   UNL     1       5.334  18.762  26.132  1.00  0.00     0.000 C 
BRANCH   3   4
ATOM      4  C   UNL     1       4.440  17.798  26.929  1.00  0.00     0.000 C 
BRANCH   4   5
ATOM      5  C   UNL     1       2.942  18.145  26.791  1.00  0.00     0.001 C 
BRANCH   5   6
ATOM      6  C   UNL     1       2.280  17.530  25.542  1.00  0.00     0.009 C 
BRANCH   6   7
ATOM      7  C   UNL     1       0.781  17.873  25.390  1.00  0.00     0.032 C 
ATOM      8  C   UNL     1       0.600  19.370  25.122  1.00  0.00     0.014 C 
BRANCH   7   9
ATOM      9  C   UNL     1       0.134  17.081  24.284  1.00  0.00     0.044 C 
ATOM     10  O   UNL     1      -0.193  15.878  24.463  1.00  0.00    -0.550 OA
ATOM     11  O   UNL     1      -0.066  17.666  23.040  1.00  0.00    -0.550 OA
ENDBRANCH   7   9
ENDBRANCH   6   7
ENDBRANCH   5   6
ENDBRANCH   4   5
ENDBRANCH   3   4
ENDBRANCH   2   3
ENDBRANCH   1   2
BRANCH   1  12
ATOM     12  C   UNL     1       8.668  17.005  27.150  1.00  0.00     0.000 C 
BRANCH  12  13
ATOM     13  C   UNL     1       9.308  17.467  28.468  1.00  0.00    -0.000 C 
BRANCH  13  14
ATOM     14  C   UNL     1       8.334  17.395  29.655  1.00  0.00    -0.000 C 
BRANCH  14  15
ATOM     15  C   UNL     1       8.993  17.801  30.985  1.00  0.00    -0.000 C 
BRANCH  15  16
ATOM     16  C   UNL     1       8.431  17.022  32.184  1.00  0.00    -0.000 C 
BRANCH  16  17
ATOM     17  C   UNL     1       7.598  17.906  33.125  1.00  0.00    -0.000 C 
BRANCH  17  18
ATOM     18  C   UNL     1       7.958  19.386  32.948  1.00  0.00    -0.003 C 
ATOM     19  C   UNL     1       6.721  20.219  32.625  1.00  0.00     0.004 C 
ENDBRANCH  17  18
ENDBRANCH  16  17
ENDBRANCH  15  16
ENDBRANCH  14  15
ENDBRANCH  13  14
ENDBRANCH  12  13
ENDBRANCH   1  12
TORSDOF 14
ENDMDL
MODEL 2
REMARK VINA RESULT:    13.187      3.749      8.620
REMARK INTER + INTRA:          23.150
REMARK INTER:                  23.977
REMARK INTRA:                  -0.826
REMARK UNBOUND:                -0.829
REMARK SMILES CCCCCCCCCCCCCC[C@@H](C)C(=O)[O-]
REMARK SMILES IDX 9 1 10 2 11 3 12 4 13 5 14 6 15 7 16 8 17 9 18 10 19 11 8 12
REMARK SMILES IDX 7 13 6 14 5 15 4 16 3 17 2 18 1 19
REMARK H PARENT
REMARK Flexibility Score: inf
ROOT
ATOM      1  C   UNL     1       7.090  18.054  26.081  1.00  0.00     0.000 C 
ENDROOT
BRANCH   1   2
ATOM      2  C   UNL     1       7.515  17.402  27.405  1.00  0.00     0.000 C 
BRANCH   2   3
ATOM      3  C   UNL     1       8.995  16.989  27.415  1.00  0.00     0.000 C 
BRANCH   3   4
ATOM      4  C   UNL     1       9.707  17.359  28.726  1.00  0.00     0.000 C 
BRANCH   4   5
ATOM      5  C   UNL     1       8.719  17.511  29.903  1.00  0.00     0.001 C 
BRANCH   5   6
ATOM      6  C   UNL     1       9.387  17.978  31.211  1.00  0.00     0.009 C 
BRANCH   6   7
ATOM      7  C   UNL     1       8.447  17.966  32.438  1.00  0.00     0.032 C 
ATOM      8  C   UNL     1       7.394  19.071  32.315  1.00  0.00     0.014 C 
BRANCH   7   9
ATOM      9  C   UNL     1       7.762  16.635  32.607  1.00  0.00     0.044 C 
ATOM     10  O   UNL     1       6.543  16.500  32.320  1.00  0.00    -0.550 OA
ATOM     11  O   UNL     1       8.465  15.555  33.125  1.00  0.00    -0.550 OA
ENDBRANCH   7   9
ENDBRANCH   6   7
ENDBRANCH   5   6
ENDBRANCH   4   5
ENDBRANCH   3   4
ENDBRANCH   2   3
ENDBRANCH   1   2
BRANCH   1  12
ATOM     12  C   UNL     1       5.588  18.364  26.077  1.00  0.00     0.000 C 
BRANCH  12  13
ATOM     13  C   UNL     1       4.914  17.833  27.351  1.00  0.00    -0.000 C 
BRANCH  13  14
ATOM     14  C   UNL     1       3.397  18.081  27.364  1.00  0.00    -0.000 C 
BRANCH  14  15
ATOM     15  C   UNL     1       2.752  17.869  25.983  1.00  0.00    -0.000 C 
BRANCH  15  16
ATOM     16  C   UNL     1       1.216  17.872  26.041  1.00  0.00    -0.000 C 
BRANCH  16  17
ATOM     17  C   UNL     1       0.595  18.975  25.171  1.00  0.00    -0.000 C 
BRANCH  17  18
ATOM     18  C   UNL     1       0.535  18.546  23.701  1.00  0.00    -0.003 C 
ATOM     19  C   UNL     1      -0.097  17.165  23.554  1.00  0.00     0.004 C 
ENDBRANCH  17  18
ENDBRANCH  16  17
ENDBRANCH  15  16
ENDBRANCH  14  15
ENDBRANCH  13  14
ENDBRANCH  12  13
ENDBRANCH   1  12
TORSDOF 14
ENDMDL
MODEL 3
REMARK VINA RESULT:    13.685      2.505      3.020
REMARK INTER + INTRA:          24.056
REMARK INTER:                  24.769
REMARK INTRA:                  -0.712
REMARK UNBOUND:                -0.829
REMARK SMILES CCCCCCCCCCCCCC[C@@H](C)C(=O)[O-]
REMARK SMILES IDX 9 1 10 2 11 3 12 4 13 5 14 6 15 7 16 8 17 9 18 10 19 11 8 12
REMARK SMILES IDX 7 13 6 14 5 15 4 16 3 17 2 18 1 19
REMARK H PARENT
REMARK Flexibility Score: inf
ROOT
ATOM      1  C   UNL     1       7.779  17.181  27.225  1.00  0.00     0.000 C 
ENDROOT
BRANCH   1   2
ATOM      2  C   UNL     1       7.024  17.892  26.091  1.00  0.00     0.000 C 
BRANCH   2   3
ATOM      3  C   UNL     1       5.605  18.316  26.499  1.00  0.00     0.000 C 
BRANCH   3   4
ATOM      4  C   UNL     1       4.856  19.048  25.374  1.00  0.00     0.000 C 
BRANCH   4   5
ATOM      5  C   UNL     1       5.547  18.872  24.004  1.00  0.00     0.001 C 
BRANCH   5   6
ATOM      6  C   UNL     1       4.685  19.340  22.815  1.00  0.00     0.009 C 
BRANCH   6   7
ATOM      7  C   UNL     1       4.131  20.775  22.965  1.00  0.00     0.032 C 
ATOM      8  C   UNL     1       4.932  21.750  22.097  1.00  0.00     0.014 C 
BRANCH   7   9
ATOM      9  C   UNL     1       2.672  20.855  22.598  1.00  0.00     0.044 C 
ATOM     10  O   UNL     1       1.890  21.604  23.241  1.00  0.00    -0.550 OA
ATOM     11  O   UNL     1       2.173  20.063  21.573  1.00  0.00    -0.550 OA
ENDBRANCH   7   9
ENDBRANCH   6   7
ENDBRANCH   5   6
ENDBRANCH   4   5
ENDBRANCH   3   4
ENDBRANCH   2   3
ENDBRANCH   1   2
BRANCH   1  12
ATOM     12  C   UNL     1       9.125  17.863  27.500  1.00  0.00     0.000 C 
BRANCH  12  13
ATOM     13  C   UNL     1       9.699  17.421  28.854  1.00  0.00    -0.000 C 
BRANCH  13  14
ATOM     14  C   UNL     1       8.693  17.584  30.005  1.00  0.00    -0.000 C 
BRANCH  14  15
ATOM     15  C   UNL     1       9.372  17.609  31.385  1.00  0.00    -0.000 C 
BRANCH  15  16
ATOM     16  C   UNL     1       8.490  17.003  32.488  1.00  0.00    -0.000 C 
BRANCH  16  17
ATOM     17  C   UNL     1       7.367  17.951  32.934  1.00  0.00    -0.000 C 
BRANCH  17  18
ATOM     18  C   UNL     1       7.842  19.408  32.922  1.00  0.00    -0.003 C 
ATOM     19  C   UNL     1       6.667  20.374  33.044  1.00  0.00     0.004 C 
ENDBRANCH  17  18
ENDBRANCH  16  17
ENDBRANCH  15  16
ENDBRANCH  14  15
ENDBRANCH  13  14
ENDBRANCH  12  13
ENDBRANCH   1  12
TORSDOF 14
ENDMDL
MODEL 4
REMARK VINA RESULT:    14.239      1.789      2.857
REMARK INTER + INTRA:          25.063
REMARK INTER:                  25.699
REMARK INTRA:                  -0.635
REMARK UNBOUND:                -0.829
REMARK SMILES CCCCCCCCCCCCCC[C@@H](C)C(=O)[O-]
REMARK SMILES IDX 9 1 10 2 11 3 12 4 13 5 14 6 15 7 16 8 17 9 18 10 19 11 8 12
REMARK SMILES IDX 7 13 6 14 5 15 4 16 3 17 2 18 1 19
REMARK H PARENT
REMARK Flexibility Score: inf
ROOT
ATOM      1  C   UNL     1       5.727  18.889  25.652  1.00  0.00     0.000 C 
ENDROOT
BRANCH   1   2
ATOM      2  C   UNL     1       5.171  18.930  24.220  1.00  0.00     0.000 C 
BRANCH   2   3
ATOM      3  C   UNL     1       4.706  20.335  23.805  1.00  0.00     0.000 C 
BRANCH   3   4
ATOM      4  C   UNL     1       3.853  20.326  22.526  1.00  0.00     0.000 C 
BRANCH   4   5
ATOM      5  C   UNL     1       2.434  20.883  22.768  1.00  0.00     0.001 C 
BRANCH   5   6
ATOM      6  C   UNL     1       1.366  19.787  22.952  1.00  0.00     0.009 C 
BRANCH   6   7
ATOM      7  C   UNL     1       0.989  19.515  24.426  1.00  0.00     0.032 C 
ATOM      8  C   UNL     1      -0.332  20.208  24.775  1.00  0.00     0.014 C 
BRANCH   7   9
ATOM      9  C   UNL     1       0.876  18.041  24.714  1.00  0.00     0.044 C 
ATOM     10  O   UNL     1       0.139  17.304  24.007  1.00  0.00    -0.550 OA
ATOM     11  O   UNL     1       1.555  17.494  25.795  1.00  0.00    -0.550 OA
ENDBRANCH   7   9
ENDBRANCH   6   7
ENDBRANCH   5   6
ENDBRANCH   4   5
ENDBRANCH   3   4
ENDBRANCH   2   3
ENDBRANCH   1   2
BRANCH   1  12
ATOM     12  C   UNL     1       6.833  17.835  25.781  1.00  0.00     0.000 C 
BRANCH  12  13
ATOM     13  C   UNL     1       7.139  17.537  27.257  1.00  0.00    -0.000 C 
BRANCH  13  14
ATOM     14  C   UNL     1       8.595  17.100  27.481  1.00  0.00    -0.000 C 
BRANCH  14  15
ATOM     15  C   UNL     1       9.209  17.716  28.751  1.00  0.00    -0.000 C 
BRANCH  15  16
ATOM     16  C   UNL     1       8.443  17.327  30.025  1.00  0.00    -0.000 C 
BRANCH  16  17
ATOM     17  C   UNL     1       9.017  17.992  31.285  1.00  0.00    -0.000 C 
BRANCH  17  18
ATOM     18  C   UNL     1       8.069  17.819  32.477  1.00  0.00    -0.003 C 
ATOM     19  C   UNL     1       7.872  16.344  32.817  1.00  0.00     0.004 C 
ENDBRANCH  17  18
ENDBRANCH  16  17
ENDBRANCH  15  16
ENDBRANCH  14  15
ENDBRANCH  13  14
ENDBRANCH  12  13
ENDBRANCH   1  12
TORSDOF 14
ENDMDL
MODEL 5
REMARK VINA RESULT:    14.289      4.234      8.898
REMARK INTER + INTRA:          25.154
REMARK INTER:                  25.884
REMARK INTRA:                  -0.730
REMARK UNBOUND:                -0.829
REMARK SMILES CCCCCCCCCCCCCC[C@@H](C)C(=O)[O-]
REMARK SMILES IDX 9 1 10 2 11 3 12 4 13 5 14 6 15 7 16 8 17 9 18 10 19 11 8 12
REMARK SMILES IDX 7 13 6 14 5 15 4 16 3 17 2 18 1 19
REMARK H PARENT
REMARK Flexibility Score: inf
ROOT
ATOM      1  C   UNL     1       7.733  17.357  26.578  1.00  0.00     0.000 C 
ENDROOT
BRANCH   1   2
ATOM      2  C   UNL     1       8.444  16.736  27.791  1.00  0.00     0.000 C 
BRANCH   2   3
ATOM      3  C   UNL     1       9.856  17.302  28.004  1.00  0.00     0.000 C 
BRANCH   3   4
ATOM      4  C   UNL     1       9.989  18.092  29.316  1.00  0.00     0.000 C 
BRANCH   4   5
ATOM      5  C   UNL     1       9.042  17.561  30.413  1.00  0.00     0.001 C 
BRANCH   5   6
ATOM      6  C   UNL     1       9.524  17.871  31.844  1.00  0.00     0.009 C 
BRANCH   6   7
ATOM      7  C   UNL     1       8.419  17.762  32.919  1.00  0.00     0.032 C 
ATOM      8  C   UNL     1       7.376  18.868  32.726  1.00  0.00     0.014 C 
BRANCH   7   9
ATOM      9  C   UNL     1       7.739  16.419  32.891  1.00  0.00     0.044 C 
ATOM     10  O   UNL     1       6.497  16.332  32.697  1.00  0.00    -0.550 OA
ATOM     11  O   UNL     1       8.475  15.265  33.125  1.00  0.00    -0.550 OA
ENDBRANCH   7   9
ENDBRANCH   6   7
ENDBRANCH   5   6
ENDBRANCH   4   5
ENDBRANCH   3   4
ENDBRANCH   2   3
ENDBRANCH   1   2
BRANCH   1  12
ATOM     12  C   UNL     1       6.244  17.583  26.870  1.00  0.00     0.000 C 
BRANCH  12  13
ATOM     13  C   UNL     1       5.705  18.783  26.079  1.00  0.00    -0.000 C 
BRANCH  13  14
ATOM     14  C   UNL     1       5.869  18.613  24.560  1.00  0.00    -0.000 C 
BRANCH  14  15
ATOM     15  C   UNL     1       4.630  19.078  23.775  1.00  0.00    -0.000 C 
BRANCH  15  16
ATOM     16  C   UNL     1       4.990  19.969  22.577  1.00  0.00    -0.000 C 
BRANCH  16  17
ATOM     17  C   UNL     1       4.068  21.192  22.453  1.00  0.00    -0.000 C 
BRANCH  17  18
ATOM     18  C   UNL     1       2.604  20.762  22.303  1.00  0.00    -0.003 C 
ATOM     19  C   UNL     1       1.674  21.687  23.083  1.00  0.00     0.004 C 
ENDBRANCH  17  18
ENDBRANCH  16  17
ENDBRANCH  15  16
ENDBRANCH  14  15
ENDBRANCH  13  14
ENDBRANCH  12  13
ENDBRANCH   1  12
TORSDOF 14
ENDMDL
MODEL 6
REMARK VINA RESULT:    14.661      1.316      1.832
REMARK INTER + INTRA:          25.830
REMARK INTER:                  26.676
REMARK INTRA:                  -0.846
REMARK UNBOUND:                -0.829
REMARK SMILES CCCCCCCCCCCCCC[C@@H](C)C(=O)[O-]
REMARK SMILES IDX 9 1 10 2 11 3 12 4 13 5 14 6 15 7 16 8 17 9 18 10 19 11 8 12
REMARK SMILES IDX 7 13 6 14 5 15 4 16 3 17 2 18 1 19
REMARK H PARENT
REMARK Flexibility Score: inf
ROOT
ATOM      1  C   UNL     1       7.180  17.950  26.078  1.00  0.00     0.000 C 
ENDROOT
BRANCH   1   2
ATOM      2  C   UNL     1       5.725  18.416  26.235  1.00  0.00     0.000 C 
BRANCH   2   3
ATOM      3  C   UNL     1       5.022  17.770  27.440  1.00  0.00     0.000 C 
BRANCH   3   4
ATOM      4  C   UNL     1       3.489  17.842  27.343  1.00  0.00     0.000 C 
BRANCH   4   5
ATOM      5  C   UNL     1       2.991  17.718  25.887  1.00  0.00     0.001 C 
BRANCH   5   6
ATOM      6  C   UNL     1       1.460  17.584  25.769  1.00  0.00     0.009 C 
BRANCH   6   7
ATOM      7  C   UNL     1       0.895  17.996  24.391  1.00  0.00     0.032 C 
ATOM      8  C   UNL     1      -0.377  17.203  24.077  1.00  0.00     0.014 C 
BRANCH   7   9
ATOM      9  C   UNL     1       0.599  19.471  24.324  1.00  0.00     0.044 C 
ATOM     10  O   UNL     1      -0.184  20.006  25.153  1.00  0.00    -0.550 OA
ATOM     11  O   UNL     1       1.156  20.244  23.314  1.00  0.00    -0.550 OA
ENDBRANCH   7   9
ENDBRANCH   6   7
ENDBRANCH   5   6
ENDBRANCH   4   5
ENDBRANCH   3   4
ENDBRANCH   2   3
ENDBRANCH   1   2
BRANCH   1  12
ATOM     12  C   UNL     1       7.621  17.110  27.282  1.00  0.00     0.000 C 
BRANCH  12  13
ATOM     13  C   UNL     1       9.152  17.051  27.381  1.00  0.00    -0.000 C 
BRANCH  13  14
ATOM     14  C   UNL     1       9.674  17.514  28.751  1.00  0.00    -0.000 C 
BRANCH  14  15
ATOM     15  C   UNL     1       8.585  17.489  29.838  1.00  0.00    -0.000 C 
BRANCH  15  16
ATOM     16  C   UNL     1       9.088  18.018  31.190  1.00  0.00    -0.000 C 
BRANCH  16  17
ATOM     17  C   UNL     1       8.648  17.137  32.369  1.00  0.00    -0.000 C 
BRANCH  17  18
ATOM     18  C   UNL     1       7.478  17.777  33.125  1.00  0.00    -0.003 C 
ATOM     19  C   UNL     1       7.553  19.301  33.071  1.00  0.00     0.004 C 
ENDBRANCH  17  18
ENDBRANCH  16  17
ENDBRANCH  15  16
ENDBRANCH  14  15
ENDBRANCH  13  14
ENDBRANCH  12  13
ENDBRANCH   1  12
TORSDOF 14
ENDMDL
MODEL 7
REMARK VINA RESULT:    14.662      5.866      8.863
REMARK INTER + INTRA:          25.833
REMARK INTER:                  26.604
REMARK INTRA:                  -0.771
REMARK UNBOUND:                -0.829
REMARK SMILES CCCCCCCCCCCCCC[C@@H](C)C(=O)[O-]
REMARK SMILES IDX 9 1 10 2 11 3 12 4 13 5 14 6 15 7 16 8 17 9 18 10 19 11 8 12
REMARK SMILES IDX 7 13 6 14 5 15 4 16 3 17 2 18 1 19
REMARK H PARENT
REMARK Flexibility Score: inf
ROOT
ATOM      1  C   UNL     1      10.232  14.242  26.384  1.00  0.00     0.000 C 
ENDROOT
BRANCH   1   2
ATOM      2  C   UNL     1      10.022  15.550  27.162  1.00  0.00     0.000 C 
BRANCH   2   3
ATOM      3  C   UNL     1       8.594  16.101  27.020  1.00  0.00     0.000 C 
BRANCH   3   4
ATOM      4  C   UNL     1       8.388  17.420  27.783  1.00  0.00     0.000 C 
BRANCH   4   5
ATOM      5  C   UNL     1       9.391  17.585  28.945  1.00  0.00     0.001 C 
BRANCH   5   6
ATOM      6  C   UNL     1       8.738  18.058  30.258  1.00  0.00     0.009 C 
BRANCH   6   7
ATOM      7  C   UNL     1       9.060  17.166  31.479  1.00  0.00     0.032 C 
ATOM      8  C   UNL     1      10.418  17.549  32.076  1.00  0.00     0.014 C 
BRANCH   7   9
ATOM      9  C   UNL     1       7.997  17.264  32.541  1.00  0.00     0.044 C 
ATOM     10  O   UNL     1       7.587  18.387  32.937  1.00  0.00    -0.550 OA
ATOM     11  O   UNL     1       7.493  16.108  33.124  1.00  0.00    -0.550 OA
ENDBRANCH   7   9
ENDBRANCH   6   7
ENDBRANCH   5   6
ENDBRANCH   4   5
ENDBRANCH   3   4
ENDBRANCH   2   3
ENDBRANCH   1   2
BRANCH   1  12
ATOM     12  C   UNL     1      11.445  13.473  26.920  1.00  0.00     0.000 C 
BRANCH  12  13
ATOM     13  C   UNL     1      11.021  12.126  27.525  1.00  0.00    -0.000 C 
BRANCH  13  14
ATOM     14  C   UNL     1      10.111  11.318  26.586  1.00  0.00    -0.000 C 
BRANCH  14  15
ATOM     15  C   UNL     1       9.637   9.996  27.216  1.00  0.00    -0.000 C 
BRANCH  15  16
ATOM     16  C   UNL     1       8.313   9.497  26.616  1.00  0.00    -0.000 C 
BRANCH  16  17
ATOM     17  C   UNL     1       7.329   9.003  27.687  1.00  0.00    -0.000 C 
BRANCH  17  18
ATOM     18  C   UNL     1       6.130   9.950  27.809  1.00  0.00    -0.003 C 
ATOM     19  C   UNL     1       5.804  10.604  26.469  1.00  0.00     0.004 C 
ENDBRANCH  17  18
ENDBRANCH  16  17
ENDBRANCH  15  16
ENDBRANCH  14  15
ENDBRANCH  13  14
ENDBRANCH  12  13
ENDBRANCH   1  12
TORSDOF 14
ENDMDL
MODEL 8
REMARK VINA RESULT:    14.676      4.388      8.774
REMARK INTER + INTRA:          25.858
REMARK INTER:                  26.125
REMARK INTRA:                  -0.267
REMARK UNBOUND:                -0.829
REMARK SMILES CCCCCCCCCCCCCC[C@@H](C)C(=O)[O-]
REMARK SMILES IDX 9 1 10 2 11 3 12 4 13 5 14 6 15 7 16 8 17 9 18 10 19 11 8 12
REMARK SMILES IDX 7 13 6 14 5 15 4 16 3 17 2 18 1 19
REMARK H PARENT
REMARK Flexibility Score: inf
ROOT
ATOM      1  C   UNL     1       7.708  17.800  26.798  1.00  0.00     0.000 C 
ENDROOT
BRANCH   1   2
ATOM      2  C   UNL     1       8.480  16.522  27.158  1.00  0.00     0.000 C 
BRANCH   2   3
ATOM      3  C   UNL     1       9.614  16.776  28.164  1.00  0.00     0.000 C 
BRANCH   3   4
ATOM      4  C   UNL     1       9.636  18.225  28.680  1.00  0.00     0.000 C 
BRANCH   4   5
ATOM      5  C   UNL     1       9.262  18.316  30.175  1.00  0.00     0.001 C 
BRANCH   5   6
ATOM      6  C   UNL     1       8.342  17.174  30.650  1.00  0.00     0.009 C 
BRANCH   6   7
ATOM      7  C   UNL     1       7.587  17.478  31.963  1.00  0.00     0.032 C 
ATOM      8  C   UNL     1       7.997  16.488  33.057  1.00  0.00     0.014 C 
BRANCH   7   9
ATOM      9  C   UNL     1       7.833  18.886  32.439  1.00  0.00     0.044 C 
ATOM     10  O   UNL     1       9.003  19.288  32.674  1.00  0.00    -0.550 OA
ATOM     11  O   UNL     1       6.760  19.738  32.664  1.00  0.00    -0.550 OA
ENDBRANCH   7   9
ENDBRANCH   6   7
ENDBRANCH   5   6
ENDBRANCH   4   5
ENDBRANCH   3   4
ENDBRANCH   2   3
ENDBRANCH   1   2
BRANCH   1  12
ATOM     12  C   UNL     1       6.273  17.745  27.336  1.00  0.00     0.000 C 
BRANCH  12  13
ATOM     13  C   UNL     1       5.273  18.251  26.286  1.00  0.00    -0.000 C 
BRANCH  13  14
ATOM     14  C   UNL     1       5.964  18.849  25.051  1.00  0.00    -0.000 C 
BRANCH  14  15
ATOM     15  C   UNL     1       5.008  19.007  23.856  1.00  0.00    -0.000 C 
BRANCH  15  16
ATOM     16  C   UNL     1       4.557  20.461  23.647  1.00  0.00    -0.000 C 
BRANCH  16  17
ATOM     17  C   UNL     1       4.017  20.715  22.232  1.00  0.00    -0.000 C 
BRANCH  17  18
ATOM     18  C   UNL     1       2.488  20.613  22.202  1.00  0.00    -0.003 C 
ATOM     19  C   UNL     1       1.841  21.802  22.907  1.00  0.00     0.004 C 
ENDBRANCH  17  18
ENDBRANCH  16  17
ENDBRANCH  15  16
ENDBRANCH  14  15
ENDBRANCH  13  14
ENDBRANCH  12  13
ENDBRANCH   1  12
TORSDOF 14
ENDMDL
MODEL 9
REMARK VINA RESULT:    14.810      4.107      8.913
REMARK INTER + INTRA:          26.102
REMARK INTER:                  26.796
REMARK INTRA:                  -0.695
REMARK UNBOUND:                -0.829
REMARK SMILES CCCCCCCCCCCCCC[C@@H](C)C(=O)[O-]
REMARK SMILES IDX 9 1 10 2 11 3 12 4 13 5 14 6 15 7 16 8 17 9 18 10 19 11 8 12
REMARK SMILES IDX 7 13 6 14 5 15 4 16 3 17 2 18 1 19
REMARK H PARENT
REMARK Flexibility Score: inf
ROOT
ATOM      1  C   UNL     1       5.972  17.875  27.371  1.00  0.00     0.000 C 
ENDROOT
BRANCH   1   2
ATOM      2  C   UNL     1       7.195  17.123  26.825  1.00  0.00     0.000 C 
BRANCH   2   3
ATOM      3  C   UNL     1       8.372  18.059  26.505  1.00  0.00     0.000 C 
BRANCH   3   4
ATOM      4  C   UNL     1       9.262  18.334  27.728  1.00  0.00     0.000 C 
BRANCH   4   5
ATOM      5  C   UNL     1       9.091  17.262  28.826  1.00  0.00     0.001 C 
BRANCH   5   6
ATOM      6  C   UNL     1       8.458  17.805  30.122  1.00  0.00     0.009 C 
BRANCH   6   7
ATOM      7  C   UNL     1       8.931  17.083  31.404  1.00  0.00     0.032 C 
ATOM      8  C   UNL     1      10.324  17.575  31.811  1.00  0.00     0.014 C 
BRANCH   7   9
ATOM      9  C   UNL     1       7.972  17.285  32.548  1.00  0.00     0.044 C 
ATOM     10  O   UNL     1       7.445  16.296  33.124  1.00  0.00    -0.550 OA
ATOM     11  O   UNL     1       7.629  18.570  32.945  1.00  0.00    -0.550 OA
ENDBRANCH   7   9
ENDBRANCH   6   7
ENDBRANCH   5   6
ENDBRANCH   4   5
ENDBRANCH   3   4
ENDBRANCH   2   3
ENDBRANCH   1   2
BRANCH   1  12
ATOM     12  C   UNL     1       4.890  18.020  26.294  1.00  0.00     0.000 C 
BRANCH  12  13
ATOM     13  C   UNL     1       3.487  18.011  26.919  1.00  0.00    -0.000 C 
BRANCH  13  14
ATOM     14  C   UNL     1       2.416  17.470  25.958  1.00  0.00    -0.000 C 
BRANCH  14  15
ATOM     15  C   UNL     1       1.270  18.471  25.727  1.00  0.00    -0.000 C 
BRANCH  15  16
ATOM     16  C   UNL     1       1.022  18.751  24.236  1.00  0.00    -0.000 C 
BRANCH  16  17
ATOM     17  C   UNL     1       1.195  20.235  23.878  1.00  0.00    -0.000 C 
BRANCH  17  18
ATOM     18  C   UNL     1       1.828  20.394  22.491  1.00  0.00    -0.003 C 
ATOM     19  C   UNL     1       3.328  20.656  22.595  1.00  0.00     0.004 C 
ENDBRANCH  17  18
ENDBRANCH  16  17
ENDBRANCH  15  16
ENDBRANCH  14  15
ENDBRANCH  13  14
ENDBRANCH  12  13
ENDBRANCH   1  12
TORSDOF 14
ENDMDL
