MODEL 1
REMARK VINA RESULT:    -8.066      0.000      0.000
REMARK INTER + INTRA:         -11.881
REMARK INTER:                 -11.132
REMARK INTRA:                  -0.749
REMARK UNBOUND:                -0.749
REMARK SMILES O=C([O-])[C@H]1O[C@H](Oc2cc3oc(-c4ccccc4)cc(=O)c3c(O)c2O)[C@@H](O)[C@H](O)[C@H]1O
REMARK SMILES IDX 7 1 6 2 4 3 31 4 5 5 29 6 27 7 2 8 1 9 3 10 32 11 30 13
REMARK SMILES IDX 28 15 8 17 25 18 9 19 23 20 10 21 22 22 11 23 20 24 12 25
REMARK SMILES IDX 19 26 21 27 26 28 24 30 13 32 14 33 18 34 15 35 17 36 16 37
REMARK H PARENT 32 12 30 14 28 16 26 29 24 31
REMARK Flexibility Score: inf
ROOT
ATOM      1  O   UNL     1     -44.266  35.022  -2.389  1.00  0.00    -0.458 OA
ENDROOT
BRANCH   1   2
ATOM      2  C   UNL     1     -42.870  35.349  -2.402  1.00  0.00     0.339 C 
ATOM      3  C   UNL     1     -42.574  34.699  -0.161  1.00  0.00     0.199 C 
ATOM      4  C   UNL     1     -41.680  33.485  -0.526  1.00  0.00     0.180 C 
ATOM      5  O   UNL     1     -42.419  35.744  -1.111  1.00  0.00    -0.328 OA
ATOM      6  C   UNL     1     -42.009  32.991  -1.953  1.00  0.00     0.181 C 
ATOM      7  C   UNL     1     -42.043  34.166  -2.952  1.00  0.00     0.214 C 
BRANCH   3   8
ATOM      8  C   UNL     1     -42.291  35.250   1.211  1.00  0.00     0.073 C 
ATOM      9  O   UNL     1     -42.693  36.394   1.557  1.00  0.00    -0.547 OA
ATOM     10  O   UNL     1     -41.524  34.504   2.096  1.00  0.00    -0.547 OA
ENDBRANCH   3   8
BRANCH   4  11
ATOM     11  O   UNL     1     -40.302  33.764  -0.407  1.00  0.00    -0.387 OA
ATOM     12  H   UNL     1     -39.878  33.053   0.139  1.00  0.00     0.211 HD
ENDBRANCH   4  11
BRANCH   6  13
ATOM     13  O   UNL     1     -43.255  32.339  -1.969  1.00  0.00    -0.387 OA
ATOM     14  H   UNL     1     -43.920  32.987  -2.320  1.00  0.00     0.211 HD
ENDBRANCH   6  13
BRANCH   7  15
ATOM     15  O   UNL     1     -40.729  34.589  -3.222  1.00  0.00    -0.384 OA
ATOM     16  H   UNL     1     -40.607  34.553  -4.207  1.00  0.00     0.211 HD
ENDBRANCH   7  15
ENDBRANCH   1   2
BRANCH   1  17
ATOM     17  C   UNL     1     -45.114  34.979  -3.512  1.00  0.00     0.172 A 
ATOM     18  C   UNL     1     -46.399  35.571  -3.548  1.00  0.00     0.201 A 
ATOM     19  C   UNL     1     -44.633  34.303  -4.633  1.00  0.00     0.098 A 
ATOM     20  C   UNL     1     -47.215  35.416  -4.700  1.00  0.00     0.176 A 
ATOM     21  C   UNL     1     -45.416  34.160  -5.776  1.00  0.00     0.146 A 
ATOM     22  C   UNL     1     -46.719  34.704  -5.821  1.00  0.00     0.111 A 
ATOM     23  O   UNL     1     -44.920  33.496  -6.816  1.00  0.00    -0.456 OA
ATOM     24  C   UNL     1     -47.478  34.473  -6.986  1.00  0.00     0.197 A 
ATOM     25  C   UNL     1     -45.598  33.294  -7.943  1.00  0.00     0.138 A 
ATOM     26  C   UNL     1     -46.916  33.762  -8.046  1.00  0.00     0.100 A 
ATOM     27  O   UNL     1     -48.664  34.888  -7.093  1.00  0.00    -0.289 OA
BRANCH  18  28
ATOM     28  O   UNL     1     -46.829  36.316  -2.448  1.00  0.00    -0.502 OA
ATOM     29  H   UNL     1     -46.262  36.981  -1.938  1.00  0.00     0.293 HD
ENDBRANCH  18  28
BRANCH  20  30
ATOM     30  O   UNL     1     -48.508  35.952  -4.758  1.00  0.00    -0.504 OA
ATOM     31  H   UNL     1     -48.823  36.637  -5.432  1.00  0.00     0.293 HD
ENDBRANCH  20  30
BRANCH  25  32
ATOM     32  C   UNL     1     -44.943  32.554  -9.051  1.00  0.00     0.017 A 
ATOM     33  C   UNL     1     -44.238  33.223 -10.073  1.00  0.00     0.012 A 
ATOM     34  C   UNL     1     -44.995  31.149  -9.072  1.00  0.00     0.012 A 
ATOM     35  C   UNL     1     -43.632  32.500 -11.104  1.00  0.00     0.001 A 
ATOM     36  C   UNL     1     -44.390  30.430 -10.109  1.00  0.00     0.001 A 
ATOM     37  C   UNL     1     -43.712  31.105 -11.125  1.00  0.00     0.000 A 
ENDBRANCH  25  32
ENDBRANCH   1  17
TORSDOF 9
ENDMDL
MODEL 2
REMARK VINA RESULT:    -7.897      2.329      3.855
REMARK INTER + INTRA:         -11.647
REMARK INTER:                 -10.625
REMARK INTRA:                  -1.023
REMARK UNBOUND:                -0.749
REMARK SMILES O=C([O-])[C@H]1O[C@H](Oc2cc3oc(-c4ccccc4)cc(=O)c3c(O)c2O)[C@@H](O)[C@H](O)[C@H]1O
REMARK SMILES IDX 7 1 6 2 4 3 31 4 5 5 29 6 27 7 2 8 1 9 3 10 32 11 30 13
REMARK SMILES IDX 28 15 8 17 25 18 9 19 23 20 10 21 22 22 11 23 20 24 12 25
REMARK SMILES IDX 19 26 21 27 26 28 24 30 13 32 14 33 18 34 15 35 17 36 16 37
REMARK H PARENT 32 12 30 14 28 16 26 29 24 31
REMARK Flexibility Score: inf
ROOT
ATOM      1  O   UNL     1     -43.631  34.306  -3.555  1.00  0.00    -0.458 OA
ENDROOT
BRANCH   1   2
ATOM      2  C   UNL     1     -42.764  33.318  -2.982  1.00  0.00     0.339 C 
ATOM      3  C   UNL     1     -41.110  34.903  -2.450  1.00  0.00     0.199 C 
ATOM      4  C   UNL     1     -41.312  34.748  -0.919  1.00  0.00     0.180 C 
ATOM      5  O   UNL     1     -41.397  33.685  -3.123  1.00  0.00    -0.328 OA
ATOM      6  C   UNL     1     -42.751  34.271  -0.617  1.00  0.00     0.181 C 
ATOM      7  C   UNL     1     -43.133  33.069  -1.503  1.00  0.00     0.214 C 
BRANCH   3   8
ATOM      8  C   UNL     1     -39.720  35.343  -2.821  1.00  0.00     0.073 C 
ATOM      9  O   UNL     1     -39.274  36.473  -2.484  1.00  0.00    -0.547 OA
ATOM     10  O   UNL     1     -38.929  34.506  -3.598  1.00  0.00    -0.547 OA
ENDBRANCH   3   8
BRANCH   4  11
ATOM     11  O   UNL     1     -40.372  33.879  -0.328  1.00  0.00    -0.387 OA
ATOM     12  H   UNL     1     -39.661  33.679  -0.991  1.00  0.00     0.211 HD
ENDBRANCH   4  11
BRANCH   6  13
ATOM     13  O   UNL     1     -43.668  35.315  -0.839  1.00  0.00    -0.387 OA
ATOM     14  H   UNL     1     -43.748  35.819   0.012  1.00  0.00     0.211 HD
ENDBRANCH   6  13
BRANCH   7  15
ATOM     15  O   UNL     1     -42.476  31.916  -1.036  1.00  0.00    -0.384 OA
ATOM     16  H   UNL     1     -42.057  32.149  -0.168  1.00  0.00     0.211 HD
ENDBRANCH   7  15
ENDBRANCH   1   2
BRANCH   1  17
ATOM     17  C   UNL     1     -43.918  34.458  -4.926  1.00  0.00     0.172 A 
ATOM     18  C   UNL     1     -43.203  35.324  -5.787  1.00  0.00     0.201 A 
ATOM     19  C   UNL     1     -44.975  33.700  -5.430  1.00  0.00     0.098 A 
ATOM     20  C   UNL     1     -43.609  35.466  -7.140  1.00  0.00     0.176 A 
ATOM     21  C   UNL     1     -45.371  33.816  -6.760  1.00  0.00     0.146 A 
ATOM     22  C   UNL     1     -44.702  34.708  -7.628  1.00  0.00     0.111 A 
ATOM     23  O   UNL     1     -46.393  33.084  -7.194  1.00  0.00    -0.456 OA
ATOM     24  C   UNL     1     -45.190  34.819  -8.946  1.00  0.00     0.197 A 
ATOM     25  C   UNL     1     -46.853  33.139  -8.441  1.00  0.00     0.138 A 
ATOM     26  C   UNL     1     -46.272  34.035  -9.349  1.00  0.00     0.100 A 
ATOM     27  O   UNL     1     -44.678  35.620  -9.774  1.00  0.00    -0.289 OA
BRANCH  18  28
ATOM     28  O   UNL     1     -42.094  36.009  -5.284  1.00  0.00    -0.502 OA
ATOM     29  H   UNL     1     -41.524  36.658  -5.809  1.00  0.00     0.293 HD
ENDBRANCH  18  28
BRANCH  20  30
ATOM     30  O   UNL     1     -42.952  36.345  -8.012  1.00  0.00    -0.504 OA
ATOM     31  H   UNL     1     -43.399  36.869  -8.753  1.00  0.00     0.293 HD
ENDBRANCH  20  30
BRANCH  25  32
ATOM     32  C   UNL     1     -47.989  32.264  -8.825  1.00  0.00     0.017 A 
ATOM     33  C   UNL     1     -49.004  31.923  -7.907  1.00  0.00     0.012 A 
ATOM     34  C   UNL     1     -48.079  31.784 -10.144  1.00  0.00     0.012 A 
ATOM     35  C   UNL     1     -50.062  31.097  -8.298  1.00  0.00     0.001 A 
ATOM     36  C   UNL     1     -49.137  30.952 -10.528  1.00  0.00     0.001 A 
ATOM     37  C   UNL     1     -50.125  30.607  -9.605  1.00  0.00     0.000 A 
ENDBRANCH  25  32
ENDBRANCH   1  17
TORSDOF 9
ENDMDL
MODEL 3
REMARK VINA RESULT:    -7.813      2.683      9.338
REMARK INTER + INTRA:         -11.531
REMARK INTER:                 -10.418
REMARK INTRA:                  -1.113
REMARK UNBOUND:                -0.749
REMARK SMILES O=C([O-])[C@H]1O[C@H](Oc2cc3oc(-c4ccccc4)cc(=O)c3c(O)c2O)[C@@H](O)[C@H](O)[C@H]1O
REMARK SMILES IDX 7 1 6 2 4 3 31 4 5 5 29 6 27 7 2 8 1 9 3 10 32 11 30 13
REMARK SMILES IDX 28 15 8 17 25 18 9 19 23 20 10 21 22 22 11 23 20 24 12 25
REMARK SMILES IDX 19 26 21 27 26 28 24 30 13 32 14 33 18 34 15 35 17 36 16 37
REMARK H PARENT 32 12 30 14 28 16 26 29 24 31
REMARK Flexibility Score: inf
ROOT
ATOM      1  O   UNL     1     -43.577  34.576  -4.656  1.00  0.00    -0.458 OA
ENDROOT
BRANCH   1   2
ATOM      2  C   UNL     1     -42.842  34.938  -5.833  1.00  0.00     0.339 C 
ATOM      3  C   UNL     1     -44.573  34.253  -7.271  1.00  0.00     0.199 C 
ATOM      4  C   UNL     1     -44.883  35.697  -7.748  1.00  0.00     0.180 C 
ATOM      5  O   UNL     1     -43.198  34.116  -6.938  1.00  0.00    -0.328 OA
ATOM      6  C   UNL     1     -44.469  36.717  -6.663  1.00  0.00     0.181 C 
ATOM      7  C   UNL     1     -43.041  36.436  -6.155  1.00  0.00     0.214 C 
BRANCH   3   8
ATOM      8  C   UNL     1     -44.929  33.205  -8.290  1.00  0.00     0.073 C 
ATOM      9  O   UNL     1     -44.299  33.102  -9.377  1.00  0.00    -0.547 OA
ATOM     10  O   UNL     1     -46.009  32.365  -8.049  1.00  0.00    -0.547 OA
ENDBRANCH   3   8
BRANCH   4  11
ATOM     11  O   UNL     1     -44.269  36.010  -8.978  1.00  0.00    -0.387 OA
ATOM     12  H   UNL     1     -43.415  36.481  -8.799  1.00  0.00     0.211 HD
ENDBRANCH   4  11
BRANCH   6  13
ATOM     13  O   UNL     1     -45.362  36.665  -5.577  1.00  0.00    -0.387 OA
ATOM     14  H   UNL     1     -44.881  36.233  -4.825  1.00  0.00     0.211 HD
ENDBRANCH   6  13
BRANCH   7  15
ATOM     15  O   UNL     1     -42.109  36.841  -7.127  1.00  0.00    -0.384 OA
ATOM     16  H   UNL     1     -41.801  37.751  -6.876  1.00  0.00     0.211 HD
ENDBRANCH   7  15
ENDBRANCH   1   2
BRANCH   1  17
ATOM     17  C   UNL     1     -43.058  34.499  -3.349  1.00  0.00     0.172 A 
ATOM     18  C   UNL     1     -42.278  33.417  -2.877  1.00  0.00     0.201 A 
ATOM     19  C   UNL     1     -43.352  35.563  -2.496  1.00  0.00     0.098 A 
ATOM     20  C   UNL     1     -41.856  33.390  -1.521  1.00  0.00     0.176 A 
ATOM     21  C   UNL     1     -42.929  35.558  -1.170  1.00  0.00     0.146 A 
ATOM     22  C   UNL     1     -42.186  34.468  -0.662  1.00  0.00     0.111 A 
ATOM     23  O   UNL     1     -43.243  36.587  -0.390  1.00  0.00    -0.456 OA
ATOM     24  C   UNL     1     -41.839  34.500   0.704  1.00  0.00     0.197 A 
ATOM     25  C   UNL     1     -42.898  36.664   0.893  1.00  0.00     0.138 A 
ATOM     26  C   UNL     1     -42.202  35.599   1.482  1.00  0.00     0.100 A 
ATOM     27  O   UNL     1     -41.213  33.550   1.247  1.00  0.00    -0.289 OA
BRANCH  18  28
ATOM     28  O   UNL     1     -41.922  32.404  -3.770  1.00  0.00    -0.502 OA
ATOM     29  H   UNL     1     -41.768  32.529  -4.761  1.00  0.00     0.293 HD
ENDBRANCH  18  28
BRANCH  20  30
ATOM     30  O   UNL     1     -41.118  32.316  -1.006  1.00  0.00    -0.504 OA
ATOM     31  H   UNL     1     -40.683  32.296  -0.093  1.00  0.00     0.293 HD
ENDBRANCH  20  30
BRANCH  25  32
ATOM     32  C   UNL     1     -43.286  37.869   1.669  1.00  0.00     0.017 A 
ATOM     33  C   UNL     1     -43.840  39.005   1.045  1.00  0.00     0.012 A 
ATOM     34  C   UNL     1     -43.129  37.873   3.067  1.00  0.00     0.012 A 
ATOM     35  C   UNL     1     -44.196  40.125   1.802  1.00  0.00     0.001 A 
ATOM     36  C   UNL     1     -43.481  38.999   3.819  1.00  0.00     0.001 A 
ATOM     37  C   UNL     1     -44.011  40.124   3.186  1.00  0.00     0.000 A 
ENDBRANCH  25  32
ENDBRANCH   1  17
TORSDOF 9
ENDMDL
MODEL 4
REMARK VINA RESULT:    -7.727      2.692      8.606
REMARK INTER + INTRA:         -11.413
REMARK INTER:                 -10.277
REMARK INTRA:                  -1.136
REMARK UNBOUND:                -0.749
REMARK SMILES O=C([O-])[C@H]1O[C@H](Oc2cc3oc(-c4ccccc4)cc(=O)c3c(O)c2O)[C@@H](O)[C@H](O)[C@H]1O
REMARK SMILES IDX 7 1 6 2 4 3 31 4 5 5 29 6 27 7 2 8 1 9 3 10 32 11 30 13
REMARK SMILES IDX 28 15 8 17 25 18 9 19 23 20 10 21 22 22 11 23 20 24 12 25
REMARK SMILES IDX 19 26 21 27 26 28 24 30 13 32 14 33 18 34 15 35 17 36 16 37
REMARK H PARENT 32 12 30 14 28 16 26 29 24 31
REMARK Flexibility Score: inf
ROOT
ATOM      1  O   UNL     1     -43.924  33.446  -8.283  1.00  0.00    -0.458 OA
ENDROOT
BRANCH   1   2
ATOM      2  C   UNL     1     -44.866  32.367  -8.219  1.00  0.00     0.339 C 
ATOM      3  C   UNL     1     -46.492  33.554  -9.434  1.00  0.00     0.199 C 
ATOM      4  C   UNL     1     -46.405  32.613 -10.664  1.00  0.00     0.180 C 
ATOM      5  O   UNL     1     -46.206  32.848  -8.236  1.00  0.00    -0.328 OA
ATOM      6  C   UNL     1     -45.011  31.950 -10.730  1.00  0.00     0.181 C 
ATOM      7  C   UNL     1     -44.613  31.360  -9.362  1.00  0.00     0.214 C 
BRANCH   3   8
ATOM      8  C   UNL     1     -47.835  34.219  -9.292  1.00  0.00     0.073 C 
ATOM      9  O   UNL     1     -48.267  34.598  -8.170  1.00  0.00    -0.547 OA
ATOM     10  O   UNL     1     -48.639  34.369 -10.414  1.00  0.00    -0.547 OA
ENDBRANCH   3   8
BRANCH   4  11
ATOM     11  O   UNL     1     -47.418  31.631 -10.674  1.00  0.00    -0.387 OA
ATOM     12  H   UNL     1     -47.851  31.609  -9.783  1.00  0.00     0.211 HD
ENDBRANCH   4  11
BRANCH   6  13
ATOM     13  O   UNL     1     -44.041  32.889 -11.125  1.00  0.00    -0.387 OA
ATOM     14  H   UNL     1     -44.308  33.764 -10.738  1.00  0.00     0.211 HD
ENDBRANCH   6  13
BRANCH   7  15
ATOM     15  O   UNL     1     -45.345  30.181  -9.129  1.00  0.00    -0.384 OA
ATOM     16  H   UNL     1     -45.230  29.603  -9.928  1.00  0.00     0.211 HD
ENDBRANCH   7  15
ENDBRANCH   1   2
BRANCH   1  17
ATOM     17  C   UNL     1     -43.828  34.514  -7.369  1.00  0.00     0.172 A 
ATOM     18  C   UNL     1     -44.067  35.865  -7.714  1.00  0.00     0.201 A 
ATOM     19  C   UNL     1     -43.471  34.186  -6.061  1.00  0.00     0.098 A 
ATOM     20  C   UNL     1     -43.876  36.885  -6.743  1.00  0.00     0.176 A 
ATOM     21  C   UNL     1     -43.298  35.174  -5.095  1.00  0.00     0.146 A 
ATOM     22  C   UNL     1     -43.487  36.535  -5.426  1.00  0.00     0.111 A 
ATOM     23  O   UNL     1     -42.944  34.817  -3.865  1.00  0.00    -0.456 OA
ATOM     24  C   UNL     1     -43.241  37.488  -4.416  1.00  0.00     0.197 A 
ATOM     25  C   UNL     1     -42.741  35.688  -2.881  1.00  0.00     0.138 A 
ATOM     26  C   UNL     1     -42.862  37.061  -3.143  1.00  0.00     0.100 A 
ATOM     27  O   UNL     1     -43.346  38.724  -4.637  1.00  0.00    -0.289 OA
BRANCH  18  28
ATOM     28  O   UNL     1     -44.507  36.164  -9.005  1.00  0.00    -0.502 OA
ATOM     29  H   UNL     1     -44.409  35.557  -9.808  1.00  0.00     0.293 HD
ENDBRANCH  18  28
BRANCH  20  30
ATOM     30  O   UNL     1     -44.062  38.237  -7.057  1.00  0.00    -0.504 OA
ATOM     31  H   UNL     1     -44.688  38.586  -7.771  1.00  0.00     0.293 HD
ENDBRANCH  20  30
BRANCH  25  32
ATOM     32  C   UNL     1     -42.365  35.180  -1.538  1.00  0.00     0.017 A 
ATOM     33  C   UNL     1     -41.559  34.033  -1.379  1.00  0.00     0.012 A 
ATOM     34  C   UNL     1     -42.793  35.871  -0.390  1.00  0.00     0.012 A 
ATOM     35  C   UNL     1     -41.222  33.578  -0.102  1.00  0.00     0.001 A 
ATOM     36  C   UNL     1     -42.457  35.407   0.887  1.00  0.00     0.001 A 
ATOM     37  C   UNL     1     -41.675  34.260   1.030  1.00  0.00     0.000 A 
ENDBRANCH  25  32
ENDBRANCH   1  17
TORSDOF 9
ENDMDL
MODEL 5
REMARK VINA RESULT:    -7.725      2.109      3.486
REMARK INTER + INTRA:         -11.410
REMARK INTER:                 -10.837
REMARK INTRA:                  -0.573
REMARK UNBOUND:                -0.749
REMARK SMILES O=C([O-])[C@H]1O[C@H](Oc2cc3oc(-c4ccccc4)cc(=O)c3c(O)c2O)[C@@H](O)[C@H](O)[C@H]1O
REMARK SMILES IDX 7 1 6 2 4 3 31 4 5 5 29 6 27 7 2 8 1 9 3 10 32 11 30 13
REMARK SMILES IDX 28 15 8 17 25 18 9 19 23 20 10 21 22 22 11 23 20 24 12 25
REMARK SMILES IDX 19 26 21 27 26 28 24 30 13 32 14 33 18 34 15 35 17 36 16 37
REMARK H PARENT 32 12 30 14 28 16 26 29 24 31
REMARK Flexibility Score: inf
ROOT
ATOM      1  O   UNL     1     -43.337  35.405  -2.588  1.00  0.00    -0.458 OA
ENDROOT
BRANCH   1   2
ATOM      2  C   UNL     1     -42.070  35.620  -1.953  1.00  0.00     0.339 C 
ATOM      3  C   UNL     1     -43.017  35.642   0.199  1.00  0.00     0.199 C 
ATOM      4  C   UNL     1     -42.330  34.318   0.624  1.00  0.00     0.180 C 
ATOM      5  O   UNL     1     -42.217  36.348  -0.739  1.00  0.00    -0.328 OA
ATOM      6  C   UNL     1     -42.034  33.448  -0.618  1.00  0.00     0.181 C 
ATOM      7  C   UNL     1     -41.346  34.275  -1.722  1.00  0.00     0.214 C 
BRANCH   3   8
ATOM      8  C   UNL     1     -43.313  36.554   1.360  1.00  0.00     0.073 C 
ATOM      9  O   UNL     1     -42.459  36.771   2.262  1.00  0.00    -0.547 OA
ATOM     10  O   UNL     1     -44.574  37.127   1.466  1.00  0.00    -0.547 OA
ENDBRANCH   3   8
BRANCH   4  11
ATOM     11  O   UNL     1     -41.151  34.528   1.370  1.00  0.00    -0.387 OA
ATOM     12  H   UNL     1     -40.500  35.020   0.807  1.00  0.00     0.211 HD
ENDBRANCH   4  11
BRANCH   6  13
ATOM     13  O   UNL     1     -43.227  32.904  -1.128  1.00  0.00    -0.387 OA
ATOM     14  H   UNL     1     -43.133  31.916  -1.101  1.00  0.00     0.211 HD
ENDBRANCH   6  13
BRANCH   7  15
ATOM     15  O   UNL     1     -40.006  34.511  -1.364  1.00  0.00    -0.384 OA
ATOM     16  H   UNL     1     -39.805  33.932  -0.584  1.00  0.00     0.211 HD
ENDBRANCH   7  15
ENDBRANCH   1   2
BRANCH   1  17
ATOM     17  C   UNL     1     -43.550  35.232  -3.970  1.00  0.00     0.172 A 
ATOM     18  C   UNL     1     -42.692  35.755  -4.967  1.00  0.00     0.201 A 
ATOM     19  C   UNL     1     -44.681  34.506  -4.343  1.00  0.00     0.098 A 
ATOM     20  C   UNL     1     -43.024  35.593  -6.339  1.00  0.00     0.176 A 
ATOM     21  C   UNL     1     -45.008  34.324  -5.684  1.00  0.00     0.146 A 
ATOM     22  C   UNL     1     -44.191  34.874  -6.698  1.00  0.00     0.111 A 
ATOM     23  O   UNL     1     -46.102  33.636  -5.992  1.00  0.00    -0.456 OA
ATOM     24  C   UNL     1     -44.610  34.702  -8.033  1.00  0.00     0.197 A 
ATOM     25  C   UNL     1     -46.504  33.424  -7.243  1.00  0.00     0.138 A 
ATOM     26  C   UNL     1     -45.773  33.979  -8.303  1.00  0.00     0.100 A 
ATOM     27  O   UNL     1     -43.963  35.194  -8.996  1.00  0.00    -0.289 OA
BRANCH  18  28
ATOM     28  O   UNL     1     -41.520  36.405  -4.574  1.00  0.00    -0.502 OA
ATOM     29  H   UNL     1     -41.420  36.973  -3.744  1.00  0.00     0.293 HD
ENDBRANCH  18  28
BRANCH  20  30
ATOM     30  O   UNL     1     -42.222  36.131  -7.353  1.00  0.00    -0.504 OA
ATOM     31  H   UNL     1     -41.651  35.591  -7.989  1.00  0.00     0.293 HD
ENDBRANCH  20  30
BRANCH  25  32
ATOM     32  C   UNL     1     -47.734  32.625  -7.476  1.00  0.00     0.017 A 
ATOM     33  C   UNL     1     -48.856  32.729  -6.627  1.00  0.00     0.012 A 
ATOM     34  C   UNL     1     -47.801  31.765  -8.586  1.00  0.00     0.012 A 
ATOM     35  C   UNL     1     -49.999  31.964  -6.872  1.00  0.00     0.001 A 
ATOM     36  C   UNL     1     -48.947  30.997  -8.823  1.00  0.00     0.001 A 
ATOM     37  C   UNL     1     -50.043  31.095  -7.964  1.00  0.00     0.000 A 
ENDBRANCH  25  32
ENDBRANCH   1  17
TORSDOF 9
ENDMDL
MODEL 6
REMARK VINA RESULT:    -7.662      2.471      9.258
REMARK INTER + INTRA:         -11.323
REMARK INTER:                 -10.633
REMARK INTRA:                  -0.690
REMARK UNBOUND:                -0.749
REMARK SMILES O=C([O-])[C@H]1O[C@H](Oc2cc3oc(-c4ccccc4)cc(=O)c3c(O)c2O)[C@@H](O)[C@H](O)[C@H]1O
REMARK SMILES IDX 7 1 6 2 4 3 31 4 5 5 29 6 27 7 2 8 1 9 3 10 32 11 30 13
REMARK SMILES IDX 28 15 8 17 25 18 9 19 23 20 10 21 22 22 11 23 20 24 12 25
REMARK SMILES IDX 19 26 21 27 26 28 24 30 13 32 14 33 18 34 15 35 17 36 16 37
REMARK H PARENT 32 12 30 14 28 16 26 29 24 31
REMARK Flexibility Score: inf
ROOT
ATOM      1  O   UNL     1     -43.055  35.589  -5.333  1.00  0.00    -0.458 OA
ENDROOT
BRANCH   1   2
ATOM      2  C   UNL     1     -44.284  36.227  -5.706  1.00  0.00     0.339 C 
ATOM      3  C   UNL     1     -44.541  34.884  -7.619  1.00  0.00     0.199 C 
ATOM      4  C   UNL     1     -45.788  34.151  -7.059  1.00  0.00     0.180 C 
ATOM      5  O   UNL     1     -44.467  36.211  -7.117  1.00  0.00    -0.328 OA
ATOM      6  C   UNL     1     -45.762  34.159  -5.514  1.00  0.00     0.181 C 
ATOM      7  C   UNL     1     -45.476  35.574  -4.973  1.00  0.00     0.214 C 
BRANCH   3   8
ATOM      8  C   UNL     1     -44.511  34.937  -9.123  1.00  0.00     0.073 C 
ATOM      9  O   UNL     1     -45.520  35.290  -9.790  1.00  0.00    -0.547 OA
ATOM     10  O   UNL     1     -43.361  34.536  -9.792  1.00  0.00    -0.547 OA
ENDBRANCH   3   8
BRANCH   4  11
ATOM     11  O   UNL     1     -47.000  34.693  -7.535  1.00  0.00    -0.387 OA
ATOM     12  H   UNL     1     -47.633  33.951  -7.714  1.00  0.00     0.211 HD
ENDBRANCH   4  11
BRANCH   6  13
ATOM     13  O   UNL     1     -44.776  33.277  -5.037  1.00  0.00    -0.387 OA
ATOM     14  H   UNL     1     -44.882  33.226  -4.052  1.00  0.00     0.211 HD
ENDBRANCH   6  13
BRANCH   7  15
ATOM     15  O   UNL     1     -46.623  36.374  -5.123  1.00  0.00    -0.384 OA
ATOM     16  H   UNL     1     -47.284  36.068  -4.449  1.00  0.00     0.211 HD
ENDBRANCH   7  15
ENDBRANCH   1   2
BRANCH   1  17
ATOM     17  C   UNL     1     -42.667  35.246  -4.023  1.00  0.00     0.172 A 
ATOM     18  C   UNL     1     -42.003  34.041  -3.691  1.00  0.00     0.201 A 
ATOM     19  C   UNL     1     -42.974  36.165  -3.020  1.00  0.00     0.098 A 
ATOM     20  C   UNL     1     -41.713  33.747  -2.332  1.00  0.00     0.176 A 
ATOM     21  C   UNL     1     -42.679  35.897  -1.685  1.00  0.00     0.146 A 
ATOM     22  C   UNL     1     -42.056  34.681  -1.323  1.00  0.00     0.111 A 
ATOM     23  O   UNL     1     -43.002  36.796  -0.761  1.00  0.00    -0.456 OA
ATOM     24  C   UNL     1     -41.838  34.448   0.050  1.00  0.00     0.197 A 
ATOM     25  C   UNL     1     -42.775  36.622   0.538  1.00  0.00     0.138 A 
ATOM     26  C   UNL     1     -42.204  35.420   0.981  1.00  0.00     0.100 A 
ATOM     27  O   UNL     1     -41.326  33.373   0.463  1.00  0.00    -0.289 OA
BRANCH  18  28
ATOM     28  O   UNL     1     -41.627  33.174  -4.719  1.00  0.00    -0.502 OA
ATOM     29  H   UNL     1     -41.965  32.227  -4.835  1.00  0.00     0.293 HD
ENDBRANCH  18  28
BRANCH  20  30
ATOM     30  O   UNL     1     -41.095  32.546  -1.961  1.00  0.00    -0.504 OA
ATOM     31  H   UNL     1     -41.542  31.799  -1.446  1.00  0.00     0.293 HD
ENDBRANCH  20  30
BRANCH  25  32
ATOM     32  C   UNL     1     -43.160  37.700   1.484  1.00  0.00     0.017 A 
ATOM     33  C   UNL     1     -42.818  37.641   2.851  1.00  0.00     0.012 A 
ATOM     34  C   UNL     1     -43.855  38.825   1.007  1.00  0.00     0.012 A 
ATOM     35  C   UNL     1     -43.194  38.671   3.718  1.00  0.00     0.001 A 
ATOM     36  C   UNL     1     -44.233  39.851   1.881  1.00  0.00     0.001 A 
ATOM     37  C   UNL     1     -43.906  39.771   3.235  1.00  0.00     0.000 A 
ENDBRANCH  25  32
ENDBRANCH   1  17
TORSDOF 9
ENDMDL
MODEL 7
REMARK VINA RESULT:    -7.596      1.887      2.883
REMARK INTER + INTRA:         -11.232
REMARK INTER:                 -10.116
REMARK INTRA:                  -1.116
REMARK UNBOUND:                -0.749
REMARK SMILES O=C([O-])[C@H]1O[C@H](Oc2cc3oc(-c4ccccc4)cc(=O)c3c(O)c2O)[C@@H](O)[C@H](O)[C@H]1O
REMARK SMILES IDX 7 1 6 2 4 3 31 4 5 5 29 6 27 7 2 8 1 9 3 10 32 11 30 13
REMARK SMILES IDX 28 15 8 17 25 18 9 19 23 20 10 21 22 22 11 23 20 24 12 25
REMARK SMILES IDX 19 26 21 27 26 28 24 30 13 32 14 33 18 34 15 35 17 36 16 37
REMARK H PARENT 32 12 30 14 28 16 26 29 24 31
REMARK Flexibility Score: inf
ROOT
ATOM      1  O   UNL     1     -43.955  34.814  -3.833  1.00  0.00    -0.458 OA
ENDROOT
BRANCH   1   2
ATOM      2  C   UNL     1     -43.289  33.611  -3.427  1.00  0.00     0.339 C 
ATOM      3  C   UNL     1     -41.419  34.780  -2.610  1.00  0.00     0.199 C 
ATOM      4  C   UNL     1     -41.707  34.409  -1.131  1.00  0.00     0.180 C 
ATOM      5  O   UNL     1     -41.875  33.759  -3.485  1.00  0.00    -0.328 OA
ATOM      6  C   UNL     1     -43.216  34.140  -0.933  1.00  0.00     0.181 C 
ATOM      7  C   UNL     1     -43.755  33.185  -2.017  1.00  0.00     0.214 C 
BRANCH   3   8
ATOM      8  C   UNL     1     -39.961  35.033  -2.883  1.00  0.00     0.073 C 
ATOM      9  O   UNL     1     -39.391  36.089  -2.497  1.00  0.00    -0.547 OA
ATOM     10  O   UNL     1     -39.239  34.105  -3.623  1.00  0.00    -0.547 OA
ENDBRANCH   3   8
BRANCH   4  11
ATOM     11  O   UNL     1     -40.948  33.306  -0.686  1.00  0.00    -0.387 OA
ATOM     12  H   UNL     1     -41.350  32.475  -1.048  1.00  0.00     0.211 HD
ENDBRANCH   4  11
BRANCH   6  13
ATOM     13  O   UNL     1     -43.938  35.347  -0.985  1.00  0.00    -0.387 OA
ATOM     14  H   UNL     1     -43.520  35.965  -0.330  1.00  0.00     0.211 HD
ENDBRANCH   6  13
BRANCH   7  15
ATOM     15  O   UNL     1     -43.318  31.875  -1.746  1.00  0.00    -0.384 OA
ATOM     16  H   UNL     1     -43.407  31.733  -0.769  1.00  0.00     0.211 HD
ENDBRANCH   7  15
ENDBRANCH   1   2
BRANCH   1  17
ATOM     17  C   UNL     1     -45.206  34.887  -4.476  1.00  0.00     0.172 A 
ATOM     18  C   UNL     1     -46.236  35.777  -4.089  1.00  0.00     0.201 A 
ATOM     19  C   UNL     1     -45.411  34.018  -5.548  1.00  0.00     0.098 A 
ATOM     20  C   UNL     1     -47.493  35.732  -4.750  1.00  0.00     0.176 A 
ATOM     21  C   UNL     1     -46.631  33.977  -6.216  1.00  0.00     0.146 A 
ATOM     22  C   UNL     1     -47.690  34.824  -5.820  1.00  0.00     0.111 A 
ATOM     23  O   UNL     1     -46.785  33.123  -7.224  1.00  0.00    -0.456 OA
ATOM     24  C   UNL     1     -48.917  34.691  -6.502  1.00  0.00     0.197 A 
ATOM     25  C   UNL     1     -47.917  33.000  -7.911  1.00  0.00     0.138 A 
ATOM     26  C   UNL     1     -49.030  33.772  -7.546  1.00  0.00     0.100 A 
ATOM     27  O   UNL     1     -49.925  35.378  -6.185  1.00  0.00    -0.289 OA
BRANCH  18  28
ATOM     28  O   UNL     1     -45.983  36.699  -3.071  1.00  0.00    -0.502 OA
ATOM     29  H   UNL     1     -45.748  36.461  -2.116  1.00  0.00     0.293 HD
ENDBRANCH  18  28
BRANCH  20  30
ATOM     30  O   UNL     1     -48.550  36.568  -4.368  1.00  0.00    -0.504 OA
ATOM     31  H   UNL     1     -48.561  37.146  -3.539  1.00  0.00     0.293 HD
ENDBRANCH  20  30
BRANCH  25  32
ATOM     32  C   UNL     1     -47.975  32.026  -9.030  1.00  0.00     0.017 A 
ATOM     33  C   UNL     1     -47.018  32.030 -10.065  1.00  0.00     0.012 A 
ATOM     34  C   UNL     1     -48.990  31.052  -9.049  1.00  0.00     0.012 A 
ATOM     35  C   UNL     1     -47.098  31.101 -11.106  1.00  0.00     0.001 A 
ATOM     36  C   UNL     1     -49.069  30.127 -10.097  1.00  0.00     0.001 A 
ATOM     37  C   UNL     1     -48.126  30.155 -11.125  1.00  0.00     0.000 A 
ENDBRANCH  25  32
ENDBRANCH   1  17
TORSDOF 9
ENDMDL
MODEL 8
REMARK VINA RESULT:    -7.369      1.635      2.734
REMARK INTER + INTRA:         -10.919
REMARK INTER:                 -10.296
REMARK INTRA:                  -0.623
REMARK UNBOUND:                -0.749
REMARK SMILES O=C([O-])[C@H]1O[C@H](Oc2cc3oc(-c4ccccc4)cc(=O)c3c(O)c2O)[C@@H](O)[C@H](O)[C@H]1O
REMARK SMILES IDX 7 1 6 2 4 3 31 4 5 5 29 6 27 7 2 8 1 9 3 10 32 11 30 13
REMARK SMILES IDX 28 15 8 17 25 18 9 19 23 20 10 21 22 22 11 23 20 24 12 25
REMARK SMILES IDX 19 26 21 27 26 28 24 30 13 32 14 33 18 34 15 35 17 36 16 37
REMARK H PARENT 32 12 30 14 28 16 26 29 24 31
REMARK Flexibility Score: inf
ROOT
ATOM      1  O   UNL     1     -44.211  37.625  -2.726  1.00  0.00    -0.458 OA
ENDROOT
BRANCH   1   2
ATOM      2  C   UNL     1     -44.073  37.444  -1.311  1.00  0.00     0.339 C 
ATOM      3  C   UNL     1     -43.695  35.132  -1.522  1.00  0.00     0.199 C 
ATOM      4  C   UNL     1     -42.221  35.228  -1.048  1.00  0.00     0.180 C 
ATOM      5  O   UNL     1     -44.488  36.142  -0.914  1.00  0.00    -0.328 OA
ATOM      6  C   UNL     1     -41.655  36.635  -1.349  1.00  0.00     0.181 C 
ATOM      7  C   UNL     1     -42.622  37.735  -0.867  1.00  0.00     0.214 C 
BRANCH   3   8
ATOM      8  C   UNL     1     -44.321  33.793  -1.239  1.00  0.00     0.073 C 
ATOM      9  O   UNL     1     -43.727  32.716  -1.517  1.00  0.00    -0.547 OA
ATOM     10  O   UNL     1     -45.603  33.743  -0.708  1.00  0.00    -0.547 OA
ENDBRANCH   3   8
BRANCH   4  11
ATOM     11  O   UNL     1     -42.063  34.916   0.318  1.00  0.00    -0.387 OA
ATOM     12  H   UNL     1     -42.949  34.966   0.762  1.00  0.00     0.211 HD
ENDBRANCH   4  11
BRANCH   6  13
ATOM     13  O   UNL     1     -41.436  36.789  -2.730  1.00  0.00    -0.387 OA
ATOM     14  H   UNL     1     -41.637  35.915  -3.156  1.00  0.00     0.211 HD
ENDBRANCH   6  13
BRANCH   7  15
ATOM     15  O   UNL     1     -42.563  37.829   0.535  1.00  0.00    -0.384 OA
ATOM     16  H   UNL     1     -41.718  37.396   0.822  1.00  0.00     0.211 HD
ENDBRANCH   7  15
ENDBRANCH   1   2
BRANCH   1  17
ATOM     17  C   UNL     1     -45.151  36.981  -3.554  1.00  0.00     0.172 A 
ATOM     18  C   UNL     1     -46.528  36.877  -3.243  1.00  0.00     0.201 A 
ATOM     19  C   UNL     1     -44.665  36.420  -4.735  1.00  0.00     0.098 A 
ATOM     20  C   UNL     1     -47.391  36.146  -4.103  1.00  0.00     0.176 A 
ATOM     21  C   UNL     1     -45.504  35.717  -5.595  1.00  0.00     0.146 A 
ATOM     22  C   UNL     1     -46.874  35.562  -5.285  1.00  0.00     0.111 A 
ATOM     23  O   UNL     1     -44.994  35.189  -6.703  1.00  0.00    -0.456 OA
ATOM     24  C   UNL     1     -47.655  34.790  -6.170  1.00  0.00     0.197 A 
ATOM     25  C   UNL     1     -45.712  34.488  -7.576  1.00  0.00     0.138 A 
ATOM     26  C   UNL     1     -47.069  34.248  -7.314  1.00  0.00     0.100 A 
ATOM     27  O   UNL     1     -48.876  34.567  -5.948  1.00  0.00    -0.289 OA
BRANCH  18  28
ATOM     28  O   UNL     1     -47.011  37.518  -2.101  1.00  0.00    -0.502 OA
ATOM     29  H   UNL     1     -46.950  38.511  -1.921  1.00  0.00     0.293 HD
ENDBRANCH  18  28
BRANCH  20  30
ATOM     30  O   UNL     1     -48.751  35.986  -3.808  1.00  0.00    -0.504 OA
ATOM     31  H   UNL     1     -49.311  35.186  -4.070  1.00  0.00     0.293 HD
ENDBRANCH  20  30
BRANCH  25  32
ATOM     32  C   UNL     1     -45.046  33.957  -8.792  1.00  0.00     0.017 A 
ATOM     33  C   UNL     1     -45.133  32.595  -9.149  1.00  0.00     0.012 A 
ATOM     34  C   UNL     1     -44.333  34.833  -9.630  1.00  0.00     0.012 A 
ATOM     35  C   UNL     1     -44.494  32.124 -10.299  1.00  0.00     0.001 A 
ATOM     36  C   UNL     1     -43.692  34.355 -10.778  1.00  0.00     0.001 A 
ATOM     37  C   UNL     1     -43.770  33.002 -11.110  1.00  0.00     0.000 A 
ENDBRANCH  25  32
ENDBRANCH   1  17
TORSDOF 9
ENDMDL
