MODEL 1
REMARK VINA RESULT:    -8.195      0.000      0.000
REMARK INTER + INTRA:         -11.551
REMARK INTER:                 -11.069
REMARK INTRA:                  -0.482
REMARK UNBOUND:                -0.482
REMARK SMILES O=c1c(-c2ccc(O)cc2)coc2c([C@@H]3O[C@@H](CO)[C@@H](O)[C@@H](O)[C@H]3O)c(O)ccc12
REMARK SMILES IDX 3 1 11 2 12 3 13 4 30 5 2 6 1 7 29 8 28 9 26 10 14 11 4 12
REMARK SMILES IDX 5 13 6 14 7 15 10 16 9 17 8 18 15 20 24 21 16 22 22 23 17 24
REMARK SMILES IDX 20 25 25 26 23 28 18 30 19 31 21 33 27 35
REMARK H PARENT 8 19 25 27 23 29 19 32 21 34 27 36
REMARK Flexibility Score: inf
ROOT
ATOM      1  C   UNL     1     -23.652 -50.990 103.252  1.00  0.00     0.065 A 
ATOM      2  C   UNL     1     -23.467 -50.132 102.160  1.00  0.00     0.208 A 
ATOM      3  O   UNL     1     -22.629 -49.106 102.233  1.00  0.00    -0.463 OA
ATOM      4  C   UNL     1     -21.919 -48.821 103.322  1.00  0.00     0.147 A 
ATOM      5  C   UNL     1     -22.043 -49.637 104.471  1.00  0.00     0.066 A 
ATOM      6  C   UNL     1     -22.918 -50.737 104.426  1.00  0.00     0.200 A 
ATOM      7  O   UNL     1     -23.028 -51.505 105.422  1.00  0.00    -0.288 OA
ATOM      8  C   UNL     1     -21.300 -49.331 105.623  1.00  0.00     0.020 A 
ATOM      9  C   UNL     1     -20.455 -48.223 105.639  1.00  0.00     0.047 A 
ATOM     10  C   UNL     1     -20.327 -47.407 104.509  1.00  0.00     0.125 A 
ATOM     11  C   UNL     1     -21.044 -47.708 103.329  1.00  0.00     0.069 A 
ENDROOT
BRANCH   1  12
ATOM     12  C   UNL     1     -24.599 -52.128 103.147  1.00  0.00    -0.011 A 
ATOM     13  C   UNL     1     -24.622 -52.938 101.997  1.00  0.00     0.013 A 
ATOM     14  C   UNL     1     -25.509 -54.014 101.907  1.00  0.00     0.047 A 
ATOM     15  C   UNL     1     -26.381 -54.299 102.966  1.00  0.00     0.115 A 
ATOM     16  C   UNL     1     -25.472 -52.426 104.208  1.00  0.00     0.013 A 
ATOM     17  C   UNL     1     -26.359 -53.503 104.115  1.00  0.00     0.047 A 
BRANCH  15  18
ATOM     18  O   UNL     1     -27.270 -55.369 102.888  1.00  0.00    -0.508 OA
ATOM     19  H   UNL     1     -27.523 -55.782 101.998  1.00  0.00     0.293 HD
ENDBRANCH  15  18
ENDBRANCH   1  12
BRANCH  11  20
ATOM     20  C   UNL     1     -20.926 -46.814 102.101  1.00  0.00     0.188 C 
ATOM     21  C   UNL     1     -21.601 -45.454 102.371  1.00  0.00     0.179 C 
ATOM     22  O   UNL     1     -19.553 -46.654 101.780  1.00  0.00    -0.362 OA
ATOM     23  C   UNL     1     -21.505 -44.563 101.126  1.00  0.00     0.177 C 
ATOM     24  C   UNL     1     -19.333 -45.876 100.610  1.00  0.00     0.176 C 
ATOM     25  C   UNL     1     -20.044 -44.490 100.643  1.00  0.00     0.177 C 
BRANCH  21  26
ATOM     26  O   UNL     1     -22.949 -45.651 102.717  1.00  0.00    -0.387 OA
ATOM     27  H   UNL     1     -23.435 -44.824 102.458  1.00  0.00     0.211 HD
ENDBRANCH  21  26
BRANCH  23  28
ATOM     28  O   UNL     1     -22.355 -45.051 100.119  1.00  0.00    -0.387 OA
ATOM     29  H   UNL     1     -23.102 -44.403 100.030  1.00  0.00     0.211 HD
ENDBRANCH  23  28
BRANCH  24  30
ATOM     30  C   UNL     1     -19.489 -46.699  99.311  1.00  0.00     0.191 C 
BRANCH  30  31
ATOM     31  O   UNL     1     -18.298 -47.326  98.933  1.00  0.00    -0.394 OA
ATOM     32  H   UNL     1     -18.513 -48.290  98.831  1.00  0.00     0.210 HD
ENDBRANCH  30  31
ENDBRANCH  24  30
BRANCH  25  33
ATOM     33  O   UNL     1     -19.981 -43.858  99.390  1.00  0.00    -0.388 OA
ATOM     34  H   UNL     1     -19.228 -44.276  98.895  1.00  0.00     0.211 HD
ENDBRANCH  25  33
ENDBRANCH  11  20
BRANCH  10  35
ATOM     35  O   UNL     1     -19.486 -46.294 104.562  1.00  0.00    -0.507 OA
ATOM     36  H   UNL     1     -18.642 -46.290 105.122  1.00  0.00     0.293 HD
ENDBRANCH  10  35
TORSDOF 9
ENDMDL
MODEL 2
REMARK VINA RESULT:    -7.795      1.047      2.175
REMARK INTER + INTRA:         -11.012
REMARK INTER:                 -10.900
REMARK INTRA:                  -0.111
REMARK UNBOUND:                -0.482
REMARK SMILES O=c1c(-c2ccc(O)cc2)coc2c([C@@H]3O[C@@H](CO)[C@@H](O)[C@@H](O)[C@H]3O)c(O)ccc12
REMARK SMILES IDX 3 1 11 2 12 3 13 4 30 5 2 6 1 7 29 8 28 9 26 10 14 11 4 12
REMARK SMILES IDX 5 13 6 14 7 15 10 16 9 17 8 18 15 20 24 21 16 22 22 23 17 24
REMARK SMILES IDX 20 25 25 26 23 28 18 30 19 31 21 33 27 35
REMARK H PARENT 8 19 25 27 23 29 19 32 21 34 27 36
REMARK Flexibility Score: inf
ROOT
ATOM      1  C   UNL     1     -23.265 -50.483 103.212  1.00  0.00     0.065 A 
ATOM      2  C   UNL     1     -23.132 -49.554 102.170  1.00  0.00     0.208 A 
ATOM      3  O   UNL     1     -22.317 -48.514 102.285  1.00  0.00    -0.463 OA
ATOM      4  C   UNL     1     -21.582 -48.280 103.370  1.00  0.00     0.147 A 
ATOM      5  C   UNL     1     -21.654 -49.167 104.468  1.00  0.00     0.066 A 
ATOM      6  C   UNL     1     -22.504 -50.285 104.378  1.00  0.00     0.200 A 
ATOM      7  O   UNL     1     -22.567 -51.115 105.327  1.00  0.00    -0.288 OA
ATOM      8  C   UNL     1     -20.886 -48.915 105.616  1.00  0.00     0.020 A 
ATOM      9  C   UNL     1     -20.066 -47.790 105.678  1.00  0.00     0.047 A 
ATOM     10  C   UNL     1     -19.990 -46.902 104.599  1.00  0.00     0.125 A 
ATOM     11  C   UNL     1     -20.734 -47.147 103.422  1.00  0.00     0.069 A 
ENDROOT
BRANCH   1  12
ATOM     12  C   UNL     1     -24.188 -51.636 103.061  1.00  0.00    -0.011 A 
ATOM     13  C   UNL     1     -24.231 -52.368 101.861  1.00  0.00     0.013 A 
ATOM     14  C   UNL     1     -25.095 -53.459 101.728  1.00  0.00     0.047 A 
ATOM     15  C   UNL     1     -25.923 -53.835 102.793  1.00  0.00     0.115 A 
ATOM     16  C   UNL     1     -25.018 -52.025 104.128  1.00  0.00     0.013 A 
ATOM     17  C   UNL     1     -25.882 -53.116 103.992  1.00  0.00     0.047 A 
BRANCH  15  18
ATOM     18  O   UNL     1     -26.789 -54.920 102.673  1.00  0.00    -0.508 OA
ATOM     19  H   UNL     1     -26.966 -55.358 101.776  1.00  0.00     0.293 HD
ENDBRANCH  15  18
ENDBRANCH   1  12
BRANCH  11  20
ATOM     20  C   UNL     1     -20.672 -46.176 102.249  1.00  0.00     0.188 C 
ATOM     21  C   UNL     1     -20.219 -46.917 100.974  1.00  0.00     0.179 C 
ATOM     22  O   UNL     1     -21.950 -45.584 102.075  1.00  0.00    -0.362 OA
ATOM     23  C   UNL     1     -20.132 -45.933  99.799  1.00  0.00     0.177 C 
ATOM     24  C   UNL     1     -21.988 -44.616 101.035  1.00  0.00     0.176 C 
ATOM     25  C   UNL     1     -21.450 -45.146  99.673  1.00  0.00     0.177 C 
BRANCH  21  26
ATOM     26  O   UNL     1     -18.967 -47.517 101.191  1.00  0.00    -0.387 OA
ATOM     27  H   UNL     1     -18.843 -47.576 102.175  1.00  0.00     0.211 HD
ENDBRANCH  21  26
BRANCH  23  28
ATOM     28  O   UNL     1     -19.034 -45.073  99.974  1.00  0.00    -0.387 OA
ATOM     29  H   UNL     1     -19.122 -44.349  99.299  1.00  0.00     0.211 HD
ENDBRANCH  23  28
BRANCH  24  30
ATOM     30  C   UNL     1     -21.464 -43.234 101.490  1.00  0.00     0.191 C 
BRANCH  30  31
ATOM     31  O   UNL     1     -22.325 -42.194 101.126  1.00  0.00    -0.394 OA
ATOM     32  H   UNL     1     -22.445 -42.265 100.143  1.00  0.00     0.210 HD
ENDBRANCH  30  31
ENDBRANCH  24  30
BRANCH  25  33
ATOM     33  O   UNL     1     -21.301 -44.103  98.744  1.00  0.00    -0.388 OA
ATOM     34  H   UNL     1     -21.887 -43.361  99.050  1.00  0.00     0.211 HD
ENDBRANCH  25  33
ENDBRANCH  11  20
BRANCH  10  35
ATOM     35  O   UNL     1     -19.175 -45.774 104.698  1.00  0.00    -0.507 OA
ATOM     36  H   UNL     1     -19.560 -44.850 104.852  1.00  0.00     0.293 HD
ENDBRANCH  10  35
TORSDOF 9
ENDMDL
MODEL 3
REMARK VINA RESULT:    -7.397      3.059      6.918
REMARK INTER + INTRA:         -10.473
REMARK INTER:                 -10.451
REMARK INTRA:                  -0.022
REMARK UNBOUND:                -0.482
REMARK SMILES O=c1c(-c2ccc(O)cc2)coc2c([C@@H]3O[C@@H](CO)[C@@H](O)[C@@H](O)[C@H]3O)c(O)ccc12
REMARK SMILES IDX 3 1 11 2 12 3 13 4 30 5 2 6 1 7 29 8 28 9 26 10 14 11 4 12
REMARK SMILES IDX 5 13 6 14 7 15 10 16 9 17 8 18 15 20 24 21 16 22 22 23 17 24
REMARK SMILES IDX 20 25 25 26 23 28 18 30 19 31 21 33 27 35
REMARK H PARENT 8 19 25 27 23 29 19 32 21 34 27 36
REMARK Flexibility Score: inf
ROOT
ATOM      1  C   UNL     1     -18.666 -47.707 106.996  1.00  0.00     0.065 A 
ATOM      2  C   UNL     1     -18.510 -46.967 105.816  1.00  0.00     0.208 A 
ATOM      3  O   UNL     1     -19.323 -47.150 104.784  1.00  0.00    -0.463 OA
ATOM      4  C   UNL     1     -20.324 -48.027 104.791  1.00  0.00     0.147 A 
ATOM      5  C   UNL     1     -20.555 -48.816 105.943  1.00  0.00     0.066 A 
ATOM      6  C   UNL     1     -19.715 -48.642 107.058  1.00  0.00     0.200 A 
ATOM      7  O   UNL     1     -19.914 -49.306 108.113  1.00  0.00    -0.288 OA
ATOM      8  C   UNL     1     -21.605 -49.747 105.947  1.00  0.00     0.020 A 
ATOM      9  C   UNL     1     -22.408 -49.904 104.819  1.00  0.00     0.047 A 
ATOM     10  C   UNL     1     -22.186 -49.133 103.672  1.00  0.00     0.125 A 
ATOM     11  C   UNL     1     -21.151 -48.170 103.652  1.00  0.00     0.069 A 
ENDROOT
BRANCH   1  12
ATOM     12  C   UNL     1     -17.740 -47.488 108.135  1.00  0.00    -0.011 A 
ATOM     13  C   UNL     1     -18.208 -47.544 109.461  1.00  0.00     0.013 A 
ATOM     14  C   UNL     1     -17.330 -47.346 110.530  1.00  0.00     0.047 A 
ATOM     15  C   UNL     1     -15.973 -47.095 110.290  1.00  0.00     0.115 A 
ATOM     16  C   UNL     1     -16.375 -47.242 107.904  1.00  0.00     0.013 A 
ATOM     17  C   UNL     1     -15.499 -47.044 108.976  1.00  0.00     0.047 A 
BRANCH  15  18
ATOM     18  O   UNL     1     -15.089 -46.896 111.348  1.00  0.00    -0.508 OA
ATOM     19  H   UNL     1     -14.086 -46.873 111.202  1.00  0.00     0.293 HD
ENDBRANCH  15  18
ENDBRANCH   1  12
BRANCH  11  20
ATOM     20  C   UNL     1     -20.890 -47.339 102.401  1.00  0.00     0.188 C 
ATOM     21  C   UNL     1     -21.457 -45.916 102.585  1.00  0.00     0.179 C 
ATOM     22  O   UNL     1     -19.493 -47.310 102.152  1.00  0.00    -0.362 OA
ATOM     23  C   UNL     1     -21.217 -45.088 101.315  1.00  0.00     0.177 C 
ATOM     24  C   UNL     1     -19.144 -46.601 100.970  1.00  0.00     0.176 C 
ATOM     25  C   UNL     1     -19.732 -45.160 100.913  1.00  0.00     0.177 C 
BRANCH  21  26
ATOM     26  O   UNL     1     -22.834 -45.983 102.860  1.00  0.00    -0.387 OA
ATOM     27  H   UNL     1     -23.284 -46.236 102.012  1.00  0.00     0.211 HD
ENDBRANCH  21  26
BRANCH  23  28
ATOM     28  O   UNL     1     -22.052 -45.542 100.281  1.00  0.00    -0.387 OA
ATOM     29  H   UNL     1     -22.250 -44.759  99.702  1.00  0.00     0.211 HD
ENDBRANCH  23  28
BRANCH  24  30
ATOM     30  C   UNL     1     -19.303 -47.460  99.694  1.00  0.00     0.191 C 
BRANCH  30  31
ATOM     31  O   UNL     1     -18.313 -47.188  98.744  1.00  0.00    -0.394 OA
ATOM     32  H   UNL     1     -18.720 -46.557  98.094  1.00  0.00     0.210 HD
ENDBRANCH  30  31
ENDBRANCH  24  30
BRANCH  25  33
ATOM     33  O   UNL     1     -19.548 -44.586  99.644  1.00  0.00    -0.388 OA
ATOM     34  H   UNL     1     -20.440 -44.273  99.339  1.00  0.00     0.211 HD
ENDBRANCH  25  33
ENDBRANCH  11  20
BRANCH  10  35
ATOM     35  O   UNL     1     -22.995 -49.326 102.551  1.00  0.00    -0.507 OA
ATOM     36  H   UNL     1     -23.323 -48.548 101.991  1.00  0.00     0.293 HD
ENDBRANCH  10  35
TORSDOF 9
ENDMDL
MODEL 4
REMARK VINA RESULT:    -7.267      4.849      6.254
REMARK INTER + INTRA:         -10.298
REMARK INTER:                  -9.686
REMARK INTRA:                  -0.612
REMARK UNBOUND:                -0.482
REMARK SMILES O=c1c(-c2ccc(O)cc2)coc2c([C@@H]3O[C@@H](CO)[C@@H](O)[C@@H](O)[C@H]3O)c(O)ccc12
REMARK SMILES IDX 3 1 11 2 12 3 13 4 30 5 2 6 1 7 29 8 28 9 26 10 14 11 4 12
REMARK SMILES IDX 5 13 6 14 7 15 10 16 9 17 8 18 15 20 24 21 16 22 22 23 17 24
REMARK SMILES IDX 20 25 25 26 23 28 18 30 19 31 21 33 27 35
REMARK H PARENT 8 19 25 27 23 29 19 32 21 34 27 36
REMARK Flexibility Score: inf
ROOT
ATOM      1  C   UNL     1     -18.535 -47.770 106.505  1.00  0.00     0.065 A 
ATOM      2  C   UNL     1     -19.589 -47.667 105.586  1.00  0.00     0.208 A 
ATOM      3  O   UNL     1     -19.464 -46.940 104.484  1.00  0.00    -0.463 OA
ATOM      4  C   UNL     1     -18.356 -46.271 104.174  1.00  0.00     0.147 A 
ATOM      5  C   UNL     1     -17.242 -46.321 105.045  1.00  0.00     0.066 A 
ATOM      6  C   UNL     1     -17.338 -47.088 106.220  1.00  0.00     0.200 A 
ATOM      7  O   UNL     1     -16.352 -47.180 107.002  1.00  0.00    -0.288 OA
ATOM      8  C   UNL     1     -16.077 -45.608 104.722  1.00  0.00     0.020 A 
ATOM      9  C   UNL     1     -16.021 -44.844 103.557  1.00  0.00     0.047 A 
ATOM     10  C   UNL     1     -17.118 -44.784 102.691  1.00  0.00     0.125 A 
ATOM     11  C   UNL     1     -18.294 -45.514 102.980  1.00  0.00     0.069 A 
ENDROOT
BRANCH   1  12
ATOM     12  C   UNL     1     -18.702 -48.586 107.734  1.00  0.00    -0.011 A 
ATOM     13  C   UNL     1     -19.431 -49.788 107.703  1.00  0.00     0.013 A 
ATOM     14  C   UNL     1     -19.577 -50.557 108.861  1.00  0.00     0.047 A 
ATOM     15  C   UNL     1     -18.993 -50.138 110.063  1.00  0.00     0.115 A 
ATOM     16  C   UNL     1     -18.113 -48.176 108.943  1.00  0.00     0.013 A 
ATOM     17  C   UNL     1     -18.261 -48.947 110.100  1.00  0.00     0.047 A 
BRANCH  15  18
ATOM     18  O   UNL     1     -19.132 -50.895 111.224  1.00  0.00    -0.508 OA
ATOM     19  H   UNL     1     -18.446 -51.595 111.484  1.00  0.00     0.293 HD
ENDBRANCH  15  18
ENDBRANCH   1  12
BRANCH  11  20
ATOM     20  C   UNL     1     -19.500 -45.439 102.051  1.00  0.00     0.188 C 
ATOM     21  C   UNL     1     -20.290 -44.141 102.317  1.00  0.00     0.179 C 
ATOM     22  O   UNL     1     -19.051 -45.504 100.707  1.00  0.00    -0.362 OA
ATOM     23  C   UNL     1     -21.519 -44.078 101.400  1.00  0.00     0.177 C 
ATOM     24  C   UNL     1     -20.107 -45.496  99.756  1.00  0.00     0.176 C 
ATOM     25  C   UNL     1     -21.097 -44.306  99.936  1.00  0.00     0.177 C 
BRANCH  21  26
ATOM     26  O   UNL     1     -20.693 -44.093 103.662  1.00  0.00    -0.387 OA
ATOM     27  H   UNL     1     -19.882 -43.887 104.197  1.00  0.00     0.211 HD
ENDBRANCH  21  26
BRANCH  23  28
ATOM     28  O   UNL     1     -22.474 -45.022 101.812  1.00  0.00    -0.387 OA
ATOM     29  H   UNL     1     -21.984 -45.746 102.283  1.00  0.00     0.211 HD
ENDBRANCH  23  28
BRANCH  24  30
ATOM     30  C   UNL     1     -20.740 -46.893  99.560  1.00  0.00     0.191 C 
BRANCH  30  31
ATOM     31  O   UNL     1     -21.954 -47.026 100.241  1.00  0.00    -0.394 OA
ATOM     32  H   UNL     1     -21.800 -47.702 100.952  1.00  0.00     0.210 HD
ENDBRANCH  30  31
ENDBRANCH  24  30
BRANCH  25  33
ATOM     33  O   UNL     1     -22.233 -44.463  99.125  1.00  0.00    -0.388 OA
ATOM     34  H   UNL     1     -21.932 -44.350  98.186  1.00  0.00     0.211 HD
ENDBRANCH  25  33
ENDBRANCH  11  20
BRANCH  10  35
ATOM     35  O   UNL     1     -17.039 -43.997 101.541  1.00  0.00    -0.507 OA
ATOM     36  H   UNL     1     -16.211 -43.456 101.322  1.00  0.00     0.293 HD
ENDBRANCH  10  35
TORSDOF 9
ENDMDL
MODEL 5
REMARK VINA RESULT:    -7.241      4.203      8.723
REMARK INTER + INTRA:         -10.264
REMARK INTER:                  -9.481
REMARK INTRA:                  -0.783
REMARK UNBOUND:                -0.482
REMARK SMILES O=c1c(-c2ccc(O)cc2)coc2c([C@@H]3O[C@@H](CO)[C@@H](O)[C@@H](O)[C@H]3O)c(O)ccc12
REMARK SMILES IDX 3 1 11 2 12 3 13 4 30 5 2 6 1 7 29 8 28 9 26 10 14 11 4 12
REMARK SMILES IDX 5 13 6 14 7 15 10 16 9 17 8 18 15 20 24 21 16 22 22 23 17 24
REMARK SMILES IDX 20 25 25 26 23 28 18 30 19 31 21 33 27 35
REMARK H PARENT 8 19 25 27 23 29 19 32 21 34 27 36
REMARK Flexibility Score: inf
ROOT
ATOM      1  C   UNL     1     -17.409 -44.762 106.580  1.00  0.00     0.065 A 
ATOM      2  C   UNL     1     -17.642 -44.260 105.293  1.00  0.00     0.208 A 
ATOM      3  O   UNL     1     -18.420 -44.912 104.437  1.00  0.00    -0.463 OA
ATOM      4  C   UNL     1     -19.023 -46.061 104.731  1.00  0.00     0.147 A 
ATOM      5  C   UNL     1     -18.844 -46.639 106.009  1.00  0.00     0.066 A 
ATOM      6  C   UNL     1     -18.031 -45.971 106.943  1.00  0.00     0.200 A 
ATOM      7  O   UNL     1     -17.875 -46.442 108.104  1.00  0.00    -0.288 OA
ATOM      8  C   UNL     1     -19.473 -47.856 106.315  1.00  0.00     0.020 A 
ATOM      9  C   UNL     1     -20.259 -48.499 105.362  1.00  0.00     0.047 A 
ATOM     10  C   UNL     1     -20.440 -47.939 104.092  1.00  0.00     0.125 A 
ATOM     11  C   UNL     1     -19.839 -46.701 103.767  1.00  0.00     0.069 A 
ENDROOT
BRANCH   1  12
ATOM     12  C   UNL     1     -16.530 -44.018 107.517  1.00  0.00    -0.011 A 
ATOM     13  C   UNL     1     -15.409 -44.640 108.095  1.00  0.00     0.013 A 
ATOM     14  C   UNL     1     -14.580 -43.931 108.970  1.00  0.00     0.047 A 
ATOM     15  C   UNL     1     -14.856 -42.592 109.272  1.00  0.00     0.115 A 
ATOM     16  C   UNL     1     -16.796 -42.671 107.820  1.00  0.00     0.013 A 
ATOM     17  C   UNL     1     -15.965 -41.965 108.695  1.00  0.00     0.047 A 
BRANCH  15  18
ATOM     18  O   UNL     1     -14.037 -41.876 110.142  1.00  0.00    -0.508 OA
ATOM     19  H   UNL     1     -13.075 -41.660 109.907  1.00  0.00     0.293 HD
ENDBRANCH  15  18
ENDBRANCH   1  12
BRANCH  11  20
ATOM     20  C   UNL     1     -20.015 -46.094 102.381  1.00  0.00     0.188 C 
ATOM     21  C   UNL     1     -19.360 -47.002 101.320  1.00  0.00     0.179 C 
ATOM     22  O   UNL     1     -21.401 -45.921 102.127  1.00  0.00    -0.362 OA
ATOM     23  C   UNL     1     -19.514 -46.377  99.927  1.00  0.00     0.177 C 
ATOM     24  C   UNL     1     -21.674 -45.308 100.875  1.00  0.00     0.176 C 
ATOM     25  C   UNL     1     -20.991 -46.022  99.670  1.00  0.00     0.177 C 
BRANCH  21  26
ATOM     26  O   UNL     1     -17.997 -47.177 101.618  1.00  0.00    -0.387 OA
ATOM     27  H   UNL     1     -17.766 -48.109 101.363  1.00  0.00     0.211 HD
ENDBRANCH  21  26
BRANCH  23  28
ATOM     28  O   UNL     1     -18.687 -45.247  99.812  1.00  0.00    -0.387 OA
ATOM     29  H   UNL     1     -18.890 -44.659 100.586  1.00  0.00     0.211 HD
ENDBRANCH  23  28
BRANCH  24  30
ATOM     30  C   UNL     1     -21.542 -43.768 100.926  1.00  0.00     0.191 C 
BRANCH  30  31
ATOM     31  O   UNL     1     -22.154 -43.146  99.832  1.00  0.00    -0.394 OA
ATOM     32  H   UNL     1     -23.131 -43.278  99.950  1.00  0.00     0.210 HD
ENDBRANCH  30  31
ENDBRANCH  24  30
BRANCH  25  33
ATOM     33  O   UNL     1     -21.107 -45.260  98.496  1.00  0.00    -0.388 OA
ATOM     34  H   UNL     1     -20.719 -45.804  97.762  1.00  0.00     0.211 HD
ENDBRANCH  25  33
ENDBRANCH  11  20
BRANCH  10  35
ATOM     35  O   UNL     1     -21.219 -48.615 103.151  1.00  0.00    -0.507 OA
ATOM     36  H   UNL     1     -20.817 -48.999 102.304  1.00  0.00     0.293 HD
ENDBRANCH  10  35
TORSDOF 9
ENDMDL
MODEL 6
REMARK VINA RESULT:    -7.212      3.358      7.340
REMARK INTER + INTRA:         -10.224
REMARK INTER:                  -9.475
REMARK INTRA:                  -0.749
REMARK UNBOUND:                -0.482
REMARK SMILES O=c1c(-c2ccc(O)cc2)coc2c([C@@H]3O[C@@H](CO)[C@@H](O)[C@@H](O)[C@H]3O)c(O)ccc12
REMARK SMILES IDX 3 1 11 2 12 3 13 4 30 5 2 6 1 7 29 8 28 9 26 10 14 11 4 12
REMARK SMILES IDX 5 13 6 14 7 15 10 16 9 17 8 18 15 20 24 21 16 22 22 23 17 24
REMARK SMILES IDX 20 25 25 26 23 28 18 30 19 31 21 33 27 35
REMARK H PARENT 8 19 25 27 23 29 19 32 21 34 27 36
REMARK Flexibility Score: inf
ROOT
ATOM      1  C   UNL     1     -18.376 -47.488 107.295  1.00  0.00     0.065 A 
ATOM      2  C   UNL     1     -18.202 -46.591 106.233  1.00  0.00     0.208 A 
ATOM      3  O   UNL     1     -19.006 -46.619 105.178  1.00  0.00    -0.463 OA
ATOM      4  C   UNL     1     -20.014 -47.479 105.053  1.00  0.00     0.147 A 
ATOM      5  C   UNL     1     -20.263 -48.419 106.081  1.00  0.00     0.066 A 
ATOM      6  C   UNL     1     -19.433 -48.412 107.216  1.00  0.00     0.200 A 
ATOM      7  O   UNL     1     -19.648 -49.215 108.166  1.00  0.00    -0.288 OA
ATOM      8  C   UNL     1     -21.321 -49.332 105.945  1.00  0.00     0.020 A 
ATOM      9  C   UNL     1     -22.114 -49.322 104.799  1.00  0.00     0.047 A 
ATOM     10  C   UNL     1     -21.874 -48.399 103.774  1.00  0.00     0.125 A 
ATOM     11  C   UNL     1     -20.832 -47.452 103.898  1.00  0.00     0.069 A 
ENDROOT
BRANCH   1  12
ATOM     12  C   UNL     1     -17.459 -47.439 108.462  1.00  0.00    -0.011 A 
ATOM     13  C   UNL     1     -16.068 -47.346 108.277  1.00  0.00     0.013 A 
ATOM     14  C   UNL     1     -15.209 -47.291 109.380  1.00  0.00     0.047 A 
ATOM     15  C   UNL     1     -15.730 -47.324 110.679  1.00  0.00     0.115 A 
ATOM     16  C   UNL     1     -17.973 -47.464 109.771  1.00  0.00     0.013 A 
ATOM     17  C   UNL     1     -17.112 -47.410 110.871  1.00  0.00     0.047 A 
BRANCH  15  18
ATOM     18  O   UNL     1     -14.885 -47.271 111.786  1.00  0.00    -0.508 OA
ATOM     19  H   UNL     1     -14.813 -48.046 112.434  1.00  0.00     0.293 HD
ENDBRANCH  15  18
ENDBRANCH   1  12
BRANCH  11  20
ATOM     20  C   UNL     1     -20.551 -46.457 102.779  1.00  0.00     0.188 C 
ATOM     21  C   UNL     1     -19.726 -47.134 101.665  1.00  0.00     0.179 C 
ATOM     22  O   UNL     1     -21.786 -45.966 102.280  1.00  0.00    -0.362 OA
ATOM     23  C   UNL     1     -19.422 -46.124 100.550  1.00  0.00     0.177 C 
ATOM     24  C   UNL     1     -21.636 -44.985 101.263  1.00  0.00     0.176 C 
ATOM     25  C   UNL     1     -20.724 -45.444 100.086  1.00  0.00     0.177 C 
BRANCH  21  26
ATOM     26  O   UNL     1     -18.526 -47.636 102.198  1.00  0.00    -0.387 OA
ATOM     27  H   UNL     1     -18.572 -48.625 102.124  1.00  0.00     0.211 HD
ENDBRANCH  21  26
BRANCH  23  28
ATOM     28  O   UNL     1     -18.482 -45.182 100.999  1.00  0.00    -0.387 OA
ATOM     29  H   UNL     1     -17.646 -45.679 101.202  1.00  0.00     0.211 HD
ENDBRANCH  23  28
BRANCH  24  30
ATOM     30  C   UNL     1     -21.362 -43.574 101.835  1.00  0.00     0.191 C 
BRANCH  30  31
ATOM     31  O   UNL     1     -22.112 -42.585 101.189  1.00  0.00    -0.394 OA
ATOM     32  H   UNL     1     -22.772 -43.065 100.623  1.00  0.00     0.210 HD
ENDBRANCH  30  31
ENDBRANCH  24  30
BRANCH  25  33
ATOM     33  O   UNL     1     -20.429 -44.374  99.225  1.00  0.00    -0.388 OA
ATOM     34  H   UNL     1     -20.813 -44.605  98.339  1.00  0.00     0.211 HD
ENDBRANCH  25  33
ENDBRANCH  11  20
BRANCH  10  35
ATOM     35  O   UNL     1     -22.674 -48.425 102.630  1.00  0.00    -0.507 OA
ATOM     36  H   UNL     1     -22.736 -47.630 102.006  1.00  0.00     0.293 HD
ENDBRANCH  10  35
TORSDOF 9
ENDMDL
MODEL 7
REMARK VINA RESULT:    -7.007      4.799      8.931
REMARK INTER + INTRA:          -9.947
REMARK INTER:                  -8.840
REMARK INTRA:                  -1.107
REMARK UNBOUND:                -0.482
REMARK SMILES O=c1c(-c2ccc(O)cc2)coc2c([C@@H]3O[C@@H](CO)[C@@H](O)[C@@H](O)[C@H]3O)c(O)ccc12
REMARK SMILES IDX 3 1 11 2 12 3 13 4 30 5 2 6 1 7 29 8 28 9 26 10 14 11 4 12
REMARK SMILES IDX 5 13 6 14 7 15 10 16 9 17 8 18 15 20 24 21 16 22 22 23 17 24
REMARK SMILES IDX 20 25 25 26 23 28 18 30 19 31 21 33 27 35
REMARK H PARENT 8 19 25 27 23 29 19 32 21 34 27 36
REMARK Flexibility Score: inf
ROOT
ATOM      1  C   UNL     1     -16.332 -46.257 107.803  1.00  0.00     0.065 A 
ATOM      2  C   UNL     1     -17.531 -45.673 107.371  1.00  0.00     0.208 A 
ATOM      3  O   UNL     1     -17.965 -45.848 106.129  1.00  0.00    -0.463 OA
ATOM      4  C   UNL     1     -17.313 -46.573 105.224  1.00  0.00     0.147 A 
ATOM      5  C   UNL     1     -16.095 -47.200 105.576  1.00  0.00     0.066 A 
ATOM      6  C   UNL     1     -15.609 -47.041 106.887  1.00  0.00     0.200 A 
ATOM      7  O   UNL     1     -14.542 -47.614 107.243  1.00  0.00    -0.288 OA
ATOM      8  C   UNL     1     -15.403 -47.958 104.619  1.00  0.00     0.020 A 
ATOM      9  C   UNL     1     -15.905 -48.082 103.325  1.00  0.00     0.047 A 
ATOM     10  C   UNL     1     -17.107 -47.463 102.964  1.00  0.00     0.125 A 
ATOM     11  C   UNL     1     -17.836 -46.716 103.917  1.00  0.00     0.069 A 
ENDROOT
BRANCH   1  12
ATOM     12  C   UNL     1     -15.865 -46.042 109.195  1.00  0.00    -0.011 A 
ATOM     13  C   UNL     1     -16.181 -46.965 110.208  1.00  0.00     0.013 A 
ATOM     14  C   UNL     1     -15.730 -46.763 111.516  1.00  0.00     0.047 A 
ATOM     15  C   UNL     1     -14.954 -45.639 111.827  1.00  0.00     0.115 A 
ATOM     16  C   UNL     1     -15.079 -44.920 109.516  1.00  0.00     0.013 A 
ATOM     17  C   UNL     1     -14.630 -44.720 110.824  1.00  0.00     0.047 A 
BRANCH  15  18
ATOM     18  O   UNL     1     -14.499 -45.427 113.127  1.00  0.00    -0.508 OA
ATOM     19  H   UNL     1     -13.896 -46.095 113.592  1.00  0.00     0.293 HD
ENDBRANCH  15  18
ENDBRANCH   1  12
BRANCH  11  20
ATOM     20  C   UNL     1     -19.136 -46.022 103.527  1.00  0.00     0.188 C 
ATOM     21  C   UNL     1     -18.841 -44.844 102.576  1.00  0.00     0.179 C 
ATOM     22  O   UNL     1     -20.000 -46.971 102.921  1.00  0.00    -0.362 OA
ATOM     23  C   UNL     1     -20.147 -44.130 102.204  1.00  0.00     0.177 C 
ATOM     24  C   UNL     1     -21.268 -46.436 102.567  1.00  0.00     0.176 C 
ATOM     25  C   UNL     1     -21.178 -45.152 101.690  1.00  0.00     0.177 C 
BRANCH  21  26
ATOM     26  O   UNL     1     -17.959 -43.941 103.194  1.00  0.00    -0.387 OA
ATOM     27  H   UNL     1     -17.066 -44.375 103.207  1.00  0.00     0.211 HD
ENDBRANCH  21  26
BRANCH  23  28
ATOM     28  O   UNL     1     -20.638 -43.419 103.313  1.00  0.00    -0.387 OA
ATOM     29  H   UNL     1     -20.043 -43.630 104.080  1.00  0.00     0.211 HD
ENDBRANCH  23  28
BRANCH  24  30
ATOM     30  C   UNL     1     -22.246 -46.384 103.764  1.00  0.00     0.191 C 
BRANCH  30  31
ATOM     31  O   UNL     1     -23.584 -46.386 103.356  1.00  0.00    -0.394 OA
ATOM     32  H   UNL     1     -24.077 -45.838 104.022  1.00  0.00     0.210 HD
ENDBRANCH  30  31
ENDBRANCH  24  30
BRANCH  25  33
ATOM     33  O   UNL     1     -22.436 -44.541 101.553  1.00  0.00    -0.388 OA
ATOM     34  H   UNL     1     -23.108 -45.189 101.892  1.00  0.00     0.211 HD
ENDBRANCH  25  33
ENDBRANCH  11  20
BRANCH  10  35
ATOM     35  O   UNL     1     -17.575 -47.590 101.655  1.00  0.00    -0.507 OA
ATOM     36  H   UNL     1     -16.955 -47.519 100.858  1.00  0.00     0.293 HD
ENDBRANCH  10  35
TORSDOF 9
ENDMDL
MODEL 8
REMARK VINA RESULT:    -6.913      3.704      5.742
REMARK INTER + INTRA:          -9.821
REMARK INTER:                  -9.188
REMARK INTRA:                  -0.633
REMARK UNBOUND:                -0.482
REMARK SMILES O=c1c(-c2ccc(O)cc2)coc2c([C@@H]3O[C@@H](CO)[C@@H](O)[C@@H](O)[C@H]3O)c(O)ccc12
REMARK SMILES IDX 3 1 11 2 12 3 13 4 30 5 2 6 1 7 29 8 28 9 26 10 14 11 4 12
REMARK SMILES IDX 5 13 6 14 7 15 10 16 9 17 8 18 15 20 24 21 16 22 22 23 17 24
REMARK SMILES IDX 20 25 25 26 23 28 18 30 19 31 21 33 27 35
REMARK H PARENT 8 19 25 27 23 29 19 32 21 34 27 36
REMARK Flexibility Score: inf
ROOT
ATOM      1  C   UNL     1     -20.155 -48.562 106.455  1.00  0.00     0.065 A 
ATOM      2  C   UNL     1     -19.228 -47.597 106.038  1.00  0.00     0.208 A 
ATOM      3  O   UNL     1     -19.509 -46.766 105.042  1.00  0.00    -0.463 OA
ATOM      4  C   UNL     1     -20.665 -46.785 104.382  1.00  0.00     0.147 A 
ATOM      5  C   UNL     1     -21.659 -47.726 104.738  1.00  0.00     0.066 A 
ATOM      6  C   UNL     1     -21.396 -48.617 105.794  1.00  0.00     0.200 A 
ATOM      7  O   UNL     1     -22.274 -49.448 106.159  1.00  0.00    -0.288 OA
ATOM      8  C   UNL     1     -22.874 -47.751 104.036  1.00  0.00     0.020 A 
ATOM      9  C   UNL     1     -23.095 -46.864 102.984  1.00  0.00     0.047 A 
ATOM     10  C   UNL     1     -22.117 -45.932 102.620  1.00  0.00     0.125 A 
ATOM     11  C   UNL     1     -20.895 -45.868 103.328  1.00  0.00     0.069 A 
ENDROOT
BRANCH   1  12
ATOM     12  C   UNL     1     -19.815 -49.483 107.568  1.00  0.00    -0.011 A 
ATOM     13  C   UNL     1     -20.151 -50.847 107.497  1.00  0.00     0.013 A 
ATOM     14  C   UNL     1     -19.820 -51.713 108.544  1.00  0.00     0.047 A 
ATOM     15  C   UNL     1     -19.145 -51.228 109.671  1.00  0.00     0.115 A 
ATOM     16  C   UNL     1     -19.131 -49.007 108.700  1.00  0.00     0.013 A 
ATOM     17  C   UNL     1     -18.802 -49.875 109.746  1.00  0.00     0.047 A 
BRANCH  15  18
ATOM     18  O   UNL     1     -18.810 -52.081 110.721  1.00  0.00    -0.508 OA
ATOM     19  H   UNL     1     -18.981 -53.078 110.667  1.00  0.00     0.293 HD
ENDBRANCH  15  18
ENDBRANCH   1  12
BRANCH  11  20
ATOM     20  C   UNL     1     -19.817 -44.870 102.926  1.00  0.00     0.188 C 
ATOM     21  C   UNL     1     -19.275 -45.214 101.523  1.00  0.00     0.179 C 
ATOM     22  O   UNL     1     -20.366 -43.562 102.961  1.00  0.00    -0.362 OA
ATOM     23  C   UNL     1     -18.172 -44.223 101.129  1.00  0.00     0.177 C 
ATOM     24  C   UNL     1     -19.423 -42.544 102.652  1.00  0.00     0.176 C 
ATOM     25  C   UNL     1     -18.673 -42.778 101.307  1.00  0.00     0.177 C 
BRANCH  21  26
ATOM     26  O   UNL     1     -18.768 -46.525 101.516  1.00  0.00    -0.387 OA
ATOM     27  H   UNL     1     -18.676 -46.802 102.465  1.00  0.00     0.211 HD
ENDBRANCH  21  26
BRANCH  23  28
ATOM     28  O   UNL     1     -17.016 -44.464 101.893  1.00  0.00    -0.387 OA
ATOM     29  H   UNL     1     -17.187 -44.099 102.801  1.00  0.00     0.211 HD
ENDBRANCH  23  28
BRANCH  24  30
ATOM     30  C   UNL     1     -18.550 -42.155 103.868  1.00  0.00     0.191 C 
BRANCH  30  31
ATOM     31  O   UNL     1     -17.227 -42.588 103.731  1.00  0.00    -0.394 OA
ATOM     32  H   UNL     1     -16.658 -41.856 104.088  1.00  0.00     0.210 HD
ENDBRANCH  30  31
ENDBRANCH  24  30
BRANCH  25  33
ATOM     33  O   UNL     1     -17.608 -41.875 101.156  1.00  0.00    -0.388 OA
ATOM     34  H   UNL     1     -16.820 -42.284 101.602  1.00  0.00     0.211 HD
ENDBRANCH  25  33
ENDBRANCH  11  20
BRANCH  10  35
ATOM     35  O   UNL     1     -22.360 -45.068 101.550  1.00  0.00    -0.507 OA
ATOM     36  H   UNL     1     -22.099 -45.309 100.602  1.00  0.00     0.293 HD
ENDBRANCH  10  35
TORSDOF 9
ENDMDL
MODEL 9
REMARK VINA RESULT:    -6.903      4.550      8.456
REMARK INTER + INTRA:          -9.807
REMARK INTER:                  -8.695
REMARK INTRA:                  -1.112
REMARK UNBOUND:                -0.482
REMARK SMILES O=c1c(-c2ccc(O)cc2)coc2c([C@@H]3O[C@@H](CO)[C@@H](O)[C@@H](O)[C@H]3O)c(O)ccc12
REMARK SMILES IDX 3 1 11 2 12 3 13 4 30 5 2 6 1 7 29 8 28 9 26 10 14 11 4 12
REMARK SMILES IDX 5 13 6 14 7 15 10 16 9 17 8 18 15 20 24 21 16 22 22 23 17 24
REMARK SMILES IDX 20 25 25 26 23 28 18 30 19 31 21 33 27 35
REMARK H PARENT 8 19 25 27 23 29 19 32 21 34 27 36
REMARK Flexibility Score: inf
ROOT
ATOM      1  C   UNL     1     -16.273 -46.672 107.234  1.00  0.00     0.065 A 
ATOM      2  C   UNL     1     -16.853 -47.473 106.241  1.00  0.00     0.208 A 
ATOM      3  O   UNL     1     -17.781 -46.985 105.427  1.00  0.00    -0.463 OA
ATOM      4  C   UNL     1     -18.219 -45.730 105.491  1.00  0.00     0.147 A 
ATOM      5  C   UNL     1     -17.686 -44.852 106.464  1.00  0.00     0.066 A 
ATOM      6  C   UNL     1     -16.696 -45.334 107.338  1.00  0.00     0.200 A 
ATOM      7  O   UNL     1     -16.176 -44.568 108.196  1.00  0.00    -0.288 OA
ATOM      8  C   UNL     1     -18.155 -43.530 106.537  1.00  0.00     0.020 A 
ATOM      9  C   UNL     1     -19.149 -43.089 105.665  1.00  0.00     0.047 A 
ATOM     10  C   UNL     1     -19.686 -43.951 104.701  1.00  0.00     0.125 A 
ATOM     11  C   UNL     1     -19.213 -45.278 104.590  1.00  0.00     0.069 A 
ENDROOT
BRANCH   1  12
ATOM     12  C   UNL     1     -15.241 -47.243 108.136  1.00  0.00    -0.011 A 
ATOM     13  C   UNL     1     -13.940 -47.499 107.665  1.00  0.00     0.013 A 
ATOM     14  C   UNL     1     -12.969 -48.028 108.521  1.00  0.00     0.047 A 
ATOM     15  C   UNL     1     -13.284 -48.302 109.858  1.00  0.00     0.115 A 
ATOM     16  C   UNL     1     -15.545 -47.515 109.481  1.00  0.00     0.013 A 
ATOM     17  C   UNL     1     -14.572 -48.045 110.334  1.00  0.00     0.047 A 
BRANCH  15  18
ATOM     18  O   UNL     1     -12.325 -48.830 110.720  1.00  0.00    -0.508 OA
ATOM     19  H   UNL     1     -12.274 -48.547 111.692  1.00  0.00     0.293 HD
ENDBRANCH  15  18
ENDBRANCH   1  12
BRANCH  11  20
ATOM     20  C   UNL     1     -19.805 -46.228 103.557  1.00  0.00     0.188 C 
ATOM     21  C   UNL     1     -21.169 -46.757 104.047  1.00  0.00     0.179 C 
ATOM     22  O   UNL     1     -19.932 -45.542 102.321  1.00  0.00    -0.362 OA
ATOM     23  C   UNL     1     -21.754 -47.734 103.018  1.00  0.00     0.177 C 
ATOM     24  C   UNL     1     -20.428 -46.359 101.269  1.00  0.00     0.176 C 
ATOM     25  C   UNL     1     -21.761 -47.085 101.621  1.00  0.00     0.177 C 
BRANCH  21  26
ATOM     26  O   UNL     1     -21.013 -47.402 105.286  1.00  0.00    -0.387 OA
ATOM     27  H   UNL     1     -20.919 -48.372 105.094  1.00  0.00     0.211 HD
ENDBRANCH  21  26
BRANCH  23  28
ATOM     28  O   UNL     1     -21.021 -48.933 103.024  1.00  0.00    -0.387 OA
ATOM     29  H   UNL     1     -20.493 -48.955 102.183  1.00  0.00     0.211 HD
ENDBRANCH  23  28
BRANCH  24  30
ATOM     30  C   UNL     1     -19.324 -47.226 100.618  1.00  0.00     0.191 C 
BRANCH  30  31
ATOM     31  O   UNL     1     -19.660 -47.627  99.321  1.00  0.00    -0.394 OA
ATOM     32  H   UNL     1     -20.620 -47.879  99.350  1.00  0.00     0.210 HD
ENDBRANCH  30  31
ENDBRANCH  24  30
BRANCH  25  33
ATOM     33  O   UNL     1     -22.091 -48.042 100.647  1.00  0.00    -0.388 OA
ATOM     34  H   UNL     1     -21.452 -48.794 100.756  1.00  0.00     0.211 HD
ENDBRANCH  25  33
ENDBRANCH  11  20
BRANCH  10  35
ATOM     35  O   UNL     1     -20.693 -43.485 103.854  1.00  0.00    -0.507 OA
ATOM     36  H   UNL     1     -20.658 -43.635 102.853  1.00  0.00     0.293 HD
ENDBRANCH  10  35
TORSDOF 9
ENDMDL
