MODEL 1
REMARK VINA RESULT:    -3.360      0.000      0.000
REMARK INTER + INTRA:          -4.677
REMARK INTER:                  -4.538
REMARK INTRA:                  -0.139
REMARK UNBOUND:                -0.139
REMARK SMILES [NH3+]CCCC[C@H]([NH3+])C(=O)[O-]
REMARK SMILES IDX 4 1 3 2 2 3 1 4 5 8 6 9 7 10 8 14 9 15 10 16
REMARK H PARENT 1 5 1 6 1 7 7 11 7 12 7 13
REMARK Flexibility Score: inf
ROOT
ATOM      1  C   UNL     1     118.239 130.085 144.311  1.00  0.00     0.012 C 
ENDROOT
BRANCH   1   2
ATOM      2  C   UNL     1     119.734 129.749 144.430  1.00  0.00     0.061 C 
BRANCH   2   3
ATOM      3  C   UNL     1     120.564 130.302 143.259  1.00  0.00     0.258 C 
BRANCH   3   4
ATOM      4  N   UNL     1     121.937 130.576 143.678  1.00  0.00    -0.358 N 
ATOM      5  H   UNL     1     121.940 131.197 144.520  1.00  0.00     0.344 HD
ATOM      6  H   UNL     1     122.433 129.681 143.896  1.00  0.00     0.344 HD
ATOM      7  H   UNL     1     122.442 131.061 142.901  1.00  0.00     0.344 HD
ENDBRANCH   3   4
ENDBRANCH   2   3
ENDBRANCH   1   2
BRANCH   1   8
ATOM      8  C   UNL     1     117.944 131.070 143.166  1.00  0.00     0.072 C 
BRANCH   8   9
ATOM      9  C   UNL     1     116.589 131.794 143.339  1.00  0.00     0.227 C 
BRANCH   9  10
ATOM     10  N   UNL     1     116.195 131.886 144.752  1.00  0.00    -0.350 N 
ATOM     11  H   UNL     1     115.362 132.509 144.866  1.00  0.00     0.345 HD
ATOM     12  H   UNL     1     116.987 132.270 145.317  1.00  0.00     0.345 HD
ATOM     13  H   UNL     1     115.975 130.937 145.127  1.00  0.00     0.345 HD
ENDBRANCH   9  10
BRANCH   9  14
ATOM     14  C   UNL     1     115.529 131.065 142.556  1.00  0.00     0.099 C 
ATOM     15  O   UNL     1     115.781 130.632 141.401  1.00  0.00    -0.544 OA
ATOM     16  O   UNL     1     114.274 130.848 143.111  1.00  0.00    -0.544 OA
ENDBRANCH   9  14
ENDBRANCH   8   9
ENDBRANCH   1   8
TORSDOF 7
ENDMDL
MODEL 2
REMARK VINA RESULT:    -3.356      1.343      2.001
REMARK INTER + INTRA:          -4.672
REMARK INTER:                  -4.530
REMARK INTRA:                  -0.142
REMARK UNBOUND:                -0.139
REMARK SMILES [NH3+]CCCC[C@H]([NH3+])C(=O)[O-]
REMARK SMILES IDX 4 1 3 2 2 3 1 4 5 8 6 9 7 10 8 14 9 15 10 16
REMARK H PARENT 1 5 1 6 1 7 7 11 7 12 7 13
REMARK Flexibility Score: inf
ROOT
ATOM      1  C   UNL     1     117.666 130.928 142.619  1.00  0.00     0.012 C 
ENDROOT
BRANCH   1   2
ATOM      2  C   UNL     1     119.132 131.365 142.472  1.00  0.00     0.061 C 
BRANCH   2   3
ATOM      3  C   UNL     1     120.093 130.526 143.330  1.00  0.00     0.258 C 
BRANCH   3   4
ATOM      4  N   UNL     1     121.124 129.905 142.501  1.00  0.00    -0.358 N 
ATOM      5  H   UNL     1     121.594 129.133 143.028  1.00  0.00     0.344 HD
ATOM      6  H   UNL     1     120.701 129.527 141.622  1.00  0.00     0.344 HD
ATOM      7  H   UNL     1     121.840 130.624 142.249  1.00  0.00     0.344 HD
ENDBRANCH   3   4
ENDBRANCH   2   3
ENDBRANCH   1   2
BRANCH   1   8
ATOM      8  C   UNL     1     116.717 132.115 142.861  1.00  0.00     0.072 C 
BRANCH   8   9
ATOM      9  C   UNL     1     116.003 132.037 144.230  1.00  0.00     0.227 C 
BRANCH   9  10
ATOM     10  N   UNL     1     116.644 131.061 145.124  1.00  0.00    -0.350 N 
ATOM     11  H   UNL     1     116.322 131.194 146.111  1.00  0.00     0.345 HD
ATOM     12  H   UNL     1     117.683 131.174 145.087  1.00  0.00     0.345 HD
ATOM     13  H   UNL     1     116.424 130.089 144.814  1.00  0.00     0.345 HD
ENDBRANCH   9  10
BRANCH   9  14
ATOM     14  C   UNL     1     114.558 131.670 144.021  1.00  0.00     0.099 C 
ATOM     15  O   UNL     1     113.671 132.125 144.790  1.00  0.00    -0.544 OA
ATOM     16  O   UNL     1     114.191 130.844 142.965  1.00  0.00    -0.544 OA
ENDBRANCH   9  14
ENDBRANCH   8   9
ENDBRANCH   1   8
TORSDOF 7
ENDMDL
MODEL 3
REMARK VINA RESULT:    -3.217      1.345      1.766
REMARK INTER + INTRA:          -4.485
REMARK INTER:                  -4.102
REMARK INTRA:                  -0.382
REMARK UNBOUND:                -0.139
REMARK SMILES [NH3+]CCCC[C@H]([NH3+])C(=O)[O-]
REMARK SMILES IDX 4 1 3 2 2 3 1 4 5 8 6 9 7 10 8 14 9 15 10 16
REMARK H PARENT 1 5 1 6 1 7 7 11 7 12 7 13
REMARK Flexibility Score: inf
ROOT
ATOM      1  C   UNL     1     118.167 129.347 144.606  1.00  0.00     0.012 C 
ENDROOT
BRANCH   1   2
ATOM      2  C   UNL     1     119.673 129.039 144.614  1.00  0.00     0.061 C 
BRANCH   2   3
ATOM      3  C   UNL     1     120.519 130.183 144.031  1.00  0.00     0.258 C 
BRANCH   3   4
ATOM      4  N   UNL     1     120.859 129.920 142.634  1.00  0.00    -0.358 N 
ATOM      5  H   UNL     1     120.822 130.806 142.081  1.00  0.00     0.344 HD
ATOM      6  H   UNL     1     121.816 129.502 142.570  1.00  0.00     0.344 HD
ATOM      7  H   UNL     1     120.168 129.244 142.235  1.00  0.00     0.344 HD
ENDBRANCH   3   4
ENDBRANCH   2   3
ENDBRANCH   1   2
BRANCH   1   8
ATOM      8  C   UNL     1     117.865 130.823 144.920  1.00  0.00     0.072 C 
BRANCH   8   9
ATOM      9  C   UNL     1     116.681 131.376 144.093  1.00  0.00     0.227 C 
BRANCH   9  10
ATOM     10  N   UNL     1     115.445 130.618 144.335  1.00  0.00    -0.350 N 
ATOM     11  H   UNL     1     115.115 130.155 143.457  1.00  0.00     0.345 HD
ATOM     12  H   UNL     1     114.696 131.261 144.682  1.00  0.00     0.345 HD
ATOM     13  H   UNL     1     115.603 129.896 145.072  1.00  0.00     0.345 HD
ENDBRANCH   9  10
BRANCH   9  14
ATOM     14  C   UNL     1     117.031 131.335 142.629  1.00  0.00     0.099 C 
ATOM     15  O   UNL     1     116.190 130.924 141.788  1.00  0.00    -0.544 OA
ATOM     16  O   UNL     1     118.278 131.769 142.194  1.00  0.00    -0.544 OA
ENDBRANCH   9  14
ENDBRANCH   8   9
ENDBRANCH   1   8
TORSDOF 7
ENDMDL
MODEL 4
REMARK VINA RESULT:    -3.174      2.006      2.822
REMARK INTER + INTRA:          -4.427
REMARK INTER:                  -4.306
REMARK INTRA:                  -0.121
REMARK UNBOUND:                -0.139
REMARK SMILES [NH3+]CCCC[C@H]([NH3+])C(=O)[O-]
REMARK SMILES IDX 4 1 3 2 2 3 1 4 5 8 6 9 7 10 8 14 9 15 10 16
REMARK H PARENT 1 5 1 6 1 7 7 11 7 12 7 13
REMARK Flexibility Score: inf
ROOT
ATOM      1  C   UNL     1     116.405 131.835 143.945  1.00  0.00     0.012 C 
ENDROOT
BRANCH   1   2
ATOM      2  C   UNL     1     117.260 131.169 142.855  1.00  0.00     0.061 C 
BRANCH   2   3
ATOM      3  C   UNL     1     118.565 130.570 143.404  1.00  0.00     0.258 C 
BRANCH   3   4
ATOM      4  N   UNL     1     119.709 130.977 142.590  1.00  0.00    -0.358 N 
ATOM      5  H   UNL     1     120.594 130.591 142.991  1.00  0.00     0.344 HD
ATOM      6  H   UNL     1     119.589 130.640 141.607  1.00  0.00     0.344 HD
ATOM      7  H   UNL     1     119.770 132.021 142.583  1.00  0.00     0.344 HD
ENDBRANCH   3   4
ENDBRANCH   2   3
ENDBRANCH   1   2
BRANCH   1   8
ATOM      8  C   UNL     1     115.160 131.006 144.308  1.00  0.00     0.072 C 
BRANCH   8   9
ATOM      9  C   UNL     1     113.926 131.383 143.457  1.00  0.00     0.227 C 
BRANCH   9  10
ATOM     10  N   UNL     1     112.850 131.955 144.278  1.00  0.00    -0.350 N 
ATOM     11  H   UNL     1     112.042 131.294 144.347  1.00  0.00     0.345 HD
ATOM     12  H   UNL     1     112.520 132.854 143.856  1.00  0.00     0.345 HD
ATOM     13  H   UNL     1     113.205 132.172 145.236  1.00  0.00     0.345 HD
ENDBRANCH   9  10
BRANCH   9  14
ATOM     14  C   UNL     1     113.426 130.161 142.733  1.00  0.00     0.099 C 
ATOM     15  O   UNL     1     112.658 129.351 143.315  1.00  0.00    -0.544 OA
ATOM     16  O   UNL     1     113.792 129.930 141.412  1.00  0.00    -0.544 OA
ENDBRANCH   9  14
ENDBRANCH   8   9
ENDBRANCH   1   8
TORSDOF 7
ENDMDL
MODEL 5
REMARK VINA RESULT:    -3.143      3.035      5.479
REMARK INTER + INTRA:          -4.384
REMARK INTER:                  -4.277
REMARK INTRA:                  -0.108
REMARK UNBOUND:                -0.139
REMARK SMILES [NH3+]CCCC[C@H]([NH3+])C(=O)[O-]
REMARK SMILES IDX 4 1 3 2 2 3 1 4 5 8 6 9 7 10 8 14 9 15 10 16
REMARK H PARENT 1 5 1 6 1 7 7 11 7 12 7 13
REMARK Flexibility Score: inf
ROOT
ATOM      1  C   UNL     1     114.701 131.114 143.585  1.00  0.00     0.012 C 
ENDROOT
BRANCH   1   2
ATOM      2  C   UNL     1     113.455 131.748 144.223  1.00  0.00     0.061 C 
BRANCH   2   3
ATOM      3  C   UNL     1     112.150 131.047 143.808  1.00  0.00     0.258 C 
BRANCH   3   4
ATOM      4  N   UNL     1     111.875 131.259 142.387  1.00  0.00    -0.358 N 
ATOM      5  H   UNL     1     111.042 130.698 142.094  1.00  0.00     0.344 HD
ATOM      6  H   UNL     1     111.703 132.274 142.202  1.00  0.00     0.344 HD
ATOM      7  H   UNL     1     112.703 130.948 141.828  1.00  0.00     0.344 HD
ENDBRANCH   3   4
ENDBRANCH   2   3
ENDBRANCH   1   2
BRANCH   1   8
ATOM      8  C   UNL     1     116.009 131.762 144.074  1.00  0.00     0.072 C 
BRANCH   8   9
ATOM      9  C   UNL     1     117.190 131.522 143.105  1.00  0.00     0.227 C 
BRANCH   9  10
ATOM     10  N   UNL     1     116.743 130.926 141.838  1.00  0.00    -0.350 N 
ATOM     11  H   UNL     1     115.980 131.498 141.406  1.00  0.00     0.345 HD
ATOM     12  H   UNL     1     116.388 129.957 142.006  1.00  0.00     0.345 HD
ATOM     13  H   UNL     1     117.544 130.854 141.171  1.00  0.00     0.345 HD
ENDBRANCH   9  10
BRANCH   9  14
ATOM     14  C   UNL     1     118.203 130.625 143.766  1.00  0.00     0.099 C 
ATOM     15  O   UNL     1     117.864 129.886 144.726  1.00  0.00    -0.544 OA
ATOM     16  O   UNL     1     119.515 130.594 143.306  1.00  0.00    -0.544 OA
ENDBRANCH   9  14
ENDBRANCH   8   9
ENDBRANCH   1   8
TORSDOF 7
ENDMDL
MODEL 6
REMARK VINA RESULT:    -3.117      4.901      6.335
REMARK INTER + INTRA:          -4.349
REMARK INTER:                  -4.220
REMARK INTRA:                  -0.129
REMARK UNBOUND:                -0.139
REMARK SMILES [NH3+]CCCC[C@H]([NH3+])C(=O)[O-]
REMARK SMILES IDX 4 1 3 2 2 3 1 4 5 8 6 9 7 10 8 14 9 15 10 16
REMARK H PARENT 1 5 1 6 1 7 7 11 7 12 7 13
REMARK Flexibility Score: inf
ROOT
ATOM      1  C   UNL     1     112.393 130.254 140.068  1.00  0.00     0.012 C 
ENDROOT
BRANCH   1   2
ATOM      2  C   UNL     1     112.225 129.392 138.807  1.00  0.00     0.061 C 
BRANCH   2   3
ATOM      3  C   UNL     1     112.969 129.966 137.590  1.00  0.00     0.258 C 
BRANCH   3   4
ATOM      4  N   UNL     1     114.333 130.353 137.947  1.00  0.00    -0.358 N 
ATOM      5  H   UNL     1     115.020 129.864 137.329  1.00  0.00     0.344 HD
ATOM      6  H   UNL     1     114.448 131.389 137.856  1.00  0.00     0.344 HD
ATOM      7  H   UNL     1     114.517 130.078 138.939  1.00  0.00     0.344 HD
ENDBRANCH   3   4
ENDBRANCH   2   3
ENDBRANCH   1   2
BRANCH   1   8
ATOM      8  C   UNL     1     113.047 129.482 141.229  1.00  0.00     0.072 C 
BRANCH   8   9
ATOM      9  C   UNL     1     112.745 130.114 142.607  1.00  0.00     0.227 C 
BRANCH   9  10
ATOM     10  N   UNL     1     111.904 131.313 142.486  1.00  0.00    -0.350 N 
ATOM     11  H   UNL     1     112.466 132.130 142.153  1.00  0.00     0.345 HD
ATOM     12  H   UNL     1     111.481 131.546 143.414  1.00  0.00     0.345 HD
ATOM     13  H   UNL     1     111.118 131.137 141.821  1.00  0.00     0.345 HD
ENDBRANCH   9  10
BRANCH   9  14
ATOM     14  C   UNL     1     114.040 130.462 143.292  1.00  0.00     0.099 C 
ATOM     15  O   UNL     1     115.012 130.900 142.623  1.00  0.00    -0.544 OA
ATOM     16  O   UNL     1     114.165 130.320 144.669  1.00  0.00    -0.544 OA
ENDBRANCH   9  14
ENDBRANCH   8   9
ENDBRANCH   1   8
TORSDOF 7
ENDMDL
MODEL 7
REMARK VINA RESULT:    -3.054     21.940     22.414
REMARK INTER + INTRA:          -4.265
REMARK INTER:                  -4.197
REMARK INTRA:                  -0.067
REMARK UNBOUND:                -0.139
REMARK SMILES [NH3+]CCCC[C@H]([NH3+])C(=O)[O-]
REMARK SMILES IDX 4 1 3 2 2 3 1 4 5 8 6 9 7 10 8 14 9 15 10 16
REMARK H PARENT 1 5 1 6 1 7 7 11 7 12 7 13
REMARK Flexibility Score: inf
ROOT
ATOM      1  C   UNL     1     131.810 113.008 141.325  1.00  0.00     0.012 C 
ENDROOT
BRANCH   1   2
ATOM      2  C   UNL     1     131.243 112.318 142.576  1.00  0.00     0.061 C 
BRANCH   2   3
ATOM      3  C   UNL     1     131.749 112.948 143.884  1.00  0.00     0.258 C 
BRANCH   3   4
ATOM      4  N   UNL     1     131.186 112.259 145.045  1.00  0.00    -0.358 N 
ATOM      5  H   UNL     1     130.224 111.912 144.827  1.00  0.00     0.344 HD
ATOM      6  H   UNL     1     131.799 111.456 145.318  1.00  0.00     0.344 HD
ATOM      7  H   UNL     1     131.129 112.929 145.846  1.00  0.00     0.344 HD
ENDBRANCH   3   4
ENDBRANCH   2   3
ENDBRANCH   1   2
BRANCH   1   8
ATOM      8  C   UNL     1     130.711 113.428 140.332  1.00  0.00     0.072 C 
BRANCH   8   9
ATOM      9  C   UNL     1     131.227 113.519 138.878  1.00  0.00     0.227 C 
BRANCH   9  10
ATOM     10  N   UNL     1     131.910 114.795 138.620  1.00  0.00    -0.350 N 
ATOM     11  H   UNL     1     132.425 115.120 139.471  1.00  0.00     0.345 HD
ATOM     12  H   UNL     1     131.211 115.523 138.346  1.00  0.00     0.345 HD
ATOM     13  H   UNL     1     132.581 114.690 137.826  1.00  0.00     0.345 HD
ENDBRANCH   9  10
BRANCH   9  14
ATOM     14  C   UNL     1     130.071 113.354 137.926  1.00  0.00     0.099 C 
ATOM     15  O   UNL     1     130.246 113.491 136.687  1.00  0.00    -0.544 OA
ATOM     16  O   UNL     1     128.808 113.028 138.408  1.00  0.00    -0.544 OA
ENDBRANCH   9  14
ENDBRANCH   8   9
ENDBRANCH   1   8
TORSDOF 7
ENDMDL
MODEL 8
REMARK VINA RESULT:    -2.876      2.941      5.127
REMARK INTER + INTRA:          -4.024
REMARK INTER:                  -4.049
REMARK INTRA:                   0.025
REMARK UNBOUND:                -0.139
REMARK SMILES [NH3+]CCCC[C@H]([NH3+])C(=O)[O-]
REMARK SMILES IDX 4 1 3 2 2 3 1 4 5 8 6 9 7 10 8 14 9 15 10 16
REMARK H PARENT 1 5 1 6 1 7 7 11 7 12 7 13
REMARK Flexibility Score: inf
ROOT
ATOM      1  C   UNL     1     117.176 131.175 143.324  1.00  0.00     0.012 C 
ENDROOT
BRANCH   1   2
ATOM      2  C   UNL     1     116.048 132.084 143.836  1.00  0.00     0.061 C 
BRANCH   2   3
ATOM      3  C   UNL     1     114.862 131.294 144.415  1.00  0.00     0.258 C 
BRANCH   3   4
ATOM      4  N   UNL     1     113.646 132.106 144.414  1.00  0.00    -0.358 N 
ATOM      5  H   UNL     1     112.931 131.683 143.779  1.00  0.00     0.344 HD
ATOM      6  H   UNL     1     113.260 132.176 145.384  1.00  0.00     0.344 HD
ATOM      7  H   UNL     1     113.875 133.066 144.071  1.00  0.00     0.344 HD
ENDBRANCH   3   4
ENDBRANCH   2   3
ENDBRANCH   1   2
BRANCH   1   8
ATOM      8  C   UNL     1     117.851 130.378 144.456  1.00  0.00     0.072 C 
BRANCH   8   9
ATOM      9  C   UNL     1     118.945 129.417 143.935  1.00  0.00     0.227 C 
BRANCH   9  10
ATOM     10  N   UNL     1     119.257 128.364 144.913  1.00  0.00    -0.350 N 
ATOM     11  H   UNL     1     118.989 128.663 145.879  1.00  0.00     0.345 HD
ATOM     12  H   UNL     1     120.281 128.153 144.893  1.00  0.00     0.345 HD
ATOM     13  H   UNL     1     118.751 127.484 144.668  1.00  0.00     0.345 HD
ENDBRANCH   9  10
BRANCH   9  14
ATOM     14  C   UNL     1     120.188 130.203 143.612  1.00  0.00     0.099 C 
ATOM     15  O   UNL     1     121.168 130.191 144.402  1.00  0.00    -0.544 OA
ATOM     16  O   UNL     1     120.269 130.931 142.430  1.00  0.00    -0.544 OA
ENDBRANCH   9  14
ENDBRANCH   8   9
ENDBRANCH   1   8
TORSDOF 7
ENDMDL
