MODEL 1
REMARK VINA RESULT:    -5.571      0.000      0.000
REMARK INTER + INTRA:          -9.502
REMARK INTER:                  -8.665
REMARK INTRA:                  -0.838
REMARK UNBOUND:                -0.838
REMARK SMILES COc1cc(CNC(=O)CCCCC=CC(C)C)ccc1O
REMARK SMILES IDX 11 1 12 2 13 3 14 4 15 5 16 6 17 7 18 8 10 9 8 10 9 11 7 12
REMARK SMILES IDX 6 14 5 15 4 16 19 17 3 18 20 19 21 20 2 21 1 22 22 23
REMARK H PARENT 7 13 22 24
REMARK Flexibility Score: inf
ROOT
ATOM      1  C   UNL     1      16.941  -8.052  12.940  1.00  0.00     0.010 C 
ENDROOT
BRANCH   1   2
ATOM      2  C   UNL     1      17.910  -7.182  13.761  1.00  0.00     0.005 C 
BRANCH   2   3
ATOM      3  C   UNL     1      17.196  -6.380  14.858  1.00  0.00     0.027 C 
BRANCH   3   4
ATOM      4  C   UNL     1      15.960  -5.699  14.338  1.00  0.00    -0.031 C 
ATOM      5  C   UNL     1      14.796  -5.746  15.008  1.00  0.00    -0.028 C 
BRANCH   5   6
ATOM      6  C   UNL     1      13.548  -5.036  14.533  1.00  0.00     0.005 C 
ATOM      7  C   UNL     1      13.704  -4.536  13.092  1.00  0.00     0.012 C 
ATOM      8  C   UNL     1      13.162  -3.893  15.480  1.00  0.00     0.012 C 
ENDBRANCH   5   6
ENDBRANCH   3   4
ENDBRANCH   2   3
ENDBRANCH   1   2
BRANCH   1   9
ATOM      9  C   UNL     1      17.668  -9.158  12.161  1.00  0.00     0.100 C 
BRANCH   9  10
ATOM     10  C   UNL     1      17.422 -10.503  12.783  1.00  0.00     0.220 C 
ATOM     11  O   UNL     1      17.539 -10.636  14.031  1.00  0.00    -0.275 OA
ATOM     12  N   UNL     1      16.988 -11.607  11.977  1.00  0.00    -0.352 N 
ATOM     13  H   UNL     1      17.067 -11.538  10.937  1.00  0.00     0.163 HD
BRANCH  12  14
ATOM     14  C   UNL     1      16.219 -12.715  12.538  1.00  0.00     0.151 C 
BRANCH  14  15
ATOM     15  C   UNL     1      14.748 -12.420  12.420  1.00  0.00    -0.025 A 
ATOM     16  C   UNL     1      14.293 -11.095  12.497  1.00  0.00     0.056 A 
ATOM     17  C   UNL     1      13.817 -13.466  12.351  1.00  0.00     0.009 A 
ATOM     18  C   UNL     1      12.913 -10.811  12.512  1.00  0.00     0.160 A 
ATOM     19  C   UNL     1      12.449 -13.191  12.352  1.00  0.00     0.050 A 
ATOM     20  C   UNL     1      11.993 -11.873  12.437  1.00  0.00     0.157 A 
BRANCH  18  21
ATOM     21  O   UNL     1      12.427  -9.498  12.613  1.00  0.00    -0.493 OA
ATOM     22  C   UNL     1      13.238  -8.351  12.854  1.00  0.00     0.278 C 
ENDBRANCH  18  21
BRANCH  20  23
ATOM     23  O   UNL     1      10.618 -11.637  12.454  1.00  0.00    -0.504 OA
ATOM     24  H   UNL     1       9.948 -12.369  12.653  1.00  0.00     0.293 HD
ENDBRANCH  20  23
ENDBRANCH  14  15
ENDBRANCH  12  14
ENDBRANCH   9  10
ENDBRANCH   1   9
TORSDOF 10
ENDMDL
MODEL 2
REMARK VINA RESULT:    -5.422      1.524      2.060
REMARK INTER + INTRA:          -9.270
REMARK INTER:                  -8.523
REMARK INTRA:                  -0.747
REMARK UNBOUND:                -0.838
REMARK SMILES COc1cc(CNC(=O)CCCCC=CC(C)C)ccc1O
REMARK SMILES IDX 11 1 12 2 13 3 14 4 15 5 16 6 17 7 18 8 10 9 8 10 9 11 7 12
REMARK SMILES IDX 6 14 5 15 4 16 19 17 3 18 20 19 21 20 2 21 1 22 22 23
REMARK H PARENT 7 13 22 24
REMARK Flexibility Score: inf
ROOT
ATOM      1  C   UNL     1      16.508  -7.875  12.517  1.00  0.00     0.010 C 
ENDROOT
BRANCH   1   2
ATOM      2  C   UNL     1      16.480  -6.494  13.197  1.00  0.00     0.005 C 
BRANCH   2   3
ATOM      3  C   UNL     1      17.393  -6.424  14.428  1.00  0.00     0.027 C 
BRANCH   3   4
ATOM      4  C   UNL     1      16.662  -5.915  15.639  1.00  0.00    -0.031 C 
ATOM      5  C   UNL     1      16.980  -6.325  16.879  1.00  0.00    -0.028 C 
BRANCH   5   6
ATOM      6  C   UNL     1      16.293  -5.799  18.118  1.00  0.00     0.005 C 
ATOM      7  C   UNL     1      15.045  -4.982  17.761  1.00  0.00     0.012 C 
ATOM      8  C   UNL     1      17.258  -4.987  18.989  1.00  0.00     0.012 C 
ENDBRANCH   5   6
ENDBRANCH   3   4
ENDBRANCH   2   3
ENDBRANCH   1   2
BRANCH   1   9
ATOM      9  C   UNL     1      17.892  -8.536  12.597  1.00  0.00     0.100 C 
BRANCH   9  10
ATOM     10  C   UNL     1      17.780  -9.962  13.057  1.00  0.00     0.220 C 
ATOM     11  O   UNL     1      18.071 -10.251  14.249  1.00  0.00    -0.275 OA
ATOM     12  N   UNL     1      17.278 -10.973  12.172  1.00  0.00    -0.352 N 
ATOM     13  H   UNL     1      17.212 -10.764  11.150  1.00  0.00     0.163 HD
BRANCH  12  14
ATOM     14  C   UNL     1      16.632 -12.183  12.672  1.00  0.00     0.151 C 
BRANCH  14  15
ATOM     15  C   UNL     1      15.141 -12.066  12.504  1.00  0.00    -0.025 A 
ATOM     16  C   UNL     1      14.533 -10.802  12.526  1.00  0.00     0.056 A 
ATOM     17  C   UNL     1      14.340 -13.215  12.444  1.00  0.00     0.009 A 
ATOM     18  C   UNL     1      13.130 -10.681  12.494  1.00  0.00     0.160 A 
ATOM     19  C   UNL     1      12.950 -13.102  12.399  1.00  0.00     0.050 A 
ATOM     20  C   UNL     1      12.342 -11.845  12.428  1.00  0.00     0.157 A 
BRANCH  18  21
ATOM     21  O   UNL     1      12.492  -9.432  12.538  1.00  0.00    -0.493 OA
ATOM     22  C   UNL     1      13.106  -8.225  12.984  1.00  0.00     0.278 C 
ENDBRANCH  18  21
BRANCH  20  23
ATOM     23  O   UNL     1      10.948 -11.771  12.400  1.00  0.00    -0.504 OA
ATOM     24  H   UNL     1      10.444 -11.388  11.610  1.00  0.00     0.293 HD
ENDBRANCH  20  23
ENDBRANCH  14  15
ENDBRANCH  12  14
ENDBRANCH   9  10
ENDBRANCH   1   9
TORSDOF 10
ENDMDL
MODEL 3
REMARK VINA RESULT:    -5.414      2.310      4.701
REMARK INTER + INTRA:          -9.259
REMARK INTER:                  -7.661
REMARK INTRA:                  -1.598
REMARK UNBOUND:                -0.838
REMARK SMILES COc1cc(CNC(=O)CCCCC=CC(C)C)ccc1O
REMARK SMILES IDX 11 1 12 2 13 3 14 4 15 5 16 6 17 7 18 8 10 9 8 10 9 11 7 12
REMARK SMILES IDX 6 14 5 15 4 16 19 17 3 18 20 19 21 20 2 21 1 22 22 23
REMARK H PARENT 7 13 22 24
REMARK Flexibility Score: inf
ROOT
ATOM      1  C   UNL     1      14.937  -6.123  16.071  1.00  0.00     0.010 C 
ENDROOT
BRANCH   1   2
ATOM      2  C   UNL     1      16.406  -5.739  16.328  1.00  0.00     0.005 C 
BRANCH   2   3
ATOM      3  C   UNL     1      17.387  -6.837  15.896  1.00  0.00     0.027 C 
BRANCH   3   4
ATOM      4  C   UNL     1      17.755  -6.717  14.443  1.00  0.00    -0.031 C 
ATOM      5  C   UNL     1      17.774  -5.528  13.817  1.00  0.00    -0.028 C 
BRANCH   5   6
ATOM      6  C   UNL     1      18.182  -5.369  12.370  1.00  0.00     0.005 C 
ATOM      7  C   UNL     1      18.970  -6.588  11.875  1.00  0.00     0.012 C 
ATOM      8  C   UNL     1      18.971  -4.072  12.151  1.00  0.00     0.012 C 
ENDBRANCH   5   6
ENDBRANCH   3   4
ENDBRANCH   2   3
ENDBRANCH   1   2
BRANCH   1   9
ATOM      9  C   UNL     1      14.218  -5.109  15.169  1.00  0.00     0.100 C 
BRANCH   9  10
ATOM     10  C   UNL     1      14.022  -5.665  13.787  1.00  0.00     0.220 C 
ATOM     11  O   UNL     1      13.637  -4.899  12.863  1.00  0.00    -0.275 OA
ATOM     12  N   UNL     1      14.338  -7.035  13.505  1.00  0.00    -0.352 N 
ATOM     13  H   UNL     1      14.479  -7.698  14.301  1.00  0.00     0.163 HD
BRANCH  12  14
ATOM     14  C   UNL     1      14.707  -7.480  12.163  1.00  0.00     0.151 C 
BRANCH  14  15
ATOM     15  C   UNL     1      15.217  -8.894  12.223  1.00  0.00    -0.025 A 
ATOM     16  C   UNL     1      14.311  -9.961  12.320  1.00  0.00     0.056 A 
ATOM     17  C   UNL     1      16.593  -9.151  12.301  1.00  0.00     0.009 A 
ATOM     18  C   UNL     1      14.772 -11.280  12.500  1.00  0.00     0.160 A 
ATOM     19  C   UNL     1      17.058 -10.456  12.467  1.00  0.00     0.050 A 
ATOM     20  C   UNL     1      16.157 -11.519  12.571  1.00  0.00     0.157 A 
BRANCH  18  21
ATOM     21  O   UNL     1      13.889 -12.364  12.624  1.00  0.00    -0.493 OA
ATOM     22  C   UNL     1      12.527 -12.256  13.029  1.00  0.00     0.278 C 
ENDBRANCH  18  21
BRANCH  20  23
ATOM     23  O   UNL     1      16.657 -12.808  12.755  1.00  0.00    -0.504 OA
ATOM     24  H   UNL     1      16.111 -13.543  13.187  1.00  0.00     0.293 HD
ENDBRANCH  20  23
ENDBRANCH  14  15
ENDBRANCH  12  14
ENDBRANCH   9  10
ENDBRANCH   1   9
TORSDOF 10
ENDMDL
MODEL 4
REMARK VINA RESULT:    -5.178      2.336      5.920
REMARK INTER + INTRA:          -8.892
REMARK INTER:                  -7.749
REMARK INTRA:                  -1.143
REMARK UNBOUND:                -0.838
REMARK SMILES COc1cc(CNC(=O)CCCCC=CC(C)C)ccc1O
REMARK SMILES IDX 11 1 12 2 13 3 14 4 15 5 16 6 17 7 18 8 10 9 8 10 9 11 7 12
REMARK SMILES IDX 6 14 5 15 4 16 19 17 3 18 20 19 21 20 2 21 1 22 22 23
REMARK H PARENT 7 13 22 24
REMARK Flexibility Score: inf
ROOT
ATOM      1  C   UNL     1      14.486 -13.139  13.008  1.00  0.00     0.010 C 
ENDROOT
BRANCH   1   2
ATOM      2  C   UNL     1      15.968 -13.042  12.603  1.00  0.00     0.005 C 
BRANCH   2   3
ATOM      3  C   UNL     1      16.345 -11.652  12.074  1.00  0.00     0.027 C 
BRANCH   3   4
ATOM      4  C   UNL     1      17.122 -10.860  13.088  1.00  0.00    -0.031 C 
ATOM      5  C   UNL     1      17.732  -9.707  12.764  1.00  0.00    -0.028 C 
BRANCH   5   6
ATOM      6  C   UNL     1      18.483  -8.865  13.771  1.00  0.00     0.005 C 
ATOM      7  C   UNL     1      18.843  -9.678  15.021  1.00  0.00     0.012 C 
ATOM      8  C   UNL     1      17.698  -7.601  14.138  1.00  0.00     0.012 C 
ENDBRANCH   5   6
ENDBRANCH   3   4
ENDBRANCH   2   3
ENDBRANCH   1   2
BRANCH   1   9
ATOM      9  C   UNL     1      13.544 -12.685  11.884  1.00  0.00     0.100 C 
BRANCH   9  10
ATOM     10  C   UNL     1      12.724 -11.503  12.315  1.00  0.00     0.220 C 
ATOM     11  O   UNL     1      11.567 -11.690  12.781  1.00  0.00    -0.275 OA
ATOM     12  N   UNL     1      13.277 -10.180  12.266  1.00  0.00    -0.352 N 
ATOM     13  H   UNL     1      14.152 -10.016  11.719  1.00  0.00     0.163 HD
BRANCH  12  14
ATOM     14  C   UNL     1      12.802  -9.114  13.145  1.00  0.00     0.151 C 
BRANCH  14  15
ATOM     15  C   UNL     1      13.700  -7.914  13.012  1.00  0.00    -0.025 A 
ATOM     16  C   UNL     1      13.417  -6.746  13.737  1.00  0.00     0.056 A 
ATOM     17  C   UNL     1      14.749  -7.910  12.082  1.00  0.00     0.009 A 
ATOM     18  C   UNL     1      14.172  -5.575  13.533  1.00  0.00     0.160 A 
ATOM     19  C   UNL     1      15.510  -6.757  11.884  1.00  0.00     0.050 A 
ATOM     20  C   UNL     1      15.226  -5.591  12.600  1.00  0.00     0.157 A 
BRANCH  18  21
ATOM     21  O   UNL     1      13.898  -4.385  14.225  1.00  0.00    -0.493 OA
ATOM     22  C   UNL     1      13.159  -4.309  15.442  1.00  0.00     0.278 C 
ENDBRANCH  18  21
BRANCH  20  23
ATOM     23  O   UNL     1      15.996  -4.452  12.362  1.00  0.00    -0.504 OA
ATOM     24  H   UNL     1      16.595  -4.048  13.072  1.00  0.00     0.293 HD
ENDBRANCH  20  23
ENDBRANCH  14  15
ENDBRANCH  12  14
ENDBRANCH   9  10
ENDBRANCH   1   9
TORSDOF 10
ENDMDL
MODEL 5
REMARK VINA RESULT:    -5.141      2.542      4.399
REMARK INTER + INTRA:          -8.834
REMARK INTER:                  -8.080
REMARK INTRA:                  -0.755
REMARK UNBOUND:                -0.838
REMARK SMILES COc1cc(CNC(=O)CCCCC=CC(C)C)ccc1O
REMARK SMILES IDX 11 1 12 2 13 3 14 4 15 5 16 6 17 7 18 8 10 9 8 10 9 11 7 12
REMARK SMILES IDX 6 14 5 15 4 16 19 17 3 18 20 19 21 20 2 21 1 22 22 23
REMARK H PARENT 7 13 22 24
REMARK Flexibility Score: inf
ROOT
ATOM      1  C   UNL     1      16.796  -5.397  12.898  1.00  0.00     0.010 C 
ENDROOT
BRANCH   1   2
ATOM      2  C   UNL     1      17.904  -6.041  13.752  1.00  0.00     0.005 C 
BRANCH   2   3
ATOM      3  C   UNL     1      17.344  -6.884  14.906  1.00  0.00     0.027 C 
BRANCH   3   4
ATOM      4  C   UNL     1      17.159  -6.068  16.156  1.00  0.00    -0.031 C 
ATOM      5  C   UNL     1      16.341  -6.469  17.144  1.00  0.00    -0.028 C 
BRANCH   5   6
ATOM      6  C   UNL     1      16.167  -5.693  18.430  1.00  0.00     0.005 C 
ATOM      7  C   UNL     1      15.149  -4.559  18.265  1.00  0.00     0.012 C 
ATOM      8  C   UNL     1      17.510  -5.164  18.948  1.00  0.00     0.012 C 
ENDBRANCH   5   6
ENDBRANCH   3   4
ENDBRANCH   2   3
ENDBRANCH   1   2
BRANCH   1   9
ATOM      9  C   UNL     1      15.485  -5.223  13.679  1.00  0.00     0.100 C 
BRANCH   9  10
ATOM     10  C   UNL     1      14.367  -5.987  13.027  1.00  0.00     0.220 C 
ATOM     11  O   UNL     1      13.937  -5.613  11.903  1.00  0.00    -0.275 OA
ATOM     12  N   UNL     1      13.843  -7.172  13.642  1.00  0.00    -0.352 N 
ATOM     13  H   UNL     1      14.075  -7.370  14.642  1.00  0.00     0.163 HD
BRANCH  12  14
ATOM     14  C   UNL     1      13.206  -8.229  12.860  1.00  0.00     0.151 C 
BRANCH  14  15
ATOM     15  C   UNL     1      14.192  -9.338  12.612  1.00  0.00    -0.025 A 
ATOM     16  C   UNL     1      13.766 -10.674  12.658  1.00  0.00     0.056 A 
ATOM     17  C   UNL     1      15.555  -9.054  12.451  1.00  0.00     0.009 A 
ATOM     18  C   UNL     1      14.695 -11.727  12.550  1.00  0.00     0.160 A 
ATOM     19  C   UNL     1      16.480 -10.092  12.330  1.00  0.00     0.050 A 
ATOM     20  C   UNL     1      16.060 -11.423  12.383  1.00  0.00     0.157 A 
BRANCH  18  21
ATOM     21  O   UNL     1      14.304 -13.073  12.616  1.00  0.00    -0.493 OA
ATOM     22  C   UNL     1      13.037 -13.524  13.089  1.00  0.00     0.278 C 
ENDBRANCH  18  21
BRANCH  20  23
ATOM     23  O   UNL     1      17.015 -12.435  12.278  1.00  0.00    -0.504 OA
ATOM     24  H   UNL     1      17.987 -12.239  12.074  1.00  0.00     0.293 HD
ENDBRANCH  20  23
ENDBRANCH  14  15
ENDBRANCH  12  14
ENDBRANCH   9  10
ENDBRANCH   1   9
TORSDOF 10
ENDMDL
MODEL 6
REMARK VINA RESULT:    -5.107      2.187      4.505
REMARK INTER + INTRA:          -8.780
REMARK INTER:                  -7.557
REMARK INTRA:                  -1.224
REMARK UNBOUND:                -0.838
REMARK SMILES COc1cc(CNC(=O)CCCCC=CC(C)C)ccc1O
REMARK SMILES IDX 11 1 12 2 13 3 14 4 15 5 16 6 17 7 18 8 10 9 8 10 9 11 7 12
REMARK SMILES IDX 6 14 5 15 4 16 19 17 3 18 20 19 21 20 2 21 1 22 22 23
REMARK H PARENT 7 13 22 24
REMARK Flexibility Score: inf
ROOT
ATOM      1  C   UNL     1      14.763  -5.930  16.190  1.00  0.00     0.010 C 
ENDROOT
BRANCH   1   2
ATOM      2  C   UNL     1      15.871  -5.343  17.083  1.00  0.00     0.005 C 
BRANCH   2   3
ATOM      3  C   UNL     1      17.242  -5.981  16.818  1.00  0.00     0.027 C 
BRANCH   3   4
ATOM      4  C   UNL     1      17.233  -6.826  15.575  1.00  0.00    -0.031 C 
ATOM      5  C   UNL     1      17.627  -6.335  14.387  1.00  0.00    -0.028 C 
BRANCH   5   6
ATOM      6  C   UNL     1      17.672  -7.172  13.129  1.00  0.00     0.005 C 
ATOM      7  C   UNL     1      17.841  -8.661  13.453  1.00  0.00     0.012 C 
ATOM      8  C   UNL     1      18.767  -6.683  12.173  1.00  0.00     0.012 C 
ENDBRANCH   5   6
ENDBRANCH   3   4
ENDBRANCH   2   3
ENDBRANCH   1   2
BRANCH   1   9
ATOM      9  C   UNL     1      14.218  -4.903  15.186  1.00  0.00     0.100 C 
BRANCH   9  10
ATOM     10  C   UNL     1      13.953  -5.544  13.853  1.00  0.00     0.220 C 
ATOM     11  O   UNL     1      13.931  -4.826  12.817  1.00  0.00    -0.275 OA
ATOM     12  N   UNL     1      13.800  -6.966  13.750  1.00  0.00    -0.352 N 
ATOM     13  H   UNL     1      13.642  -7.524  14.619  1.00  0.00     0.163 HD
BRANCH  12  14
ATOM     14  C   UNL     1      14.099  -7.685  12.514  1.00  0.00     0.151 C 
BRANCH  14  15
ATOM     15  C   UNL     1      13.715  -9.132  12.666  1.00  0.00    -0.025 A 
ATOM     16  C   UNL     1      14.637 -10.138  12.339  1.00  0.00     0.056 A 
ATOM     17  C   UNL     1      12.405  -9.486  13.020  1.00  0.00     0.009 A 
ATOM     18  C   UNL     1      14.256 -11.493  12.358  1.00  0.00     0.160 A 
ATOM     19  C   UNL     1      12.024 -10.828  13.052  1.00  0.00     0.050 A 
ATOM     20  C   UNL     1      12.938 -11.831  12.720  1.00  0.00     0.157 A 
BRANCH  18  21
ATOM     21  O   UNL     1      15.148 -12.520  12.013  1.00  0.00    -0.493 OA
ATOM     22  C   UNL     1      16.399 -12.754  12.654  1.00  0.00     0.278 C 
ENDBRANCH  18  21
BRANCH  20  23
ATOM     23  O   UNL     1      12.516 -13.161  12.747  1.00  0.00    -0.504 OA
ATOM     24  H   UNL     1      11.929 -13.525  13.486  1.00  0.00     0.293 HD
ENDBRANCH  20  23
ENDBRANCH  14  15
ENDBRANCH  12  14
ENDBRANCH   9  10
ENDBRANCH   1   9
TORSDOF 10
ENDMDL
MODEL 7
REMARK VINA RESULT:    -5.024      2.319      3.968
REMARK INTER + INTRA:          -8.652
REMARK INTER:                  -7.661
REMARK INTRA:                  -0.991
REMARK UNBOUND:                -0.838
REMARK SMILES COc1cc(CNC(=O)CCCCC=CC(C)C)ccc1O
REMARK SMILES IDX 11 1 12 2 13 3 14 4 15 5 16 6 17 7 18 8 10 9 8 10 9 11 7 12
REMARK SMILES IDX 6 14 5 15 4 16 19 17 3 18 20 19 21 20 2 21 1 22 22 23
REMARK H PARENT 7 13 22 24
REMARK Flexibility Score: inf
ROOT
ATOM      1  C   UNL     1      14.092  -5.602  13.323  1.00  0.00     0.010 C 
ENDROOT
BRANCH   1   2
ATOM      2  C   UNL     1      13.192  -4.466  13.842  1.00  0.00     0.005 C 
BRANCH   2   3
ATOM      3  C   UNL     1      13.256  -4.313  15.368  1.00  0.00     0.027 C 
BRANCH   3   4
ATOM      4  C   UNL     1      14.337  -5.168  15.970  1.00  0.00    -0.031 C 
ATOM      5  C   UNL     1      14.929  -4.840  17.132  1.00  0.00    -0.028 C 
BRANCH   5   6
ATOM      6  C   UNL     1      15.986  -5.701  17.784  1.00  0.00     0.005 C 
ATOM      7  C   UNL     1      16.651  -4.974  18.959  1.00  0.00     0.012 C 
ATOM      8  C   UNL     1      17.028  -6.175  16.763  1.00  0.00     0.012 C 
ENDBRANCH   5   6
ENDBRANCH   3   4
ENDBRANCH   2   3
ENDBRANCH   1   2
BRANCH   1   9
ATOM      9  C   UNL     1      15.271  -5.077  12.491  1.00  0.00     0.100 C 
BRANCH   9  10
ATOM     10  C   UNL     1      16.460  -5.989  12.610  1.00  0.00     0.220 C 
ATOM     11  O   UNL     1      17.430  -5.646  13.338  1.00  0.00    -0.275 OA
ATOM     12  N   UNL     1      16.461  -7.268  11.962  1.00  0.00    -0.352 N 
ATOM     13  H   UNL     1      15.745  -7.464  11.227  1.00  0.00     0.163 HD
BRANCH  12  14
ATOM     14  C   UNL     1      17.263  -8.383  12.459  1.00  0.00     0.151 C 
BRANCH  14  15
ATOM     15  C   UNL     1      16.483  -9.663  12.330  1.00  0.00    -0.025 A 
ATOM     16  C   UNL     1      15.080  -9.629  12.323  1.00  0.00     0.056 A 
ATOM     17  C   UNL     1      17.142 -10.900  12.333  1.00  0.00     0.009 A 
ATOM     18  C   UNL     1      14.334 -10.823  12.327  1.00  0.00     0.160 A 
ATOM     19  C   UNL     1      16.409 -12.088  12.324  1.00  0.00     0.050 A 
ATOM     20  C   UNL     1      15.012 -12.056  12.325  1.00  0.00     0.157 A 
BRANCH  18  21
ATOM     21  O   UNL     1      12.931 -10.822  12.345  1.00  0.00    -0.493 OA
ATOM     22  C   UNL     1      12.132  -9.915  13.102  1.00  0.00     0.278 C 
ENDBRANCH  18  21
BRANCH  20  23
ATOM     23  O   UNL     1      14.313 -13.264  12.335  1.00  0.00    -0.504 OA
ATOM     24  H   UNL     1      14.783 -14.160  12.298  1.00  0.00     0.293 HD
ENDBRANCH  20  23
ENDBRANCH  14  15
ENDBRANCH  12  14
ENDBRANCH   9  10
ENDBRANCH   1   9
TORSDOF 10
ENDMDL
MODEL 8
REMARK VINA RESULT:    -4.792      1.517      2.745
REMARK INTER + INTRA:          -8.291
REMARK INTER:                  -7.634
REMARK INTRA:                  -0.658
REMARK UNBOUND:                -0.838
REMARK SMILES COc1cc(CNC(=O)CCCCC=CC(C)C)ccc1O
REMARK SMILES IDX 11 1 12 2 13 3 14 4 15 5 16 6 17 7 18 8 10 9 8 10 9 11 7 12
REMARK SMILES IDX 6 14 5 15 4 16 19 17 3 18 20 19 21 20 2 21 1 22 22 23
REMARK H PARENT 7 13 22 24
REMARK Flexibility Score: inf
ROOT
ATOM      1  C   UNL     1      17.330  -6.791  14.686  1.00  0.00     0.010 C 
ENDROOT
BRANCH   1   2
ATOM      2  C   UNL     1      17.967  -6.368  13.349  1.00  0.00     0.005 C 
BRANCH   2   3
ATOM      3  C   UNL     1      16.938  -5.812  12.356  1.00  0.00     0.027 C 
BRANCH   3   4
ATOM      4  C   UNL     1      16.013  -4.820  13.006  1.00  0.00    -0.031 C 
ATOM      5  C   UNL     1      14.695  -5.059  13.124  1.00  0.00    -0.028 C 
BRANCH   5   6
ATOM      6  C   UNL     1      13.747  -4.103  13.811  1.00  0.00     0.005 C 
ATOM      7  C   UNL     1      13.400  -4.581  15.226  1.00  0.00     0.012 C 
ATOM      8  C   UNL     1      12.482  -3.875  12.976  1.00  0.00     0.012 C 
ENDBRANCH   5   6
ENDBRANCH   3   4
ENDBRANCH   2   3
ENDBRANCH   1   2
BRANCH   1   9
ATOM      9  C   UNL     1      18.148  -7.873  15.405  1.00  0.00     0.100 C 
BRANCH   9  10
ATOM     10  C   UNL     1      18.194  -9.138  14.594  1.00  0.00     0.220 C 
ATOM     11  O   UNL     1      18.404 -10.236  15.176  1.00  0.00    -0.275 OA
ATOM     12  N   UNL     1      17.931  -9.106  13.185  1.00  0.00    -0.352 N 
ATOM     13  H   UNL     1      17.938  -8.186  12.688  1.00  0.00     0.163 HD
BRANCH  12  14
ATOM     14  C   UNL     1      17.417 -10.272  12.471  1.00  0.00     0.151 C 
BRANCH  14  15
ATOM     15  C   UNL     1      15.915 -10.295  12.557  1.00  0.00    -0.025 A 
ATOM     16  C   UNL     1      15.234 -11.522  12.555  1.00  0.00     0.056 A 
ATOM     17  C   UNL     1      15.182  -9.100  12.522  1.00  0.00     0.009 A 
ATOM     18  C   UNL     1      13.827 -11.560  12.511  1.00  0.00     0.160 A 
ATOM     19  C   UNL     1      13.787  -9.131  12.491  1.00  0.00     0.050 A 
ATOM     20  C   UNL     1      13.107 -10.351  12.481  1.00  0.00     0.157 A 
BRANCH  18  21
ATOM     21  O   UNL     1      13.118 -12.772  12.483  1.00  0.00    -0.493 OA
ATOM     22  C   UNL     1      13.652 -14.031  12.882  1.00  0.00     0.278 C 
ENDBRANCH  18  21
BRANCH  20  23
ATOM     23  O   UNL     1      11.713 -10.343  12.432  1.00  0.00    -0.504 OA
ATOM     24  H   UNL     1      11.147 -10.853  13.098  1.00  0.00     0.293 HD
ENDBRANCH  20  23
ENDBRANCH  14  15
ENDBRANCH  12  14
ENDBRANCH   9  10
ENDBRANCH   1   9
TORSDOF 10
ENDMDL
MODEL 9
REMARK VINA RESULT:    -4.602      2.514      4.226
REMARK INTER + INTRA:          -7.996
REMARK INTER:                  -7.772
REMARK INTRA:                  -0.224
REMARK UNBOUND:                -0.838
REMARK SMILES COc1cc(CNC(=O)CCCCC=CC(C)C)ccc1O
REMARK SMILES IDX 11 1 12 2 13 3 14 4 15 5 16 6 17 7 18 8 10 9 8 10 9 11 7 12
REMARK SMILES IDX 6 14 5 15 4 16 19 17 3 18 20 19 21 20 2 21 1 22 22 23
REMARK H PARENT 7 13 22 24
REMARK Flexibility Score: inf
ROOT
ATOM      1  C   UNL     1      16.024  -5.845  13.946  1.00  0.00     0.010 C 
ENDROOT
BRANCH   1   2
ATOM      2  C   UNL     1      16.981  -6.966  14.390  1.00  0.00     0.005 C 
BRANCH   2   3
ATOM      3  C   UNL     1      17.438  -6.810  15.846  1.00  0.00     0.027 C 
BRANCH   3   4
ATOM      4  C   UNL     1      16.712  -5.691  16.542  1.00  0.00    -0.031 C 
ATOM      5  C   UNL     1      16.824  -5.496  17.867  1.00  0.00    -0.028 C 
BRANCH   5   6
ATOM      6  C   UNL     1      16.143  -4.356  18.588  1.00  0.00     0.005 C 
ATOM      7  C   UNL     1      16.325  -4.466  20.107  1.00  0.00     0.012 C 
ATOM      8  C   UNL     1      14.659  -4.264  18.212  1.00  0.00     0.012 C 
ENDBRANCH   5   6
ENDBRANCH   3   4
ENDBRANCH   2   3
ENDBRANCH   1   2
BRANCH   1   9
ATOM      9  C   UNL     1      14.560  -6.159  14.287  1.00  0.00     0.100 C 
BRANCH   9  10
ATOM     10  C   UNL     1      13.882  -6.864  13.147  1.00  0.00     0.220 C 
ATOM     11  O   UNL     1      14.117  -6.493  11.965  1.00  0.00    -0.275 OA
ATOM     12  N   UNL     1      13.034  -7.993  13.394  1.00  0.00    -0.352 N 
ATOM     13  H   UNL     1      12.706  -8.178  14.369  1.00  0.00     0.163 HD
BRANCH  12  14
ATOM     14  C   UNL     1      12.813  -9.026  12.384  1.00  0.00     0.151 C 
BRANCH  14  15
ATOM     15  C   UNL     1      13.852 -10.104  12.529  1.00  0.00    -0.025 A 
ATOM     16  C   UNL     1      15.212  -9.762  12.583  1.00  0.00     0.056 A 
ATOM     17  C   UNL     1      13.483 -11.456  12.494  1.00  0.00     0.009 A 
ATOM     18  C   UNL     1      16.203 -10.762  12.595  1.00  0.00     0.160 A 
ATOM     19  C   UNL     1      14.459 -12.453  12.518  1.00  0.00     0.050 A 
ATOM     20  C   UNL     1      15.814 -12.115  12.564  1.00  0.00     0.157 A 
BRANCH  18  21
ATOM     21  O   UNL     1      17.571 -10.451  12.624  1.00  0.00    -0.493 OA
ATOM     22  C   UNL     1      18.224  -9.770  13.692  1.00  0.00     0.278 C 
ENDBRANCH  18  21
BRANCH  20  23
ATOM     23  O   UNL     1      16.763 -13.138  12.569  1.00  0.00    -0.504 OA
ATOM     24  H   UNL     1      16.937 -13.708  13.387  1.00  0.00     0.293 HD
ENDBRANCH  20  23
ENDBRANCH  14  15
ENDBRANCH  12  14
ENDBRANCH   9  10
ENDBRANCH   1   9
TORSDOF 10
ENDMDL
