MODEL 1
REMARK VINA RESULT:    -4.964      0.000      0.000
REMARK INTER + INTRA:          -6.034
REMARK INTER:                  -5.980
REMARK INTRA:                  -0.054
REMARK UNBOUND:                -0.054
REMARK SMILES [NH3+][C@@H](Cc1cnc[nH]1)C(=O)[O-]
REMARK SMILES IDX 3 1 2 2 1 3 9 7 10 8 11 9 4 10 5 11 8 12 6 13 7 14
REMARK H PARENT 1 4 1 5 1 6 8 15
REMARK Flexibility Score: inf
ROOT
ATOM      1  C   UNL     1     -14.401 -27.962 -13.180  1.00  0.00     0.127 C 
ENDROOT
BRANCH   1   2
ATOM      2  C   UNL     1     -14.652 -27.428 -14.604  1.00  0.00     0.233 C 
BRANCH   2   3
ATOM      3  N   UNL     1     -13.856 -28.156 -15.600  1.00  0.00    -0.350 N 
ATOM      4  H   UNL     1     -13.305 -28.922 -15.147  1.00  0.00     0.345 HD
ATOM      5  H   UNL     1     -13.197 -27.498 -16.079  1.00  0.00     0.345 HD
ATOM      6  H   UNL     1     -14.482 -28.567 -16.329  1.00  0.00     0.345 HD
ENDBRANCH   2   3
BRANCH   2   7
ATOM      7  C   UNL     1     -14.328 -25.958 -14.656  1.00  0.00     0.099 C 
ATOM      8  O   UNL     1     -15.248 -25.110 -14.792  1.00  0.00    -0.544 OA
ATOM      9  O   UNL     1     -13.011 -25.527 -14.538  1.00  0.00    -0.544 OA
ENDBRANCH   2   7
ENDBRANCH   1   2
BRANCH   1  10
ATOM     10  C   UNL     1     -15.093 -29.272 -12.950  1.00  0.00     0.041 A 
ATOM     11  C   UNL     1     -14.905 -30.122 -11.884  1.00  0.00     0.134 A 
ATOM     12  N   UNL     1     -16.060 -29.774 -13.733  1.00  0.00    -0.348 N 
ATOM     13  N   UNL     1     -15.748 -31.167 -11.999  1.00  0.00    -0.245 NA
ATOM     14  C   UNL     1     -16.434 -30.921 -13.136  1.00  0.00     0.196 A 
ATOM     15  H   UNL     1     -16.451 -29.361 -14.610  1.00  0.00     0.167 HD
ENDBRANCH   1  10
TORSDOF 4
ENDMDL
MODEL 2
REMARK VINA RESULT:    -4.940      3.079      4.727
REMARK INTER + INTRA:          -6.005
REMARK INTER:                  -5.838
REMARK INTRA:                  -0.167
REMARK UNBOUND:                -0.054
REMARK SMILES [NH3+][C@@H](Cc1cnc[nH]1)C(=O)[O-]
REMARK SMILES IDX 3 1 2 2 1 3 9 7 10 8 11 9 4 10 5 11 8 12 6 13 7 14
REMARK H PARENT 1 4 1 5 1 6 8 15
REMARK Flexibility Score: inf
ROOT
ATOM      1  C   UNL     1     -15.967 -29.038 -13.536  1.00  0.00     0.127 C 
ENDROOT
BRANCH   1   2
ATOM      2  C   UNL     1     -15.254 -30.355 -13.175  1.00  0.00     0.233 C 
BRANCH   2   3
ATOM      3  N   UNL     1     -15.896 -31.509 -13.819  1.00  0.00    -0.350 N 
ATOM      4  H   UNL     1     -15.427 -32.400 -13.536  1.00  0.00     0.345 HD
ATOM      5  H   UNL     1     -15.842 -31.410 -14.859  1.00  0.00     0.345 HD
ATOM      6  H   UNL     1     -16.906 -31.552 -13.553  1.00  0.00     0.345 HD
ENDBRANCH   2   3
BRANCH   2   7
ATOM      7  C   UNL     1     -15.250 -30.534 -11.679  1.00  0.00     0.099 C 
ATOM      8  O   UNL     1     -14.616 -29.730 -10.947  1.00  0.00    -0.544 OA
ATOM      9  O   UNL     1     -15.961 -31.578 -11.097  1.00  0.00    -0.544 OA
ENDBRANCH   2   7
ENDBRANCH   1   2
BRANCH   1  10
ATOM     10  C   UNL     1     -15.022 -28.046 -14.146  1.00  0.00     0.041 A 
ATOM     11  C   UNL     1     -14.885 -26.722 -13.795  1.00  0.00     0.134 A 
ATOM     12  N   UNL     1     -14.113 -28.336 -15.090  1.00  0.00    -0.348 N 
ATOM     13  N   UNL     1     -13.895 -26.172 -14.527  1.00  0.00    -0.245 NA
ATOM     14  C   UNL     1     -13.450 -27.184 -15.303  1.00  0.00     0.196 A 
ATOM     15  H   UNL     1     -13.945 -29.258 -15.552  1.00  0.00     0.167 HD
ENDBRANCH   1  10
TORSDOF 4
ENDMDL
MODEL 3
REMARK VINA RESULT:    -4.855      1.392      1.680
REMARK INTER + INTRA:          -5.903
REMARK INTER:                  -5.850
REMARK INTRA:                  -0.053
REMARK UNBOUND:                -0.054
REMARK SMILES [NH3+][C@@H](Cc1cnc[nH]1)C(=O)[O-]
REMARK SMILES IDX 3 1 2 2 1 3 9 7 10 8 11 9 4 10 5 11 8 12 6 13 7 14
REMARK H PARENT 1 4 1 5 1 6 8 15
REMARK Flexibility Score: inf
ROOT
ATOM      1  C   UNL     1     -15.975 -28.477 -13.698  1.00  0.00     0.127 C 
ENDROOT
BRANCH   1   2
ATOM      2  C   UNL     1     -14.786 -27.857 -14.456  1.00  0.00     0.233 C 
BRANCH   2   3
ATOM      3  N   UNL     1     -14.012 -28.879 -15.172  1.00  0.00    -0.350 N 
ATOM      4  H   UNL     1     -13.713 -28.528 -16.112  1.00  0.00     0.345 HD
ATOM      5  H   UNL     1     -14.593 -29.741 -15.299  1.00  0.00     0.345 HD
ATOM      6  H   UNL     1     -13.166 -29.143 -14.618  1.00  0.00     0.345 HD
ENDBRANCH   2   3
BRANCH   2   7
ATOM      7  C   UNL     1     -13.898 -27.119 -13.488  1.00  0.00     0.099 C 
ATOM      8  O   UNL     1     -12.664 -27.016 -13.713  1.00  0.00    -0.544 OA
ATOM      9  O   UNL     1     -14.440 -26.533 -12.350  1.00  0.00    -0.544 OA
ENDBRANCH   2   7
ENDBRANCH   1   2
BRANCH   1  10
ATOM     10  C   UNL     1     -15.639 -29.834 -13.154  1.00  0.00     0.041 A 
ATOM     11  C   UNL     1     -15.009 -30.105 -11.960  1.00  0.00     0.134 A 
ATOM     12  N   UNL     1     -15.975 -30.995 -13.736  1.00  0.00    -0.348 N 
ATOM     13  N   UNL     1     -14.937 -31.440 -11.793  1.00  0.00    -0.245 NA
ATOM     14  C   UNL     1     -15.534 -31.948 -12.893  1.00  0.00     0.196 A 
ATOM     15  H   UNL     1     -16.480 -31.134 -14.639  1.00  0.00     0.167 HD
ENDBRANCH   1  10
TORSDOF 4
ENDMDL
MODEL 4
REMARK VINA RESULT:    -4.719      1.778      2.037
REMARK INTER + INTRA:          -5.738
REMARK INTER:                  -5.430
REMARK INTRA:                  -0.309
REMARK UNBOUND:                -0.054
REMARK SMILES [NH3+][C@@H](Cc1cnc[nH]1)C(=O)[O-]
REMARK SMILES IDX 3 1 2 2 1 3 9 7 10 8 11 9 4 10 5 11 8 12 6 13 7 14
REMARK H PARENT 1 4 1 5 1 6 8 15
REMARK Flexibility Score: inf
ROOT
ATOM      1  C   UNL     1     -15.783 -28.632 -13.297  1.00  0.00     0.127 C 
ENDROOT
BRANCH   1   2
ATOM      2  C   UNL     1     -14.504 -27.772 -13.264  1.00  0.00     0.233 C 
BRANCH   2   3
ATOM      3  N   UNL     1     -14.523 -26.823 -12.144  1.00  0.00    -0.350 N 
ATOM      4  H   UNL     1     -13.955 -25.973 -12.369  1.00  0.00     0.345 HD
ATOM      5  H   UNL     1     -14.132 -27.277 -11.286  1.00  0.00     0.345 HD
ATOM      6  H   UNL     1     -15.505 -26.535 -11.934  1.00  0.00     0.345 HD
ENDBRANCH   2   3
BRANCH   2   7
ATOM      7  C   UNL     1     -14.360 -27.033 -14.568  1.00  0.00     0.099 C 
ATOM      8  O   UNL     1     -14.047 -27.653 -15.617  1.00  0.00    -0.544 OA
ATOM      9  O   UNL     1     -14.589 -25.662 -14.624  1.00  0.00    -0.544 OA
ENDBRANCH   2   7
ENDBRANCH   1   2
BRANCH   1  10
ATOM     10  C   UNL     1     -15.465 -30.092 -13.427  1.00  0.00     0.041 A 
ATOM     11  C   UNL     1     -16.031 -31.121 -12.709  1.00  0.00     0.134 A 
ATOM     12  N   UNL     1     -14.619 -30.613 -14.330  1.00  0.00    -0.348 N 
ATOM     13  N   UNL     1     -15.533 -32.293 -13.151  1.00  0.00    -0.245 NA
ATOM     14  C   UNL     1     -14.677 -31.944 -14.136  1.00  0.00     0.196 A 
ATOM     15  H   UNL     1     -14.047 -30.101 -15.039  1.00  0.00     0.167 HD
ENDBRANCH   1  10
TORSDOF 4
ENDMDL
MODEL 5
REMARK VINA RESULT:    -4.580      3.690      4.186
REMARK INTER + INTRA:          -5.572
REMARK INTER:                  -5.431
REMARK INTRA:                  -0.140
REMARK UNBOUND:                -0.054
REMARK SMILES [NH3+][C@@H](Cc1cnc[nH]1)C(=O)[O-]
REMARK SMILES IDX 3 1 2 2 1 3 9 7 10 8 11 9 4 10 5 11 8 12 6 13 7 14
REMARK H PARENT 1 4 1 5 1 6 8 15
REMARK Flexibility Score: inf
ROOT
ATOM      1  C   UNL     1     -14.835 -27.688 -11.350  1.00  0.00     0.127 C 
ENDROOT
BRANCH   1   2
ATOM      2  C   UNL     1     -14.222 -27.338 -12.720  1.00  0.00     0.233 C 
BRANCH   2   3
ATOM      3  N   UNL     1     -14.497 -25.943 -13.092  1.00  0.00    -0.350 N 
ATOM      4  H   UNL     1     -13.630 -25.476 -13.446  1.00  0.00     0.345 HD
ATOM      5  H   UNL     1     -14.853 -25.418 -12.260  1.00  0.00     0.345 HD
ATOM      6  H   UNL     1     -15.234 -25.908 -13.833  1.00  0.00     0.345 HD
ENDBRANCH   2   3
BRANCH   2   7
ATOM      7  C   UNL     1     -14.766 -28.270 -13.770  1.00  0.00     0.099 C 
ATOM      8  O   UNL     1     -15.933 -28.730 -13.666  1.00  0.00    -0.544 OA
ATOM      9  O   UNL     1     -13.988 -28.615 -14.870  1.00  0.00    -0.544 OA
ENDBRANCH   2   7
ENDBRANCH   1   2
BRANCH   1  10
ATOM     10  C   UNL     1     -13.815 -27.619 -10.253  1.00  0.00     0.041 A 
ATOM     11  C   UNL     1     -12.463 -27.845 -10.376  1.00  0.00     0.134 A 
ATOM     12  N   UNL     1     -14.075 -27.253  -8.988  1.00  0.00    -0.348 N 
ATOM     13  N   UNL     1     -11.870 -27.632  -9.185  1.00  0.00    -0.245 NA
ATOM     14  C   UNL     1     -12.882 -27.273  -8.366  1.00  0.00     0.196 A 
ATOM     15  H   UNL     1     -15.000 -26.994  -8.576  1.00  0.00     0.167 HD
ENDBRANCH   1  10
TORSDOF 4
ENDMDL
MODEL 6
REMARK VINA RESULT:    -4.566      3.981      5.022
REMARK INTER + INTRA:          -5.554
REMARK INTER:                  -5.418
REMARK INTRA:                  -0.136
REMARK UNBOUND:                -0.054
REMARK SMILES [NH3+][C@@H](Cc1cnc[nH]1)C(=O)[O-]
REMARK SMILES IDX 3 1 2 2 1 3 9 7 10 8 11 9 4 10 5 11 8 12 6 13 7 14
REMARK H PARENT 1 4 1 5 1 6 8 15
REMARK Flexibility Score: inf
ROOT
ATOM      1  C   UNL     1     -13.265 -27.736 -10.981  1.00  0.00     0.127 C 
ENDROOT
BRANCH   1   2
ATOM      2  C   UNL     1     -14.012 -27.914  -9.644  1.00  0.00     0.233 C 
BRANCH   2   3
ATOM      3  N   UNL     1     -15.086 -26.924  -9.493  1.00  0.00    -0.350 N 
ATOM      4  H   UNL     1     -14.974 -26.145 -10.183  1.00  0.00     0.345 HD
ATOM      5  H   UNL     1     -15.069 -26.526  -8.525  1.00  0.00     0.345 HD
ATOM      6  H   UNL     1     -16.017 -27.379  -9.636  1.00  0.00     0.345 HD
ENDBRANCH   2   3
BRANCH   2   7
ATOM      7  C   UNL     1     -13.038 -27.799  -8.502  1.00  0.00     0.099 C 
ATOM      8  O   UNL     1     -12.673 -28.828  -7.875  1.00  0.00    -0.544 OA
ATOM      9  O   UNL     1     -12.521 -26.559  -8.144  1.00  0.00    -0.544 OA
ENDBRANCH   2   7
ENDBRANCH   1   2
BRANCH   1  10
ATOM     10  C   UNL     1     -14.213 -27.657 -12.140  1.00  0.00     0.041 A 
ATOM     11  C   UNL     1     -14.354 -26.602 -13.012  1.00  0.00     0.134 A 
ATOM     12  N   UNL     1     -15.022 -28.652 -12.535  1.00  0.00    -0.348 N 
ATOM     13  N   UNL     1     -15.262 -26.926 -13.954  1.00  0.00    -0.245 NA
ATOM     14  C   UNL     1     -15.646 -28.181 -13.631  1.00  0.00     0.196 A 
ATOM     15  H   UNL     1     -15.136 -29.594 -12.098  1.00  0.00     0.167 HD
ENDBRANCH   1  10
TORSDOF 4
ENDMDL
MODEL 7
REMARK VINA RESULT:    -4.563      2.438      2.958
REMARK INTER + INTRA:          -5.550
REMARK INTER:                  -5.413
REMARK INTRA:                  -0.137
REMARK UNBOUND:                -0.054
REMARK SMILES [NH3+][C@@H](Cc1cnc[nH]1)C(=O)[O-]
REMARK SMILES IDX 3 1 2 2 1 3 9 7 10 8 11 9 4 10 5 11 8 12 6 13 7 14
REMARK H PARENT 1 4 1 5 1 6 8 15
REMARK Flexibility Score: inf
ROOT
ATOM      1  C   UNL     1     -13.770 -27.609 -12.314  1.00  0.00     0.127 C 
ENDROOT
BRANCH   1   2
ATOM      2  C   UNL     1     -14.977 -27.572 -13.271  1.00  0.00     0.233 C 
BRANCH   2   3
ATOM      3  N   UNL     1     -15.386 -28.924 -13.674  1.00  0.00    -0.350 N 
ATOM      4  H   UNL     1     -14.552 -29.547 -13.781  1.00  0.00     0.345 HD
ATOM      5  H   UNL     1     -15.901 -28.882 -14.584  1.00  0.00     0.345 HD
ATOM      6  H   UNL     1     -16.031 -29.331 -12.959  1.00  0.00     0.345 HD
ENDBRANCH   2   3
BRANCH   2   7
ATOM      7  C   UNL     1     -14.633 -26.751 -14.486  1.00  0.00     0.099 C 
ATOM      8  O   UNL     1     -14.896 -25.521 -14.516  1.00  0.00    -0.544 OA
ATOM      9  O   UNL     1     -14.005 -27.344 -15.576  1.00  0.00    -0.544 OA
ENDBRANCH   2   7
ENDBRANCH   1   2
BRANCH   1  10
ATOM     10  C   UNL     1     -14.184 -27.945 -10.912  1.00  0.00     0.041 A 
ATOM     11  C   UNL     1     -14.865 -27.126 -10.040  1.00  0.00     0.134 A 
ATOM     12  N   UNL     1     -14.006 -29.141 -10.328  1.00  0.00    -0.348 N 
ATOM     13  N   UNL     1     -15.108 -27.802  -8.899  1.00  0.00    -0.245 NA
ATOM     14  C   UNL     1     -14.570 -29.023  -9.112  1.00  0.00     0.196 A 
ATOM     15  H   UNL     1     -13.543 -29.986 -10.732  1.00  0.00     0.167 HD
ENDBRANCH   1  10
TORSDOF 4
ENDMDL
MODEL 8
REMARK VINA RESULT:    -4.541      3.080      3.654
REMARK INTER + INTRA:          -5.525
REMARK INTER:                  -5.314
REMARK INTRA:                  -0.211
REMARK UNBOUND:                -0.054
REMARK SMILES [NH3+][C@@H](Cc1cnc[nH]1)C(=O)[O-]
REMARK SMILES IDX 3 1 2 2 1 3 9 7 10 8 11 9 4 10 5 11 8 12 6 13 7 14
REMARK H PARENT 1 4 1 5 1 6 8 15
REMARK Flexibility Score: inf
ROOT
ATOM      1  C   UNL     1     -14.213 -27.614 -12.735  1.00  0.00     0.127 C 
ENDROOT
BRANCH   1   2
ATOM      2  C   UNL     1     -14.405 -28.864 -13.616  1.00  0.00     0.233 C 
BRANCH   2   3
ATOM      3  N   UNL     1     -14.196 -28.558 -15.038  1.00  0.00    -0.350 N 
ATOM      4  H   UNL     1     -13.407 -29.124 -15.427  1.00  0.00     0.345 HD
ATOM      5  H   UNL     1     -13.977 -27.541 -15.153  1.00  0.00     0.345 HD
ATOM      6  H   UNL     1     -15.066 -28.761 -15.580  1.00  0.00     0.345 HD
ENDBRANCH   2   3
BRANCH   2   7
ATOM      7  C   UNL     1     -15.787 -29.423 -13.405  1.00  0.00     0.099 C 
ATOM      8  O   UNL     1     -16.798 -28.771 -13.774  1.00  0.00    -0.544 OA
ATOM      9  O   UNL     1     -15.954 -30.672 -12.817  1.00  0.00    -0.544 OA
ENDBRANCH   2   7
ENDBRANCH   1   2
BRANCH   1  10
ATOM     10  C   UNL     1     -14.371 -27.934 -11.278  1.00  0.00     0.041 A 
ATOM     11  C   UNL     1     -14.930 -27.122 -10.318  1.00  0.00     0.134 A 
ATOM     12  N   UNL     1     -14.046 -29.107 -10.713  1.00  0.00    -0.348 N 
ATOM     13  N   UNL     1     -14.948 -27.779  -9.141  1.00  0.00    -0.245 NA
ATOM     14  C   UNL     1     -14.402 -28.983  -9.421  1.00  0.00     0.196 A 
ATOM     15  H   UNL     1     -13.621 -29.942 -11.175  1.00  0.00     0.167 HD
ENDBRANCH   1  10
TORSDOF 4
ENDMDL
MODEL 9
REMARK VINA RESULT:    -4.541      3.033      4.645
REMARK INTER + INTRA:          -5.524
REMARK INTER:                  -5.233
REMARK INTRA:                  -0.291
REMARK UNBOUND:                -0.054
REMARK SMILES [NH3+][C@@H](Cc1cnc[nH]1)C(=O)[O-]
REMARK SMILES IDX 3 1 2 2 1 3 9 7 10 8 11 9 4 10 5 11 8 12 6 13 7 14
REMARK H PARENT 1 4 1 5 1 6 8 15
REMARK Flexibility Score: inf
ROOT
ATOM      1  C   UNL     1     -15.307 -28.446 -12.283  1.00  0.00     0.127 C 
ENDROOT
BRANCH   1   2
ATOM      2  C   UNL     1     -14.361 -28.718 -11.098  1.00  0.00     0.233 C 
BRANCH   2   3
ATOM      3  N   UNL     1     -14.357 -30.139 -10.726  1.00  0.00    -0.350 N 
ATOM      4  H   UNL     1     -13.986 -30.726 -11.509  1.00  0.00     0.345 HD
ATOM      5  H   UNL     1     -15.330 -30.449 -10.498  1.00  0.00     0.345 HD
ATOM      6  H   UNL     1     -13.767 -30.286  -9.876  1.00  0.00     0.345 HD
ENDBRANCH   2   3
BRANCH   2   7
ATOM      7  C   UNL     1     -14.773 -27.876  -9.919  1.00  0.00     0.099 C 
ATOM      8  O   UNL     1     -15.074 -26.664 -10.080  1.00  0.00    -0.544 OA
ATOM      9  O   UNL     1     -14.842 -28.436  -8.648  1.00  0.00    -0.544 OA
ENDBRANCH   2   7
ENDBRANCH   1   2
BRANCH   1  10
ATOM     10  C   UNL     1     -14.661 -27.577 -13.320  1.00  0.00     0.041 A 
ATOM     11  C   UNL     1     -14.128 -27.990 -14.520  1.00  0.00     0.134 A 
ATOM     12  N   UNL     1     -14.573 -26.239 -13.250  1.00  0.00    -0.348 N 
ATOM     13  N   UNL     1     -13.693 -26.914 -15.205  1.00  0.00    -0.245 NA
ATOM     14  C   UNL     1     -13.981 -25.867 -14.400  1.00  0.00     0.196 A 
ATOM     15  H   UNL     1     -14.904 -25.617 -12.479  1.00  0.00     0.167 HD
ENDBRANCH   1  10
TORSDOF 4
ENDMDL
