MODEL 1
REMARK VINA RESULT:    -3.017      0.000      0.000
REMARK INTER + INTRA:          -8.401
REMARK INTER:                  -5.838
REMARK INTRA:                  -2.563
REMARK UNBOUND:                -2.563
REMARK SMILES CCCCCCCCCCCCCCCCCC(=O)[O-]
REMARK SMILES IDX 10 1 11 2 12 3 13 4 14 5 15 6 16 7 17 8 18 9 19 10 20 11
REMARK SMILES IDX 9 12 8 13 7 14 6 15 5 16 4 17 3 18 2 19 1 20
REMARK H PARENT
REMARK Flexibility Score: inf
ROOT
ATOM      1  C   UNL     1     -96.410 -29.088  79.163  1.00  0.00     0.000 C 
ENDROOT
BRANCH   1   2
ATOM      2  C   UNL     1     -97.569 -29.914  78.574  1.00  0.00     0.000 C 
BRANCH   2   3
ATOM      3  C   UNL     1     -98.623 -29.037  77.877  1.00  0.00     0.000 C 
BRANCH   3   4
ATOM      4  C   UNL     1     -99.870 -28.805  78.747  1.00  0.00     0.000 C 
BRANCH   4   5
ATOM      5  C   UNL     1     -99.922 -27.387  79.336  1.00  0.00     0.000 C 
BRANCH   5   6
ATOM      6  C   UNL     1     -99.698 -27.366  80.857  1.00  0.00     0.000 C 
BRANCH   6   7
ATOM      7  C   UNL     1     -99.634 -28.793  81.421  1.00  0.00     0.006 C 
BRANCH   7   8
ATOM      8  C   UNL     1    -100.834 -29.118  82.320  1.00  0.00     0.053 C 
BRANCH   8   9
ATOM      9  C   UNL     1    -100.498 -28.965  83.772  1.00  0.00     0.041 C 
ATOM     10  O   UNL     1    -100.382 -29.982  84.505  1.00  0.00    -0.550 OA
ATOM     11  O   UNL     1    -100.347 -27.699  84.323  1.00  0.00    -0.550 OA
ENDBRANCH   8   9
ENDBRANCH   7   8
ENDBRANCH   6   7
ENDBRANCH   5   6
ENDBRANCH   4   5
ENDBRANCH   3   4
ENDBRANCH   2   3
ENDBRANCH   1   2
BRANCH   1  12
ATOM     12  C   UNL     1     -96.081 -27.846  78.318  1.00  0.00     0.000 C 
BRANCH  12  13
ATOM     13  C   UNL     1     -95.458 -26.713  79.152  1.00  0.00    -0.000 C 
BRANCH  13  14
ATOM     14  C   UNL     1     -96.503 -25.705  79.657  1.00  0.00    -0.000 C 
BRANCH  14  15
ATOM     15  C   UNL     1     -96.587 -25.658  81.194  1.00  0.00    -0.000 C 
BRANCH  15  16
ATOM     16  C   UNL     1     -95.649 -26.672  81.871  1.00  0.00    -0.000 C 
BRANCH  16  17
ATOM     17  C   UNL     1     -96.344 -27.683  82.806  1.00  0.00    -0.000 C 
BRANCH  17  18
ATOM     18  C   UNL     1     -96.827 -27.070  84.137  1.00  0.00    -0.000 C 
BRANCH  18  19
ATOM     19  C   UNL     1     -96.252 -27.803  85.358  1.00  0.00    -0.003 C 
ATOM     20  C   UNL     1     -96.073 -29.292  85.074  1.00  0.00     0.004 C 
ENDBRANCH  18  19
ENDBRANCH  17  18
ENDBRANCH  16  17
ENDBRANCH  15  16
ENDBRANCH  14  15
ENDBRANCH  13  14
ENDBRANCH  12  13
ENDBRANCH   1  12
TORSDOF 16
ENDMDL
MODEL 2
REMARK VINA RESULT:    -3.000     13.216     15.504
REMARK INTER + INTRA:          -8.370
REMARK INTER:                  -7.094
REMARK INTRA:                  -1.276
REMARK UNBOUND:                -2.563
REMARK SMILES CCCCCCCCCCCCCCCCCC(=O)[O-]
REMARK SMILES IDX 10 1 11 2 12 3 13 4 14 5 15 6 16 7 17 8 18 9 19 10 20 11
REMARK SMILES IDX 9 12 8 13 7 14 6 15 5 16 4 17 3 18 2 19 1 20
REMARK H PARENT
REMARK Flexibility Score: inf
ROOT
ATOM      1  C   UNL     1     -99.892 -38.507  91.467  1.00  0.00     0.000 C 
ENDROOT
BRANCH   1   2
ATOM      2  C   UNL     1    -101.074 -37.653  91.961  1.00  0.00     0.000 C 
BRANCH   2   3
ATOM      3  C   UNL     1    -100.949 -37.276  93.446  1.00  0.00     0.000 C 
BRANCH   3   4
ATOM      4  C   UNL     1    -100.424 -35.844  93.652  1.00  0.00     0.000 C 
BRANCH   4   5
ATOM      5  C   UNL     1    -101.549 -34.798  93.664  1.00  0.00     0.000 C 
BRANCH   5   6
ATOM      6  C   UNL     1    -101.893 -34.312  95.081  1.00  0.00     0.000 C 
BRANCH   6   7
ATOM      7  C   UNL     1    -102.162 -32.799  95.090  1.00  0.00     0.006 C 
BRANCH   7   8
ATOM      8  C   UNL     1    -101.897 -32.153  93.724  1.00  0.00     0.053 C 
BRANCH   8   9
ATOM      9  C   UNL     1    -101.423 -30.738  93.861  1.00  0.00     0.041 C 
ATOM     10  O   UNL     1    -101.050 -30.301  94.982  1.00  0.00    -0.550 OA
ATOM     11  O   UNL     1    -101.425 -29.892  92.760  1.00  0.00    -0.550 OA
ENDBRANCH   8   9
ENDBRANCH   7   8
ENDBRANCH   6   7
ENDBRANCH   5   6
ENDBRANCH   4   5
ENDBRANCH   3   4
ENDBRANCH   2   3
ENDBRANCH   1   2
BRANCH   1  12
ATOM     12  C   UNL     1     -99.512 -39.618  92.459  1.00  0.00     0.000 C 
BRANCH  12  13
ATOM     13  C   UNL     1     -99.988 -41.008  92.000  1.00  0.00    -0.000 C 
BRANCH  13  14
ATOM     14  C   UNL     1     -98.873 -41.823  91.324  1.00  0.00    -0.000 C 
BRANCH  14  15
ATOM     15  C   UNL     1     -97.474 -41.226  91.565  1.00  0.00    -0.000 C 
BRANCH  15  16
ATOM     16  C   UNL     1     -96.730 -40.909  90.256  1.00  0.00    -0.000 C 
BRANCH  16  17
ATOM     17  C   UNL     1     -97.588 -40.244  89.161  1.00  0.00    -0.000 C 
BRANCH  17  18
ATOM     18  C   UNL     1     -97.111 -40.547  87.726  1.00  0.00    -0.000 C 
BRANCH  18  19
ATOM     19  C   UNL     1     -97.318 -42.020  87.342  1.00  0.00    -0.003 C 
ATOM     20  C   UNL     1     -98.758 -42.458  87.594  1.00  0.00     0.004 C 
ENDBRANCH  18  19
ENDBRANCH  17  18
ENDBRANCH  16  17
ENDBRANCH  15  16
ENDBRANCH  14  15
ENDBRANCH  13  14
ENDBRANCH  12  13
ENDBRANCH   1  12
TORSDOF 16
ENDMDL
MODEL 3
REMARK VINA RESULT:    -2.997      2.076      4.135
REMARK INTER + INTRA:          -8.364
REMARK INTER:                  -5.573
REMARK INTRA:                  -2.791
REMARK UNBOUND:                -2.563
REMARK SMILES CCCCCCCCCCCCCCCCCC(=O)[O-]
REMARK SMILES IDX 10 1 11 2 12 3 13 4 14 5 15 6 16 7 17 8 18 9 19 10 20 11
REMARK SMILES IDX 9 12 8 13 7 14 6 15 5 16 4 17 3 18 2 19 1 20
REMARK H PARENT
REMARK Flexibility Score: inf
ROOT
ATOM      1  C   UNL     1     -96.390 -28.997  79.129  1.00  0.00     0.000 C 
ENDROOT
BRANCH   1   2
ATOM      2  C   UNL     1     -95.791 -27.636  78.730  1.00  0.00     0.000 C 
BRANCH   2   3
ATOM      3  C   UNL     1     -96.755 -26.467  78.995  1.00  0.00     0.000 C 
BRANCH   3   4
ATOM      4  C   UNL     1     -96.317 -25.597  80.186  1.00  0.00     0.000 C 
BRANCH   4   5
ATOM      5  C   UNL     1     -97.099 -25.916  81.469  1.00  0.00     0.000 C 
BRANCH   5   6
ATOM      6  C   UNL     1     -96.203 -26.456  82.595  1.00  0.00     0.000 C 
BRANCH   6   7
ATOM      7  C   UNL     1     -96.301 -27.986  82.688  1.00  0.00     0.006 C 
BRANCH   7   8
ATOM      8  C   UNL     1     -97.109 -28.443  83.910  1.00  0.00     0.053 C 
BRANCH   8   9
ATOM      9  C   UNL     1     -96.232 -28.663  85.105  1.00  0.00     0.041 C 
ATOM     10  O   UNL     1     -95.883 -29.829  85.428  1.00  0.00    -0.550 OA
ATOM     11  O   UNL     1     -95.829 -27.585  85.882  1.00  0.00    -0.550 OA
ENDBRANCH   8   9
ENDBRANCH   7   8
ENDBRANCH   6   7
ENDBRANCH   5   6
ENDBRANCH   4   5
ENDBRANCH   3   4
ENDBRANCH   2   3
ENDBRANCH   1   2
BRANCH   1  12
ATOM     12  C   UNL     1     -97.871 -29.129  78.736  1.00  0.00     0.000 C 
BRANCH  12  13
ATOM     13  C   UNL     1     -98.716 -29.796  79.836  1.00  0.00    -0.000 C 
BRANCH  13  14
ATOM     14  C   UNL     1     -99.260 -28.786  80.860  1.00  0.00    -0.000 C 
BRANCH  14  15
ATOM     15  C   UNL     1    -100.533 -28.072  80.369  1.00  0.00    -0.000 C 
BRANCH  15  16
ATOM     16  C   UNL     1    -100.614 -26.611  80.842  1.00  0.00    -0.000 C 
BRANCH  16  17
ATOM     17  C   UNL     1    -101.220 -26.411  82.246  1.00  0.00    -0.000 C 
BRANCH  17  18
ATOM     18  C   UNL     1    -100.363 -25.525  83.173  1.00  0.00    -0.000 C 
BRANCH  18  19
ATOM     19  C   UNL     1    -100.094 -26.191  84.531  1.00  0.00    -0.003 C 
ATOM     20  C   UNL     1     -98.812 -25.657  85.162  1.00  0.00     0.004 C 
ENDBRANCH  18  19
ENDBRANCH  17  18
ENDBRANCH  16  17
ENDBRANCH  15  16
ENDBRANCH  14  15
ENDBRANCH  13  14
ENDBRANCH  12  13
ENDBRANCH   1  12
TORSDOF 16
ENDMDL
MODEL 4
REMARK VINA RESULT:    -2.959     14.001     17.063
REMARK INTER + INTRA:          -8.289
REMARK INTER:                  -5.747
REMARK INTRA:                  -2.542
REMARK UNBOUND:                -2.563
REMARK SMILES CCCCCCCCCCCCCCCCCC(=O)[O-]
REMARK SMILES IDX 10 1 11 2 12 3 13 4 14 5 15 6 16 7 17 8 18 9 19 10 20 11
REMARK SMILES IDX 9 12 8 13 7 14 6 15 5 16 4 17 3 18 2 19 1 20
REMARK H PARENT
REMARK Flexibility Score: inf
ROOT
ATOM      1  C   UNL     1     -96.963 -41.669  93.921  1.00  0.00     0.000 C 
ENDROOT
BRANCH   1   2
ATOM      2  C   UNL     1     -97.432 -40.530  94.845  1.00  0.00     0.000 C 
BRANCH   2   3
ATOM      3  C   UNL     1     -98.896 -40.693  95.286  1.00  0.00     0.000 C 
BRANCH   3   4
ATOM      4  C   UNL     1     -99.694 -41.626  94.357  1.00  0.00     0.000 C 
BRANCH   4   5
ATOM      5  C   UNL     1    -100.724 -40.869  93.504  1.00  0.00     0.000 C 
BRANCH   5   6
ATOM      6  C   UNL     1    -100.158 -40.422  92.147  1.00  0.00     0.000 C 
BRANCH   6   7
ATOM      7  C   UNL     1     -99.834 -38.920  92.156  1.00  0.00     0.006 C 
BRANCH   7   8
ATOM      8  C   UNL     1    -101.020 -38.072  92.632  1.00  0.00     0.053 C 
BRANCH   8   9
ATOM      9  C   UNL     1    -100.627 -37.133  93.731  1.00  0.00     0.041 C 
ATOM     10  O   UNL     1    -100.489 -37.559  94.908  1.00  0.00    -0.550 OA
ATOM     11  O   UNL     1    -100.448 -35.782  93.464  1.00  0.00    -0.550 OA
ENDBRANCH   8   9
ENDBRANCH   7   8
ENDBRANCH   6   7
ENDBRANCH   5   6
ENDBRANCH   4   5
ENDBRANCH   3   4
ENDBRANCH   2   3
ENDBRANCH   1   2
BRANCH   1  12
ATOM     12  C   UNL     1     -96.517 -41.162  92.539  1.00  0.00     0.000 C 
BRANCH  12  13
ATOM     13  C   UNL     1     -96.303 -42.305  91.532  1.00  0.00    -0.000 C 
BRANCH  13  14
ATOM     14  C   UNL     1     -97.625 -42.936  91.062  1.00  0.00    -0.000 C 
BRANCH  14  15
ATOM     15  C   UNL     1     -97.570 -43.399  89.594  1.00  0.00    -0.000 C 
BRANCH  15  16
ATOM     16  C   UNL     1     -96.202 -43.143  88.941  1.00  0.00    -0.000 C 
BRANCH  16  17
ATOM     17  C   UNL     1     -96.249 -42.385  87.599  1.00  0.00    -0.000 C 
BRANCH  17  18
ATOM     18  C   UNL     1     -97.466 -41.448  87.455  1.00  0.00    -0.000 C 
BRANCH  18  19
ATOM     19  C   UNL     1     -97.161 -40.019  87.927  1.00  0.00    -0.003 C 
ATOM     20  C   UNL     1     -97.898 -39.697  89.224  1.00  0.00     0.004 C 
ENDBRANCH  18  19
ENDBRANCH  17  18
ENDBRANCH  16  17
ENDBRANCH  15  16
ENDBRANCH  14  15
ENDBRANCH  13  14
ENDBRANCH  12  13
ENDBRANCH   1  12
TORSDOF 16
ENDMDL
MODEL 5
REMARK VINA RESULT:    -2.940     13.364     15.786
REMARK INTER + INTRA:          -8.253
REMARK INTER:                  -6.788
REMARK INTRA:                  -1.466
REMARK UNBOUND:                -2.563
REMARK SMILES CCCCCCCCCCCCCCCCCC(=O)[O-]
REMARK SMILES IDX 10 1 11 2 12 3 13 4 14 5 15 6 16 7 17 8 18 9 19 10 20 11
REMARK SMILES IDX 9 12 8 13 7 14 6 15 5 16 4 17 3 18 2 19 1 20
REMARK H PARENT
REMARK Flexibility Score: inf
ROOT
ATOM      1  C   UNL     1     -98.709 -41.200  92.849  1.00  0.00     0.000 C 
ENDROOT
BRANCH   1   2
ATOM      2  C   UNL     1     -99.350 -39.841  93.185  1.00  0.00     0.000 C 
BRANCH   2   3
ATOM      3  C   UNL     1    -100.275 -39.333  92.066  1.00  0.00     0.000 C 
BRANCH   3   4
ATOM      4  C   UNL     1    -100.139 -37.819  91.827  1.00  0.00     0.000 C 
BRANCH   4   5
ATOM      5  C   UNL     1    -101.395 -37.040  92.246  1.00  0.00     0.000 C 
BRANCH   5   6
ATOM      6  C   UNL     1    -101.101 -35.952  93.290  1.00  0.00     0.000 C 
BRANCH   6   7
ATOM      7  C   UNL     1    -102.266 -34.956  93.388  1.00  0.00     0.006 C 
BRANCH   7   8
ATOM      8  C   UNL     1    -101.792 -33.541  93.742  1.00  0.00     0.053 C 
BRANCH   8   9
ATOM      9  C   UNL     1    -102.688 -32.491  93.157  1.00  0.00     0.041 C 
ATOM     10  O   UNL     1    -102.599 -31.296  93.544  1.00  0.00    -0.550 OA
ATOM     11  O   UNL     1    -103.644 -32.839  92.212  1.00  0.00    -0.550 OA
ENDBRANCH   8   9
ENDBRANCH   7   8
ENDBRANCH   6   7
ENDBRANCH   5   6
ENDBRANCH   4   5
ENDBRANCH   3   4
ENDBRANCH   2   3
ENDBRANCH   1   2
BRANCH   1  12
ATOM     12  C   UNL     1     -97.173 -41.136  92.817  1.00  0.00     0.000 C 
BRANCH  12  13
ATOM     13  C   UNL     1     -96.574 -41.903  91.625  1.00  0.00    -0.000 C 
BRANCH  13  14
ATOM     14  C   UNL     1     -97.485 -43.042  91.136  1.00  0.00    -0.000 C 
BRANCH  14  15
ATOM     15  C   UNL     1     -97.234 -43.408  89.661  1.00  0.00    -0.000 C 
BRANCH  15  16
ATOM     16  C   UNL     1     -95.932 -42.803  89.112  1.00  0.00    -0.000 C 
BRANCH  16  17
ATOM     17  C   UNL     1     -96.041 -42.187  87.702  1.00  0.00    -0.000 C 
BRANCH  17  18
ATOM     18  C   UNL     1     -97.315 -41.345  87.487  1.00  0.00    -0.000 C 
BRANCH  18  19
ATOM     19  C   UNL     1     -97.161 -39.910  88.012  1.00  0.00    -0.003 C 
ATOM     20  C   UNL     1     -98.012 -39.685  89.259  1.00  0.00     0.004 C 
ENDBRANCH  18  19
ENDBRANCH  17  18
ENDBRANCH  16  17
ENDBRANCH  15  16
ENDBRANCH  14  15
ENDBRANCH  13  14
ENDBRANCH  12  13
ENDBRANCH   1  12
TORSDOF 16
ENDMDL
MODEL 6
REMARK VINA RESULT:    -2.923     13.639     15.927
REMARK INTER + INTRA:          -8.220
REMARK INTER:                  -6.740
REMARK INTRA:                  -1.480
REMARK UNBOUND:                -2.563
REMARK SMILES CCCCCCCCCCCCCCCCCC(=O)[O-]
REMARK SMILES IDX 10 1 11 2 12 3 13 4 14 5 15 6 16 7 17 8 18 9 19 10 20 11
REMARK SMILES IDX 9 12 8 13 7 14 6 15 5 16 4 17 3 18 2 19 1 20
REMARK H PARENT
REMARK Flexibility Score: inf
ROOT
ATOM      1  C   UNL     1    -100.164 -39.721  92.262  1.00  0.00     0.000 C 
ENDROOT
BRANCH   1   2
ATOM      2  C   UNL     1    -100.118 -38.281  91.719  1.00  0.00     0.000 C 
BRANCH   2   3
ATOM      3  C   UNL     1    -101.182 -37.375  92.361  1.00  0.00     0.000 C 
BRANCH   3   4
ATOM      4  C   UNL     1    -100.570 -36.163  93.085  1.00  0.00     0.000 C 
BRANCH   4   5
ATOM      5  C   UNL     1    -100.702 -36.260  94.613  1.00  0.00     0.000 C 
BRANCH   5   6
ATOM      6  C   UNL     1    -102.040 -35.708  95.130  1.00  0.00     0.000 C 
BRANCH   6   7
ATOM      7  C   UNL     1    -101.872 -34.277  95.665  1.00  0.00     0.006 C 
BRANCH   7   8
ATOM      8  C   UNL     1    -102.914 -33.313  95.084  1.00  0.00     0.053 C 
BRANCH   8   9
ATOM      9  C   UNL     1    -102.531 -32.841  93.714  1.00  0.00     0.041 C 
ATOM     10  O   UNL     1    -102.898 -33.486  92.697  1.00  0.00    -0.550 OA
ATOM     11  O   UNL     1    -101.741 -31.709  93.562  1.00  0.00    -0.550 OA
ENDBRANCH   8   9
ENDBRANCH   7   8
ENDBRANCH   6   7
ENDBRANCH   5   6
ENDBRANCH   4   5
ENDBRANCH   3   4
ENDBRANCH   2   3
ENDBRANCH   1   2
BRANCH   1  12
ATOM     12  C   UNL     1     -99.604 -39.832  93.690  1.00  0.00     0.000 C 
BRANCH  12  13
ATOM     13  C   UNL     1     -98.708 -41.070  93.878  1.00  0.00    -0.000 C 
BRANCH  13  14
ATOM     14  C   UNL     1     -97.250 -40.815  93.461  1.00  0.00    -0.000 C 
BRANCH  14  15
ATOM     15  C   UNL     1     -96.749 -41.827  92.414  1.00  0.00    -0.000 C 
BRANCH  15  16
ATOM     16  C   UNL     1     -96.445 -41.175  91.055  1.00  0.00    -0.000 C 
BRANCH  16  17
ATOM     17  C   UNL     1     -97.654 -41.050  90.106  1.00  0.00    -0.000 C 
BRANCH  17  18
ATOM     18  C   UNL     1     -97.631 -39.778  89.233  1.00  0.00    -0.000 C 
BRANCH  18  19
ATOM     19  C   UNL     1     -96.878 -39.991  87.911  1.00  0.00    -0.003 C 
ATOM     20  C   UNL     1     -97.125 -41.390  87.355  1.00  0.00     0.004 C 
ENDBRANCH  18  19
ENDBRANCH  17  18
ENDBRANCH  16  17
ENDBRANCH  15  16
ENDBRANCH  14  15
ENDBRANCH  13  14
ENDBRANCH  12  13
ENDBRANCH   1  12
TORSDOF 16
ENDMDL
MODEL 7
REMARK VINA RESULT:    -2.920      1.262      2.193
REMARK INTER + INTRA:          -8.214
REMARK INTER:                  -5.825
REMARK INTRA:                  -2.389
REMARK UNBOUND:                -2.563
REMARK SMILES CCCCCCCCCCCCCCCCCC(=O)[O-]
REMARK SMILES IDX 10 1 11 2 12 3 13 4 14 5 15 6 16 7 17 8 18 9 19 10 20 11
REMARK SMILES IDX 9 12 8 13 7 14 6 15 5 16 4 17 3 18 2 19 1 20
REMARK H PARENT
REMARK Flexibility Score: inf
ROOT
ATOM      1  C   UNL     1     -98.334 -28.559  77.480  1.00  0.00     0.000 C 
ENDROOT
BRANCH   1   2
ATOM      2  C   UNL     1     -99.827 -28.420  77.829  1.00  0.00     0.000 C 
BRANCH   2   3
ATOM      3  C   UNL     1    -100.054 -27.998  79.291  1.00  0.00     0.000 C 
BRANCH   3   4
ATOM      4  C   UNL     1    -100.799 -29.069  80.107  1.00  0.00     0.000 C 
BRANCH   4   5
ATOM      5  C   UNL     1    -100.134 -29.345  81.465  1.00  0.00     0.000 C 
BRANCH   5   6
ATOM      6  C   UNL     1    -100.438 -28.258  82.508  1.00  0.00     0.000 C 
BRANCH   6   7
ATOM      7  C   UNL     1     -99.934 -28.676  83.897  1.00  0.00     0.006 C 
BRANCH   7   8
ATOM      8  C   UNL     1    -100.550 -30.000  84.366  1.00  0.00     0.053 C 
BRANCH   8   9
ATOM      9  C   UNL     1    -102.036 -29.894  84.531  1.00  0.00     0.041 C 
ATOM     10  O   UNL     1    -102.520 -29.179  85.448  1.00  0.00    -0.550 OA
ATOM     11  O   UNL     1    -102.883 -30.610  83.697  1.00  0.00    -0.550 OA
ENDBRANCH   8   9
ENDBRANCH   7   8
ENDBRANCH   6   7
ENDBRANCH   5   6
ENDBRANCH   4   5
ENDBRANCH   3   4
ENDBRANCH   2   3
ENDBRANCH   1   2
BRANCH   1  12
ATOM     12  C   UNL     1     -97.659 -29.723  78.225  1.00  0.00     0.000 C 
BRANCH  12  13
ATOM     13  C   UNL     1     -96.502 -29.256  79.126  1.00  0.00    -0.000 C 
BRANCH  13  14
ATOM     14  C   UNL     1     -96.167 -27.767  78.937  1.00  0.00    -0.000 C 
BRANCH  14  15
ATOM     15  C   UNL     1     -95.955 -27.033  80.274  1.00  0.00    -0.000 C 
BRANCH  15  16
ATOM     16  C   UNL     1     -97.010 -27.406  81.330  1.00  0.00    -0.000 C 
BRANCH  16  17
ATOM     17  C   UNL     1     -96.443 -27.959  82.653  1.00  0.00    -0.000 C 
BRANCH  17  18
ATOM     18  C   UNL     1     -96.561 -26.979  83.839  1.00  0.00    -0.000 C 
BRANCH  18  19
ATOM     19  C   UNL     1     -96.427 -27.687  85.196  1.00  0.00    -0.003 C 
ATOM     20  C   UNL     1     -96.093 -29.164  85.016  1.00  0.00     0.004 C 
ENDBRANCH  18  19
ENDBRANCH  17  18
ENDBRANCH  16  17
ENDBRANCH  15  16
ENDBRANCH  14  15
ENDBRANCH  13  14
ENDBRANCH  12  13
ENDBRANCH   1  12
TORSDOF 16
ENDMDL
MODEL 8
REMARK VINA RESULT:    -2.895     14.549     17.007
REMARK INTER + INTRA:          -8.165
REMARK INTER:                  -5.998
REMARK INTRA:                  -2.167
REMARK UNBOUND:                -2.563
REMARK SMILES CCCCCCCCCCCCCCCCCC(=O)[O-]
REMARK SMILES IDX 10 1 11 2 12 3 13 4 14 5 15 6 16 7 17 8 18 9 19 10 20 11
REMARK SMILES IDX 9 12 8 13 7 14 6 15 5 16 4 17 3 18 2 19 1 20
REMARK H PARENT
REMARK Flexibility Score: inf
ROOT
ATOM      1  C   UNL     1     -98.735 -39.846  95.632  1.00  0.00     0.000 C 
ENDROOT
BRANCH   1   2
ATOM      2  C   UNL     1     -98.332 -41.058  94.773  1.00  0.00     0.000 C 
BRANCH   2   3
ATOM      3  C   UNL     1     -96.853 -41.016  94.351  1.00  0.00     0.000 C 
BRANCH   3   4
ATOM      4  C   UNL     1     -96.671 -41.074  92.825  1.00  0.00     0.000 C 
BRANCH   4   5
ATOM      5  C   UNL     1     -97.929 -41.575  92.098  1.00  0.00     0.000 C 
BRANCH   5   6
ATOM      6  C   UNL     1     -98.276 -40.733  90.860  1.00  0.00     0.000 C 
BRANCH   6   7
ATOM      7  C   UNL     1     -97.102 -40.707  89.869  1.00  0.00     0.006 C 
BRANCH   7   8
ATOM      8  C   UNL     1     -97.558 -40.410  88.435  1.00  0.00     0.053 C 
BRANCH   8   9
ATOM      9  C   UNL     1     -97.243 -41.541  87.505  1.00  0.00     0.041 C 
ATOM     10  O   UNL     1     -96.056 -41.945  87.380  1.00  0.00    -0.550 OA
ATOM     11  O   UNL     1     -98.251 -42.127  86.752  1.00  0.00    -0.550 OA
ENDBRANCH   8   9
ENDBRANCH   7   8
ENDBRANCH   6   7
ENDBRANCH   5   6
ENDBRANCH   4   5
ENDBRANCH   3   4
ENDBRANCH   2   3
ENDBRANCH   1   2
BRANCH   1  12
ATOM     12  C   UNL     1    -100.123 -39.295  95.262  1.00  0.00     0.000 C 
BRANCH  12  13
ATOM     13  C   UNL     1    -100.737 -40.011  94.047  1.00  0.00    -0.000 C 
BRANCH  13  14
ATOM     14  C   UNL     1    -101.342 -39.033  93.026  1.00  0.00    -0.000 C 
BRANCH  14  15
ATOM     15  C   UNL     1    -100.320 -37.999  92.519  1.00  0.00    -0.000 C 
BRANCH  15  16
ATOM     16  C   UNL     1    -100.838 -36.555  92.613  1.00  0.00    -0.000 C 
BRANCH  16  17
ATOM     17  C   UNL     1    -100.349 -35.763  93.843  1.00  0.00    -0.000 C 
BRANCH  17  18
ATOM     18  C   UNL     1    -101.489 -35.224  94.731  1.00  0.00    -0.000 C 
BRANCH  18  19
ATOM     19  C   UNL     1    -101.695 -36.073  95.995  1.00  0.00    -0.003 C 
ATOM     20  C   UNL     1    -102.944 -36.941  95.878  1.00  0.00     0.004 C 
ENDBRANCH  18  19
ENDBRANCH  17  18
ENDBRANCH  16  17
ENDBRANCH  15  16
ENDBRANCH  14  15
ENDBRANCH  13  14
ENDBRANCH  12  13
ENDBRANCH   1  12
TORSDOF 16
ENDMDL
MODEL 9
REMARK VINA RESULT:    -2.833      1.906      4.724
REMARK INTER + INTRA:          -8.047
REMARK INTER:                  -5.509
REMARK INTRA:                  -2.538
REMARK UNBOUND:                -2.563
REMARK SMILES CCCCCCCCCCCCCCCCCC(=O)[O-]
REMARK SMILES IDX 10 1 11 2 12 3 13 4 14 5 15 6 16 7 17 8 18 9 19 10 20 11
REMARK SMILES IDX 9 12 8 13 7 14 6 15 5 16 4 17 3 18 2 19 1 20
REMARK H PARENT
REMARK Flexibility Score: inf
ROOT
ATOM      1  C   UNL     1     -97.940 -29.380  78.872  1.00  0.00     0.000 C 
ENDROOT
BRANCH   1   2
ATOM      2  C   UNL     1     -97.155 -28.105  78.512  1.00  0.00     0.000 C 
BRANCH   2   3
ATOM      3  C   UNL     1     -96.121 -27.727  79.586  1.00  0.00     0.000 C 
BRANCH   3   4
ATOM      4  C   UNL     1     -95.896 -26.207  79.682  1.00  0.00     0.000 C 
BRANCH   4   5
ATOM      5  C   UNL     1     -95.935 -25.696  81.130  1.00  0.00     0.000 C 
BRANCH   5   6
ATOM      6  C   UNL     1     -96.960 -26.442  81.998  1.00  0.00     0.000 C 
BRANCH   6   7
ATOM      7  C   UNL     1     -96.347 -26.845  83.347  1.00  0.00     0.006 C 
BRANCH   7   8
ATOM      8  C   UNL     1     -96.527 -28.340  83.645  1.00  0.00     0.053 C 
BRANCH   8   9
ATOM      9  C   UNL     1     -96.201 -28.666  85.070  1.00  0.00     0.041 C 
ATOM     10  O   UNL     1     -96.235 -29.860  85.469  1.00  0.00    -0.550 OA
ATOM     11  O   UNL     1     -95.893 -27.651  85.965  1.00  0.00    -0.550 OA
ENDBRANCH   8   9
ENDBRANCH   7   8
ENDBRANCH   6   7
ENDBRANCH   5   6
ENDBRANCH   4   5
ENDBRANCH   3   4
ENDBRANCH   2   3
ENDBRANCH   1   2
BRANCH   1  12
ATOM     12  C   UNL     1     -98.607 -29.292  80.255  1.00  0.00     0.000 C 
BRANCH  12  13
ATOM     13  C   UNL     1     -99.800 -28.320  80.274  1.00  0.00    -0.000 C 
BRANCH  13  14
ATOM     14  C   UNL     1    -101.156 -29.046  80.267  1.00  0.00    -0.000 C 
BRANCH  14  15
ATOM     15  C   UNL     1    -101.026 -30.547  80.585  1.00  0.00    -0.000 C 
BRANCH  15  16
ATOM     16  C   UNL     1    -101.807 -30.957  81.845  1.00  0.00    -0.000 C 
BRANCH  16  17
ATOM     17  C   UNL     1    -102.159 -29.800  82.802  1.00  0.00    -0.000 C 
BRANCH  17  18
ATOM     18  C   UNL     1    -101.373 -29.830  84.129  1.00  0.00    -0.000 C 
BRANCH  18  19
ATOM     19  C   UNL     1    -100.025 -29.101  84.026  1.00  0.00    -0.003 C 
ATOM     20  C   UNL     1    -100.223 -27.600  83.835  1.00  0.00     0.004 C 
ENDBRANCH  18  19
ENDBRANCH  17  18
ENDBRANCH  16  17
ENDBRANCH  15  16
ENDBRANCH  14  15
ENDBRANCH  13  14
ENDBRANCH  12  13
ENDBRANCH   1  12
TORSDOF 16
ENDMDL
