MODEL 1
REMARK VINA RESULT:    -5.199      0.000      0.000
REMARK INTER + INTRA:          -7.939
REMARK INTER:                  -6.414
REMARK INTRA:                  -1.525
REMARK UNBOUND:                -1.525
REMARK SMILES CC(C)=CCC[C@H](C)c1ccc(C)cc1
REMARK SMILES IDX 6 1 7 2 8 3 9 4 13 5 12 6 11 7 14 8 10 9 15 10 5 11 4 12
REMARK SMILES IDX 2 13 1 14 3 15
REMARK H PARENT
REMARK Flexibility Score: inf
ROOT
ATOM      1  C   UNL     1     -11.067 -14.116  16.876  1.00  0.00     0.012 C 
ENDROOT
BRANCH   1   2
ATOM      2  C   UNL     1     -11.232 -12.945  15.882  1.00  0.00     0.016 C 
ATOM      3  C   UNL     1     -10.822 -13.324  14.448  1.00  0.00     0.013 C 
BRANCH   2   4
ATOM      4  C   UNL     1     -10.572 -11.667  16.380  1.00  0.00    -0.045 A 
ATOM      5  C   UNL     1      -8.659  -8.105  17.907  1.00  0.00     0.044 C 
ATOM      6  C   UNL     1      -9.295  -9.359  17.384  1.00  0.00    -0.051 A 
ATOM      7  C   UNL     1      -9.180  -9.698  16.029  1.00  0.00     0.004 A 
ATOM      8  C   UNL     1     -10.062 -10.170  18.232  1.00  0.00     0.004 A 
ATOM      9  C   UNL     1      -9.802 -10.847  15.531  1.00  0.00     0.004 A 
ATOM     10  C   UNL     1     -10.683 -11.319  17.738  1.00  0.00     0.004 A 
ENDBRANCH   2   4
ENDBRANCH   1   2
BRANCH   1  11
ATOM     11  C   UNL     1      -9.744 -14.889  16.741  1.00  0.00     0.028 C 
BRANCH  11  12
ATOM     12  C   UNL     1      -8.665 -14.245  17.577  1.00  0.00    -0.028 C 
ATOM     13  C   UNL     1      -7.559 -13.656  17.070  1.00  0.00    -0.080 C 
ATOM     14  C   UNL     1      -6.545 -13.087  18.030  1.00  0.00     0.039 C 
ATOM     15  C   UNL     1      -7.324 -13.538  15.582  1.00  0.00     0.039 C 
ENDBRANCH  11  12
ENDBRANCH   1  11
TORSDOF 4
ENDMDL
MODEL 2
REMARK VINA RESULT:    -5.157      1.220      4.006
REMARK INTER + INTRA:          -7.888
REMARK INTER:                  -6.376
REMARK INTRA:                  -1.512
REMARK UNBOUND:                -1.525
REMARK SMILES CC(C)=CCC[C@H](C)c1ccc(C)cc1
REMARK SMILES IDX 6 1 7 2 8 3 9 4 13 5 12 6 11 7 14 8 10 9 15 10 5 11 4 12
REMARK SMILES IDX 2 13 1 14 3 15
REMARK H PARENT
REMARK Flexibility Score: inf
ROOT
ATOM      1  C   UNL     1      -7.819  -9.736  15.838  1.00  0.00     0.012 C 
ENDROOT
BRANCH   1   2
ATOM      2  C   UNL     1      -9.264  -9.636  16.377  1.00  0.00     0.016 C 
ATOM      3  C   UNL     1      -9.334  -8.980  17.767  1.00  0.00     0.013 C 
BRANCH   2   4
ATOM      4  C   UNL     1     -10.001 -10.966  16.300  1.00  0.00    -0.045 A 
ATOM      5  C   UNL     1     -12.185 -14.694  16.171  1.00  0.00     0.044 C 
ATOM      6  C   UNL     1     -11.456 -13.383  16.211  1.00  0.00    -0.051 A 
ATOM      7  C   UNL     1     -10.954 -12.816  15.032  1.00  0.00     0.004 A 
ATOM      8  C   UNL     1     -11.217 -12.745  17.437  1.00  0.00     0.004 A 
ATOM      9  C   UNL     1     -10.243 -11.613  15.071  1.00  0.00     0.004 A 
ATOM     10  C   UNL     1     -10.508 -11.542  17.478  1.00  0.00     0.004 A 
ENDBRANCH   2   4
ENDBRANCH   1   2
BRANCH   1  11
ATOM     11  C   UNL     1      -6.975 -10.854  16.472  1.00  0.00     0.028 C 
BRANCH  11  12
ATOM     12  C   UNL     1      -6.571 -11.869  15.432  1.00  0.00    -0.028 C 
ATOM     13  C   UNL     1      -6.831 -13.193  15.519  1.00  0.00    -0.080 C 
ATOM     14  C   UNL     1      -6.331 -14.097  14.421  1.00  0.00     0.039 C 
ATOM     15  C   UNL     1      -7.616 -13.782  16.669  1.00  0.00     0.039 C 
ENDBRANCH  11  12
ENDBRANCH   1  11
TORSDOF 4
ENDMDL
MODEL 3
REMARK VINA RESULT:    -4.899      2.391      5.575
REMARK INTER + INTRA:          -7.569
REMARK INTER:                  -6.885
REMARK INTRA:                  -0.684
REMARK UNBOUND:                -1.525
REMARK SMILES CC(C)=CCC[C@H](C)c1ccc(C)cc1
REMARK SMILES IDX 6 1 7 2 8 3 9 4 13 5 12 6 11 7 14 8 10 9 15 10 5 11 4 12
REMARK SMILES IDX 2 13 1 14 3 15
REMARK H PARENT
REMARK Flexibility Score: inf
ROOT
ATOM      1  C   UNL     1      -7.507  -9.591  16.749  1.00  0.00     0.012 C 
ENDROOT
BRANCH   1   2
ATOM      2  C   UNL     1      -9.028  -9.354  16.888  1.00  0.00     0.016 C 
ATOM      3  C   UNL     1      -9.388  -8.539  18.142  1.00  0.00     0.013 C 
BRANCH   2   4
ATOM      4  C   UNL     1      -9.828 -10.642  16.755  1.00  0.00    -0.045 A 
ATOM      5  C   UNL     1     -12.003 -14.348  16.294  1.00  0.00     0.044 C 
ATOM      6  C   UNL     1     -11.219 -13.080  16.460  1.00  0.00    -0.051 A 
ATOM      7  C   UNL     1     -11.107 -12.478  17.721  1.00  0.00     0.004 A 
ATOM      8  C   UNL     1     -10.646 -12.452  15.345  1.00  0.00     0.004 A 
ATOM      9  C   UNL     1     -10.408 -11.277  17.872  1.00  0.00     0.004 A 
ATOM     10  C   UNL     1      -9.946 -11.252  15.494  1.00  0.00     0.004 A 
ENDBRANCH   2   4
ENDBRANCH   1   2
BRANCH   1  11
ATOM     11  C   UNL     1      -6.920  -9.197  15.383  1.00  0.00     0.028 C 
BRANCH  11  12
ATOM     12  C   UNL     1      -7.612  -7.970  14.842  1.00  0.00    -0.028 C 
ATOM     13  C   UNL     1      -7.046  -7.091  13.985  1.00  0.00    -0.080 C 
ATOM     14  C   UNL     1      -7.845  -5.887  13.559  1.00  0.00     0.039 C 
ATOM     15  C   UNL     1      -5.652  -7.293  13.436  1.00  0.00     0.039 C 
ENDBRANCH  11  12
ENDBRANCH   1  11
TORSDOF 4
ENDMDL
MODEL 4
REMARK VINA RESULT:    -4.865      2.024      5.154
REMARK INTER + INTRA:          -7.528
REMARK INTER:                  -6.410
REMARK INTRA:                  -1.118
REMARK UNBOUND:                -1.525
REMARK SMILES CC(C)=CCC[C@H](C)c1ccc(C)cc1
REMARK SMILES IDX 6 1 7 2 8 3 9 4 13 5 12 6 11 7 14 8 10 9 15 10 5 11 4 12
REMARK SMILES IDX 2 13 1 14 3 15
REMARK H PARENT
REMARK Flexibility Score: inf
ROOT
ATOM      1  C   UNL     1      -9.384  -8.661  18.009  1.00  0.00     0.012 C 
ENDROOT
BRANCH   1   2
ATOM      2  C   UNL     1      -9.367 -10.147  18.432  1.00  0.00     0.016 C 
ATOM      3  C   UNL     1      -7.956 -10.645  18.789  1.00  0.00     0.013 C 
BRANCH   2   4
ATOM      4  C   UNL     1     -10.086 -11.041  17.430  1.00  0.00    -0.045 A 
ATOM      5  C   UNL     1     -12.009 -13.596  14.524  1.00  0.00     0.044 C 
ATOM      6  C   UNL     1     -11.317 -12.733  15.537  1.00  0.00    -0.051 A 
ATOM      7  C   UNL     1     -11.650 -12.831  16.895  1.00  0.00     0.004 A 
ATOM      8  C   UNL     1     -10.377 -11.777  15.127  1.00  0.00     0.004 A 
ATOM      9  C   UNL     1     -11.034 -12.002  17.836  1.00  0.00     0.004 A 
ATOM     10  C   UNL     1      -9.758 -10.949  16.066  1.00  0.00     0.004 A 
ENDBRANCH   2   4
ENDBRANCH   1   2
BRANCH   1  11
ATOM     11  C   UNL     1      -7.995  -8.056  17.740  1.00  0.00     0.028 C 
BRANCH  11  12
ATOM     12  C   UNL     1      -7.910  -7.528  16.330  1.00  0.00    -0.028 C 
ATOM     13  C   UNL     1      -7.201  -8.114  15.339  1.00  0.00    -0.080 C 
ATOM     14  C   UNL     1      -7.176  -7.451  13.985  1.00  0.00     0.039 C 
ATOM     15  C   UNL     1      -6.456  -9.412  15.547  1.00  0.00     0.039 C 
ENDBRANCH  11  12
ENDBRANCH   1  11
TORSDOF 4
ENDMDL
MODEL 5
REMARK VINA RESULT:    -4.831      1.588      3.523
REMARK INTER + INTRA:          -7.485
REMARK INTER:                  -6.390
REMARK INTRA:                  -1.095
REMARK UNBOUND:                -1.525
REMARK SMILES CC(C)=CCC[C@H](C)c1ccc(C)cc1
REMARK SMILES IDX 6 1 7 2 8 3 9 4 13 5 12 6 11 7 14 8 10 9 15 10 5 11 4 12
REMARK SMILES IDX 2 13 1 14 3 15
REMARK H PARENT
REMARK Flexibility Score: inf
ROOT
ATOM      1  C   UNL     1      -7.434 -13.876  17.116  1.00  0.00     0.012 C 
ENDROOT
BRANCH   1   2
ATOM      2  C   UNL     1      -7.667 -13.343  15.684  1.00  0.00     0.016 C 
ATOM      3  C   UNL     1      -6.708 -13.968  14.656  1.00  0.00     0.013 C 
BRANCH   2   4
ATOM      4  C   UNL     1      -7.699 -11.822  15.632  1.00  0.00    -0.045 A 
ATOM      5  C   UNL     1      -7.689  -7.507  15.394  1.00  0.00     0.044 C 
ATOM      6  C   UNL     1      -7.693  -9.006  15.443  1.00  0.00    -0.051 A 
ATOM      7  C   UNL     1      -8.905  -9.709  15.492  1.00  0.00     0.004 A 
ATOM      8  C   UNL     1      -6.485  -9.714  15.504  1.00  0.00     0.004 A 
ATOM      9  C   UNL     1      -8.911 -11.104  15.573  1.00  0.00     0.004 A 
ATOM     10  C   UNL     1      -6.488 -11.109  15.584  1.00  0.00     0.004 A 
ENDBRANCH   2   4
ENDBRANCH   1   2
BRANCH   1  11
ATOM     11  C   UNL     1      -8.713 -14.038  17.955  1.00  0.00     0.028 C 
BRANCH  11  12
ATOM     12  C   UNL     1      -9.845 -14.554  17.102  1.00  0.00    -0.028 C 
ATOM     13  C   UNL     1     -11.053 -13.957  16.995  1.00  0.00    -0.080 C 
ATOM     14  C   UNL     1     -12.104 -14.610  16.134  1.00  0.00     0.039 C 
ATOM     15  C   UNL     1     -11.367 -12.655  17.696  1.00  0.00     0.039 C 
ENDBRANCH  11  12
ENDBRANCH   1  11
TORSDOF 4
ENDMDL
MODEL 6
REMARK VINA RESULT:    -4.725     10.735     13.143
REMARK INTER + INTRA:          -7.355
REMARK INTER:                  -6.352
REMARK INTRA:                  -1.003
REMARK UNBOUND:                -1.525
REMARK SMILES CC(C)=CCC[C@H](C)c1ccc(C)cc1
REMARK SMILES IDX 6 1 7 2 8 3 9 4 13 5 12 6 11 7 14 8 10 9 15 10 5 11 4 12
REMARK SMILES IDX 2 13 1 14 3 15
REMARK H PARENT
REMARK Flexibility Score: inf
ROOT
ATOM      1  C   UNL     1     -19.128 -19.169  19.604  1.00  0.00     0.012 C 
ENDROOT
BRANCH   1   2
ATOM      2  C   UNL     1     -20.375 -19.887  19.041  1.00  0.00     0.016 C 
ATOM      3  C   UNL     1     -20.028 -20.896  17.933  1.00  0.00     0.013 C 
BRANCH   2   4
ATOM      4  C   UNL     1     -21.474 -18.911  18.646  1.00  0.00    -0.045 A 
ATOM      5  C   UNL     1     -24.616 -16.212  17.411  1.00  0.00     0.044 C 
ATOM      6  C   UNL     1     -23.546 -17.175  17.833  1.00  0.00    -0.051 A 
ATOM      7  C   UNL     1     -23.440 -17.571  19.174  1.00  0.00     0.004 A 
ATOM      8  C   UNL     1     -22.605 -17.639  16.903  1.00  0.00     0.004 A 
ATOM      9  C   UNL     1     -22.422 -18.440  19.577  1.00  0.00     0.004 A 
ATOM     10  C   UNL     1     -21.588 -18.508  17.304  1.00  0.00     0.004 A 
ENDBRANCH   2   4
ENDBRANCH   1   2
BRANCH   1  11
ATOM     11  C   UNL     1     -17.824 -19.458  18.841  1.00  0.00     0.028 C 
BRANCH  11  12
ATOM     12  C   UNL     1     -17.191 -18.173  18.366  1.00  0.00    -0.028 C 
ATOM     13  C   UNL     1     -17.257 -17.715  17.096  1.00  0.00    -0.080 C 
ATOM     14  C   UNL     1     -16.542 -16.433  16.757  1.00  0.00     0.039 C 
ATOM     15  C   UNL     1     -18.036 -18.440  16.023  1.00  0.00     0.039 C 
ENDBRANCH  11  12
ENDBRANCH   1  11
TORSDOF 4
ENDMDL
MODEL 7
REMARK VINA RESULT:    -4.654      1.396      2.109
REMARK INTER + INTRA:          -7.267
REMARK INTER:                  -5.882
REMARK INTRA:                  -1.385
REMARK UNBOUND:                -1.525
REMARK SMILES CC(C)=CCC[C@H](C)c1ccc(C)cc1
REMARK SMILES IDX 6 1 7 2 8 3 9 4 13 5 12 6 11 7 14 8 10 9 15 10 5 11 4 12
REMARK SMILES IDX 2 13 1 14 3 15
REMARK H PARENT
REMARK Flexibility Score: inf
ROOT
ATOM      1  C   UNL     1     -10.025 -13.458  17.559  1.00  0.00     0.012 C 
ENDROOT
BRANCH   1   2
ATOM      2  C   UNL     1     -10.527 -12.104  18.110  1.00  0.00     0.016 C 
ATOM      3  C   UNL     1     -12.062 -12.013  18.148  1.00  0.00     0.013 C 
BRANCH   2   4
ATOM      4  C   UNL     1      -9.869 -10.919  17.416  1.00  0.00    -0.045 A 
ATOM      5  C   UNL     1      -7.933  -7.530  15.561  1.00  0.00     0.044 C 
ATOM      6  C   UNL     1      -8.575  -8.717  16.216  1.00  0.00    -0.051 A 
ATOM      7  C   UNL     1      -8.746  -9.911  15.503  1.00  0.00     0.004 A 
ATOM      8  C   UNL     1      -9.065  -8.622  17.526  1.00  0.00     0.004 A 
ATOM      9  C   UNL     1      -9.376 -11.007  16.098  1.00  0.00     0.004 A 
ATOM     10  C   UNL     1      -9.694  -9.717  18.124  1.00  0.00     0.004 A 
ENDBRANCH   2   4
ENDBRANCH   1   2
BRANCH   1  11
ATOM     11  C   UNL     1      -8.779 -14.015  18.268  1.00  0.00     0.028 C 
BRANCH  11  12
ATOM     12  C   UNL     1      -7.577 -13.952  17.359  1.00  0.00    -0.028 C 
ATOM     13  C   UNL     1      -6.597 -13.026  17.455  1.00  0.00    -0.080 C 
ATOM     14  C   UNL     1      -5.474 -13.062  16.450  1.00  0.00     0.039 C 
ATOM     15  C   UNL     1      -6.590 -11.978  18.544  1.00  0.00     0.039 C 
ENDBRANCH  11  12
ENDBRANCH   1  11
TORSDOF 4
ENDMDL
MODEL 8
REMARK VINA RESULT:    -4.529      1.216      4.217
REMARK INTER + INTRA:          -7.113
REMARK INTER:                  -5.754
REMARK INTRA:                  -1.359
REMARK UNBOUND:                -1.525
REMARK SMILES CC(C)=CCC[C@H](C)c1ccc(C)cc1
REMARK SMILES IDX 6 1 7 2 8 3 9 4 13 5 12 6 11 7 14 8 10 9 15 10 5 11 4 12
REMARK SMILES IDX 2 13 1 14 3 15
REMARK H PARENT
REMARK Flexibility Score: inf
ROOT
ATOM      1  C   UNL     1     -11.269 -11.258  18.119  1.00  0.00     0.012 C 
ENDROOT
BRANCH   1   2
ATOM      2  C   UNL     1      -9.822 -10.851  18.474  1.00  0.00     0.016 C 
ATOM      3  C   UNL     1      -9.613  -9.327  18.454  1.00  0.00     0.013 C 
BRANCH   2   4
ATOM      4  C   UNL     1      -8.790 -11.613  17.654  1.00  0.00    -0.045 A 
ATOM      5  C   UNL     1      -5.818 -13.656  15.274  1.00  0.00     0.044 C 
ATOM      6  C   UNL     1      -6.826 -12.925  16.110  1.00  0.00    -0.051 A 
ATOM      7  C   UNL     1      -7.062 -13.317  17.435  1.00  0.00     0.004 A 
ATOM      8  C   UNL     1      -7.584 -11.885  15.555  1.00  0.00     0.004 A 
ATOM      9  C   UNL     1      -8.026 -12.661  18.206  1.00  0.00     0.004 A 
ATOM     10  C   UNL     1      -8.547 -11.227  16.324  1.00  0.00     0.004 A 
ENDBRANCH   2   4
ENDBRANCH   1   2
BRANCH   1  11
ATOM     11  C   UNL     1     -11.450 -12.748  17.782  1.00  0.00     0.028 C 
BRANCH  11  12
ATOM     12  C   UNL     1     -11.616 -12.939  16.295  1.00  0.00    -0.028 C 
ATOM     13  C   UNL     1     -11.007 -13.912  15.579  1.00  0.00    -0.080 C 
ATOM     14  C   UNL     1     -11.236 -13.957  14.090  1.00  0.00     0.039 C 
ATOM     15  C   UNL     1     -10.127 -14.953  16.230  1.00  0.00     0.039 C 
ENDBRANCH  11  12
ENDBRANCH   1  11
TORSDOF 4
ENDMDL
MODEL 9
REMARK VINA RESULT:    -4.457      1.551      4.953
REMARK INTER + INTRA:          -7.024
REMARK INTER:                  -6.014
REMARK INTRA:                  -1.011
REMARK UNBOUND:                -1.525
REMARK SMILES CC(C)=CCC[C@H](C)c1ccc(C)cc1
REMARK SMILES IDX 6 1 7 2 8 3 9 4 13 5 12 6 11 7 14 8 10 9 15 10 5 11 4 12
REMARK SMILES IDX 2 13 1 14 3 15
REMARK H PARENT
REMARK Flexibility Score: inf
ROOT
ATOM      1  C   UNL     1      -7.936  -9.836  15.511  1.00  0.00     0.012 C 
ENDROOT
BRANCH   1   2
ATOM      2  C   UNL     1      -7.668 -11.206  16.174  1.00  0.00     0.016 C 
ATOM      3  C   UNL     1      -6.363 -11.856  15.684  1.00  0.00     0.013 C 
BRANCH   2   4
ATOM      4  C   UNL     1      -8.873 -12.133  16.091  1.00  0.00    -0.045 A 
ATOM      5  C   UNL     1     -12.348 -14.699  15.959  1.00  0.00     0.044 C 
ATOM      6  C   UNL     1     -11.162 -13.781  16.006  1.00  0.00    -0.051 A 
ATOM      7  C   UNL     1     -10.597 -13.295  14.820  1.00  0.00     0.004 A 
ATOM      8  C   UNL     1     -10.571 -13.453  17.234  1.00  0.00     0.004 A 
ATOM      9  C   UNL     1      -9.470 -12.468  14.859  1.00  0.00     0.004 A 
ATOM     10  C   UNL     1      -9.446 -12.626  17.276  1.00  0.00     0.004 A 
ENDBRANCH   2   4
ENDBRANCH   1   2
BRANCH   1  11
ATOM     11  C   UNL     1      -9.100  -9.043  16.129  1.00  0.00     0.028 C 
BRANCH  11  12
ATOM     12  C   UNL     1      -8.634  -8.274  17.341  1.00  0.00    -0.028 C 
ATOM     13  C   UNL     1      -9.107  -8.464  18.592  1.00  0.00    -0.080 C 
ATOM     14  C   UNL     1      -8.575  -7.593  19.702  1.00  0.00     0.039 C 
ATOM     15  C   UNL     1     -10.133  -9.529  18.907  1.00  0.00     0.039 C 
ENDBRANCH  11  12
ENDBRANCH   1  11
TORSDOF 4
ENDMDL
