MODEL 1
REMARK VINA RESULT:    -0.337      0.000      0.000
REMARK INTER + INTRA:          -0.651
REMARK INTER:                  -0.357
REMARK INTRA:                  -0.294
REMARK UNBOUND:                -0.294
REMARK SMILES CC1=CC[C@@H]2[C@H]3[C@H](C(C)C)CC[C@]2(C)[C@@H]13
REMARK SMILES IDX 1 1 2 2 3 3 4 4 5 5 6 6 15 7 13 8 12 9 11 10 7 11 14 12 8 13
REMARK SMILES IDX 9 14 10 15
REMARK H PARENT
REMARK Flexibility Score: inf
ROOT
ATOM      1  C   UNL     1     153.234 139.130 164.731  1.00  0.00     0.039 C 
ATOM      2  C   UNL     1     153.588 138.270 163.555  1.00  0.00    -0.073 C 
ATOM      3  C   UNL     1     154.817 138.332 162.980  1.00  0.00    -0.027 C 
ATOM      4  C   UNL     1     155.125 137.416 161.792  1.00  0.00     0.031 C 
ATOM      5  C   UNL     1     153.872 136.556 161.426  1.00  0.00     0.003 C 
ATOM      6  C   UNL     1     152.649 137.503 161.399  1.00  0.00     0.004 C 
ATOM      7  C   UNL     1     152.577 137.300 162.935  1.00  0.00     0.024 C 
ATOM      8  C   UNL     1     153.234 135.920 162.686  1.00  0.00    -0.022 C 
ATOM      9  C   UNL     1     152.163 134.875 162.240  1.00  0.00     0.008 C 
ATOM     10  C   UNL     1     151.018 135.515 161.409  1.00  0.00     0.005 C 
ATOM     11  C   UNL     1     151.469 136.803 160.656  1.00  0.00    -0.005 C 
ATOM     12  C   UNL     1     154.164 135.329 163.771  1.00  0.00     0.012 C 
ENDROOT
BRANCH  11  13
ATOM     13  C   UNL     1     150.271 137.751 160.337  1.00  0.00    -0.014 C 
ATOM     14  C   UNL     1     150.549 139.231 160.649  1.00  0.00     0.007 C 
ATOM     15  C   UNL     1     149.812 137.602 158.878  1.00  0.00     0.007 C 
ENDBRANCH  11  13
TORSDOF 1
ENDMDL
MODEL 2
REMARK VINA RESULT:     0.480      0.822      4.274
REMARK INTER + INTRA:           0.214
REMARK INTER:                   0.445
REMARK INTRA:                  -0.232
REMARK UNBOUND:                -0.294
REMARK SMILES CC1=CC[C@@H]2[C@H]3[C@H](C(C)C)CC[C@]2(C)[C@@H]13
REMARK SMILES IDX 1 1 2 2 3 3 4 4 5 5 6 6 15 7 13 8 12 9 11 10 7 11 14 12 8 13
REMARK SMILES IDX 9 14 10 15
REMARK H PARENT
REMARK Flexibility Score: inf
ROOT
ATOM      1  C   UNL     1     150.659 137.721 160.083  1.00  0.00     0.039 C 
ATOM      2  C   UNL     1     151.386 136.891 161.098  1.00  0.00    -0.073 C 
ATOM      3  C   UNL     1     150.908 135.684 161.496  1.00  0.00    -0.027 C 
ATOM      4  C   UNL     1     151.704 134.875 162.525  1.00  0.00     0.031 C 
ATOM      5  C   UNL     1     152.978 135.664 162.971  1.00  0.00     0.003 C 
ATOM      6  C   UNL     1     152.543 137.118 163.272  1.00  0.00     0.004 C 
ATOM      7  C   UNL     1     152.685 137.375 161.749  1.00  0.00     0.024 C 
ATOM      8  C   UNL     1     153.742 136.243 161.755  1.00  0.00    -0.022 C 
ATOM      9  C   UNL     1     155.125 136.785 162.235  1.00  0.00     0.008 C 
ATOM     10  C   UNL     1     154.987 137.922 163.284  1.00  0.00     0.005 C 
ATOM     11  C   UNL     1     153.660 137.830 164.097  1.00  0.00    -0.005 C 
ATOM     12  C   UNL     1     153.902 135.364 160.492  1.00  0.00     0.012 C 
ENDROOT
BRANCH  11  13
ATOM     13  C   UNL     1     153.230 139.212 164.682  1.00  0.00    -0.014 C 
ATOM     14  C   UNL     1     154.051 139.652 165.906  1.00  0.00     0.007 C 
ATOM     15  C   UNL     1     153.265 140.310 163.608  1.00  0.00     0.007 C 
ENDBRANCH  11  13
TORSDOF 1
ENDMDL
MODEL 3
REMARK VINA RESULT:     2.367     19.449     22.259
REMARK INTER + INTRA:           2.212
REMARK INTER:                   2.463
REMARK INTRA:                  -0.251
REMARK UNBOUND:                -0.294
REMARK SMILES CC1=CC[C@@H]2[C@H]3[C@H](C(C)C)CC[C@]2(C)[C@@H]13
REMARK SMILES IDX 1 1 2 2 3 3 4 4 5 5 6 6 15 7 13 8 12 9 11 10 7 11 14 12 8 13
REMARK SMILES IDX 9 14 10 15
REMARK H PARENT
REMARK Flexibility Score: inf
ROOT
ATOM      1  C   UNL     1     138.150 152.061 165.867  1.00  0.00     0.039 C 
ATOM      2  C   UNL     1     137.341 152.151 164.607  1.00  0.00    -0.073 C 
ATOM      3  C   UNL     1     136.371 151.243 164.326  1.00  0.00    -0.027 C 
ATOM      4  C   UNL     1     135.567 151.397 163.031  1.00  0.00     0.031 C 
ATOM      5  C   UNL     1     136.077 152.629 162.216  1.00  0.00     0.003 C 
ATOM      6  C   UNL     1     137.622 152.559 162.184  1.00  0.00     0.004 C 
ATOM      7  C   UNL     1     137.586 153.252 163.571  1.00  0.00     0.024 C 
ATOM      8  C   UNL     1     136.244 153.877 163.117  1.00  0.00    -0.022 C 
ATOM      9  C   UNL     1     136.496 155.125 162.215  1.00  0.00     0.008 C 
ATOM     10  C   UNL     1     137.786 154.991 161.361  1.00  0.00     0.005 C 
ATOM     11  C   UNL     1     138.159 153.506 161.066  1.00  0.00    -0.005 C 
ATOM     12  C   UNL     1     135.161 154.174 164.181  1.00  0.00     0.012 C 
ENDROOT
BRANCH  11  13
ATOM     13  C   UNL     1     139.680 153.328 160.764  1.00  0.00    -0.014 C 
ATOM     14  C   UNL     1     140.140 151.861 160.732  1.00  0.00     0.007 C 
ATOM     15  C   UNL     1     140.076 154.028 159.454  1.00  0.00     0.007 C 
ENDBRANCH  11  13
TORSDOF 1
ENDMDL
