MODEL 1
REMARK VINA RESULT:    -3.767      0.000      0.000
REMARK INTER + INTRA:          -5.494
REMARK INTER:                  -5.089
REMARK INTRA:                  -0.405
REMARK UNBOUND:                -0.405
REMARK SMILES CCCCCCC=CC(=O)[O-]
REMARK SMILES IDX 5 1 6 2 7 3 8 4 9 5 10 6 11 7 4 8 3 9 2 10 1 11
REMARK H PARENT
REMARK Flexibility Score: inf
ROOT
ATOM      1  C   UNL     1      -8.373  16.016 -12.189  1.00  0.00     0.004 C 
ENDROOT
BRANCH   1   2
ATOM      2  C   UNL     1      -8.599  16.561 -13.608  1.00  0.00     0.027 C 
BRANCH   2   3
ATOM      3  C   UNL     1      -7.871  17.858 -13.813  1.00  0.00    -0.025 C 
ATOM      4  C   UNL     1      -8.095  18.918 -13.030  1.00  0.00     0.020 C 
BRANCH   4   5
ATOM      5  C   UNL     1      -7.379  20.189 -13.213  1.00  0.00     0.064 C 
ATOM      6  O   UNL     1      -6.591  20.593 -12.320  1.00  0.00    -0.545 OA
ATOM      7  O   UNL     1      -7.559  20.954 -14.361  1.00  0.00    -0.545 OA
ENDBRANCH   4   5
ENDBRANCH   2   3
ENDBRANCH   1   2
BRANCH   1   8
ATOM      8  C   UNL     1      -7.550  14.715 -12.192  1.00  0.00     0.000 C 
BRANCH   8   9
ATOM      9  C   UNL     1      -7.117  14.271 -13.607  1.00  0.00    -0.000 C 
BRANCH   9  10
ATOM     10  C   UNL     1      -7.617  12.867 -13.988  1.00  0.00    -0.003 C 
ATOM     11  C   UNL     1      -8.720  12.897 -15.044  1.00  0.00     0.004 C 
ENDBRANCH   9  10
ENDBRANCH   8   9
ENDBRANCH   1   8
TORSDOF 6
ENDMDL
MODEL 2
REMARK VINA RESULT:    -3.679      0.995      1.431
REMARK INTER + INTRA:          -5.375
REMARK INTER:                  -5.110
REMARK INTRA:                  -0.265
REMARK UNBOUND:                -0.405
REMARK SMILES CCCCCCC=CC(=O)[O-]
REMARK SMILES IDX 5 1 6 2 7 3 8 4 9 5 10 6 11 7 4 8 3 9 2 10 1 11
REMARK H PARENT
REMARK Flexibility Score: inf
ROOT
ATOM      1  C   UNL     1      -7.997  15.643 -12.997  1.00  0.00     0.004 C 
ENDROOT
BRANCH   1   2
ATOM      2  C   UNL     1      -9.137  16.609 -12.639  1.00  0.00     0.027 C 
BRANCH   2   3
ATOM      3  C   UNL     1      -8.637  18.021 -12.526  1.00  0.00    -0.025 C 
ATOM      4  C   UNL     1      -7.895  18.579 -13.487  1.00  0.00     0.020 C 
BRANCH   4   5
ATOM      5  C   UNL     1      -7.410  19.964 -13.395  1.00  0.00     0.064 C 
ATOM      6  O   UNL     1      -6.768  20.331 -12.378  1.00  0.00    -0.545 OA
ATOM      7  O   UNL     1      -7.651  20.876 -14.416  1.00  0.00    -0.545 OA
ENDBRANCH   4   5
ENDBRANCH   2   3
ENDBRANCH   1   2
BRANCH   1   8
ATOM      8  C   UNL     1      -8.122  15.105 -14.434  1.00  0.00     0.000 C 
BRANCH   8   9
ATOM      9  C   UNL     1      -8.234  13.565 -14.501  1.00  0.00    -0.000 C 
BRANCH   9  10
ATOM     10  C   UNL     1      -7.251  12.839 -13.567  1.00  0.00    -0.003 C 
ATOM     11  C   UNL     1      -5.835  12.771 -14.133  1.00  0.00     0.004 C 
ENDBRANCH   9  10
ENDBRANCH   8   9
ENDBRANCH   1   8
TORSDOF 6
ENDMDL
MODEL 3
REMARK VINA RESULT:    -3.507      3.602      5.149
REMARK INTER + INTRA:          -5.143
REMARK INTER:                  -4.402
REMARK INTRA:                  -0.741
REMARK UNBOUND:                -0.405
REMARK SMILES CCCCCCC=CC(=O)[O-]
REMARK SMILES IDX 5 1 6 2 7 3 8 4 9 5 10 6 11 7 4 8 3 9 2 10 1 11
REMARK H PARENT
REMARK Flexibility Score: inf
ROOT
ATOM      1  C   UNL     1      -8.330  18.058 -12.939  1.00  0.00     0.004 C 
ENDROOT
BRANCH   1   2
ATOM      2  C   UNL     1      -9.026  16.765 -12.483  1.00  0.00     0.027 C 
BRANCH   2   3
ATOM      3  C   UNL     1      -8.437  15.563 -13.164  1.00  0.00    -0.025 C 
ATOM      4  C   UNL     1      -7.575  14.756 -12.536  1.00  0.00     0.020 C 
BRANCH   4   5
ATOM      5  C   UNL     1      -7.001  13.570 -13.187  1.00  0.00     0.064 C 
ATOM      6  O   UNL     1      -7.746  12.803 -13.851  1.00  0.00    -0.545 OA
ATOM      7  O   UNL     1      -5.645  13.280 -13.081  1.00  0.00    -0.545 OA
ENDBRANCH   4   5
ENDBRANCH   2   3
ENDBRANCH   1   2
BRANCH   1   8
ATOM      8  C   UNL     1      -7.957  18.021 -14.432  1.00  0.00     0.000 C 
BRANCH   8   9
ATOM      9  C   UNL     1      -6.523  18.525 -14.714  1.00  0.00    -0.000 C 
BRANCH   9  10
ATOM     10  C   UNL     1      -5.432  17.676 -14.040  1.00  0.00    -0.003 C 
ATOM     11  C   UNL     1      -5.105  16.404 -14.818  1.00  0.00     0.004 C 
ENDBRANCH   9  10
ENDBRANCH   8   9
ENDBRANCH   1   8
TORSDOF 6
ENDMDL
MODEL 4
REMARK VINA RESULT:    -3.484      3.481      5.908
REMARK INTER + INTRA:          -5.111
REMARK INTER:                  -4.776
REMARK INTRA:                  -0.335
REMARK UNBOUND:                -0.405
REMARK SMILES CCCCCCC=CC(=O)[O-]
REMARK SMILES IDX 5 1 6 2 7 3 8 4 9 5 10 6 11 7 4 8 3 9 2 10 1 11
REMARK H PARENT
REMARK Flexibility Score: inf
ROOT
ATOM      1  C   UNL     1      -8.444  18.067 -12.764  1.00  0.00     0.004 C 
ENDROOT
BRANCH   1   2
ATOM      2  C   UNL     1      -9.034  16.681 -12.458  1.00  0.00     0.027 C 
BRANCH   2   3
ATOM      3  C   UNL     1      -8.273  15.598 -13.166  1.00  0.00    -0.025 C 
ATOM      4  C   UNL     1      -7.654  14.623 -12.493  1.00  0.00     0.020 C 
BRANCH   4   5
ATOM      5  C   UNL     1      -6.916  13.550 -13.176  1.00  0.00     0.064 C 
ATOM      6  O   UNL     1      -7.469  12.909 -14.106  1.00  0.00    -0.545 OA
ATOM      7  O   UNL     1      -5.613  13.231 -12.809  1.00  0.00    -0.545 OA
ENDBRANCH   4   5
ENDBRANCH   2   3
ENDBRANCH   1   2
BRANCH   1   8
ATOM      8  C   UNL     1      -7.902  18.162 -14.202  1.00  0.00     0.000 C 
BRANCH   8   9
ATOM      9  C   UNL     1      -7.200  19.505 -14.502  1.00  0.00    -0.000 C 
BRANCH   9  10
ATOM     10  C   UNL     1      -7.167  20.461 -13.297  1.00  0.00    -0.003 C 
ATOM     11  C   UNL     1      -5.754  20.921 -12.944  1.00  0.00     0.004 C 
ENDBRANCH   9  10
ENDBRANCH   8   9
ENDBRANCH   1   8
TORSDOF 6
ENDMDL
MODEL 5
REMARK VINA RESULT:    -3.266      2.376      2.997
REMARK INTER + INTRA:          -4.816
REMARK INTER:                  -4.543
REMARK INTRA:                  -0.273
REMARK UNBOUND:                -0.405
REMARK SMILES CCCCCCC=CC(=O)[O-]
REMARK SMILES IDX 5 1 6 2 7 3 8 4 9 5 10 6 11 7 4 8 3 9 2 10 1 11
REMARK H PARENT
REMARK Flexibility Score: inf
ROOT
ATOM      1  C   UNL     1      -4.883  15.391 -15.006  1.00  0.00     0.004 C 
ENDROOT
BRANCH   1   2
ATOM      2  C   UNL     1      -5.378  16.844 -15.089  1.00  0.00     0.027 C 
BRANCH   2   3
ATOM      3  C   UNL     1      -6.319  17.162 -13.963  1.00  0.00    -0.025 C 
ATOM      4  C   UNL     1      -7.640  17.001 -14.088  1.00  0.00     0.020 C 
BRANCH   4   5
ATOM      5  C   UNL     1      -8.570  17.297 -12.989  1.00  0.00     0.064 C 
ATOM      6  O   UNL     1      -8.261  18.159 -12.127  1.00  0.00    -0.545 OA
ATOM      7  O   UNL     1      -9.791  16.638 -12.887  1.00  0.00    -0.545 OA
ENDBRANCH   4   5
ENDBRANCH   2   3
ENDBRANCH   1   2
BRANCH   1   8
ATOM      8  C   UNL     1      -6.036  14.378 -15.125  1.00  0.00     0.000 C 
BRANCH   8   9
ATOM      9  C   UNL     1      -6.082  13.366 -13.958  1.00  0.00    -0.000 C 
BRANCH   9  10
ATOM     10  C   UNL     1      -7.503  12.886 -13.619  1.00  0.00    -0.003 C 
ATOM     11  C   UNL     1      -8.490  13.100 -14.763  1.00  0.00     0.004 C 
ENDBRANCH   9  10
ENDBRANCH   8   9
ENDBRANCH   1   8
TORSDOF 6
ENDMDL
MODEL 6
REMARK VINA RESULT:    -3.169      1.560      2.644
REMARK INTER + INTRA:          -4.685
REMARK INTER:                  -3.989
REMARK INTRA:                  -0.697
REMARK UNBOUND:                -0.405
REMARK SMILES CCCCCCC=CC(=O)[O-]
REMARK SMILES IDX 5 1 6 2 7 3 8 4 9 5 10 6 11 7 4 8 3 9 2 10 1 11
REMARK H PARENT
REMARK Flexibility Score: inf
ROOT
ATOM      1  C   UNL     1      -5.768  15.386 -14.721  1.00  0.00     0.004 C 
ENDROOT
BRANCH   1   2
ATOM      2  C   UNL     1      -5.291  16.791 -15.125  1.00  0.00     0.027 C 
BRANCH   2   3
ATOM      3  C   UNL     1      -6.325  17.829 -14.798  1.00  0.00    -0.025 C 
ATOM      4  C   UNL     1      -6.077  18.814 -13.929  1.00  0.00     0.020 C 
BRANCH   4   5
ATOM      5  C   UNL     1      -7.077  19.844 -13.610  1.00  0.00     0.064 C 
ATOM      6  O   UNL     1      -7.104  20.349 -12.458  1.00  0.00    -0.545 OA
ATOM      7  O   UNL     1      -7.994  20.271 -14.564  1.00  0.00    -0.545 OA
ENDBRANCH   4   5
ENDBRANCH   2   3
ENDBRANCH   1   2
BRANCH   1   8
ATOM      8  C   UNL     1      -7.295  15.322 -14.539  1.00  0.00     0.000 C 
BRANCH   8   9
ATOM      9  C   UNL     1      -7.722  14.706 -13.187  1.00  0.00    -0.000 C 
BRANCH   9  10
ATOM     10  C   UNL     1      -7.995  15.754 -12.095  1.00  0.00    -0.003 C 
ATOM     11  C   UNL     1      -9.054  16.775 -12.506  1.00  0.00     0.004 C 
ENDBRANCH   9  10
ENDBRANCH   8   9
ENDBRANCH   1   8
TORSDOF 6
ENDMDL
MODEL 7
REMARK VINA RESULT:    -3.123      3.589      5.277
REMARK INTER + INTRA:          -4.624
REMARK INTER:                  -3.924
REMARK INTRA:                  -0.700
REMARK UNBOUND:                -0.405
REMARK SMILES CCCCCCC=CC(=O)[O-]
REMARK SMILES IDX 5 1 6 2 7 3 8 4 9 5 10 6 11 7 4 8 3 9 2 10 1 11
REMARK H PARENT
REMARK Flexibility Score: inf
ROOT
ATOM      1  C   UNL     1      -5.956  17.862 -14.044  1.00  0.00     0.004 C 
ENDROOT
BRANCH   1   2
ATOM      2  C   UNL     1      -5.476  16.689 -14.914  1.00  0.00     0.027 C 
BRANCH   2   3
ATOM      3  C   UNL     1      -6.528  15.623 -15.016  1.00  0.00    -0.025 C 
ATOM      4  C   UNL     1      -6.677  14.693 -14.067  1.00  0.00     0.020 C 
BRANCH   4   5
ATOM      5  C   UNL     1      -7.711  13.652 -14.149  1.00  0.00     0.064 C 
ATOM      6  O   UNL     1      -7.494  12.518 -13.650  1.00  0.00    -0.545 OA
ATOM      7  O   UNL     1      -8.930  13.901 -14.771  1.00  0.00    -0.545 OA
ENDBRANCH   4   5
ENDBRANCH   2   3
ENDBRANCH   1   2
BRANCH   1   8
ATOM      8  C   UNL     1      -7.338  18.379 -14.480  1.00  0.00     0.000 C 
BRANCH   8   9
ATOM      9  C   UNL     1      -8.208  18.863 -13.298  1.00  0.00    -0.000 C 
BRANCH   9  10
ATOM     10  C   UNL     1      -8.431  17.788 -12.220  1.00  0.00    -0.003 C 
ATOM     11  C   UNL     1      -9.397  16.693 -12.666  1.00  0.00     0.004 C 
ENDBRANCH   9  10
ENDBRANCH   8   9
ENDBRANCH   1   8
TORSDOF 6
ENDMDL
MODEL 8
REMARK VINA RESULT:    -2.806      3.338      5.677
REMARK INTER + INTRA:          -4.195
REMARK INTER:                  -3.732
REMARK INTRA:                  -0.463
REMARK UNBOUND:                -0.405
REMARK SMILES CCCCCCC=CC(=O)[O-]
REMARK SMILES IDX 5 1 6 2 7 3 8 4 9 5 10 6 11 7 4 8 3 9 2 10 1 11
REMARK H PARENT
REMARK Flexibility Score: inf
ROOT
ATOM      1  C   UNL     1      -4.875  18.472 -13.907  1.00  0.00     0.004 C 
ENDROOT
BRANCH   1   2
ATOM      2  C   UNL     1      -5.077  17.486 -15.069  1.00  0.00     0.027 C 
BRANCH   2   3
ATOM      3  C   UNL     1      -5.700  16.205 -14.592  1.00  0.00    -0.025 C 
ATOM      4  C   UNL     1      -6.863  16.195 -13.934  1.00  0.00     0.020 C 
BRANCH   4   5
ATOM      5  C   UNL     1      -7.489  14.947 -13.473  1.00  0.00     0.064 C 
ATOM      6  O   UNL     1      -8.621  14.619 -13.913  1.00  0.00    -0.545 OA
ATOM      7  O   UNL     1      -6.848  14.121 -12.556  1.00  0.00    -0.545 OA
ENDBRANCH   4   5
ENDBRANCH   2   3
ENDBRANCH   1   2
BRANCH   1   8
ATOM      8  C   UNL     1      -4.998  19.937 -14.361  1.00  0.00     0.000 C 
BRANCH   8   9
ATOM      9  C   UNL     1      -6.457  20.444 -14.398  1.00  0.00    -0.000 C 
BRANCH   9  10
ATOM     10  C   UNL     1      -7.170  20.357 -13.037  1.00  0.00    -0.003 C 
ATOM     11  C   UNL     1      -8.223  19.254 -12.989  1.00  0.00     0.004 C 
ENDBRANCH   9  10
ENDBRANCH   8   9
ENDBRANCH   1   8
TORSDOF 6
ENDMDL
MODEL 9
REMARK VINA RESULT:    -2.729      1.797      2.369
REMARK INTER + INTRA:          -4.092
REMARK INTER:                  -3.830
REMARK INTRA:                  -0.262
REMARK UNBOUND:                -0.405
REMARK SMILES CCCCCCC=CC(=O)[O-]
REMARK SMILES IDX 5 1 6 2 7 3 8 4 9 5 10 6 11 7 4 8 3 9 2 10 1 11
REMARK H PARENT
REMARK Flexibility Score: inf
ROOT
ATOM      1  C   UNL     1      -5.961  15.753 -14.883  1.00  0.00     0.004 C 
ENDROOT
BRANCH   1   2
ATOM      2  C   UNL     1      -4.885  16.845 -14.770  1.00  0.00     0.027 C 
BRANCH   2   3
ATOM      3  C   UNL     1      -5.368  18.000 -13.940  1.00  0.00    -0.025 C 
ATOM      4  C   UNL     1      -5.749  19.153 -14.500  1.00  0.00     0.020 C 
BRANCH   4   5
ATOM      5  C   UNL     1      -6.236  20.285 -13.699  1.00  0.00     0.064 C 
ATOM      6  O   UNL     1      -7.199  20.976 -14.121  1.00  0.00    -0.545 OA
ATOM      7  O   UNL     1      -5.648  20.607 -12.480  1.00  0.00    -0.545 OA
ENDBRANCH   4   5
ENDBRANCH   2   3
ENDBRANCH   1   2
BRANCH   1   8
ATOM      8  C   UNL     1      -7.058  15.907 -13.814  1.00  0.00     0.000 C 
BRANCH   8   9
ATOM      9  C   UNL     1      -8.249  14.944 -14.020  1.00  0.00    -0.000 C 
BRANCH   9  10
ATOM     10  C   UNL     1      -7.823  13.482 -14.238  1.00  0.00    -0.003 C 
ATOM     11  C   UNL     1      -8.794  12.708 -15.125  1.00  0.00     0.004 C 
ENDBRANCH   9  10
ENDBRANCH   8   9
ENDBRANCH   1   8
TORSDOF 6
ENDMDL
