MODEL 1
REMARK VINA RESULT:    -0.541      0.000      0.000
REMARK INTER + INTRA:          -0.157
REMARK INTER:                  -0.668
REMARK INTRA:                   0.511
REMARK UNBOUND:                 0.511
REMARK SMILES O=c1c(O)c(-c2cc(O)c(O)c(O)c2)oc2cc(O)cc(O)c12
REMARK SMILES IDX 5 1 3 2 2 3 1 4 23 5 21 6 20 7 18 8 17 9 16 10 15 11 6 12
REMARK SMILES IDX 7 13 8 14 14 15 10 16 12 17 9 18 11 20 13 22 4 24 22 26
REMARK SMILES IDX 19 28
REMARK H PARENT 9 19 11 21 13 23 4 25 22 27 19 29
REMARK Flexibility Score: inf
ROOT
ATOM      1  C   UNL     1      -2.618 -14.998  -9.764  1.00  0.00     0.180 A 
ATOM      2  C   UNL     1      -1.332 -15.009  -9.200  1.00  0.00     0.208 A 
ATOM      3  C   UNL     1      -1.202 -15.039  -7.802  1.00  0.00     0.238 A 
ATOM      4  O   UNL     1      -0.049 -15.125  -7.305  1.00  0.00    -0.285 OA
ATOM      5  C   UNL     1      -2.357 -14.998  -6.985  1.00  0.00     0.111 A 
ATOM      6  C   UNL     1      -2.343 -14.979  -5.558  1.00  0.00     0.134 A 
ATOM      7  C   UNL     1      -3.552 -15.047  -4.854  1.00  0.00     0.093 A 
ATOM      8  C   UNL     1      -4.778 -15.069  -5.525  1.00  0.00     0.123 A 
ATOM      9  C   UNL     1      -4.804 -15.033  -6.917  1.00  0.00     0.094 A 
ATOM     10  C   UNL     1      -3.613 -15.005  -7.648  1.00  0.00     0.146 A 
ATOM     11  O   UNL     1      -3.685 -14.993  -8.973  1.00  0.00    -0.452 OA
ENDROOT
BRANCH   1  12
ATOM     12  C   UNL     1      -2.836 -14.981 -11.229  1.00  0.00     0.029 A 
ATOM     13  C   UNL     1      -4.126 -15.070 -11.778  1.00  0.00     0.062 A 
ATOM     14  C   UNL     1      -4.315 -15.029 -13.166  1.00  0.00     0.162 A 
ATOM     15  C   UNL     1      -1.739 -14.815 -12.087  1.00  0.00     0.062 A 
ATOM     16  C   UNL     1      -3.207 -14.886 -14.020  1.00  0.00     0.200 A 
ATOM     17  C   UNL     1      -1.916 -14.775 -13.474  1.00  0.00     0.162 A 
BRANCH  14  18
ATOM     18  O   UNL     1      -5.598 -15.125 -13.700  1.00  0.00    -0.504 OA
ATOM     19  H   UNL     1      -6.247 -15.843 -13.400  1.00  0.00     0.293 HD
ENDBRANCH  14  18
BRANCH  16  20
ATOM     20  O   UNL     1      -3.375 -14.848 -15.405  1.00  0.00    -0.502 OA
ATOM     21  H   UNL     1      -3.713 -14.023 -15.885  1.00  0.00     0.293 HD
ENDBRANCH  16  20
BRANCH  17  22
ATOM     22  O   UNL     1      -0.799 -14.623 -14.294  1.00  0.00    -0.504 OA
ATOM     23  H   UNL     1       0.143 -14.790 -13.958  1.00  0.00     0.293 HD
ENDBRANCH  17  22
ENDBRANCH   1  12
BRANCH   2  24
ATOM     24  O   UNL     1      -0.202 -14.972 -10.022  1.00  0.00    -0.502 OA
ATOM     25  H   UNL     1      -0.017 -15.678 -10.725  1.00  0.00     0.293 HD
ENDBRANCH   2  24
BRANCH   6  26
ATOM     26  O   UNL     1      -1.182 -14.869  -4.787  1.00  0.00    -0.507 OA
ATOM     27  H   UNL     1      -1.143 -14.495  -3.851  1.00  0.00     0.293 HD
ENDBRANCH   6  26
BRANCH   8  28
ATOM     28  O   UNL     1      -5.975 -15.120  -4.816  1.00  0.00    -0.508 OA
ATOM     29  H   UNL     1      -6.838 -15.419  -5.254  1.00  0.00     0.293 HD
ENDBRANCH   8  28
TORSDOF 7
ENDMDL
MODEL 2
REMARK VINA RESULT:    -0.185      0.086      1.757
REMARK INTER + INTRA:           0.283
REMARK INTER:                  -0.159
REMARK INTRA:                   0.442
REMARK UNBOUND:                 0.511
REMARK SMILES O=c1c(O)c(-c2cc(O)c(O)c(O)c2)oc2cc(O)cc(O)c12
REMARK SMILES IDX 5 1 3 2 2 3 1 4 23 5 21 6 20 7 18 8 17 9 16 10 15 11 6 12
REMARK SMILES IDX 7 13 8 14 14 15 10 16 12 17 9 18 11 20 13 22 4 24 22 26
REMARK SMILES IDX 19 28
REMARK H PARENT 9 19 11 21 13 23 4 25 22 27 19 29
REMARK Flexibility Score: inf
ROOT
ATOM      1  C   UNL     1      -2.551 -14.942  -9.714  1.00  0.00     0.180 A 
ATOM      2  C   UNL     1      -1.275 -14.968  -9.127  1.00  0.00     0.208 A 
ATOM      3  C   UNL     1      -1.170 -15.019  -7.728  1.00  0.00     0.238 A 
ATOM      4  O   UNL     1      -0.026 -15.117  -7.212  1.00  0.00    -0.285 OA
ATOM      5  C   UNL     1      -2.339 -14.984  -6.931  1.00  0.00     0.111 A 
ATOM      6  C   UNL     1      -2.350 -14.986  -5.503  1.00  0.00     0.134 A 
ATOM      7  C   UNL     1      -3.572 -15.057  -4.822  1.00  0.00     0.093 A 
ATOM      8  C   UNL     1      -4.785 -15.064  -5.515  1.00  0.00     0.123 A 
ATOM      9  C   UNL     1      -4.786 -15.008  -6.906  1.00  0.00     0.094 A 
ATOM     10  C   UNL     1      -3.583 -14.975  -7.616  1.00  0.00     0.146 A 
ATOM     11  O   UNL     1      -3.631 -14.943  -8.942  1.00  0.00    -0.452 OA
ENDROOT
BRANCH   1  12
ATOM     12  C   UNL     1      -2.743 -14.903 -11.182  1.00  0.00     0.029 A 
ATOM     13  C   UNL     1      -1.651 -14.811 -12.061  1.00  0.00     0.062 A 
ATOM     14  C   UNL     1      -1.851 -14.799 -13.448  1.00  0.00     0.162 A 
ATOM     15  C   UNL     1      -4.037 -15.020 -11.711  1.00  0.00     0.062 A 
ATOM     16  C   UNL     1      -3.153 -14.893 -13.969  1.00  0.00     0.200 A 
ATOM     17  C   UNL     1      -4.247 -15.008 -13.094  1.00  0.00     0.162 A 
BRANCH  14  18
ATOM     18  O   UNL     1      -0.761 -14.700 -14.311  1.00  0.00    -0.504 OA
ATOM     19  H   UNL     1       0.095 -15.218 -14.147  1.00  0.00     0.293 HD
ENDBRANCH  14  18
BRANCH  16  20
ATOM     20  O   UNL     1      -3.371 -14.878 -15.348  1.00  0.00    -0.502 OA
ATOM     21  H   UNL     1      -2.638 -15.093 -16.012  1.00  0.00     0.293 HD
ENDBRANCH  16  20
BRANCH  17  22
ATOM     22  O   UNL     1      -5.550 -15.112 -13.580  1.00  0.00    -0.504 OA
ATOM     23  H   UNL     1      -6.311 -14.556 -13.207  1.00  0.00     0.293 HD
ENDBRANCH  17  22
ENDBRANCH   1  12
BRANCH   2  24
ATOM     24  O   UNL     1      -0.131 -14.924  -9.929  1.00  0.00    -0.502 OA
ATOM     25  H   UNL     1      -0.165 -14.687 -10.913  1.00  0.00     0.293 HD
ENDBRANCH   2  24
BRANCH   6  26
ATOM     26  O   UNL     1      -1.202 -14.892  -4.711  1.00  0.00    -0.507 OA
ATOM     27  H   UNL     1      -0.851 -15.624  -4.113  1.00  0.00     0.293 HD
ENDBRANCH   6  26
BRANCH   8  28
ATOM     28  O   UNL     1      -5.995 -15.119  -4.828  1.00  0.00    -0.508 OA
ATOM     29  H   UNL     1      -6.038 -15.021  -3.821  1.00  0.00     0.293 HD
ENDBRANCH   8  28
TORSDOF 7
ENDMDL
MODEL 3
REMARK VINA RESULT:     0.385      1.621      3.651
REMARK INTER + INTRA:           0.986
REMARK INTER:                   0.475
REMARK INTRA:                   0.510
REMARK UNBOUND:                 0.511
REMARK SMILES O=c1c(O)c(-c2cc(O)c(O)c(O)c2)oc2cc(O)cc(O)c12
REMARK SMILES IDX 5 1 3 2 2 3 1 4 23 5 21 6 20 7 18 8 17 9 16 10 15 11 6 12
REMARK SMILES IDX 7 13 8 14 14 15 10 16 12 17 9 18 11 20 13 22 4 24 22 26
REMARK SMILES IDX 19 28
REMARK H PARENT 9 19 11 21 13 23 4 25 22 27 19 29
REMARK Flexibility Score: inf
ROOT
ATOM      1  C   UNL     1      -2.514 -14.996  -8.466  1.00  0.00     0.180 A 
ATOM      2  C   UNL     1      -3.597 -14.919  -7.575  1.00  0.00     0.208 A 
ATOM      3  C   UNL     1      -3.343 -14.900  -6.194  1.00  0.00     0.238 A 
ATOM      4  O   UNL     1      -4.312 -14.756  -5.404  1.00  0.00    -0.285 OA
ATOM      5  C   UNL     1      -2.014 -15.016  -5.720  1.00  0.00     0.111 A 
ATOM      6  C   UNL     1      -1.643 -15.053  -4.342  1.00  0.00     0.134 A 
ATOM      7  C   UNL     1      -0.287 -15.062  -3.992  1.00  0.00     0.093 A 
ATOM      8  C   UNL     1       0.711 -15.099  -4.970  1.00  0.00     0.123 A 
ATOM      9  C   UNL     1       0.358 -15.119  -6.317  1.00  0.00     0.094 A 
ATOM     10  C   UNL     1      -0.986 -15.071  -6.699  1.00  0.00     0.146 A 
ATOM     11  O   UNL     1      -1.276 -15.070  -7.993  1.00  0.00    -0.452 OA
ENDROOT
BRANCH   1  12
ATOM     12  C   UNL     1      -2.702 -15.005  -9.935  1.00  0.00     0.029 A 
ATOM     13  C   UNL     1      -1.605 -15.023 -10.813  1.00  0.00     0.062 A 
ATOM     14  C   UNL     1      -1.802 -15.055 -12.200  1.00  0.00     0.162 A 
ATOM     15  C   UNL     1      -4.000 -15.057 -10.464  1.00  0.00     0.062 A 
ATOM     16  C   UNL     1      -3.107 -15.084 -12.722  1.00  0.00     0.200 A 
ATOM     17  C   UNL     1      -4.208 -15.088 -11.847  1.00  0.00     0.162 A 
BRANCH  14  18
ATOM     18  O   UNL     1      -0.707 -15.066 -13.062  1.00  0.00    -0.504 OA
ATOM     19  H   UNL     1       0.140 -14.552 -12.850  1.00  0.00     0.293 HD
ENDBRANCH  14  18
BRANCH  16  20
ATOM     20  O   UNL     1      -3.323 -15.111 -14.101  1.00  0.00    -0.502 OA
ATOM     21  H   UNL     1      -3.487 -15.975 -14.604  1.00  0.00     0.293 HD
ENDBRANCH  16  20
BRANCH  17  22
ATOM     22  O   UNL     1      -5.514 -15.125 -12.334  1.00  0.00    -0.504 OA
ATOM     23  H   UNL     1      -5.724 -15.047 -13.322  1.00  0.00     0.293 HD
ENDBRANCH  17  22
ENDBRANCH   1  12
BRANCH   2  24
ATOM     24  O   UNL     1      -4.908 -14.883  -8.061  1.00  0.00    -0.502 OA
ATOM     25  H   UNL     1      -5.712 -14.808  -7.450  1.00  0.00     0.293 HD
ENDBRANCH   2  24
BRANCH   6  26
ATOM     26  O   UNL     1      -2.557 -15.108  -3.286  1.00  0.00    -0.507 OA
ATOM     27  H   UNL     1      -2.321 -15.320  -2.328  1.00  0.00     0.293 HD
ENDBRANCH   6  26
BRANCH   8  28
ATOM     28  O   UNL     1       2.056 -15.125  -4.612  1.00  0.00    -0.508 OA
ATOM     29  H   UNL     1       2.687 -14.373  -4.864  1.00  0.00     0.293 HD
ENDBRANCH   8  28
TORSDOF 7
ENDMDL
MODEL 4
REMARK VINA RESULT:     1.208      1.236      7.107
REMARK INTER + INTRA:           2.002
REMARK INTER:                   1.560
REMARK INTRA:                   0.442
REMARK UNBOUND:                 0.511
REMARK SMILES O=c1c(O)c(-c2cc(O)c(O)c(O)c2)oc2cc(O)cc(O)c12
REMARK SMILES IDX 5 1 3 2 2 3 1 4 23 5 21 6 20 7 18 8 17 9 16 10 15 11 6 12
REMARK SMILES IDX 7 13 8 14 14 15 10 16 12 17 9 18 11 20 13 22 4 24 22 26
REMARK SMILES IDX 19 28
REMARK H PARENT 9 19 11 21 13 23 4 25 22 27 19 29
REMARK Flexibility Score: inf
ROOT
ATOM      1  C   UNL     1      -2.896 -14.958 -10.856  1.00  0.00     0.180 A 
ATOM      2  C   UNL     1      -1.748 -14.797 -11.649  1.00  0.00     0.208 A 
ATOM      3  C   UNL     1      -1.888 -14.731 -13.045  1.00  0.00     0.238 A 
ATOM      4  O   UNL     1      -0.864 -14.512 -13.744  1.00  0.00    -0.285 OA
ATOM      5  C   UNL     1      -3.166 -14.884 -13.634  1.00  0.00     0.111 A 
ATOM      6  C   UNL     1      -3.420 -14.878 -15.038  1.00  0.00     0.134 A 
ATOM      7  C   UNL     1      -4.740 -14.932 -15.502  1.00  0.00     0.093 A 
ATOM      8  C   UNL     1      -5.812 -15.053 -14.615  1.00  0.00     0.123 A 
ATOM      9  C   UNL     1      -5.571 -15.114 -13.245  1.00  0.00     0.094 A 
ATOM     10  C   UNL     1      -4.268 -15.024 -12.749  1.00  0.00     0.146 A 
ATOM     11  O   UNL     1      -4.087 -15.066 -11.435  1.00  0.00    -0.452 OA
ENDROOT
BRANCH   1  12
ATOM     12  C   UNL     1      -2.831 -15.021  -9.378  1.00  0.00     0.029 A 
ATOM     13  C   UNL     1      -1.601 -15.024  -8.699  1.00  0.00     0.062 A 
ATOM     14  C   UNL     1      -1.560 -15.061  -7.299  1.00  0.00     0.162 A 
ATOM     15  C   UNL     1      -4.021 -15.019  -8.635  1.00  0.00     0.062 A 
ATOM     16  C   UNL     1      -2.757 -15.082  -6.563  1.00  0.00     0.200 A 
ATOM     17  C   UNL     1      -3.991 -15.057  -7.237  1.00  0.00     0.162 A 
BRANCH  14  18
ATOM     18  O   UNL     1      -0.334 -15.071  -6.635  1.00  0.00    -0.504 OA
ATOM     19  H   UNL     1       0.529 -15.288  -7.119  1.00  0.00     0.293 HD
ENDBRANCH  14  18
BRANCH  16  20
ATOM     20  O   UNL     1      -2.736 -15.124  -5.167  1.00  0.00    -0.502 OA
ATOM     21  H   UNL     1      -3.234 -14.449  -4.600  1.00  0.00     0.293 HD
ENDBRANCH  16  20
BRANCH  17  22
ATOM     22  O   UNL     1      -5.196 -15.069  -6.535  1.00  0.00    -0.504 OA
ATOM     23  H   UNL     1      -5.382 -15.734  -5.794  1.00  0.00     0.293 HD
ENDBRANCH  17  22
ENDBRANCH   1  12
BRANCH   2  24
ATOM     24  O   UNL     1      -0.486 -14.725 -11.053  1.00  0.00    -0.502 OA
ATOM     25  H   UNL     1       0.037 -13.860 -10.990  1.00  0.00     0.293 HD
ENDBRANCH   2  24
BRANCH   6  26
ATOM     26  O   UNL     1      -2.419 -14.850 -16.015  1.00  0.00    -0.507 OA
ATOM     27  H   UNL     1      -2.378 -14.195 -16.781  1.00  0.00     0.293 HD
ENDBRANCH   6  26
BRANCH   8  28
ATOM     28  O   UNL     1      -7.121 -15.122 -15.086  1.00  0.00    -0.508 OA
ATOM     29  H   UNL     1      -7.855 -15.570 -14.551  1.00  0.00     0.293 HD
ENDBRANCH   8  28
TORSDOF 7
ENDMDL
