MODEL 1
REMARK VINA RESULT:    -5.191      0.000      0.000
REMARK INTER + INTRA:          -8.871
REMARK INTER:                  -8.378
REMARK INTRA:                  -0.493
REMARK UNBOUND:                -0.493
REMARK SMILES CCCCCCCCCCCCO
REMARK SMILES IDX 7 1 6 2 5 3 4 4 3 5 2 6 1 7 8 8 9 9 10 10 11 11 12 12 13 13
REMARK H PARENT 13 14
REMARK Flexibility Score: inf
ROOT
ATOM      1  C   UNL     1       4.424   4.174  12.528  1.00  0.00     0.000 C 
ENDROOT
BRANCH   1   2
ATOM      2  C   UNL     1       5.627   4.993  13.022  1.00  0.00    -0.000 C 
BRANCH   2   3
ATOM      3  C   UNL     1       6.122   4.536  14.406  1.00  0.00    -0.000 C 
BRANCH   3   4
ATOM      4  C   UNL     1       6.415   5.716  15.347  1.00  0.00    -0.000 C 
BRANCH   4   5
ATOM      5  C   UNL     1       7.784   6.364  15.075  1.00  0.00    -0.000 C 
BRANCH   5   6
ATOM      6  C   UNL     1       7.667   7.676  14.282  1.00  0.00    -0.003 C 
ATOM      7  C   UNL     1       8.216   7.557  12.861  1.00  0.00     0.004 C 
ENDBRANCH   5   6
ENDBRANCH   4   5
ENDBRANCH   3   4
ENDBRANCH   2   3
ENDBRANCH   1   2
BRANCH   1   8
ATOM      8  C   UNL     1       4.848   2.923  11.737  1.00  0.00     0.000 C 
BRANCH   8   9
ATOM      9  C   UNL     1       3.661   2.209  11.064  1.00  0.00     0.000 C 
BRANCH   9  10
ATOM     10  C   UNL     1       2.276   2.571  11.628  1.00  0.00     0.002 C 
BRANCH  10  11
ATOM     11  C   UNL     1       1.573   1.383  12.304  1.00  0.00     0.028 C 
BRANCH  11  12
ATOM     12  C   UNL     1       2.298   0.061  12.024  1.00  0.00     0.156 C 
BRANCH  12  13
ATOM     13  O   UNL     1       1.756  -0.981  12.791  1.00  0.00    -0.396 OA
ATOM     14  H   UNL     1       1.484  -0.582  13.658  1.00  0.00     0.210 HD
ENDBRANCH  12  13
ENDBRANCH  11  12
ENDBRANCH  10  11
ENDBRANCH   9  10
ENDBRANCH   8   9
ENDBRANCH   1   8
TORSDOF 11
ENDMDL
MODEL 2
REMARK VINA RESULT:    -4.920      3.127      6.981
REMARK INTER + INTRA:          -8.432
REMARK INTER:                  -7.624
REMARK INTRA:                  -0.808
REMARK UNBOUND:                -0.493
REMARK SMILES CCCCCCCCCCCCO
REMARK SMILES IDX 7 1 6 2 5 3 4 4 3 5 2 6 1 7 8 8 9 9 10 10 11 11 12 12 13 13
REMARK H PARENT 13 14
REMARK Flexibility Score: inf
ROOT
ATOM      1  C   UNL     1       5.506   3.083  12.203  1.00  0.00     0.000 C 
ENDROOT
BRANCH   1   2
ATOM      2  C   UNL     1       5.554   2.858  10.683  1.00  0.00    -0.000 C 
BRANCH   2   3
ATOM      3  C   UNL     1       4.233   3.232   9.989  1.00  0.00    -0.000 C 
BRANCH   3   4
ATOM      4  C   UNL     1       3.172   2.126  10.103  1.00  0.00    -0.000 C 
BRANCH   4   5
ATOM      5  C   UNL     1       2.028   2.497  11.063  1.00  0.00    -0.000 C 
BRANCH   5   6
ATOM      6  C   UNL     1       1.816   1.444  12.161  1.00  0.00    -0.003 C 
ATOM      7  C   UNL     1       2.802   0.281  12.061  1.00  0.00     0.004 C 
ENDBRANCH   5   6
ENDBRANCH   4   5
ENDBRANCH   3   4
ENDBRANCH   2   3
ENDBRANCH   1   2
BRANCH   1   8
ATOM      8  C   UNL     1       4.877   4.437  12.578  1.00  0.00     0.000 C 
BRANCH   8   9
ATOM      9  C   UNL     1       5.887   5.412  13.209  1.00  0.00     0.000 C 
BRANCH   9  10
ATOM     10  C   UNL     1       6.367   5.033  14.622  1.00  0.00     0.002 C 
BRANCH  10  11
ATOM     11  C   UNL     1       6.815   6.248  15.449  1.00  0.00     0.028 C 
BRANCH  11  12
ATOM     12  C   UNL     1       7.689   7.203  14.628  1.00  0.00     0.156 C 
BRANCH  12  13
ATOM     13  O   UNL     1       7.015   8.407  14.375  1.00  0.00    -0.396 OA
ATOM     14  H   UNL     1       6.947   8.882  15.244  1.00  0.00     0.210 HD
ENDBRANCH  12  13
ENDBRANCH  11  12
ENDBRANCH  10  11
ENDBRANCH   9  10
ENDBRANCH   8   9
ENDBRANCH   1   8
TORSDOF 11
ENDMDL
MODEL 3
REMARK VINA RESULT:    -4.817      1.175      1.714
REMARK INTER + INTRA:          -8.268
REMARK INTER:                  -7.717
REMARK INTRA:                  -0.550
REMARK UNBOUND:                -0.493
REMARK SMILES CCCCCCCCCCCCO
REMARK SMILES IDX 7 1 6 2 5 3 4 4 3 5 2 6 1 7 8 8 9 9 10 10 11 11 12 12 13 13
REMARK H PARENT 13 14
REMARK Flexibility Score: inf
ROOT
ATOM      1  C   UNL     1       4.553   3.415  11.341  1.00  0.00     0.000 C 
ENDROOT
BRANCH   1   2
ATOM      2  C   UNL     1       5.647   4.472  11.120  1.00  0.00    -0.000 C 
BRANCH   2   3
ATOM      3  C   UNL     1       6.055   5.181  12.423  1.00  0.00    -0.000 C 
BRANCH   3   4
ATOM      4  C   UNL     1       5.584   4.428  13.677  1.00  0.00    -0.000 C 
BRANCH   4   5
ATOM      5  C   UNL     1       6.277   4.921  14.960  1.00  0.00    -0.000 C 
BRANCH   5   6
ATOM      6  C   UNL     1       6.651   6.410  14.891  1.00  0.00    -0.003 C 
ATOM      7  C   UNL     1       7.794   6.775  15.838  1.00  0.00     0.004 C 
ENDBRANCH   5   6
ENDBRANCH   4   5
ENDBRANCH   3   4
ENDBRANCH   2   3
ENDBRANCH   1   2
BRANCH   1   8
ATOM      8  C   UNL     1       4.019   2.834  10.020  1.00  0.00     0.000 C 
BRANCH   8   9
ATOM      9  C   UNL     1       2.688   2.078  10.193  1.00  0.00     0.000 C 
BRANCH   9  10
ATOM     10  C   UNL     1       1.846   2.507  11.408  1.00  0.00     0.002 C 
BRANCH  10  11
ATOM     11  C   UNL     1       1.357   1.317  12.249  1.00  0.00     0.028 C 
BRANCH  11  12
ATOM     12  C   UNL     1       2.036   0.008  11.830  1.00  0.00     0.156 C 
BRANCH  12  13
ATOM     13  O   UNL     1       1.885  -0.975  12.818  1.00  0.00    -0.396 OA
ATOM     14  H   UNL     1       0.946  -0.916  13.136  1.00  0.00     0.210 HD
ENDBRANCH  12  13
ENDBRANCH  11  12
ENDBRANCH  10  11
ENDBRANCH   9  10
ENDBRANCH   8   9
ENDBRANCH   1   8
TORSDOF 11
ENDMDL
MODEL 4
REMARK VINA RESULT:    -4.747      3.022      7.092
REMARK INTER + INTRA:          -8.154
REMARK INTER:                  -7.596
REMARK INTRA:                  -0.558
REMARK UNBOUND:                -0.493
REMARK SMILES CCCCCCCCCCCCO
REMARK SMILES IDX 7 1 6 2 5 3 4 4 3 5 2 6 1 7 8 8 9 9 10 10 11 11 12 12 13 13
REMARK H PARENT 13 14
REMARK Flexibility Score: inf
ROOT
ATOM      1  C   UNL     1       5.723   3.876  12.790  1.00  0.00     0.000 C 
ENDROOT
BRANCH   1   2
ATOM      2  C   UNL     1       5.562   4.118  11.281  1.00  0.00    -0.000 C 
BRANCH   2   3
ATOM      3  C   UNL     1       4.498   3.205  10.646  1.00  0.00    -0.000 C 
BRANCH   3   4
ATOM      4  C   UNL     1       3.403   2.794  11.643  1.00  0.00    -0.000 C 
BRANCH   4   5
ATOM      5  C   UNL     1       3.177   1.272  11.680  1.00  0.00    -0.000 C 
BRANCH   5   6
ATOM      6  C   UNL     1       1.771   0.898  12.177  1.00  0.00    -0.003 C 
ATOM      7  C   UNL     1       0.746   2.006  11.936  1.00  0.00     0.004 C 
ENDBRANCH   5   6
ENDBRANCH   4   5
ENDBRANCH   3   4
ENDBRANCH   2   3
ENDBRANCH   1   2
BRANCH   1   8
ATOM      8  C   UNL     1       5.618   5.174  13.610  1.00  0.00     0.000 C 
BRANCH   8   9
ATOM      9  C   UNL     1       6.430   5.124  14.917  1.00  0.00     0.000 C 
BRANCH   9  10
ATOM     10  C   UNL     1       7.055   6.463  15.350  1.00  0.00     0.002 C 
BRANCH  10  11
ATOM     11  C   UNL     1       7.087   7.503  14.219  1.00  0.00     0.028 C 
BRANCH  11  12
ATOM     12  C   UNL     1       8.445   7.529  13.509  1.00  0.00     0.156 C 
BRANCH  12  13
ATOM     13  O   UNL     1       8.340   7.023  12.205  1.00  0.00    -0.396 OA
ATOM     14  H   UNL     1       8.841   7.648  11.618  1.00  0.00     0.210 HD
ENDBRANCH  12  13
ENDBRANCH  11  12
ENDBRANCH  10  11
ENDBRANCH   9  10
ENDBRANCH   8   9
ENDBRANCH   1   8
TORSDOF 11
ENDMDL
MODEL 5
REMARK VINA RESULT:    -4.705      3.149      7.069
REMARK INTER + INTRA:          -8.086
REMARK INTER:                  -7.721
REMARK INTRA:                  -0.365
REMARK UNBOUND:                -0.493
REMARK SMILES CCCCCCCCCCCCO
REMARK SMILES IDX 7 1 6 2 5 3 4 4 3 5 2 6 1 7 8 8 9 9 10 10 11 11 12 12 13 13
REMARK H PARENT 13 14
REMARK Flexibility Score: inf
ROOT
ATOM      1  C   UNL     1       5.773   3.149  11.370  1.00  0.00     0.000 C 
ENDROOT
BRANCH   1   2
ATOM      2  C   UNL     1       4.386   2.677  11.834  1.00  0.00    -0.000 C 
BRANCH   2   3
ATOM      3  C   UNL     1       3.431   2.404  10.658  1.00  0.00    -0.000 C 
BRANCH   3   4
ATOM      4  C   UNL     1       2.521   1.191  10.907  1.00  0.00    -0.000 C 
BRANCH   4   5
ATOM      5  C   UNL     1       1.582   1.390  12.109  1.00  0.00    -0.000 C 
BRANCH   5   6
ATOM      6  C   UNL     1       0.368   2.270  11.769  1.00  0.00    -0.003 C 
ATOM      7  C   UNL     1      -0.124   2.067  10.337  1.00  0.00     0.004 C 
ENDBRANCH   5   6
ENDBRANCH   4   5
ENDBRANCH   3   4
ENDBRANCH   2   3
ENDBRANCH   1   2
BRANCH   1   8
ATOM      8  C   UNL     1       6.044   4.622  11.725  1.00  0.00     0.000 C 
BRANCH   8   9
ATOM      9  C   UNL     1       5.378   5.051  13.046  1.00  0.00     0.000 C 
BRANCH   9  10
ATOM     10  C   UNL     1       6.162   4.690  14.320  1.00  0.00     0.002 C 
BRANCH  10  11
ATOM     11  C   UNL     1       6.817   5.909  14.988  1.00  0.00     0.028 C 
BRANCH  11  12
ATOM     12  C   UNL     1       7.185   6.988  13.963  1.00  0.00     0.156 C 
BRANCH  12  13
ATOM     13  O   UNL     1       6.700   8.243  14.359  1.00  0.00    -0.396 OA
ATOM     14  H   UNL     1       6.575   8.774  13.530  1.00  0.00     0.210 HD
ENDBRANCH  12  13
ENDBRANCH  11  12
ENDBRANCH  10  11
ENDBRANCH   9  10
ENDBRANCH   8   9
ENDBRANCH   1   8
TORSDOF 11
ENDMDL
MODEL 6
REMARK VINA RESULT:    -4.468      3.542      7.378
REMARK INTER + INTRA:          -7.704
REMARK INTER:                  -7.224
REMARK INTRA:                  -0.480
REMARK UNBOUND:                -0.493
REMARK SMILES CCCCCCCCCCCCO
REMARK SMILES IDX 7 1 6 2 5 3 4 4 3 5 2 6 1 7 8 8 9 9 10 10 11 11 12 12 13 13
REMARK H PARENT 13 14
REMARK Flexibility Score: inf
ROOT
ATOM      1  C   UNL     1       5.275   4.395  13.285  1.00  0.00     0.000 C 
ENDROOT
BRANCH   1   2
ATOM      2  C   UNL     1       5.603   4.777  11.833  1.00  0.00    -0.000 C 
BRANCH   2   3
ATOM      3  C   UNL     1       5.311   3.635  10.843  1.00  0.00    -0.000 C 
BRANCH   3   4
ATOM      4  C   UNL     1       4.564   2.462  11.497  1.00  0.00    -0.000 C 
BRANCH   4   5
ATOM      5  C   UNL     1       3.128   2.304  10.966  1.00  0.00    -0.000 C 
BRANCH   5   6
ATOM      6  C   UNL     1       2.311   1.284  11.774  1.00  0.00    -0.003 C 
ATOM      7  C   UNL     1       0.901   1.777  12.093  1.00  0.00     0.004 C 
ENDBRANCH   5   6
ENDBRANCH   4   5
ENDBRANCH   3   4
ENDBRANCH   2   3
ENDBRANCH   1   2
BRANCH   1   8
ATOM      8  C   UNL     1       6.136   5.162  14.305  1.00  0.00     0.000 C 
BRANCH   8   9
ATOM      9  C   UNL     1       6.834   6.391  13.694  1.00  0.00     0.000 C 
BRANCH   9  10
ATOM     10  C   UNL     1       7.496   7.339  14.711  1.00  0.00     0.002 C 
BRANCH  10  11
ATOM     11  C   UNL     1       7.428   6.813  16.153  1.00  0.00     0.028 C 
BRANCH  11  12
ATOM     12  C   UNL     1       8.821   6.701  16.783  1.00  0.00     0.156 C 
BRANCH  12  13
ATOM     13  O   UNL     1       8.887   7.419  17.986  1.00  0.00    -0.396 OA
ATOM     14  H   UNL     1       9.712   7.119  18.450  1.00  0.00     0.210 HD
ENDBRANCH  12  13
ENDBRANCH  11  12
ENDBRANCH  10  11
ENDBRANCH   9  10
ENDBRANCH   8   9
ENDBRANCH   1   8
TORSDOF 11
ENDMDL
MODEL 7
REMARK VINA RESULT:    -4.410      1.526      2.441
REMARK INTER + INTRA:          -7.610
REMARK INTER:                  -7.171
REMARK INTRA:                  -0.438
REMARK UNBOUND:                -0.493
REMARK SMILES CCCCCCCCCCCCO
REMARK SMILES IDX 7 1 6 2 5 3 4 4 3 5 2 6 1 7 8 8 9 9 10 10 11 11 12 12 13 13
REMARK H PARENT 13 14
REMARK Flexibility Score: inf
ROOT
ATOM      1  C   UNL     1       5.801   4.117  13.676  1.00  0.00     0.000 C 
ENDROOT
BRANCH   1   2
ATOM      2  C   UNL     1       6.234   5.186  14.692  1.00  0.00    -0.000 C 
BRANCH   2   3
ATOM      3  C   UNL     1       6.773   6.459  14.016  1.00  0.00    -0.000 C 
BRANCH   3   4
ATOM      4  C   UNL     1       7.555   7.357  14.988  1.00  0.00    -0.000 C 
BRANCH   4   5
ATOM      5  C   UNL     1       7.731   6.717  16.376  1.00  0.00    -0.000 C 
BRANCH   5   6
ATOM      6  C   UNL     1       9.196   6.712  16.840  1.00  0.00    -0.003 C 
ATOM      7  C   UNL     1       9.334   6.776  18.360  1.00  0.00     0.004 C 
ENDBRANCH   5   6
ENDBRANCH   4   5
ENDBRANCH   3   4
ENDBRANCH   2   3
ENDBRANCH   1   2
BRANCH   1   8
ATOM      8  C   UNL     1       5.185   4.729  12.405  1.00  0.00     0.000 C 
BRANCH   8   9
ATOM      9  C   UNL     1       5.009   3.702  11.270  1.00  0.00     0.000 C 
BRANCH   9  10
ATOM     10  C   UNL     1       4.429   2.344  11.703  1.00  0.00     0.002 C 
BRANCH  10  11
ATOM     11  C   UNL     1       2.894   2.305  11.656  1.00  0.00     0.028 C 
BRANCH  11  12
ATOM     12  C   UNL     1       2.371   0.898  11.343  1.00  0.00     0.156 C 
BRANCH  12  13
ATOM     13  O   UNL     1       2.752  -0.013  12.340  1.00  0.00    -0.396 OA
ATOM     14  H   UNL     1       2.004  -0.050  12.991  1.00  0.00     0.210 HD
ENDBRANCH  12  13
ENDBRANCH  11  12
ENDBRANCH  10  11
ENDBRANCH   9  10
ENDBRANCH   8   9
ENDBRANCH   1   8
TORSDOF 11
ENDMDL
MODEL 8
REMARK VINA RESULT:    -4.315      3.232      4.977
REMARK INTER + INTRA:          -7.456
REMARK INTER:                  -7.003
REMARK INTRA:                  -0.453
REMARK UNBOUND:                -0.493
REMARK SMILES CCCCCCCCCCCCO
REMARK SMILES IDX 7 1 6 2 5 3 4 4 3 5 2 6 1 7 8 8 9 9 10 10 11 11 12 12 13 13
REMARK H PARENT 13 14
REMARK Flexibility Score: inf
ROOT
ATOM      1  C   UNL     1       6.725   5.967  15.437  1.00  0.00     0.000 C 
ENDROOT
BRANCH   1   2
ATOM      2  C   UNL     1       7.653   6.611  16.479  1.00  0.00    -0.000 C 
BRANCH   2   3
ATOM      3  C   UNL     1       9.128   6.605  16.039  1.00  0.00    -0.000 C 
BRANCH   3   4
ATOM      4  C   UNL     1      10.099   6.588  17.230  1.00  0.00    -0.000 C 
BRANCH   4   5
ATOM      5  C   UNL     1       9.416   6.958  18.558  1.00  0.00    -0.000 C 
BRANCH   5   6
ATOM      6  C   UNL     1      10.124   6.344  19.776  1.00  0.00    -0.003 C 
ATOM      7  C   UNL     1       9.389   6.618  21.087  1.00  0.00     0.004 C 
ENDBRANCH   5   6
ENDBRANCH   4   5
ENDBRANCH   3   4
ENDBRANCH   2   3
ENDBRANCH   1   2
BRANCH   1   8
ATOM      8  C   UNL     1       6.840   6.634  14.054  1.00  0.00     0.000 C 
BRANCH   8   9
ATOM      9  C   UNL     1       6.435   5.695  12.902  1.00  0.00     0.000 C 
BRANCH   9  10
ATOM     10  C   UNL     1       5.574   4.488  13.315  1.00  0.00     0.002 C 
BRANCH  10  11
ATOM     11  C   UNL     1       4.750   3.913  12.151  1.00  0.00     0.028 C 
BRANCH  11  12
ATOM     12  C   UNL     1       5.147   2.466  11.836  1.00  0.00     0.156 C 
BRANCH  12  13
ATOM     13  O   UNL     1       6.291   2.425  11.024  1.00  0.00    -0.396 OA
ATOM     14  H   UNL     1       6.923   3.097  11.391  1.00  0.00     0.210 HD
ENDBRANCH  12  13
ENDBRANCH  11  12
ENDBRANCH  10  11
ENDBRANCH   9  10
ENDBRANCH   8   9
ENDBRANCH   1   8
TORSDOF 11
ENDMDL
