MODEL 1
REMARK VINA RESULT:    -4.996      0.000      0.000
REMARK INTER + INTRA:          -7.363
REMARK INTER:                  -6.748
REMARK INTRA:                  -0.615
REMARK UNBOUND:                -0.615
REMARK SMILES COc1ccc(-c2cc(=O)c3c(OC)c(OC)c(OC)cc3o2)cc1OC
REMARK SMILES IDX 7 1 8 2 9 3 10 4 11 5 12 6 15 7 18 8 21 9 22 10 23 11 6 12
REMARK SMILES IDX 3 13 25 14 4 15 24 16 5 17 2 18 1 19 26 20 27 21 13 22 14 23
REMARK SMILES IDX 19 24 20 25 16 26 17 27
REMARK H PARENT
REMARK Flexibility Score: inf
ROOT
ATOM      1  C   UNL     1      15.200  50.989  31.653  1.00  0.00     0.138 A 
ATOM      2  C   UNL     1      14.976  51.913  30.623  1.00  0.00     0.100 A 
ATOM      3  C   UNL     1      14.597  53.217  30.941  1.00  0.00     0.197 A 
ATOM      4  O   UNL     1      14.399  54.034  30.003  1.00  0.00    -0.289 OA
ATOM      5  C   UNL     1      14.437  53.592  32.297  1.00  0.00     0.111 A 
ATOM      6  C   UNL     1      14.054  54.896  32.702  1.00  0.00     0.179 A 
ATOM      7  C   UNL     1      13.910  55.190  34.090  1.00  0.00     0.204 A 
ATOM      8  C   UNL     1      14.150  54.170  35.050  1.00  0.00     0.168 A 
ATOM      9  C   UNL     1      14.526  52.890  34.620  1.00  0.00     0.098 A 
ATOM     10  C   UNL     1      14.670  52.598  33.270  1.00  0.00     0.146 A 
ATOM     11  O   UNL     1      15.032  51.368  32.916  1.00  0.00    -0.456 OA
ENDROOT
BRANCH   1  12
ATOM     12  C   UNL     1      15.604  49.586  31.375  1.00  0.00     0.021 A 
ATOM     13  C   UNL     1      16.353  46.904  30.905  1.00  0.00     0.160 A 
ATOM     14  C   UNL     1      15.392  47.201  31.883  1.00  0.00     0.161 A 
ATOM     15  C   UNL     1      16.944  47.951  30.174  1.00  0.00     0.051 A 
ATOM     16  C   UNL     1      15.025  48.540  32.115  1.00  0.00     0.062 A 
ATOM     17  C   UNL     1      16.576  49.276  30.410  1.00  0.00     0.016 A 
BRANCH  13  18
ATOM     18  O   UNL     1      16.698  45.560  30.694  1.00  0.00    -0.493 OA
ATOM     19  C   UNL     1      17.583  45.104  29.675  1.00  0.00     0.278 C 
ENDBRANCH  13  18
BRANCH  14  20
ATOM     20  O   UNL     1      14.824  46.137  32.601  1.00  0.00    -0.493 OA
ATOM     21  C   UNL     1      14.604  46.137  34.008  1.00  0.00     0.278 C 
ENDBRANCH  14  20
ENDBRANCH   1  12
BRANCH   6  22
ATOM     22  O   UNL     1      13.830  55.855  31.690  1.00  0.00    -0.492 OA
ATOM     23  C   UNL     1      14.595  57.025  31.416  1.00  0.00     0.278 C 
ENDBRANCH   6  22
BRANCH   8  24
ATOM     24  O   UNL     1      14.012  54.448  36.420  1.00  0.00    -0.493 OA
ATOM     25  C   UNL     1      12.818  54.275  37.177  1.00  0.00     0.278 C 
ENDBRANCH   8  24
BRANCH   7  26
ATOM     26  O   UNL     1      13.533  56.496  34.459  1.00  0.00    -0.490 OA
ATOM     27  C   UNL     1      12.214  57.001  34.634  1.00  0.00     0.278 C 
ENDBRANCH   7  26
TORSDOF 6
ENDMDL
MODEL 2
REMARK VINA RESULT:    -4.934      1.164      2.050
REMARK INTER + INTRA:          -7.280
REMARK INTER:                  -6.732
REMARK INTRA:                  -0.547
REMARK UNBOUND:                -0.615
REMARK SMILES COc1ccc(-c2cc(=O)c3c(OC)c(OC)c(OC)cc3o2)cc1OC
REMARK SMILES IDX 7 1 8 2 9 3 10 4 11 5 12 6 15 7 18 8 21 9 22 10 23 11 6 12
REMARK SMILES IDX 3 13 25 14 4 15 24 16 5 17 2 18 1 19 26 20 27 21 13 22 14 23
REMARK SMILES IDX 19 24 20 25 16 26 17 27
REMARK H PARENT
REMARK Flexibility Score: inf
ROOT
ATOM      1  C   UNL     1      14.692  50.519  32.001  1.00  0.00     0.138 A 
ATOM      2  C   UNL     1      14.938  51.328  30.882  1.00  0.00     0.100 A 
ATOM      3  C   UNL     1      15.004  52.712  31.038  1.00  0.00     0.197 A 
ATOM      4  O   UNL     1      15.225  53.424  30.022  1.00  0.00    -0.289 OA
ATOM      5  C   UNL     1      14.818  53.285  32.319  1.00  0.00     0.111 A 
ATOM      6  C   UNL     1      14.869  54.682  32.559  1.00  0.00     0.179 A 
ATOM      7  C   UNL     1      14.666  55.179  33.880  1.00  0.00     0.204 A 
ATOM      8  C   UNL     1      14.411  54.267  34.940  1.00  0.00     0.168 A 
ATOM      9  C   UNL     1      14.364  52.891  34.672  1.00  0.00     0.098 A 
ATOM     10  C   UNL     1      14.564  52.402  33.388  1.00  0.00     0.146 A 
ATOM     11  O   UNL     1      14.512  51.088  33.189  1.00  0.00    -0.456 OA
ENDROOT
BRANCH   1  12
ATOM     12  C   UNL     1      14.610  49.039  31.897  1.00  0.00     0.021 A 
ATOM     13  C   UNL     1      14.502  46.226  31.660  1.00  0.00     0.160 A 
ATOM     14  C   UNL     1      15.706  46.903  31.416  1.00  0.00     0.161 A 
ATOM     15  C   UNL     1      13.354  46.959  32.012  1.00  0.00     0.051 A 
ATOM     16  C   UNL     1      15.752  48.306  31.531  1.00  0.00     0.062 A 
ATOM     17  C   UNL     1      13.407  48.349  32.124  1.00  0.00     0.016 A 
BRANCH  13  18
ATOM     18  O   UNL     1      14.485  44.828  31.540  1.00  0.00    -0.493 OA
ATOM     19  C   UNL     1      13.991  43.938  32.536  1.00  0.00     0.278 C 
ENDBRANCH  13  18
BRANCH  14  20
ATOM     20  O   UNL     1      16.834  46.147  31.061  1.00  0.00    -0.493 OA
ATOM     21  C   UNL     1      17.269  45.922  29.724  1.00  0.00     0.278 C 
ENDBRANCH  14  20
ENDBRANCH   1  12
BRANCH   6  22
ATOM     22  O   UNL     1      15.125  55.526  31.456  1.00  0.00    -0.492 OA
ATOM     23  C   UNL     1      16.283  56.321  31.219  1.00  0.00     0.278 C 
ENDBRANCH   6  22
BRANCH   8  24
ATOM     24  O   UNL     1      14.209  54.745  36.245  1.00  0.00    -0.493 OA
ATOM     25  C   UNL     1      13.097  54.424  37.075  1.00  0.00     0.278 C 
ENDBRANCH   8  24
BRANCH   7  26
ATOM     26  O   UNL     1      14.729  56.571  34.086  1.00  0.00    -0.490 OA
ATOM     27  C   UNL     1      13.661  57.509  34.004  1.00  0.00     0.278 C 
ENDBRANCH   7  26
TORSDOF 6
ENDMDL
MODEL 3
REMARK VINA RESULT:    -4.831      1.881      8.503
REMARK INTER + INTRA:          -7.140
REMARK INTER:                  -6.580
REMARK INTRA:                  -0.560
REMARK UNBOUND:                -0.615
REMARK SMILES COc1ccc(-c2cc(=O)c3c(OC)c(OC)c(OC)cc3o2)cc1OC
REMARK SMILES IDX 7 1 8 2 9 3 10 4 11 5 12 6 15 7 18 8 21 9 22 10 23 11 6 12
REMARK SMILES IDX 3 13 25 14 4 15 24 16 5 17 2 18 1 19 26 20 27 21 13 22 14 23
REMARK SMILES IDX 19 24 20 25 16 26 17 27
REMARK H PARENT
REMARK Flexibility Score: inf
ROOT
ATOM      1  C   UNL     1      14.560  50.301  32.232  1.00  0.00     0.138 A 
ATOM      2  C   UNL     1      15.738  50.137  31.490  1.00  0.00     0.100 A 
ATOM      3  C   UNL     1      16.166  48.852  31.158  1.00  0.00     0.197 A 
ATOM      4  O   UNL     1      17.228  48.723  30.491  1.00  0.00    -0.289 OA
ATOM      5  C   UNL     1      15.411  47.729  31.575  1.00  0.00     0.111 A 
ATOM      6  C   UNL     1      15.780  46.392  31.278  1.00  0.00     0.179 A 
ATOM      7  C   UNL     1      14.966  45.317  31.740  1.00  0.00     0.204 A 
ATOM      8  C   UNL     1      13.797  45.599  32.498  1.00  0.00     0.168 A 
ATOM      9  C   UNL     1      13.459  46.930  32.778  1.00  0.00     0.098 A 
ATOM     10  C   UNL     1      14.246  47.982  32.327  1.00  0.00     0.146 A 
ATOM     11  O   UNL     1      13.879  49.227  32.619  1.00  0.00    -0.456 OA
ENDROOT
BRANCH   1  12
ATOM     12  C   UNL     1      14.055  51.644  32.618  1.00  0.00     0.021 A 
ATOM     13  C   UNL     1      13.129  54.194  33.404  1.00  0.00     0.160 A 
ATOM     14  C   UNL     1      14.325  53.690  33.936  1.00  0.00     0.161 A 
ATOM     15  C   UNL     1      12.395  53.417  32.489  1.00  0.00     0.051 A 
ATOM     16  C   UNL     1      14.780  52.416  33.543  1.00  0.00     0.062 A 
ATOM     17  C   UNL     1      12.851  52.156  32.105  1.00  0.00     0.016 A 
BRANCH  13  18
ATOM     18  O   UNL     1      12.701  55.467  33.812  1.00  0.00    -0.493 OA
ATOM     19  C   UNL     1      11.603  55.708  34.687  1.00  0.00     0.278 C 
ENDBRANCH  13  18
BRANCH  14  20
ATOM     20  O   UNL     1      15.033  54.485  34.851  1.00  0.00    -0.493 OA
ATOM     21  C   UNL     1      14.968  54.342  36.266  1.00  0.00     0.278 C 
ENDBRANCH  14  20
ENDBRANCH   1  12
BRANCH   6  22
ATOM     22  O   UNL     1      16.956  46.191  30.523  1.00  0.00    -0.492 OA
ATOM     23  C   UNL     1      17.057  45.785  29.162  1.00  0.00     0.278 C 
ENDBRANCH   6  22
BRANCH   8  24
ATOM     24  O   UNL     1      12.988  44.547  32.959  1.00  0.00    -0.493 OA
ATOM     25  C   UNL     1      13.117  43.905  34.224  1.00  0.00     0.278 C 
ENDBRANCH   8  24
BRANCH   7  26
ATOM     26  O   UNL     1      15.356  44.001  31.424  1.00  0.00    -0.490 OA
ATOM     27  C   UNL     1      14.809  43.151  30.422  1.00  0.00     0.278 C 
ENDBRANCH   7  26
TORSDOF 6
ENDMDL
MODEL 4
REMARK VINA RESULT:    -4.782      1.920      8.836
REMARK INTER + INTRA:          -7.074
REMARK INTER:                  -6.489
REMARK INTRA:                  -0.585
REMARK UNBOUND:                -0.615
REMARK SMILES COc1ccc(-c2cc(=O)c3c(OC)c(OC)c(OC)cc3o2)cc1OC
REMARK SMILES IDX 7 1 8 2 9 3 10 4 11 5 12 6 15 7 18 8 21 9 22 10 23 11 6 12
REMARK SMILES IDX 3 13 25 14 4 15 24 16 5 17 2 18 1 19 26 20 27 21 13 22 14 23
REMARK SMILES IDX 19 24 20 25 16 26 17 27
REMARK H PARENT
REMARK Flexibility Score: inf
ROOT
ATOM      1  C   UNL     1      14.845  49.913  31.815  1.00  0.00     0.138 A 
ATOM      2  C   UNL     1      13.812  49.228  32.472  1.00  0.00     0.100 A 
ATOM      3  C   UNL     1      13.764  47.836  32.408  1.00  0.00     0.197 A 
ATOM      4  O   UNL     1      12.828  47.237  33.003  1.00  0.00    -0.289 OA
ATOM      5  C   UNL     1      14.751  47.130  31.679  1.00  0.00     0.111 A 
ATOM      6  C   UNL     1      14.771  45.716  31.567  1.00  0.00     0.179 A 
ATOM      7  C   UNL     1      15.799  45.083  30.809  1.00  0.00     0.204 A 
ATOM      8  C   UNL     1      16.791  45.877  30.173  1.00  0.00     0.168 A 
ATOM      9  C   UNL     1      16.746  47.273  30.301  1.00  0.00     0.098 A 
ATOM     10  C   UNL     1      15.748  47.895  31.040  1.00  0.00     0.146 A 
ATOM     11  O   UNL     1      15.752  49.222  31.131  1.00  0.00    -0.456 OA
ENDROOT
BRANCH   1  12
ATOM     12  C   UNL     1      14.948  51.394  31.846  1.00  0.00     0.021 A 
ATOM     13  C   UNL     1      15.122  54.211  31.964  1.00  0.00     0.160 A 
ATOM     14  C   UNL     1      15.137  53.459  33.148  1.00  0.00     0.161 A 
ATOM     15  C   UNL     1      15.010  53.552  30.726  1.00  0.00     0.051 A 
ATOM     16  C   UNL     1      15.046  52.055  33.083  1.00  0.00     0.062 A 
ATOM     17  C   UNL     1      14.920  52.161  30.669  1.00  0.00     0.016 A 
BRANCH  13  18
ATOM     18  O   UNL     1      15.217  55.608  32.059  1.00  0.00    -0.493 OA
ATOM     19  C   UNL     1      16.415  56.352  31.855  1.00  0.00     0.278 C 
ENDBRANCH  13  18
BRANCH  14  20
ATOM     20  O   UNL     1      15.245  54.144  34.369  1.00  0.00    -0.493 OA
ATOM     21  C   UNL     1      15.205  53.523  35.650  1.00  0.00     0.278 C 
ENDBRANCH  14  20
ENDBRANCH   1  12
BRANCH   6  22
ATOM     22  O   UNL     1      13.750  44.994  32.225  1.00  0.00    -0.492 OA
ATOM     23  C   UNL     1      13.878  44.150  33.364  1.00  0.00     0.278 C 
ENDBRANCH   6  22
BRANCH   8  24
ATOM     24  O   UNL     1      17.809  45.264  29.424  1.00  0.00    -0.493 OA
ATOM     25  C   UNL     1      17.729  44.940  28.040  1.00  0.00     0.278 C 
ENDBRANCH   8  24
BRANCH   7  26
ATOM     26  O   UNL     1      15.793  43.677  30.721  1.00  0.00    -0.490 OA
ATOM     27  C   UNL     1      15.117  42.871  29.762  1.00  0.00     0.278 C 
ENDBRANCH   7  26
TORSDOF 6
ENDMDL
MODEL 5
REMARK VINA RESULT:    -4.728      1.808      2.425
REMARK INTER + INTRA:          -7.000
REMARK INTER:                  -6.484
REMARK INTRA:                  -0.516
REMARK UNBOUND:                -0.615
REMARK SMILES COc1ccc(-c2cc(=O)c3c(OC)c(OC)c(OC)cc3o2)cc1OC
REMARK SMILES IDX 7 1 8 2 9 3 10 4 11 5 12 6 15 7 18 8 21 9 22 10 23 11 6 12
REMARK SMILES IDX 3 13 25 14 4 15 24 16 5 17 2 18 1 19 26 20 27 21 13 22 14 23
REMARK SMILES IDX 19 24 20 25 16 26 17 27
REMARK H PARENT
REMARK Flexibility Score: inf
ROOT
ATOM      1  C   UNL     1      14.721  49.830  31.858  1.00  0.00     0.138 A 
ATOM      2  C   UNL     1      14.784  50.355  30.559  1.00  0.00     0.100 A 
ATOM      3  C   UNL     1      14.872  51.735  30.380  1.00  0.00     0.197 A 
ATOM      4  O   UNL     1      14.927  52.189  29.206  1.00  0.00    -0.289 OA
ATOM      5  C   UNL     1      14.891  52.591  31.508  1.00  0.00     0.111 A 
ATOM      6  C   UNL     1      14.978  54.003  31.409  1.00  0.00     0.179 A 
ATOM      7  C   UNL     1      14.987  54.794  32.595  1.00  0.00     0.204 A 
ATOM      8  C   UNL     1      14.904  54.156  33.862  1.00  0.00     0.168 A 
ATOM      9  C   UNL     1      14.818  52.759  33.929  1.00  0.00     0.098 A 
ATOM     10  C   UNL     1      14.812  51.983  32.777  1.00  0.00     0.146 A 
ATOM     11  O   UNL     1      14.731  50.660  32.896  1.00  0.00    -0.456 OA
ENDROOT
BRANCH   1  12
ATOM     12  C   UNL     1      14.625  48.370  32.111  1.00  0.00     0.021 A 
ATOM     13  C   UNL     1      14.397  45.603  32.635  1.00  0.00     0.160 A 
ATOM     14  C   UNL     1      13.307  46.453  32.877  1.00  0.00     0.161 A 
ATOM     15  C   UNL     1      15.599  46.141  32.141  1.00  0.00     0.051 A 
ATOM     16  C   UNL     1      13.429  47.832  32.618  1.00  0.00     0.062 A 
ATOM     17  C   UNL     1      15.713  47.509  31.887  1.00  0.00     0.016 A 
BRANCH  13  18
ATOM     18  O   UNL     1      14.246  44.233  32.900  1.00  0.00    -0.493 OA
ATOM     19  C   UNL     1      14.272  43.212  31.908  1.00  0.00     0.278 C 
ENDBRANCH  13  18
BRANCH  14  20
ATOM     20  O   UNL     1      12.122  45.890  33.374  1.00  0.00    -0.493 OA
ATOM     21  C   UNL     1      11.611  46.107  34.686  1.00  0.00     0.278 C 
ENDBRANCH  14  20
ENDBRANCH   1  12
BRANCH   6  22
ATOM     22  O   UNL     1      15.054  54.564  30.115  1.00  0.00    -0.492 OA
ATOM     23  C   UNL     1      16.199  55.116  29.472  1.00  0.00     0.278 C 
ENDBRANCH   6  22
BRANCH   8  24
ATOM     24  O   UNL     1      14.912  54.926  35.038  1.00  0.00    -0.493 OA
ATOM     25  C   UNL     1      14.860  54.403  36.362  1.00  0.00     0.278 C 
ENDBRANCH   8  24
BRANCH   7  26
ATOM     26  O   UNL     1      15.079  56.193  32.463  1.00  0.00    -0.490 OA
ATOM     27  C   UNL     1      16.233  57.007  32.639  1.00  0.00     0.278 C 
ENDBRANCH   7  26
TORSDOF 6
ENDMDL
MODEL 6
REMARK VINA RESULT:    -4.593      1.802      8.479
REMARK INTER + INTRA:          -6.818
REMARK INTER:                  -6.260
REMARK INTRA:                  -0.558
REMARK UNBOUND:                -0.615
REMARK SMILES COc1ccc(-c2cc(=O)c3c(OC)c(OC)c(OC)cc3o2)cc1OC
REMARK SMILES IDX 7 1 8 2 9 3 10 4 11 5 12 6 15 7 18 8 21 9 22 10 23 11 6 12
REMARK SMILES IDX 3 13 25 14 4 15 24 16 5 17 2 18 1 19 26 20 27 21 13 22 14 23
REMARK SMILES IDX 19 24 20 25 16 26 17 27
REMARK H PARENT
REMARK Flexibility Score: inf
ROOT
ATOM      1  C   UNL     1      15.099  50.093  31.935  1.00  0.00     0.138 A 
ATOM      2  C   UNL     1      16.117  49.570  31.125  1.00  0.00     0.100 A 
ATOM      3  C   UNL     1      16.251  48.187  30.999  1.00  0.00     0.197 A 
ATOM      4  O   UNL     1      17.173  47.735  30.268  1.00  0.00    -0.289 OA
ATOM      5  C   UNL     1      15.363  47.329  31.690  1.00  0.00     0.111 A 
ATOM      6  C   UNL     1      15.435  45.914  31.613  1.00  0.00     0.179 A 
ATOM      7  C   UNL     1      14.504  45.120  32.346  1.00  0.00     0.204 A 
ATOM      8  C   UNL     1      13.519  45.757  33.148  1.00  0.00     0.168 A 
ATOM      9  C   UNL     1      13.473  47.157  33.205  1.00  0.00     0.098 A 
ATOM     10  C   UNL     1      14.375  47.936  32.491  1.00  0.00     0.146 A 
ATOM     11  O   UNL     1      14.287  49.260  32.579  1.00  0.00    -0.456 OA
ENDROOT
BRANCH   1  12
ATOM     12  C   UNL     1      14.908  51.556  32.109  1.00  0.00     0.021 A 
ATOM     13  C   UNL     1      14.576  54.347  32.388  1.00  0.00     0.160 A 
ATOM     14  C   UNL     1      14.791  53.791  31.118  1.00  0.00     0.161 A 
ATOM     15  C   UNL     1      14.538  53.506  33.515  1.00  0.00     0.051 A 
ATOM     16  C   UNL     1      14.960  52.399  30.986  1.00  0.00     0.062 A 
ATOM     17  C   UNL     1      14.706  52.128  33.377  1.00  0.00     0.016 A 
BRANCH  13  18
ATOM     18  O   UNL     1      14.408  55.737  32.489  1.00  0.00    -0.493 OA
ATOM     19  C   UNL     1      15.277  56.604  33.211  1.00  0.00     0.278 C 
ENDBRANCH  13  18
BRANCH  14  20
ATOM     20  O   UNL     1      14.829  54.655  30.012  1.00  0.00    -0.493 OA
ATOM     21  C   UNL     1      16.023  55.120  29.390  1.00  0.00     0.278 C 
ENDBRANCH  14  20
ENDBRANCH   1  12
BRANCH   6  22
ATOM     22  O   UNL     1      16.443  45.354  30.798  1.00  0.00    -0.492 OA
ATOM     23  C   UNL     1      16.282  44.687  29.550  1.00  0.00     0.278 C 
ENDBRANCH   6  22
BRANCH   8  24
ATOM     24  O   UNL     1      12.597  44.985  33.874  1.00  0.00    -0.493 OA
ATOM     25  C   UNL     1      12.629  44.776  35.282  1.00  0.00     0.278 C 
ENDBRANCH   8  24
BRANCH   7  26
ATOM     26  O   UNL     1      14.598  43.719  32.245  1.00  0.00    -0.490 OA
ATOM     27  C   UNL     1      13.773  42.847  31.481  1.00  0.00     0.278 C 
ENDBRANCH   7  26
TORSDOF 6
ENDMDL
MODEL 7
REMARK VINA RESULT:    -4.537      2.019      3.464
REMARK INTER + INTRA:          -6.743
REMARK INTER:                  -6.173
REMARK INTRA:                  -0.570
REMARK UNBOUND:                -0.615
REMARK SMILES COc1ccc(-c2cc(=O)c3c(OC)c(OC)c(OC)cc3o2)cc1OC
REMARK SMILES IDX 7 1 8 2 9 3 10 4 11 5 12 6 15 7 18 8 21 9 22 10 23 11 6 12
REMARK SMILES IDX 3 13 25 14 4 15 24 16 5 17 2 18 1 19 26 20 27 21 13 22 14 23
REMARK SMILES IDX 19 24 20 25 16 26 17 27
REMARK H PARENT
REMARK Flexibility Score: inf
ROOT
ATOM      1  C   UNL     1      14.274  51.972  32.155  1.00  0.00     0.138 A 
ATOM      2  C   UNL     1      12.921  52.158  32.471  1.00  0.00     0.100 A 
ATOM      3  C   UNL     1      12.488  53.405  32.923  1.00  0.00     0.197 A 
ATOM      4  O   UNL     1      11.269  53.554  33.204  1.00  0.00    -0.289 OA
ATOM      5  C   UNL     1      13.417  54.464  33.061  1.00  0.00     0.111 A 
ATOM      6  C   UNL     1      13.055  55.759  33.513  1.00  0.00     0.179 A 
ATOM      7  C   UNL     1      14.053  56.770  33.629  1.00  0.00     0.204 A 
ATOM      8  C   UNL     1      15.400  56.466  33.293  1.00  0.00     0.168 A 
ATOM      9  C   UNL     1      15.729  55.177  32.849  1.00  0.00     0.098 A 
ATOM     10  C   UNL     1      14.760  54.189  32.732  1.00  0.00     0.146 A 
ATOM     11  O   UNL     1      15.124  52.983  32.304  1.00  0.00    -0.456 OA
ENDROOT
BRANCH   1  12
ATOM     12  C   UNL     1      14.795  50.667  31.671  1.00  0.00     0.021 A 
ATOM     13  C   UNL     1      15.798  48.213  30.696  1.00  0.00     0.160 A 
ATOM     14  C   UNL     1      16.234  49.421  30.132  1.00  0.00     0.161 A 
ATOM     15  C   UNL     1      14.854  48.236  31.739  1.00  0.00     0.051 A 
ATOM     16  C   UNL     1      15.727  50.641  30.619  1.00  0.00     0.062 A 
ATOM     17  C   UNL     1      14.356  49.449  32.217  1.00  0.00     0.016 A 
BRANCH  13  18
ATOM     18  O   UNL     1      16.322  47.013  30.192  1.00  0.00    -0.493 OA
ATOM     19  C   UNL     1      17.218  46.162  30.900  1.00  0.00     0.278 C 
ENDBRANCH  13  18
BRANCH  14  20
ATOM     20  O   UNL     1      17.173  49.367  29.089  1.00  0.00    -0.493 OA
ATOM     21  C   UNL     1      17.402  50.415  28.153  1.00  0.00     0.278 C 
ENDBRANCH  14  20
ENDBRANCH   1  12
BRANCH   6  22
ATOM     22  O   UNL     1      11.698  55.985  33.831  1.00  0.00    -0.492 OA
ATOM     23  C   UNL     1      11.137  56.250  35.113  1.00  0.00     0.278 C 
ENDBRANCH   6  22
BRANCH   8  24
ATOM     24  O   UNL     1      16.393  57.455  33.403  1.00  0.00    -0.493 OA
ATOM     25  C   UNL     1      17.557  57.544  32.588  1.00  0.00     0.278 C 
ENDBRANCH   8  24
BRANCH   7  26
ATOM     26  O   UNL     1      13.661  58.047  34.077  1.00  0.00    -0.490 OA
ATOM     27  C   UNL     1      13.270  59.162  33.283  1.00  0.00     0.278 C 
ENDBRANCH   7  26
TORSDOF 6
ENDMDL
MODEL 8
REMARK VINA RESULT:    -4.528      1.958      4.194
REMARK INTER + INTRA:          -6.731
REMARK INTER:                  -6.264
REMARK INTRA:                  -0.467
REMARK UNBOUND:                -0.615
REMARK SMILES COc1ccc(-c2cc(=O)c3c(OC)c(OC)c(OC)cc3o2)cc1OC
REMARK SMILES IDX 7 1 8 2 9 3 10 4 11 5 12 6 15 7 18 8 21 9 22 10 23 11 6 12
REMARK SMILES IDX 3 13 25 14 4 15 24 16 5 17 2 18 1 19 26 20 27 21 13 22 14 23
REMARK SMILES IDX 19 24 20 25 16 26 17 27
REMARK H PARENT
REMARK Flexibility Score: inf
ROOT
ATOM      1  C   UNL     1      14.972  51.925  32.106  1.00  0.00     0.138 A 
ATOM      2  C   UNL     1      14.972  52.560  33.356  1.00  0.00     0.100 A 
ATOM      3  C   UNL     1      15.151  53.941  33.424  1.00  0.00     0.197 A 
ATOM      4  O   UNL     1      15.149  54.495  34.556  1.00  0.00    -0.289 OA
ATOM      5  C   UNL     1      15.334  54.686  32.234  1.00  0.00     0.111 A 
ATOM      6  C   UNL     1      15.521  56.092  32.219  1.00  0.00     0.179 A 
ATOM      7  C   UNL     1      15.704  56.766  30.976  1.00  0.00     0.204 A 
ATOM      8  C   UNL     1      15.699  56.020  29.767  1.00  0.00     0.168 A 
ATOM      9  C   UNL     1      15.512  54.631  29.812  1.00  0.00     0.098 A 
ATOM     10  C   UNL     1      15.331  53.969  31.020  1.00  0.00     0.146 A 
ATOM     11  O   UNL     1      15.156  52.650  31.007  1.00  0.00    -0.456 OA
ENDROOT
BRANCH   1  12
ATOM     12  C   UNL     1      14.788  50.457  31.971  1.00  0.00     0.021 A 
ATOM     13  C   UNL     1      14.486  47.664  31.672  1.00  0.00     0.160 A 
ATOM     14  C   UNL     1      15.719  48.269  31.386  1.00  0.00     0.161 A 
ATOM     15  C   UNL     1      13.406  48.459  32.098  1.00  0.00     0.051 A 
ATOM     16  C   UNL     1      15.862  49.662  31.532  1.00  0.00     0.062 A 
ATOM     17  C   UNL     1      13.555  49.839  32.240  1.00  0.00     0.016 A 
BRANCH  13  18
ATOM     18  O   UNL     1      14.373  46.274  31.520  1.00  0.00    -0.493 OA
ATOM     19  C   UNL     1      14.501  45.332  32.580  1.00  0.00     0.278 C 
ENDBRANCH  13  18
BRANCH  14  20
ATOM     20  O   UNL     1      16.777  47.452  30.958  1.00  0.00    -0.493 OA
ATOM     21  C   UNL     1      17.044  47.118  29.600  1.00  0.00     0.278 C 
ENDBRANCH  14  20
ENDBRANCH   1  12
BRANCH   6  22
ATOM     22  O   UNL     1      15.517  56.764  33.461  1.00  0.00    -0.492 OA
ATOM     23  C   UNL     1      14.520  57.646  33.969  1.00  0.00     0.278 C 
ENDBRANCH   6  22
BRANCH   8  24
ATOM     24  O   UNL     1      15.877  56.673  28.537  1.00  0.00    -0.493 OA
ATOM     25  C   UNL     1      16.183  56.032  27.302  1.00  0.00     0.278 C 
ENDBRANCH   8  24
BRANCH   7  26
ATOM     26  O   UNL     1      15.883  58.163  30.995  1.00  0.00    -0.490 OA
ATOM     27  C   UNL     1      14.919  59.165  30.693  1.00  0.00     0.278 C 
ENDBRANCH   7  26
TORSDOF 6
ENDMDL
MODEL 9
REMARK VINA RESULT:    -4.439      1.857      8.582
REMARK INTER + INTRA:          -6.610
REMARK INTER:                  -6.083
REMARK INTRA:                  -0.527
REMARK UNBOUND:                -0.615
REMARK SMILES COc1ccc(-c2cc(=O)c3c(OC)c(OC)c(OC)cc3o2)cc1OC
REMARK SMILES IDX 7 1 8 2 9 3 10 4 11 5 12 6 15 7 18 8 21 9 22 10 23 11 6 12
REMARK SMILES IDX 3 13 25 14 4 15 24 16 5 17 2 18 1 19 26 20 27 21 13 22 14 23
REMARK SMILES IDX 19 24 20 25 16 26 17 27
REMARK H PARENT
REMARK Flexibility Score: inf
ROOT
ATOM      1  C   UNL     1      14.973  51.376  32.044  1.00  0.00     0.138 A 
ATOM      2  C   UNL     1      14.246  50.323  32.617  1.00  0.00     0.100 A 
ATOM      3  C   UNL     1      14.295  49.058  32.031  1.00  0.00     0.197 A 
ATOM      4  O   UNL     1      13.634  48.123  32.559  1.00  0.00    -0.289 OA
ATOM      5  C   UNL     1      15.071  48.851  30.866  1.00  0.00     0.111 A 
ATOM      6  C   UNL     1      15.171  47.596  30.212  1.00  0.00     0.179 A 
ATOM      7  C   UNL     1      15.971  47.474  29.039  1.00  0.00     0.204 A 
ATOM      8  C   UNL     1      16.657  48.613  28.536  1.00  0.00     0.168 A 
ATOM      9  C   UNL     1      16.538  49.841  29.203  1.00  0.00     0.098 A 
ATOM     10  C   UNL     1      15.762  49.965  30.348  1.00  0.00     0.146 A 
ATOM     11  O   UNL     1      15.685  51.153  30.943  1.00  0.00    -0.456 OA
ENDROOT
BRANCH   1  12
ATOM     12  C   UNL     1      14.960  52.745  32.621  1.00  0.00     0.021 A 
ATOM     13  C   UNL     1      14.906  55.324  33.770  1.00  0.00     0.160 A 
ATOM     14  C   UNL     1      14.871  54.190  34.595  1.00  0.00     0.161 A 
ATOM     15  C   UNL     1      14.958  55.164  32.373  1.00  0.00     0.051 A 
ATOM     16  C   UNL     1      14.894  52.907  34.016  1.00  0.00     0.062 A 
ATOM     17  C   UNL     1      14.979  53.889  31.806  1.00  0.00     0.016 A 
BRANCH  13  18
ATOM     18  O   UNL     1      14.885  56.591  34.375  1.00  0.00    -0.493 OA
ATOM     19  C   UNL     1      15.447  57.768  33.803  1.00  0.00     0.278 C 
ENDBRANCH  13  18
BRANCH  14  20
ATOM     20  O   UNL     1      14.815  54.380  35.985  1.00  0.00    -0.493 OA
ATOM     21  C   UNL     1      13.634  54.254  36.771  1.00  0.00     0.278 C 
ENDBRANCH  14  20
ENDBRANCH   1  12
BRANCH   6  22
ATOM     22  O   UNL     1      14.459  46.511  30.769  1.00  0.00    -0.492 OA
ATOM     23  C   UNL     1      14.990  45.390  31.469  1.00  0.00     0.278 C 
ENDBRANCH   6  22
BRANCH   8  24
ATOM     24  O   UNL     1      17.448  48.505  27.381  1.00  0.00    -0.493 OA
ATOM     25  C   UNL     1      17.141  49.085  26.117  1.00  0.00     0.278 C 
ENDBRANCH   8  24
BRANCH   7  26
ATOM     26  O   UNL     1      16.054  46.214  28.416  1.00  0.00    -0.490 OA
ATOM     27  C   UNL     1      17.134  45.288  28.471  1.00  0.00     0.278 C 
ENDBRANCH   7  26
TORSDOF 6
ENDMDL
