MODEL 1
REMARK VINA RESULT:    -5.396      0.000      0.000
REMARK INTER + INTRA:         -10.892
REMARK INTER:                 -10.127
REMARK INTRA:                  -0.765
REMARK UNBOUND:                -0.765
REMARK SMILES O=C([O-])CCCCCCCCCCCCCCC(=O)[O-]
REMARK SMILES IDX 10 1 9 2 8 3 7 4 6 5 5 6 4 7 2 8 1 9 3 10 11 11 12 12 13 13
REMARK SMILES IDX 14 14 15 15 16 16 17 17 18 18 19 19 20 20
REMARK H PARENT
REMARK Flexibility Score: inf
ROOT
ATOM      1  C   UNL     1      -8.026  25.809 -28.035  1.00  0.00     0.000 C 
ENDROOT
BRANCH   1   2
ATOM      2  C   UNL     1      -9.310  25.107 -27.547  1.00  0.00     0.000 C 
BRANCH   2   3
ATOM      3  C   UNL     1      -9.161  24.339 -26.221  1.00  0.00     0.000 C 
BRANCH   3   4
ATOM      4  C   UNL     1     -10.268  23.290 -26.014  1.00  0.00     0.000 C 
BRANCH   4   5
ATOM      5  C   UNL     1      -9.870  22.201 -25.005  1.00  0.00     0.000 C 
BRANCH   5   6
ATOM      6  C   UNL     1      -9.178  22.779 -23.758  1.00  0.00     0.006 C 
BRANCH   6   7
ATOM      7  C   UNL     1     -10.170  23.051 -22.619  1.00  0.00     0.053 C 
BRANCH   7   8
ATOM      8  C   UNL     1      -9.543  22.848 -21.274  1.00  0.00     0.041 C 
ATOM      9  O   UNL     1      -8.300  22.979 -21.127  1.00  0.00    -0.550 OA
ATOM     10  O   UNL     1     -10.337  22.542 -20.174  1.00  0.00    -0.550 OA
ENDBRANCH   7   8
ENDBRANCH   6   7
ENDBRANCH   5   6
ENDBRANCH   4   5
ENDBRANCH   3   4
ENDBRANCH   2   3
ENDBRANCH   1   2
BRANCH   1  11
ATOM     11  C   UNL     1      -7.593  27.034 -27.207  1.00  0.00     0.000 C 
BRANCH  11  12
ATOM     12  C   UNL     1      -8.733  27.737 -26.448  1.00  0.00     0.000 C 
BRANCH  12  13
ATOM     13  C   UNL     1      -8.500  27.776 -24.928  1.00  0.00     0.000 C 
BRANCH  13  14
ATOM     14  C   UNL     1      -7.068  28.189 -24.557  1.00  0.00     0.000 C 
BRANCH  14  15
ATOM     15  C   UNL     1      -6.940  28.612 -23.083  1.00  0.00     0.000 C 
BRANCH  15  16
ATOM     16  C   UNL     1      -5.511  29.042 -22.715  1.00  0.00     0.006 C 
BRANCH  16  17
ATOM     17  C   UNL     1      -5.386  29.499 -21.256  1.00  0.00     0.053 C 
BRANCH  17  18
ATOM     18  C   UNL     1      -5.757  28.387 -20.327  1.00  0.00     0.041 C 
ATOM     19  O   UNL     1      -5.379  27.209 -20.565  1.00  0.00    -0.550 OA
ATOM     20  O   UNL     1      -6.477  28.658 -19.170  1.00  0.00    -0.550 OA
ENDBRANCH  17  18
ENDBRANCH  16  17
ENDBRANCH  15  16
ENDBRANCH  14  15
ENDBRANCH  13  14
ENDBRANCH  12  13
ENDBRANCH  11  12
ENDBRANCH   1  11
TORSDOF 15
ENDMDL
MODEL 2
REMARK VINA RESULT:    -5.279      2.130      3.883
REMARK INTER + INTRA:         -10.674
REMARK INTER:                  -9.749
REMARK INTRA:                  -0.925
REMARK UNBOUND:                -0.765
REMARK SMILES O=C([O-])CCCCCCCCCCCCCCC(=O)[O-]
REMARK SMILES IDX 10 1 9 2 8 3 7 4 6 5 5 6 4 7 2 8 1 9 3 10 11 11 12 12 13 13
REMARK SMILES IDX 14 14 15 15 16 16 17 17 18 18 19 19 20 20
REMARK H PARENT
REMARK Flexibility Score: inf
ROOT
ATOM      1  C   UNL     1      -8.122  27.776 -24.430  1.00  0.00     0.000 C 
ENDROOT
BRANCH   1   2
ATOM      2  C   UNL     1      -8.552  27.740 -25.910  1.00  0.00     0.000 C 
BRANCH   2   3
ATOM      3  C   UNL     1      -7.444  27.330 -26.896  1.00  0.00     0.000 C 
BRANCH   3   4
ATOM      4  C   UNL     1      -7.963  26.433 -28.034  1.00  0.00     0.000 C 
BRANCH   4   5
ATOM      5  C   UNL     1      -9.258  25.694 -27.661  1.00  0.00     0.000 C 
BRANCH   5   6
ATOM      6  C   UNL     1      -8.998  24.447 -26.799  1.00  0.00     0.006 C 
BRANCH   6   7
ATOM      7  C   UNL     1     -10.283  23.910 -26.153  1.00  0.00     0.053 C 
BRANCH   7   8
ATOM      8  C   UNL     1     -10.006  22.769 -25.223  1.00  0.00     0.041 C 
ATOM      9  O   UNL     1     -10.861  21.860 -25.062  1.00  0.00    -0.550 OA
ATOM     10  O   UNL     1      -8.788  22.694 -24.556  1.00  0.00    -0.550 OA
ENDBRANCH   7   8
ENDBRANCH   6   7
ENDBRANCH   5   6
ENDBRANCH   4   5
ENDBRANCH   3   4
ENDBRANCH   2   3
ENDBRANCH   1   2
BRANCH   1  11
ATOM     11  C   UNL     1      -6.785  28.492 -24.153  1.00  0.00     0.000 C 
BRANCH  11  12
ATOM     12  C   UNL     1      -6.531  28.836 -22.674  1.00  0.00     0.000 C 
BRANCH  12  13
ATOM     13  C   UNL     1      -5.158  29.490 -22.442  1.00  0.00     0.000 C 
BRANCH  13  14
ATOM     14  C   UNL     1      -4.156  28.543 -21.765  1.00  0.00     0.000 C 
BRANCH  14  15
ATOM     15  C   UNL     1      -4.794  27.728 -20.626  1.00  0.00     0.000 C 
BRANCH  15  16
ATOM     16  C   UNL     1      -4.917  28.533 -19.322  1.00  0.00     0.006 C 
BRANCH  16  17
ATOM     17  C   UNL     1      -6.375  28.783 -18.915  1.00  0.00     0.053 C 
BRANCH  17  18
ATOM     18  C   UNL     1      -6.584  30.225 -18.578  1.00  0.00     0.041 C 
ATOM     19  O   UNL     1      -7.190  30.548 -17.522  1.00  0.00    -0.550 OA
ATOM     20  O   UNL     1      -6.065  31.214 -19.403  1.00  0.00    -0.550 OA
ENDBRANCH  17  18
ENDBRANCH  16  17
ENDBRANCH  15  16
ENDBRANCH  14  15
ENDBRANCH  13  14
ENDBRANCH  12  13
ENDBRANCH  11  12
ENDBRANCH   1  11
TORSDOF 15
ENDMDL
MODEL 3
REMARK VINA RESULT:    -5.171      1.914      7.173
REMARK INTER + INTRA:         -10.471
REMARK INTER:                  -9.407
REMARK INTRA:                  -1.063
REMARK UNBOUND:                -0.765
REMARK SMILES O=C([O-])CCCCCCCCCCCCCCC(=O)[O-]
REMARK SMILES IDX 10 1 9 2 8 3 7 4 6 5 5 6 4 7 2 8 1 9 3 10 11 11 12 12 13 13
REMARK SMILES IDX 14 14 15 15 16 16 17 17 18 18 19 19 20 20
REMARK H PARENT
REMARK Flexibility Score: inf
ROOT
ATOM      1  C   UNL     1      -7.666  28.071 -23.994  1.00  0.00     0.000 C 
ENDROOT
BRANCH   1   2
ATOM      2  C   UNL     1      -6.763  28.527 -22.831  1.00  0.00     0.000 C 
BRANCH   2   3
ATOM      3  C   UNL     1      -5.435  29.177 -23.260  1.00  0.00     0.000 C 
BRANCH   3   4
ATOM      4  C   UNL     1      -4.677  29.814 -22.081  1.00  0.00     0.000 C 
BRANCH   4   5
ATOM      5  C   UNL     1      -3.823  28.796 -21.308  1.00  0.00     0.000 C 
BRANCH   5   6
ATOM      6  C   UNL     1      -4.104  28.820 -19.796  1.00  0.00     0.006 C 
BRANCH   6   7
ATOM      7  C   UNL     1      -5.304  29.710 -19.443  1.00  0.00     0.053 C 
BRANCH   7   8
ATOM      8  C   UNL     1      -6.332  28.970 -18.643  1.00  0.00     0.041 C 
ATOM      9  O   UNL     1      -6.556  27.753 -18.870  1.00  0.00    -0.550 OA
ATOM     10  O   UNL     1      -7.022  29.619 -17.626  1.00  0.00    -0.550 OA
ENDBRANCH   7   8
ENDBRANCH   6   7
ENDBRANCH   5   6
ENDBRANCH   4   5
ENDBRANCH   3   4
ENDBRANCH   2   3
ENDBRANCH   1   2
BRANCH   1  11
ATOM     11  C   UNL     1      -6.980  28.011 -25.373  1.00  0.00     0.000 C 
BRANCH  11  12
ATOM     12  C   UNL     1      -7.913  27.656 -26.545  1.00  0.00     0.000 C 
BRANCH  12  13
ATOM     13  C   UNL     1      -7.228  26.776 -27.605  1.00  0.00     0.000 C 
BRANCH  13  14
ATOM     14  C   UNL     1      -8.222  25.888 -28.370  1.00  0.00     0.000 C 
BRANCH  14  15
ATOM     15  C   UNL     1      -9.423  25.467 -27.505  1.00  0.00     0.000 C 
BRANCH  15  16
ATOM     16  C   UNL     1      -9.182  24.139 -26.770  1.00  0.00     0.006 C 
BRANCH  16  17
ATOM     17  C   UNL     1      -9.625  24.186 -25.302  1.00  0.00     0.053 C 
BRANCH  17  18
ATOM     18  C   UNL     1     -10.660  23.140 -25.034  1.00  0.00     0.041 C 
ATOM     19  O   UNL     1     -11.789  23.209 -25.591  1.00  0.00    -0.550 OA
ATOM     20  O   UNL     1     -10.364  22.062 -24.211  1.00  0.00    -0.550 OA
ENDBRANCH  17  18
ENDBRANCH  16  17
ENDBRANCH  15  16
ENDBRANCH  14  15
ENDBRANCH  13  14
ENDBRANCH  12  13
ENDBRANCH  11  12
ENDBRANCH   1  11
TORSDOF 15
ENDMDL
MODEL 4
REMARK VINA RESULT:    -5.166      1.037      6.352
REMARK INTER + INTRA:         -10.460
REMARK INTER:                  -9.660
REMARK INTRA:                  -0.800
REMARK UNBOUND:                -0.765
REMARK SMILES O=C([O-])CCCCCCCCCCCCCCC(=O)[O-]
REMARK SMILES IDX 10 1 9 2 8 3 7 4 6 5 5 6 4 7 2 8 1 9 3 10 11 11 12 12 13 13
REMARK SMILES IDX 14 14 15 15 16 16 17 17 18 18 19 19 20 20
REMARK H PARENT
REMARK Flexibility Score: inf
ROOT
ATOM      1  C   UNL     1      -7.739  27.458 -26.748  1.00  0.00     0.000 C 
ENDROOT
BRANCH   1   2
ATOM      2  C   UNL     1      -7.963  27.784 -25.258  1.00  0.00     0.000 C 
BRANCH   2   3
ATOM      3  C   UNL     1      -6.711  28.274 -24.508  1.00  0.00     0.000 C 
BRANCH   3   4
ATOM      4  C   UNL     1      -7.033  28.815 -23.103  1.00  0.00     0.000 C 
BRANCH   4   5
ATOM      5  C   UNL     1      -5.947  28.465 -22.073  1.00  0.00     0.000 C 
BRANCH   5   6
ATOM      6  C   UNL     1      -6.336  28.883 -20.644  1.00  0.00     0.006 C 
BRANCH   6   7
ATOM      7  C   UNL     1      -5.744  27.943 -19.584  1.00  0.00     0.053 C 
BRANCH   7   8
ATOM      8  C   UNL     1      -4.251  27.867 -19.678  1.00  0.00     0.041 C 
ATOM      9  O   UNL     1      -3.542  28.839 -19.307  1.00  0.00    -0.550 OA
ATOM     10  O   UNL     1      -3.640  26.710 -20.149  1.00  0.00    -0.550 OA
ENDBRANCH   7   8
ENDBRANCH   6   7
ENDBRANCH   5   6
ENDBRANCH   4   5
ENDBRANCH   3   4
ENDBRANCH   2   3
ENDBRANCH   1   2
BRANCH   1  11
ATOM     11  C   UNL     1      -8.628  26.333 -27.314  1.00  0.00     0.000 C 
BRANCH  11  12
ATOM     12  C   UNL     1      -9.422  25.543 -26.258  1.00  0.00     0.000 C 
BRANCH  12  13
ATOM     13  C   UNL     1      -9.452  24.032 -26.543  1.00  0.00     0.000 C 
BRANCH  13  14
ATOM     14  C   UNL     1     -10.576  23.308 -25.787  1.00  0.00     0.000 C 
BRANCH  14  15
ATOM     15  C   UNL     1     -10.050  22.160 -24.907  1.00  0.00     0.000 C 
BRANCH  15  16
ATOM     16  C   UNL     1      -9.192  22.663 -23.734  1.00  0.00     0.006 C 
BRANCH  16  17
ATOM     17  C   UNL     1     -10.031  23.280 -22.608  1.00  0.00     0.053 C 
BRANCH  17  18
ATOM     18  C   UNL     1      -9.525  22.832 -21.273  1.00  0.00     0.041 C 
ATOM     19  O   UNL     1      -8.377  23.175 -20.884  1.00  0.00    -0.550 OA
ATOM     20  O   UNL     1     -10.339  22.080 -20.437  1.00  0.00    -0.550 OA
ENDBRANCH  17  18
ENDBRANCH  16  17
ENDBRANCH  15  16
ENDBRANCH  14  15
ENDBRANCH  13  14
ENDBRANCH  12  13
ENDBRANCH  11  12
ENDBRANCH   1  11
TORSDOF 15
ENDMDL
MODEL 5
REMARK VINA RESULT:    -5.162      1.458      1.909
REMARK INTER + INTRA:         -10.453
REMARK INTER:                  -9.709
REMARK INTRA:                  -0.743
REMARK UNBOUND:                -0.765
REMARK SMILES O=C([O-])CCCCCCCCCCCCCCC(=O)[O-]
REMARK SMILES IDX 10 1 9 2 8 3 7 4 6 5 5 6 4 7 2 8 1 9 3 10 11 11 12 12 13 13
REMARK SMILES IDX 14 14 15 15 16 16 17 17 18 18 19 19 20 20
REMARK H PARENT
REMARK Flexibility Score: inf
ROOT
ATOM      1  C   UNL     1      -9.012  26.265 -25.761  1.00  0.00     0.000 C 
ENDROOT
BRANCH   1   2
ATOM      2  C   UNL     1      -9.294  25.256 -26.893  1.00  0.00     0.000 C 
BRANCH   2   3
ATOM      3  C   UNL     1      -9.203  23.776 -26.478  1.00  0.00     0.000 C 
BRANCH   3   4
ATOM      4  C   UNL     1     -10.516  23.247 -25.874  1.00  0.00     0.000 C 
BRANCH   4   5
ATOM      5  C   UNL     1     -10.281  22.235 -24.741  1.00  0.00     0.000 C 
BRANCH   5   6
ATOM      6  C   UNL     1      -9.378  22.796 -23.629  1.00  0.00     0.006 C 
BRANCH   6   7
ATOM      7  C   UNL     1     -10.182  23.230 -22.395  1.00  0.00     0.053 C 
BRANCH   7   8
ATOM      8  C   UNL     1      -9.558  22.741 -21.123  1.00  0.00     0.041 C 
ATOM      9  O   UNL     1      -8.353  23.000 -20.868  1.00  0.00    -0.550 OA
ATOM     10  O   UNL     1     -10.317  22.025 -20.205  1.00  0.00    -0.550 OA
ENDBRANCH   7   8
ENDBRANCH   6   7
ENDBRANCH   5   6
ENDBRANCH   4   5
ENDBRANCH   3   4
ENDBRANCH   2   3
ENDBRANCH   1   2
BRANCH   1  11
ATOM     11  C   UNL     1      -8.388  27.600 -26.213  1.00  0.00     0.000 C 
BRANCH  11  12
ATOM     12  C   UNL     1      -7.153  28.041 -25.406  1.00  0.00     0.000 C 
BRANCH  12  13
ATOM     13  C   UNL     1      -7.437  28.155 -23.899  1.00  0.00     0.000 C 
BRANCH  13  14
ATOM     14  C   UNL     1      -6.273  28.789 -23.122  1.00  0.00     0.000 C 
BRANCH  14  15
ATOM     15  C   UNL     1      -6.280  28.405 -21.632  1.00  0.00     0.000 C 
BRANCH  15  16
ATOM     16  C   UNL     1      -5.501  29.404 -20.761  1.00  0.00     0.006 C 
BRANCH  16  17
ATOM     17  C   UNL     1      -6.017  29.460 -19.318  1.00  0.00     0.053 C 
BRANCH  17  18
ATOM     18  C   UNL     1      -6.670  30.779 -19.048  1.00  0.00     0.041 C 
ATOM     19  O   UNL     1      -6.842  31.170 -17.862  1.00  0.00    -0.550 OA
ATOM     20  O   UNL     1      -7.043  31.600 -20.104  1.00  0.00    -0.550 OA
ENDBRANCH  17  18
ENDBRANCH  16  17
ENDBRANCH  15  16
ENDBRANCH  14  15
ENDBRANCH  13  14
ENDBRANCH  12  13
ENDBRANCH  11  12
ENDBRANCH   1  11
TORSDOF 15
ENDMDL
MODEL 6
REMARK VINA RESULT:    -5.153      1.847      7.129
REMARK INTER + INTRA:         -10.437
REMARK INTER:                  -9.369
REMARK INTRA:                  -1.068
REMARK UNBOUND:                -0.765
REMARK SMILES O=C([O-])CCCCCCCCCCCCCCC(=O)[O-]
REMARK SMILES IDX 10 1 9 2 8 3 7 4 6 5 5 6 4 7 2 8 1 9 3 10 11 11 12 12 13 13
REMARK SMILES IDX 14 14 15 15 16 16 17 17 18 18 19 19 20 20
REMARK H PARENT
REMARK Flexibility Score: inf
ROOT
ATOM      1  C   UNL     1      -7.550  28.152 -23.852  1.00  0.00     0.000 C 
ENDROOT
BRANCH   1   2
ATOM      2  C   UNL     1      -6.125  28.732 -23.952  1.00  0.00     0.000 C 
BRANCH   2   3
ATOM      3  C   UNL     1      -5.508  29.166 -22.609  1.00  0.00     0.000 C 
BRANCH   3   4
ATOM      4  C   UNL     1      -6.401  28.817 -21.405  1.00  0.00     0.000 C 
BRANCH   4   5
ATOM      5  C   UNL     1      -6.352  29.888 -20.303  1.00  0.00     0.000 C 
BRANCH   5   6
ATOM      6  C   UNL     1      -5.027  29.867 -19.520  1.00  0.00     0.006 C 
BRANCH   6   7
ATOM      7  C   UNL     1      -4.681  28.463 -19.005  1.00  0.00     0.053 C 
BRANCH   7   8
ATOM      8  C   UNL     1      -3.323  28.022 -19.458  1.00  0.00     0.041 C 
ATOM      9  O   UNL     1      -3.181  26.930 -20.067  1.00  0.00    -0.550 OA
ATOM     10  O   UNL     1      -2.217  28.833 -19.233  1.00  0.00    -0.550 OA
ENDBRANCH   7   8
ENDBRANCH   6   7
ENDBRANCH   5   6
ENDBRANCH   4   5
ENDBRANCH   3   4
ENDBRANCH   2   3
ENDBRANCH   1   2
BRANCH   1  11
ATOM     11  C   UNL     1      -8.175  27.713 -25.191  1.00  0.00     0.000 C 
BRANCH  11  12
ATOM     12  C   UNL     1      -7.208  27.721 -26.388  1.00  0.00     0.000 C 
BRANCH  12  13
ATOM     13  C   UNL     1      -7.770  26.975 -27.611  1.00  0.00     0.000 C 
BRANCH  13  14
ATOM     14  C   UNL     1      -9.082  26.237 -27.304  1.00  0.00     0.000 C 
BRANCH  14  15
ATOM     15  C   UNL     1      -8.890  24.713 -27.205  1.00  0.00     0.000 C 
BRANCH  15  16
ATOM     16  C   UNL     1      -9.926  24.047 -26.285  1.00  0.00     0.006 C 
BRANCH  16  17
ATOM     17  C   UNL     1      -9.560  24.164 -24.799  1.00  0.00     0.053 C 
BRANCH  17  18
ATOM     18  C   UNL     1      -9.945  22.917 -24.067  1.00  0.00     0.041 C 
ATOM     19  O   UNL     1     -10.307  21.893 -24.706  1.00  0.00    -0.550 OA
ATOM     20  O   UNL     1      -9.854  22.867 -22.683  1.00  0.00    -0.550 OA
ENDBRANCH  17  18
ENDBRANCH  16  17
ENDBRANCH  15  16
ENDBRANCH  14  15
ENDBRANCH  13  14
ENDBRANCH  12  13
ENDBRANCH  11  12
ENDBRANCH   1  11
TORSDOF 15
ENDMDL
MODEL 7
REMARK VINA RESULT:    -4.973      2.020      3.718
REMARK INTER + INTRA:         -10.098
REMARK INTER:                  -9.045
REMARK INTRA:                  -1.053
REMARK UNBOUND:                -0.765
REMARK SMILES O=C([O-])CCCCCCCCCCCCCCC(=O)[O-]
REMARK SMILES IDX 10 1 9 2 8 3 7 4 6 5 5 6 4 7 2 8 1 9 3 10 11 11 12 12 13 13
REMARK SMILES IDX 14 14 15 15 16 16 17 17 18 18 19 19 20 20
REMARK H PARENT
REMARK Flexibility Score: inf
ROOT
ATOM      1  C   UNL     1      -7.854  27.931 -24.236  1.00  0.00     0.000 C 
ENDROOT
BRANCH   1   2
ATOM      2  C   UNL     1      -8.623  27.640 -25.540  1.00  0.00     0.000 C 
BRANCH   2   3
ATOM      3  C   UNL     1      -7.748  27.572 -26.805  1.00  0.00     0.000 C 
BRANCH   3   4
ATOM      4  C   UNL     1      -7.920  26.252 -27.577  1.00  0.00     0.000 C 
BRANCH   4   5
ATOM      5  C   UNL     1      -9.320  25.642 -27.400  1.00  0.00     0.000 C 
BRANCH   5   6
ATOM      6  C   UNL     1      -9.271  24.194 -26.884  1.00  0.00     0.006 C 
BRANCH   6   7
ATOM      7  C   UNL     1      -9.604  24.100 -25.388  1.00  0.00     0.053 C 
BRANCH   7   8
ATOM      8  C   UNL     1      -9.925  22.696 -24.975  1.00  0.00     0.041 C 
ATOM      9  O   UNL     1     -10.085  22.415 -23.759  1.00  0.00    -0.550 OA
ATOM     10  O   UNL     1     -10.075  21.704 -25.937  1.00  0.00    -0.550 OA
ENDBRANCH   7   8
ENDBRANCH   6   7
ENDBRANCH   5   6
ENDBRANCH   4   5
ENDBRANCH   3   4
ENDBRANCH   2   3
ENDBRANCH   1   2
BRANCH   1  11
ATOM     11  C   UNL     1      -6.462  28.567 -24.423  1.00  0.00     0.000 C 
BRANCH  11  12
ATOM     12  C   UNL     1      -5.761  28.983 -23.117  1.00  0.00     0.000 C 
BRANCH  12  13
ATOM     13  C   UNL     1      -6.603  28.679 -21.867  1.00  0.00     0.000 C 
BRANCH  13  14
ATOM     14  C   UNL     1      -6.328  29.656 -20.714  1.00  0.00     0.000 C 
BRANCH  14  15
ATOM     15  C   UNL     1      -5.009  30.427 -20.897  1.00  0.00     0.000 C 
BRANCH  15  16
ATOM     16  C   UNL     1      -3.883  29.891 -19.999  1.00  0.00     0.006 C 
BRANCH  16  17
ATOM     17  C   UNL     1      -3.192  28.655 -20.588  1.00  0.00     0.053 C 
BRANCH  17  18
ATOM     18  C   UNL     1      -3.196  27.533 -19.599  1.00  0.00     0.041 C 
ATOM     19  O   UNL     1      -3.509  26.368 -19.963  1.00  0.00    -0.550 OA
ATOM     20  O   UNL     1      -2.806  27.762 -18.286  1.00  0.00    -0.550 OA
ENDBRANCH  17  18
ENDBRANCH  16  17
ENDBRANCH  15  16
ENDBRANCH  14  15
ENDBRANCH  13  14
ENDBRANCH  12  13
ENDBRANCH  11  12
ENDBRANCH   1  11
TORSDOF 15
ENDMDL
MODEL 8
REMARK VINA RESULT:    -4.951      6.177      8.460
REMARK INTER + INTRA:         -10.058
REMARK INTER:                  -8.111
REMARK INTRA:                  -1.947
REMARK UNBOUND:                -0.765
REMARK SMILES O=C([O-])CCCCCCCCCCCCCCC(=O)[O-]
REMARK SMILES IDX 10 1 9 2 8 3 7 4 6 5 5 6 4 7 2 8 1 9 3 10 11 11 12 12 13 13
REMARK SMILES IDX 14 14 15 15 16 16 17 17 18 18 19 19 20 20
REMARK H PARENT
REMARK Flexibility Score: inf
ROOT
ATOM      1  C   UNL     1      -2.576  28.817 -19.497  1.00  0.00     0.000 C 
ENDROOT
BRANCH   1   2
ATOM      2  C   UNL     1      -3.146  27.853 -20.558  1.00  0.00     0.000 C 
BRANCH   2   3
ATOM      3  C   UNL     1      -3.985  26.693 -19.992  1.00  0.00     0.000 C 
BRANCH   3   4
ATOM      4  C   UNL     1      -5.483  27.033 -19.898  1.00  0.00     0.000 C 
BRANCH   4   5
ATOM      5  C   UNL     1      -5.928  28.042 -20.969  1.00  0.00     0.000 C 
BRANCH   5   6
ATOM      6  C   UNL     1      -6.547  29.313 -20.360  1.00  0.00     0.006 C 
BRANCH   6   7
ATOM      7  C   UNL     1      -6.248  29.441 -18.860  1.00  0.00     0.053 C 
BRANCH   7   8
ATOM      8  C   UNL     1      -6.833  30.692 -18.280  1.00  0.00     0.041 C 
ATOM      9  O   UNL     1      -7.224  30.713 -17.084  1.00  0.00    -0.550 OA
ATOM     10  O   UNL     1      -6.919  31.844 -19.053  1.00  0.00    -0.550 OA
ENDBRANCH   7   8
ENDBRANCH   6   7
ENDBRANCH   5   6
ENDBRANCH   4   5
ENDBRANCH   3   4
ENDBRANCH   2   3
ENDBRANCH   1   2
BRANCH   1  11
ATOM     11  C   UNL     1      -2.757  30.316 -19.809  1.00  0.00     0.000 C 
BRANCH  11  12
ATOM     12  C   UNL     1      -3.354  30.621 -21.195  1.00  0.00     0.000 C 
BRANCH  12  13
ATOM     13  C   UNL     1      -4.105  31.962 -21.237  1.00  0.00     0.000 C 
BRANCH  13  14
ATOM     14  C   UNL     1      -3.184  33.167 -20.988  1.00  0.00     0.000 C 
BRANCH  14  15
ATOM     15  C   UNL     1      -2.191  33.396 -22.142  1.00  0.00     0.000 C 
BRANCH  15  16
ATOM     16  C   UNL     1      -0.786  33.770 -21.644  1.00  0.00     0.006 C 
BRANCH  16  17
ATOM     17  C   UNL     1      -0.062  32.594 -20.976  1.00  0.00     0.053 C 
BRANCH  17  18
ATOM     18  C   UNL     1       1.290  32.397 -21.586  1.00  0.00     0.041 C 
ATOM     19  O   UNL     1       1.520  32.794 -22.759  1.00  0.00    -0.550 OA
ATOM     20  O   UNL     1       2.312  31.822 -20.842  1.00  0.00    -0.550 OA
ENDBRANCH  17  18
ENDBRANCH  16  17
ENDBRANCH  15  16
ENDBRANCH  14  15
ENDBRANCH  13  14
ENDBRANCH  12  13
ENDBRANCH  11  12
ENDBRANCH   1  11
TORSDOF 15
ENDMDL
MODEL 9
REMARK VINA RESULT:    -4.880      7.134      9.972
REMARK INTER + INTRA:          -9.923
REMARK INTER:                  -8.361
REMARK INTRA:                  -1.562
REMARK UNBOUND:                -0.765
REMARK SMILES O=C([O-])CCCCCCCCCCCCCCC(=O)[O-]
REMARK SMILES IDX 10 1 9 2 8 3 7 4 6 5 5 6 4 7 2 8 1 9 3 10 11 11 12 12 13 13
REMARK SMILES IDX 14 14 15 15 16 16 17 17 18 18 19 19 20 20
REMARK H PARENT
REMARK Flexibility Score: inf
ROOT
ATOM      1  C   UNL     1      -3.323  27.479 -19.343  1.00  0.00     0.000 C 
ENDROOT
BRANCH   1   2
ATOM      2  C   UNL     1      -2.603  28.842 -19.377  1.00  0.00     0.000 C 
BRANCH   2   3
ATOM      3  C   UNL     1      -3.094  29.806 -20.473  1.00  0.00     0.000 C 
BRANCH   3   4
ATOM      4  C   UNL     1      -2.833  31.282 -20.126  1.00  0.00     0.000 C 
BRANCH   4   5
ATOM      5  C   UNL     1      -2.739  32.175 -21.374  1.00  0.00     0.000 C 
BRANCH   5   6
ATOM      6  C   UNL     1      -1.408  32.942 -21.451  1.00  0.00     0.006 C 
BRANCH   6   7
ATOM      7  C   UNL     1      -0.348  32.358 -20.506  1.00  0.00     0.053 C 
BRANCH   7   8
ATOM      8  C   UNL     1       1.003  32.303 -21.151  1.00  0.00     0.041 C 
ATOM      9  O   UNL     1       1.169  32.749 -22.316  1.00  0.00    -0.550 OA
ATOM     10  O   UNL     1       2.088  31.784 -20.452  1.00  0.00    -0.550 OA
ENDBRANCH   7   8
ENDBRANCH   6   7
ENDBRANCH   5   6
ENDBRANCH   4   5
ENDBRANCH   3   4
ENDBRANCH   2   3
ENDBRANCH   1   2
BRANCH   1  11
ATOM     11  C   UNL     1      -4.321  27.236 -20.493  1.00  0.00     0.000 C 
BRANCH  11  12
ATOM     12  C   UNL     1      -5.802  27.233 -20.073  1.00  0.00     0.000 C 
BRANCH  12  13
ATOM     13  C   UNL     1      -6.068  28.092 -18.826  1.00  0.00     0.000 C 
BRANCH  13  14
ATOM     14  C   UNL     1      -6.554  29.507 -19.173  1.00  0.00     0.000 C 
BRANCH  14  15
ATOM     15  C   UNL     1      -6.872  30.345 -17.921  1.00  0.00     0.000 C 
BRANCH  15  16
ATOM     16  C   UNL     1      -6.929  31.852 -18.219  1.00  0.00     0.006 C 
BRANCH  16  17
ATOM     17  C   UNL     1      -6.421  32.198 -19.625  1.00  0.00     0.053 C 
BRANCH  17  18
ATOM     18  C   UNL     1      -6.239  33.676 -19.765  1.00  0.00     0.041 C 
ATOM     19  O   UNL     1      -5.564  34.144 -20.721  1.00  0.00    -0.550 OA
ATOM     20  O   UNL     1      -6.856  34.541 -18.871  1.00  0.00    -0.550 OA
ENDBRANCH  17  18
ENDBRANCH  16  17
ENDBRANCH  15  16
ENDBRANCH  14  15
ENDBRANCH  13  14
ENDBRANCH  12  13
ENDBRANCH  11  12
ENDBRANCH   1  11
TORSDOF 15
ENDMDL
