MODEL 1
REMARK VINA RESULT:    -5.118      0.000      0.000
REMARK INTER + INTRA:         -10.427
REMARK INTER:                  -9.306
REMARK INTRA:                  -1.121
REMARK UNBOUND:                -1.121
REMARK SMILES CCCCCCCCCCCCCC[C@H](C)C(=O)[O-]
REMARK SMILES IDX 9 1 10 2 11 3 12 4 13 5 14 6 15 7 16 8 17 9 18 10 19 11 8 12
REMARK SMILES IDX 7 13 6 14 5 15 4 16 3 17 2 18 1 19
REMARK H PARENT
REMARK Flexibility Score: inf
ROOT
ATOM      1  C   UNL     1      -1.803   8.934  -3.816  1.00  0.00     0.000 C 
ENDROOT
BRANCH   1   2
ATOM      2  C   UNL     1      -3.268   9.332  -3.558  1.00  0.00     0.000 C 
BRANCH   2   3
ATOM      3  C   UNL     1      -3.930   9.987  -4.781  1.00  0.00     0.000 C 
BRANCH   3   4
ATOM      4  C   UNL     1      -5.462   9.919  -4.674  1.00  0.00     0.000 C 
BRANCH   4   5
ATOM      5  C   UNL     1      -6.083   8.926  -5.669  1.00  0.00     0.001 C 
BRANCH   5   6
ATOM      6  C   UNL     1      -7.018   7.911  -4.987  1.00  0.00     0.009 C 
BRANCH   6   7
ATOM      7  C   UNL     1      -6.555   6.455  -5.206  1.00  0.00     0.032 C 
ATOM      8  C   UNL     1      -5.135   6.419  -5.780  1.00  0.00     0.014 C 
BRANCH   7   9
ATOM      9  C   UNL     1      -7.493   5.706  -6.113  1.00  0.00     0.044 C 
ATOM     10  O   UNL     1      -8.645   5.381  -5.717  1.00  0.00    -0.550 OA
ATOM     11  O   UNL     1      -7.092   5.369  -7.400  1.00  0.00    -0.550 OA
ENDBRANCH   7   9
ENDBRANCH   6   7
ENDBRANCH   5   6
ENDBRANCH   4   5
ENDBRANCH   3   4
ENDBRANCH   2   3
ENDBRANCH   1   2
BRANCH   1  12
ATOM     12  C   UNL     1      -1.508   8.431  -5.243  1.00  0.00     0.000 C 
BRANCH  12  13
ATOM     13  C   UNL     1      -0.352   9.153  -5.966  1.00  0.00    -0.000 C 
BRANCH  13  14
ATOM     14  C   UNL     1      -0.652   9.577  -7.415  1.00  0.00    -0.000 C 
BRANCH  14  15
ATOM     15  C   UNL     1       0.579   9.476  -8.333  1.00  0.00    -0.000 C 
BRANCH  15  16
ATOM     16  C   UNL     1       1.649   8.519  -7.783  1.00  0.00    -0.000 C 
BRANCH  16  17
ATOM     17  C   UNL     1       2.761   8.225  -8.800  1.00  0.00    -0.000 C 
BRANCH  17  18
ATOM     18  C   UNL     1       3.683   7.108  -8.297  1.00  0.00    -0.003 C 
ATOM     19  C   UNL     1       3.070   6.382  -7.103  1.00  0.00     0.004 C 
ENDBRANCH  17  18
ENDBRANCH  16  17
ENDBRANCH  15  16
ENDBRANCH  14  15
ENDBRANCH  13  14
ENDBRANCH  12  13
ENDBRANCH   1  12
TORSDOF 14
ENDMDL
MODEL 2
REMARK VINA RESULT:    -5.011      1.410      2.192
REMARK INTER + INTRA:         -10.234
REMARK INTER:                  -8.603
REMARK INTRA:                  -1.631
REMARK UNBOUND:                -1.121
REMARK SMILES CCCCCCCCCCCCCC[C@H](C)C(=O)[O-]
REMARK SMILES IDX 9 1 10 2 11 3 12 4 13 5 14 6 15 7 16 8 17 9 18 10 19 11 8 12
REMARK SMILES IDX 7 13 6 14 5 15 4 16 3 17 2 18 1 19
REMARK H PARENT
REMARK Flexibility Score: inf
ROOT
ATOM      1  C   UNL     1      -2.856   9.281  -3.364  1.00  0.00     0.000 C 
ENDROOT
BRANCH   1   2
ATOM      2  C   UNL     1      -4.229   9.942  -3.147  1.00  0.00     0.000 C 
BRANCH   2   3
ATOM      3  C   UNL     1      -5.066  10.012  -4.434  1.00  0.00     0.000 C 
BRANCH   3   4
ATOM      4  C   UNL     1      -5.965   8.773  -4.570  1.00  0.00     0.000 C 
BRANCH   4   5
ATOM      5  C   UNL     1      -5.830   8.088  -5.939  1.00  0.00     0.001 C 
BRANCH   5   6
ATOM      6  C   UNL     1      -5.003   6.792  -5.874  1.00  0.00     0.009 C 
BRANCH   6   7
ATOM      7  C   UNL     1      -4.118   6.603  -7.125  1.00  0.00     0.032 C 
ATOM      8  C   UNL     1      -3.895   7.941  -7.837  1.00  0.00     0.014 C 
BRANCH   7   9
ATOM      9  C   UNL     1      -4.718   5.608  -8.081  1.00  0.00     0.044 C 
ATOM     10  O   UNL     1      -3.979   4.843  -8.758  1.00  0.00    -0.550 OA
ATOM     11  O   UNL     1      -6.097   5.526  -8.222  1.00  0.00    -0.550 OA
ENDBRANCH   7   9
ENDBRANCH   6   7
ENDBRANCH   5   6
ENDBRANCH   4   5
ENDBRANCH   3   4
ENDBRANCH   2   3
ENDBRANCH   1   2
BRANCH   1  12
ATOM     12  C   UNL     1      -2.220   9.539  -4.744  1.00  0.00     0.000 C 
BRANCH  12  13
ATOM     13  C   UNL     1      -1.361   8.384  -5.297  1.00  0.00    -0.000 C 
BRANCH  13  14
ATOM     14  C   UNL     1       0.012   8.800  -5.856  1.00  0.00    -0.000 C 
BRANCH  14  15
ATOM     15  C   UNL     1      -0.098   9.754  -7.057  1.00  0.00    -0.000 C 
BRANCH  15  16
ATOM     16  C   UNL     1       1.042   9.562  -8.070  1.00  0.00    -0.000 C 
BRANCH  16  17
ATOM     17  C   UNL     1       1.541   8.111  -8.134  1.00  0.00    -0.000 C 
BRANCH  17  18
ATOM     18  C   UNL     1       2.988   8.050  -8.636  1.00  0.00    -0.003 C 
ATOM     19  C   UNL     1       3.743   6.882  -8.009  1.00  0.00     0.004 C 
ENDBRANCH  17  18
ENDBRANCH  16  17
ENDBRANCH  15  16
ENDBRANCH  14  15
ENDBRANCH  13  14
ENDBRANCH  12  13
ENDBRANCH   1  12
TORSDOF 14
ENDMDL
MODEL 3
REMARK VINA RESULT:    -5.008      4.215      8.658
REMARK INTER + INTRA:         -10.228
REMARK INTER:                  -9.395
REMARK INTRA:                  -0.833
REMARK UNBOUND:                -1.121
REMARK SMILES CCCCCCCCCCCCCC[C@H](C)C(=O)[O-]
REMARK SMILES IDX 9 1 10 2 11 3 12 4 13 5 14 6 15 7 16 8 17 9 18 10 19 11 8 12
REMARK SMILES IDX 7 13 6 14 5 15 4 16 3 17 2 18 1 19
REMARK H PARENT
REMARK Flexibility Score: inf
ROOT
ATOM      1  C   UNL     1      -2.684   9.060  -3.463  1.00  0.00     0.000 C 
ENDROOT
BRANCH   1   2
ATOM      2  C   UNL     1      -1.568   9.594  -4.381  1.00  0.00     0.000 C 
BRANCH   2   3
ATOM      3  C   UNL     1      -1.058   8.538  -5.373  1.00  0.00     0.000 C 
BRANCH   3   4
ATOM      4  C   UNL     1      -0.064   9.158  -6.368  1.00  0.00     0.000 C 
BRANCH   4   5
ATOM      5  C   UNL     1       1.080   8.201  -6.740  1.00  0.00     0.001 C 
BRANCH   5   6
ATOM      6  C   UNL     1       1.737   8.558  -8.086  1.00  0.00     0.009 C 
BRANCH   6   7
ATOM      7  C   UNL     1       2.678   7.442  -8.587  1.00  0.00     0.032 C 
ATOM      8  C   UNL     1       3.191   6.599  -7.415  1.00  0.00     0.014 C 
BRANCH   7   9
ATOM      9  C   UNL     1       3.839   8.004  -9.361  1.00  0.00     0.044 C 
ATOM     10  O   UNL     1       3.781   9.163  -9.853  1.00  0.00    -0.550 OA
ATOM     11  O   UNL     1       4.989   7.244  -9.537  1.00  0.00    -0.550 OA
ENDBRANCH   7   9
ENDBRANCH   6   7
ENDBRANCH   5   6
ENDBRANCH   4   5
ENDBRANCH   3   4
ENDBRANCH   2   3
ENDBRANCH   1   2
BRANCH   1  12
ATOM     12  C   UNL     1      -3.782  10.083  -3.111  1.00  0.00     0.000 C 
BRANCH  12  13
ATOM     13  C   UNL     1      -5.146   9.839  -3.788  1.00  0.00    -0.000 C 
BRANCH  13  14
ATOM     14  C   UNL     1      -5.139   9.929  -5.324  1.00  0.00    -0.000 C 
BRANCH  14  15
ATOM     15  C   UNL     1      -5.739   8.683  -5.997  1.00  0.00    -0.000 C 
BRANCH  15  16
ATOM     16  C   UNL     1      -6.690   7.910  -5.069  1.00  0.00    -0.000 C 
BRANCH  16  17
ATOM     17  C   UNL     1      -6.558   6.387  -5.220  1.00  0.00    -0.000 C 
BRANCH  17  18
ATOM     18  C   UNL     1      -7.886   5.764  -5.666  1.00  0.00    -0.003 C 
ATOM     19  C   UNL     1      -9.026   6.775  -5.583  1.00  0.00     0.004 C 
ENDBRANCH  17  18
ENDBRANCH  16  17
ENDBRANCH  15  16
ENDBRANCH  14  15
ENDBRANCH  13  14
ENDBRANCH  12  13
ENDBRANCH   1  12
TORSDOF 14
ENDMDL
MODEL 4
REMARK VINA RESULT:    -4.992      3.817      7.435
REMARK INTER + INTRA:         -10.198
REMARK INTER:                  -8.668
REMARK INTRA:                  -1.530
REMARK UNBOUND:                -1.121
REMARK SMILES CCCCCCCCCCCCCC[C@H](C)C(=O)[O-]
REMARK SMILES IDX 9 1 10 2 11 3 12 4 13 5 14 6 15 7 16 8 17 9 18 10 19 11 8 12
REMARK SMILES IDX 7 13 6 14 5 15 4 16 3 17 2 18 1 19
REMARK H PARENT
REMARK Flexibility Score: inf
ROOT
ATOM      1  C   UNL     1      -2.729   9.019  -3.374  1.00  0.00     0.000 C 
ENDROOT
BRANCH   1   2
ATOM      2  C   UNL     1      -1.563   9.508  -4.252  1.00  0.00     0.000 C 
BRANCH   2   3
ATOM      3  C   UNL     1      -1.059   8.432  -5.226  1.00  0.00     0.000 C 
BRANCH   3   4
ATOM      4  C   UNL     1      -1.088   8.947  -6.673  1.00  0.00     0.000 C 
BRANCH   4   5
ATOM      5  C   UNL     1       0.300   9.366  -7.182  1.00  0.00     0.001 C 
BRANCH   5   6
ATOM      6  C   UNL     1       1.344   8.242  -7.050  1.00  0.00     0.009 C 
BRANCH   6   7
ATOM      7  C   UNL     1       2.382   8.276  -8.191  1.00  0.00     0.032 C 
ATOM      8  C   UNL     1       1.687   8.265  -9.556  1.00  0.00     0.014 C 
BRANCH   7   9
ATOM      9  C   UNL     1       3.345   7.122  -8.097  1.00  0.00     0.044 C 
ATOM     10  O   UNL     1       3.053   6.097  -7.424  1.00  0.00    -0.550 OA
ATOM     11  O   UNL     1       4.565   7.182  -8.758  1.00  0.00    -0.550 OA
ENDBRANCH   7   9
ENDBRANCH   6   7
ENDBRANCH   5   6
ENDBRANCH   4   5
ENDBRANCH   3   4
ENDBRANCH   2   3
ENDBRANCH   1   2
BRANCH   1  12
ATOM     12  C   UNL     1      -3.990   9.907  -3.414  1.00  0.00     0.000 C 
BRANCH  12  13
ATOM     13  C   UNL     1      -4.840   9.780  -4.695  1.00  0.00    -0.000 C 
BRANCH  13  14
ATOM     14  C   UNL     1      -5.931   8.695  -4.650  1.00  0.00    -0.000 C 
BRANCH  14  15
ATOM     15  C   UNL     1      -5.895   7.761  -5.871  1.00  0.00    -0.000 C 
BRANCH  15  16
ATOM     16  C   UNL     1      -4.510   7.714  -6.538  1.00  0.00    -0.000 C 
BRANCH  16  17
ATOM     17  C   UNL     1      -3.877   6.316  -6.493  1.00  0.00    -0.000 C 
BRANCH  17  18
ATOM     18  C   UNL     1      -4.140   5.553  -7.797  1.00  0.00    -0.003 C 
ATOM     19  C   UNL     1      -4.056   6.480  -9.006  1.00  0.00     0.004 C 
ENDBRANCH  17  18
ENDBRANCH  16  17
ENDBRANCH  15  16
ENDBRANCH  14  15
ENDBRANCH  13  14
ENDBRANCH  12  13
ENDBRANCH   1  12
TORSDOF 14
ENDMDL
MODEL 5
REMARK VINA RESULT:    -4.456      4.221      8.019
REMARK INTER + INTRA:          -9.224
REMARK INTER:                  -7.954
REMARK INTRA:                  -1.270
REMARK UNBOUND:                -1.121
REMARK SMILES CCCCCCCCCCCCCC[C@H](C)C(=O)[O-]
REMARK SMILES IDX 9 1 10 2 11 3 12 4 13 5 14 6 15 7 16 8 17 9 18 10 19 11 8 12
REMARK SMILES IDX 7 13 6 14 5 15 4 16 3 17 2 18 1 19
REMARK H PARENT
REMARK Flexibility Score: inf
ROOT
ATOM      1  C   UNL     1      -2.937   8.685  -5.194  1.00  0.00     0.000 C 
ENDROOT
BRANCH   1   2
ATOM      2  C   UNL     1      -1.624   9.004  -4.455  1.00  0.00     0.000 C 
BRANCH   2   3
ATOM      3  C   UNL     1      -0.655   9.846  -5.300  1.00  0.00     0.000 C 
BRANCH   3   4
ATOM      4  C   UNL     1      -0.437   9.207  -6.680  1.00  0.00     0.000 C 
BRANCH   4   5
ATOM      5  C   UNL     1       0.847   8.364  -6.748  1.00  0.00     0.001 C 
BRANCH   5   6
ATOM      6  C   UNL     1       1.712   8.700  -7.977  1.00  0.00     0.009 C 
BRANCH   6   7
ATOM      7  C   UNL     1       2.595   7.511  -8.409  1.00  0.00     0.032 C 
ATOM      8  C   UNL     1       3.054   6.705  -7.188  1.00  0.00     0.014 C 
BRANCH   7   9
ATOM      9  C   UNL     1       3.792   7.968  -9.199  1.00  0.00     0.044 C 
ATOM     10  O   UNL     1       4.903   7.384  -9.076  1.00  0.00    -0.550 OA
ATOM     11  O   UNL     1       3.676   9.042 -10.073  1.00  0.00    -0.550 OA
ENDBRANCH   7   9
ENDBRANCH   6   7
ENDBRANCH   5   6
ENDBRANCH   4   5
ENDBRANCH   3   4
ENDBRANCH   2   3
ENDBRANCH   1   2
BRANCH   1  12
ATOM     12  C   UNL     1      -3.869   9.893  -5.414  1.00  0.00     0.000 C 
BRANCH  12  13
ATOM     13  C   UNL     1      -5.166   9.881  -4.579  1.00  0.00    -0.000 C 
BRANCH  13  14
ATOM     14  C   UNL     1      -5.953   8.559  -4.614  1.00  0.00    -0.000 C 
BRANCH  14  15
ATOM     15  C   UNL     1      -6.762   8.379  -5.910  1.00  0.00    -0.000 C 
BRANCH  15  16
ATOM     16  C   UNL     1      -6.527   7.010  -6.568  1.00  0.00    -0.000 C 
BRANCH  16  17
ATOM     17  C   UNL     1      -5.285   6.293  -6.018  1.00  0.00    -0.000 C 
BRANCH  17  18
ATOM     18  C   UNL     1      -4.411   5.759  -7.158  1.00  0.00    -0.003 C 
ATOM     19  C   UNL     1      -3.940   6.889  -8.069  1.00  0.00     0.004 C 
ENDBRANCH  17  18
ENDBRANCH  16  17
ENDBRANCH  15  16
ENDBRANCH  14  15
ENDBRANCH  13  14
ENDBRANCH  12  13
ENDBRANCH   1  12
TORSDOF 14
ENDMDL
MODEL 6
REMARK VINA RESULT:    -4.356      2.609      6.245
REMARK INTER + INTRA:          -9.041
REMARK INTER:                  -7.033
REMARK INTRA:                  -2.009
REMARK UNBOUND:                -1.121
REMARK SMILES CCCCCCCCCCCCCC[C@H](C)C(=O)[O-]
REMARK SMILES IDX 9 1 10 2 11 3 12 4 13 5 14 6 15 7 16 8 17 9 18 10 19 11 8 12
REMARK SMILES IDX 7 13 6 14 5 15 4 16 3 17 2 18 1 19
REMARK H PARENT
REMARK Flexibility Score: inf
ROOT
ATOM      1  C   UNL     1      -2.873   9.020  -3.295  1.00  0.00     0.000 C 
ENDROOT
BRANCH   1   2
ATOM      2  C   UNL     1      -1.826   9.374  -4.366  1.00  0.00     0.000 C 
BRANCH   2   3
ATOM      3  C   UNL     1      -1.638   8.260  -5.407  1.00  0.00     0.000 C 
BRANCH   3   4
ATOM      4  C   UNL     1      -1.075   8.827  -6.720  1.00  0.00     0.000 C 
BRANCH   4   5
ATOM      5  C   UNL     1      -2.166   9.082  -7.773  1.00  0.00     0.001 C 
BRANCH   5   6
ATOM      6  C   UNL     1      -3.446   8.269  -7.509  1.00  0.00     0.009 C 
BRANCH   6   7
ATOM      7  C   UNL     1      -3.697   7.208  -8.601  1.00  0.00     0.032 C 
ATOM      8  C   UNL     1      -4.857   7.629  -9.509  1.00  0.00     0.014 C 
BRANCH   7   9
ATOM      9  C   UNL     1      -3.978   5.855  -8.005  1.00  0.00     0.044 C 
ATOM     10  O   UNL     1      -3.707   5.619  -6.796  1.00  0.00    -0.550 OA
ATOM     11  O   UNL     1      -4.542   4.856  -8.787  1.00  0.00    -0.550 OA
ENDBRANCH   7   9
ENDBRANCH   6   7
ENDBRANCH   5   6
ENDBRANCH   4   5
ENDBRANCH   3   4
ENDBRANCH   2   3
ENDBRANCH   1   2
BRANCH   1  12
ATOM     12  C   UNL     1      -4.138   9.901  -3.305  1.00  0.00     0.000 C 
BRANCH  12  13
ATOM     13  C   UNL     1      -4.809  10.068  -4.684  1.00  0.00    -0.000 C 
BRANCH  13  14
ATOM     14  C   UNL     1      -6.107   9.264  -4.881  1.00  0.00    -0.000 C 
BRANCH  14  15
ATOM     15  C   UNL     1      -5.850   7.767  -5.128  1.00  0.00    -0.000 C 
BRANCH  15  16
ATOM     16  C   UNL     1      -7.148   6.947  -5.193  1.00  0.00    -0.000 C 
BRANCH  16  17
ATOM     17  C   UNL     1      -7.143   5.916  -6.331  1.00  0.00    -0.000 C 
BRANCH  17  18
ATOM     18  C   UNL     1      -7.854   6.467  -7.573  1.00  0.00    -0.003 C 
ATOM     19  C   UNL     1      -7.843   5.451  -8.711  1.00  0.00     0.004 C 
ENDBRANCH  17  18
ENDBRANCH  16  17
ENDBRANCH  15  16
ENDBRANCH  14  15
ENDBRANCH  13  14
ENDBRANCH  12  13
ENDBRANCH   1  12
TORSDOF 14
ENDMDL
MODEL 7
REMARK VINA RESULT:    -4.306      1.548      2.353
REMARK INTER + INTRA:          -8.951
REMARK INTER:                  -7.606
REMARK INTRA:                  -1.345
REMARK UNBOUND:                -1.121
REMARK SMILES CCCCCCCCCCCCCC[C@H](C)C(=O)[O-]
REMARK SMILES IDX 9 1 10 2 11 3 12 4 13 5 14 6 15 7 16 8 17 9 18 10 19 11 8 12
REMARK SMILES IDX 7 13 6 14 5 15 4 16 3 17 2 18 1 19
REMARK H PARENT
REMARK Flexibility Score: inf
ROOT
ATOM      1  C   UNL     1      -1.460   8.343  -5.884  1.00  0.00     0.000 C 
ENDROOT
BRANCH   1   2
ATOM      2  C   UNL     1      -1.431   8.697  -4.386  1.00  0.00     0.000 C 
BRANCH   2   3
ATOM      3  C   UNL     1      -2.116  10.038  -4.078  1.00  0.00     0.000 C 
BRANCH   3   4
ATOM      4  C   UNL     1      -3.493   9.813  -3.435  1.00  0.00     0.000 C 
BRANCH   4   5
ATOM      5  C   UNL     1      -4.653  10.106  -4.399  1.00  0.00     0.001 C 
BRANCH   5   6
ATOM      6  C   UNL     1      -5.786   9.068  -4.296  1.00  0.00     0.009 C 
BRANCH   6   7
ATOM      7  C   UNL     1      -6.220   8.542  -5.680  1.00  0.00     0.032 C 
ATOM      8  C   UNL     1      -7.368   7.537  -5.542  1.00  0.00     0.014 C 
BRANCH   7   9
ATOM      9  C   UNL     1      -5.071   7.908  -6.417  1.00  0.00     0.044 C 
ATOM     10  O   UNL     1      -4.583   6.814  -6.024  1.00  0.00    -0.550 OA
ATOM     11  O   UNL     1      -4.541   8.529  -7.541  1.00  0.00    -0.550 OA
ENDBRANCH   7   9
ENDBRANCH   6   7
ENDBRANCH   5   6
ENDBRANCH   4   5
ENDBRANCH   3   4
ENDBRANCH   2   3
ENDBRANCH   1   2
BRANCH   1  12
ATOM     12  C   UNL     1      -0.955   9.454  -6.825  1.00  0.00     0.000 C 
BRANCH  12  13
ATOM     13  C   UNL     1       0.436   9.205  -7.446  1.00  0.00    -0.000 C 
BRANCH  13  14
ATOM     14  C   UNL     1       0.452   9.069  -8.979  1.00  0.00    -0.000 C 
BRANCH  14  15
ATOM     15  C   UNL     1       1.699   8.333  -9.499  1.00  0.00    -0.000 C 
BRANCH  15  16
ATOM     16  C   UNL     1       2.910   8.491  -8.565  1.00  0.00    -0.000 C 
BRANCH  16  17
ATOM     17  C   UNL     1       3.765   7.217  -8.484  1.00  0.00    -0.000 C 
BRANCH  17  18
ATOM     18  C   UNL     1       3.054   6.131  -7.670  1.00  0.00    -0.003 C 
ATOM     19  C   UNL     1       2.758   6.608  -6.251  1.00  0.00     0.004 C 
ENDBRANCH  17  18
ENDBRANCH  16  17
ENDBRANCH  15  16
ENDBRANCH  14  15
ENDBRANCH  13  14
ENDBRANCH  12  13
ENDBRANCH   1  12
TORSDOF 14
ENDMDL
MODEL 8
REMARK VINA RESULT:    -4.147      3.464      8.144
REMARK INTER + INTRA:          -8.663
REMARK INTER:                  -7.713
REMARK INTRA:                  -0.949
REMARK UNBOUND:                -1.121
REMARK SMILES CCCCCCCCCCCCCC[C@H](C)C(=O)[O-]
REMARK SMILES IDX 9 1 10 2 11 3 12 4 13 5 14 6 15 7 16 8 17 9 18 10 19 11 8 12
REMARK SMILES IDX 7 13 6 14 5 15 4 16 3 17 2 18 1 19
REMARK H PARENT
REMARK Flexibility Score: inf
ROOT
ATOM      1  C   UNL     1      -0.886   8.408  -5.833  1.00  0.00     0.000 C 
ENDROOT
BRANCH   1   2
ATOM      2  C   UNL     1      -0.287   9.608  -6.589  1.00  0.00     0.000 C 
BRANCH   2   3
ATOM      3  C   UNL     1      -1.059   9.948  -7.874  1.00  0.00     0.000 C 
BRANCH   3   4
ATOM      4  C   UNL     1      -0.124   9.935  -9.093  1.00  0.00     0.000 C 
BRANCH   4   5
ATOM      5  C   UNL     1       1.351   9.734  -8.709  1.00  0.00     0.001 C 
BRANCH   5   6
ATOM      6  C   UNL     1       1.931   8.417  -9.256  1.00  0.00     0.009 C 
BRANCH   6   7
ATOM      7  C   UNL     1       3.133   7.921  -8.424  1.00  0.00     0.032 C 
ATOM      8  C   UNL     1       4.269   7.454  -9.339  1.00  0.00     0.014 C 
BRANCH   7   9
ATOM      9  C   UNL     1       2.737   6.809  -7.490  1.00  0.00     0.044 C 
ATOM     10  O   UNL     1       2.841   5.604  -7.847  1.00  0.00    -0.550 OA
ATOM     11  O   UNL     1       2.256   7.107  -6.222  1.00  0.00    -0.550 OA
ENDBRANCH   7   9
ENDBRANCH   6   7
ENDBRANCH   5   6
ENDBRANCH   4   5
ENDBRANCH   3   4
ENDBRANCH   2   3
ENDBRANCH   1   2
BRANCH   1  12
ATOM     12  C   UNL     1      -1.401   8.724  -4.415  1.00  0.00     0.000 C 
BRANCH  12  13
ATOM     13  C   UNL     1      -2.214  10.029  -4.288  1.00  0.00    -0.000 C 
BRANCH  13  14
ATOM     14  C   UNL     1      -3.548   9.897  -3.532  1.00  0.00    -0.000 C 
BRANCH  14  15
ATOM     15  C   UNL     1      -4.744   9.659  -4.469  1.00  0.00    -0.000 C 
BRANCH  15  16
ATOM     16  C   UNL     1      -4.945   8.172  -4.804  1.00  0.00    -0.000 C 
BRANCH  16  17
ATOM     17  C   UNL     1      -6.420   7.810  -5.037  1.00  0.00    -0.000 C 
BRANCH  17  18
ATOM     18  C   UNL     1      -6.550   6.411  -5.648  1.00  0.00    -0.003 C 
ATOM     19  C   UNL     1      -7.970   5.873  -5.498  1.00  0.00     0.004 C 
ENDBRANCH  17  18
ENDBRANCH  16  17
ENDBRANCH  15  16
ENDBRANCH  14  15
ENDBRANCH  13  14
ENDBRANCH  12  13
ENDBRANCH   1  12
TORSDOF 14
ENDMDL
MODEL 9
REMARK VINA RESULT:    -4.123      2.429      3.683
REMARK INTER + INTRA:          -8.618
REMARK INTER:                  -6.367
REMARK INTRA:                  -2.251
REMARK UNBOUND:                -1.121
REMARK SMILES CCCCCCCCCCCCCC[C@H](C)C(=O)[O-]
REMARK SMILES IDX 9 1 10 2 11 3 12 4 13 5 14 6 15 7 16 8 17 9 18 10 19 11 8 12
REMARK SMILES IDX 7 13 6 14 5 15 4 16 3 17 2 18 1 19
REMARK H PARENT
REMARK Flexibility Score: inf
ROOT
ATOM      1  C   UNL     1      -2.189   8.756  -4.729  1.00  0.00     0.000 C 
ENDROOT
BRANCH   1   2
ATOM      2  C   UNL     1      -2.580   9.333  -3.356  1.00  0.00     0.000 C 
BRANCH   2   3
ATOM      3  C   UNL     1      -4.043   9.798  -3.301  1.00  0.00     0.000 C 
BRANCH   3   4
ATOM      4  C   UNL     1      -4.723   9.629  -4.668  1.00  0.00     0.000 C 
BRANCH   4   5
ATOM      5  C   UNL     1      -5.999   8.775  -4.596  1.00  0.00     0.001 C 
BRANCH   5   6
ATOM      6  C   UNL     1      -6.917   8.977  -5.816  1.00  0.00     0.009 C 
BRANCH   6   7
ATOM      7  C   UNL     1      -7.314   7.638  -6.472  1.00  0.00     0.032 C 
ATOM      8  C   UNL     1      -7.983   7.877  -7.830  1.00  0.00     0.014 C 
BRANCH   7   9
ATOM      9  C   UNL     1      -8.228   6.837  -5.585  1.00  0.00     0.044 C 
ATOM     10  O   UNL     1      -8.052   5.597  -5.435  1.00  0.00    -0.550 OA
ATOM     11  O   UNL     1      -9.276   7.463  -4.922  1.00  0.00    -0.550 OA
ENDBRANCH   7   9
ENDBRANCH   6   7
ENDBRANCH   5   6
ENDBRANCH   4   5
ENDBRANCH   3   4
ENDBRANCH   2   3
ENDBRANCH   1   2
BRANCH   1  12
ATOM     12  C   UNL     1      -1.007   9.466  -5.420  1.00  0.00     0.000 C 
BRANCH  12  13
ATOM     13  C   UNL     1      -1.339  10.123  -6.775  1.00  0.00    -0.000 C 
BRANCH  13  14
ATOM     14  C   UNL     1      -1.412   9.155  -7.970  1.00  0.00    -0.000 C 
BRANCH  14  15
ATOM     15  C   UNL     1      -2.808   9.107  -8.614  1.00  0.00    -0.000 C 
BRANCH  15  16
ATOM     16  C   UNL     1      -3.770   8.166  -7.871  1.00  0.00    -0.000 C 
BRANCH  16  17
ATOM     17  C   UNL     1      -4.207   6.968  -8.726  1.00  0.00    -0.000 C 
BRANCH  17  18
ATOM     18  C   UNL     1      -4.333   5.702  -7.871  1.00  0.00    -0.003 C 
ATOM     19  C   UNL     1      -4.080   6.003  -6.397  1.00  0.00     0.004 C 
ENDBRANCH  17  18
ENDBRANCH  16  17
ENDBRANCH  15  16
ENDBRANCH  14  15
ENDBRANCH  13  14
ENDBRANCH  12  13
ENDBRANCH   1  12
TORSDOF 14
ENDMDL
