MODEL 1
REMARK VINA RESULT:    -6.928      0.000      0.000
REMARK INTER + INTRA:         -14.516
REMARK INTER:                 -11.383
REMARK INTRA:                  -3.133
REMARK UNBOUND:                -3.133
REMARK SMILES C[C@H]1O[C@H](OC[C@@H]2O[C@H](Oc3c(-c4ccc(O)c(O)c4)oc4cc(O)cc(O)c4c3=O)[C@@H](O)[C@H](O)[C@@H]2O)[C@H](O)[C@@H](O)[C@@H]1O
REMARK SMILES IDX 7 1 36 2 34 3 32 4 9 5 8 6 6 7 5 8 4 9 1 10 2 11 42 12 3 13
REMARK SMILES IDX 40 14 38 15 43 16 41 18 39 20 37 22 35 24 10 26 11 27 12 28
REMARK SMILES IDX 30 29 21 30 29 31 31 32 22 33 27 34 23 35 26 36 24 37 13 38
REMARK SMILES IDX 20 39 14 40 18 41 15 42 16 43 19 44 17 46 28 48 25 50 33 52
REMARK H PARENT 43 17 41 19 39 21 37 23 35 25 19 45 17 47 28 49 25 51 33 53
REMARK Flexibility Score: inf
ROOT
ATOM      1  C   UNL     1     159.687 173.945 172.641  1.00  0.00     0.180 C 
ATOM      2  C   UNL     1     159.738 175.492 172.778  1.00  0.00     0.177 C 
ATOM      3  C   UNL     1     161.056 176.084 172.244  1.00  0.00     0.180 C 
ATOM      4  C   UNL     1     161.332 175.517 170.845  1.00  0.00     0.214 C 
ATOM      5  C   UNL     1     161.286 173.979 170.868  1.00  0.00     0.339 C 
ATOM      6  O   UNL     1     160.028 173.502 171.329  1.00  0.00    -0.332 OA
ENDROOT
BRANCH   1   7
ATOM      7  C   UNL     1     160.439 173.159 173.743  1.00  0.00     0.198 C 
BRANCH   7   8
ATOM      8  O   UNL     1     159.544 172.307 174.431  1.00  0.00    -0.347 OA
BRANCH   8   9
ATOM      9  C   UNL     1     159.434 172.704 175.793  1.00  0.00     0.281 C 
ATOM     10  C   UNL     1     156.261 174.578 175.641  1.00  0.00     0.041 C 
ATOM     11  C   UNL     1     157.186 173.360 175.570  1.00  0.00     0.150 C 
ATOM     12  C   UNL     1     156.675 172.223 176.489  1.00  0.00     0.174 C 
ATOM     13  O   UNL     1     158.496 173.763 175.942  1.00  0.00    -0.344 OA
ATOM     14  C   UNL     1     157.636 171.024 176.386  1.00  0.00     0.179 C 
ATOM     15  C   UNL     1     159.071 171.497 176.684  1.00  0.00     0.202 C 
BRANCH  12  16
ATOM     16  O   UNL     1     155.363 171.841 176.161  1.00  0.00    -0.388 OA
ATOM     17  H   UNL     1     155.001 171.311 176.926  1.00  0.00     0.211 HD
ENDBRANCH  12  16
BRANCH  14  18
ATOM     18  O   UNL     1     157.245 169.987 177.252  1.00  0.00    -0.387 OA
ATOM     19  H   UNL     1     158.071 169.548 177.589  1.00  0.00     0.211 HD
ENDBRANCH  14  18
BRANCH  15  20
ATOM     20  O   UNL     1     159.988 170.457 176.454  1.00  0.00    -0.385 OA
ATOM     21  H   UNL     1     160.562 170.747 175.698  1.00  0.00     0.211 HD
ENDBRANCH  15  20
ENDBRANCH   8   9
ENDBRANCH   7   8
ENDBRANCH   1   7
BRANCH   2  22
ATOM     22  O   UNL     1     159.525 175.882 174.110  1.00  0.00    -0.387 OA
ATOM     23  H   UNL     1     159.513 175.051 174.657  1.00  0.00     0.211 HD
ENDBRANCH   2  22
BRANCH   3  24
ATOM     24  O   UNL     1     162.135 175.787 173.096  1.00  0.00    -0.387 OA
ATOM     25  H   UNL     1     161.887 176.096 174.004  1.00  0.00     0.211 HD
ENDBRANCH   3  24
BRANCH   5  26
ATOM     26  O   UNL     1     162.348 173.399 171.638  1.00  0.00    -0.454 OA
BRANCH  26  27
ATOM     27  C   UNL     1     163.383 172.627 171.091  1.00  0.00     0.214 A 
ATOM     28  C   UNL     1     163.185 171.261 170.798  1.00  0.00     0.180 A 
ATOM     29  C   UNL     1     164.670 173.168 170.936  1.00  0.00     0.239 A 
ATOM     30  O   UNL     1     164.197 170.525 170.353  1.00  0.00    -0.452 OA
ATOM     31  C   UNL     1     165.715 172.359 170.443  1.00  0.00     0.111 A 
ATOM     32  O   UNL     1     164.888 174.359 171.281  1.00  0.00    -0.285 OA
ATOM     33  C   UNL     1     165.422 171.005 170.162  1.00  0.00     0.146 A 
ATOM     34  C   UNL     1     167.036 172.832 170.251  1.00  0.00     0.134 A 
ATOM     35  C   UNL     1     166.426 170.149 169.693  1.00  0.00     0.094 A 
ATOM     36  C   UNL     1     168.030 171.958 169.787  1.00  0.00     0.093 A 
ATOM     37  C   UNL     1     167.731 170.623 169.509  1.00  0.00     0.123 A 
BRANCH  28  38
ATOM     38  C   UNL     1     161.891 170.580 171.036  1.00  0.00     0.025 A 
ATOM     39  C   UNL     1     161.478 170.208 172.327  1.00  0.00     0.062 A 
ATOM     40  C   UNL     1     161.026 170.362 169.954  1.00  0.00     0.016 A 
ATOM     41  C   UNL     1     160.241 169.576 172.524  1.00  0.00     0.158 A 
ATOM     42  C   UNL     1     159.788 169.742 170.148  1.00  0.00     0.051 A 
ATOM     43  C   UNL     1     159.395 169.340 171.427  1.00  0.00     0.157 A 
BRANCH  41  44
ATOM     44  O   UNL     1     159.849 169.189 173.804  1.00  0.00    -0.504 OA
ATOM     45  H   UNL     1     160.323 169.534 174.632  1.00  0.00     0.293 HD
ENDBRANCH  41  44
BRANCH  43  46
ATOM     46  O   UNL     1     158.159 168.714 171.590  1.00  0.00    -0.504 OA
ATOM     47  H   UNL     1     157.437 168.755 170.877  1.00  0.00     0.293 HD
ENDBRANCH  43  46
ENDBRANCH  28  38
BRANCH  34  48
ATOM     48  O   UNL     1     167.371 174.160 170.522  1.00  0.00    -0.507 OA
ATOM     49  H   UNL     1     167.425 174.856 169.785  1.00  0.00     0.293 HD
ENDBRANCH  34  48
BRANCH  37  50
ATOM     50  O   UNL     1     168.739 169.774 169.059  1.00  0.00    -0.508 OA
ATOM     51  H   UNL     1     169.001 168.943 169.576  1.00  0.00     0.293 HD
ENDBRANCH  37  50
ENDBRANCH  26  27
ENDBRANCH   5  26
BRANCH   4  52
ATOM     52  O   UNL     1     160.361 175.983 169.938  1.00  0.00    -0.384 OA
ATOM     53  H   UNL     1     160.827 176.145 169.074  1.00  0.00     0.211 HD
ENDBRANCH   4  52
TORSDOF 16
ENDMDL
MODEL 2
REMARK VINA RESULT:    -6.876      6.364     12.953
REMARK INTER + INTRA:         -14.431
REMARK INTER:                 -12.397
REMARK INTRA:                  -2.034
REMARK UNBOUND:                -3.133
REMARK SMILES C[C@H]1O[C@H](OC[C@@H]2O[C@H](Oc3c(-c4ccc(O)c(O)c4)oc4cc(O)cc(O)c4c3=O)[C@@H](O)[C@H](O)[C@@H]2O)[C@H](O)[C@@H](O)[C@@H]1O
REMARK SMILES IDX 7 1 36 2 34 3 32 4 9 5 8 6 6 7 5 8 4 9 1 10 2 11 42 12 3 13
REMARK SMILES IDX 40 14 38 15 43 16 41 18 39 20 37 22 35 24 10 26 11 27 12 28
REMARK SMILES IDX 30 29 21 30 29 31 31 32 22 33 27 34 23 35 26 36 24 37 13 38
REMARK SMILES IDX 20 39 14 40 18 41 15 42 16 43 19 44 17 46 28 48 25 50 33 52
REMARK H PARENT 43 17 41 19 39 21 37 23 35 25 19 45 17 47 28 49 25 51 33 53
REMARK Flexibility Score: inf
ROOT
ATOM      1  C   UNL     1     170.145 174.357 165.187  1.00  0.00     0.180 C 
ATOM      2  C   UNL     1     168.659 174.778 165.016  1.00  0.00     0.177 C 
ATOM      3  C   UNL     1     167.756 174.199 166.122  1.00  0.00     0.180 C 
ATOM      4  C   UNL     1     168.390 174.483 167.490  1.00  0.00     0.214 C 
ATOM      5  C   UNL     1     169.845 173.981 167.526  1.00  0.00     0.339 C 
ATOM      6  O   UNL     1     170.631 174.589 166.508  1.00  0.00    -0.332 OA
ENDROOT
BRANCH   1   7
ATOM      7  C   UNL     1     170.494 172.939 164.670  1.00  0.00     0.198 C 
BRANCH   7   8
ATOM      8  O   UNL     1     171.341 173.025 163.542  1.00  0.00    -0.347 OA
BRANCH   8   9
ATOM      9  C   UNL     1     172.572 172.358 163.797  1.00  0.00     0.281 C 
ATOM     10  C   UNL     1     173.325 171.120 160.406  1.00  0.00     0.041 C 
ATOM     11  C   UNL     1     173.100 172.152 161.515  1.00  0.00     0.150 C 
ATOM     12  C   UNL     1     174.301 173.124 161.618  1.00  0.00     0.174 C 
ATOM     13  O   UNL     1     172.897 171.464 162.740  1.00  0.00    -0.344 OA
ATOM     14  C   UNL     1     174.031 174.138 162.744  1.00  0.00     0.179 C 
ATOM     15  C   UNL     1     173.703 173.379 164.043  1.00  0.00     0.202 C 
BRANCH  12  16
ATOM     16  O   UNL     1     174.542 173.782 160.399  1.00  0.00    -0.388 OA
ATOM     17  H   UNL     1     175.506 174.047 160.383  1.00  0.00     0.211 HD
ENDBRANCH  12  16
BRANCH  14  18
ATOM     18  O   UNL     1     175.125 175.007 162.916  1.00  0.00    -0.387 OA
ATOM     19  H   UNL     1     174.764 175.911 163.116  1.00  0.00     0.211 HD
ENDBRANCH  14  18
BRANCH  15  20
ATOM     20  O   UNL     1     173.310 174.277 165.050  1.00  0.00    -0.385 OA
ATOM     21  H   UNL     1     173.836 174.045 165.859  1.00  0.00     0.211 HD
ENDBRANCH  15  20
ENDBRANCH   8   9
ENDBRANCH   7   8
ENDBRANCH   1   7
BRANCH   2  22
ATOM     22  O   UNL     1     168.181 174.417 163.747  1.00  0.00    -0.387 OA
ATOM     23  H   UNL     1     168.493 173.488 163.572  1.00  0.00     0.211 HD
ENDBRANCH   2  22
BRANCH   3  24
ATOM     24  O   UNL     1     167.576 172.813 165.963  1.00  0.00    -0.387 OA
ATOM     25  H   UNL     1     166.629 172.613 166.180  1.00  0.00     0.211 HD
ENDBRANCH   3  24
BRANCH   5  26
ATOM     26  O   UNL     1     169.945 172.553 167.442  1.00  0.00    -0.454 OA
BRANCH  26  27
ATOM     27  C   UNL     1     170.681 171.765 168.339  1.00  0.00     0.214 A 
ATOM     28  C   UNL     1     170.062 171.189 169.468  1.00  0.00     0.180 A 
ATOM     29  C   UNL     1     172.073 171.633 168.195  1.00  0.00     0.239 A 
ATOM     30  O   UNL     1     170.789 170.509 170.348  1.00  0.00    -0.452 OA
ATOM     31  C   UNL     1     172.808 170.889 169.141  1.00  0.00     0.111 A 
ATOM     32  O   UNL     1     172.656 172.220 167.245  1.00  0.00    -0.285 OA
ATOM     33  C   UNL     1     172.102 170.333 170.233  1.00  0.00     0.146 A 
ATOM     34  C   UNL     1     174.210 170.703 169.061  1.00  0.00     0.134 A 
ATOM     35  C   UNL     1     172.783 169.606 171.216  1.00  0.00     0.094 A 
ATOM     36  C   UNL     1     174.875 169.976 170.059  1.00  0.00     0.093 A 
ATOM     37  C   UNL     1     174.170 169.429 171.132  1.00  0.00     0.123 A 
BRANCH  28  38
ATOM     38  C   UNL     1     168.621 171.369 169.759  1.00  0.00     0.025 A 
ATOM     39  C   UNL     1     167.693 170.332 169.565  1.00  0.00     0.062 A 
ATOM     40  C   UNL     1     168.182 172.583 170.306  1.00  0.00     0.016 A 
ATOM     41  C   UNL     1     166.335 170.527 169.861  1.00  0.00     0.158 A 
ATOM     42  C   UNL     1     166.832 172.777 170.613  1.00  0.00     0.051 A 
ATOM     43  C   UNL     1     165.904 171.758 170.385  1.00  0.00     0.157 A 
BRANCH  41  44
ATOM     44  O   UNL     1     165.417 169.501 169.644  1.00  0.00    -0.504 OA
ATOM     45  H   UNL     1     165.668 168.664 169.130  1.00  0.00     0.293 HD
ENDBRANCH  41  44
BRANCH  43  46
ATOM     46  O   UNL     1     164.563 171.983 170.690  1.00  0.00    -0.504 OA
ATOM     47  H   UNL     1     164.216 171.957 171.645  1.00  0.00     0.293 HD
ENDBRANCH  43  46
ENDBRANCH  28  38
BRANCH  34  48
ATOM     48  O   UNL     1     174.946 171.239 168.004  1.00  0.00    -0.507 OA
ATOM     49  H   UNL     1     174.692 171.065 167.037  1.00  0.00     0.293 HD
ENDBRANCH  34  48
BRANCH  37  50
ATOM     50  O   UNL     1     174.857 168.720 172.114  1.00  0.00    -0.508 OA
ATOM     51  H   UNL     1     175.168 167.768 171.960  1.00  0.00     0.293 HD
ENDBRANCH  37  50
ENDBRANCH  26  27
ENDBRANCH   5  26
BRANCH   4  52
ATOM     52  O   UNL     1     168.386 175.868 167.743  1.00  0.00    -0.384 OA
ATOM     53  H   UNL     1     168.387 176.323 166.859  1.00  0.00     0.211 HD
ENDBRANCH   4  52
TORSDOF 16
ENDMDL
MODEL 3
REMARK VINA RESULT:    -6.794      1.320      2.203
REMARK INTER + INTRA:         -14.297
REMARK INTER:                 -11.296
REMARK INTRA:                  -3.000
REMARK UNBOUND:                -3.133
REMARK SMILES C[C@H]1O[C@H](OC[C@@H]2O[C@H](Oc3c(-c4ccc(O)c(O)c4)oc4cc(O)cc(O)c4c3=O)[C@@H](O)[C@H](O)[C@@H]2O)[C@H](O)[C@@H](O)[C@@H]1O
REMARK SMILES IDX 7 1 36 2 34 3 32 4 9 5 8 6 6 7 5 8 4 9 1 10 2 11 42 12 3 13
REMARK SMILES IDX 40 14 38 15 43 16 41 18 39 20 37 22 35 24 10 26 11 27 12 28
REMARK SMILES IDX 30 29 21 30 29 31 31 32 22 33 27 34 23 35 26 36 24 37 13 38
REMARK SMILES IDX 20 39 14 40 18 41 15 42 16 43 19 44 17 46 28 48 25 50 33 52
REMARK H PARENT 43 17 41 19 39 21 37 23 35 25 19 45 17 47 28 49 25 51 33 53
REMARK Flexibility Score: inf
ROOT
ATOM      1  C   UNL     1     158.699 173.673 173.108  1.00  0.00     0.180 C 
ATOM      2  C   UNL     1     158.913 175.211 173.124  1.00  0.00     0.177 C 
ATOM      3  C   UNL     1     160.260 175.622 172.499  1.00  0.00     0.180 C 
ATOM      4  C   UNL     1     160.415 174.930 171.138  1.00  0.00     0.214 C 
ATOM      5  C   UNL     1     160.214 173.410 171.280  1.00  0.00     0.339 C 
ATOM      6  O   UNL     1     158.935 173.102 171.822  1.00  0.00    -0.332 OA
ENDROOT
BRANCH   1   7
ATOM      7  C   UNL     1     159.415 172.893 174.239  1.00  0.00     0.198 C 
BRANCH   7   8
ATOM      8  O   UNL     1     158.555 172.751 175.352  1.00  0.00    -0.347 OA
BRANCH   8   9
ATOM      9  C   UNL     1     157.202 172.655 174.921  1.00  0.00     0.281 C 
ATOM     10  C   UNL     1     156.673 169.028 175.325  1.00  0.00     0.041 C 
ATOM     11  C   UNL     1     156.938 170.473 175.758  1.00  0.00     0.150 C 
ATOM     12  C   UNL     1     155.928 170.920 176.843  1.00  0.00     0.174 C 
ATOM     13  O   UNL     1     156.858 171.310 174.613  1.00  0.00    -0.344 OA
ATOM     14  C   UNL     1     156.232 172.376 177.242  1.00  0.00     0.179 C 
ATOM     15  C   UNL     1     156.251 173.256 175.978  1.00  0.00     0.202 C 
BRANCH  12  16
ATOM     16  O   UNL     1     155.965 170.075 177.966  1.00  0.00    -0.388 OA
ATOM     17  H   UNL     1     155.306 170.426 178.630  1.00  0.00     0.211 HD
ENDBRANCH  12  16
BRANCH  14  18
ATOM     18  O   UNL     1     155.299 172.847 178.184  1.00  0.00    -0.387 OA
ATOM     19  H   UNL     1     155.779 173.461 178.803  1.00  0.00     0.211 HD
ENDBRANCH  14  18
BRANCH  15  20
ATOM     20  O   UNL     1     156.669 174.559 176.294  1.00  0.00    -0.385 OA
ATOM     21  H   UNL     1     156.667 175.072 175.444  1.00  0.00     0.211 HD
ENDBRANCH  15  20
ENDBRANCH   8   9
ENDBRANCH   7   8
ENDBRANCH   1   7
BRANCH   2  22
ATOM     22  O   UNL     1     158.799 175.716 174.429  1.00  0.00    -0.387 OA
ATOM     23  H   UNL     1     157.889 175.482 174.753  1.00  0.00     0.211 HD
ENDBRANCH   2  22
BRANCH   3  24
ATOM     24  O   UNL     1     161.339 175.275 173.331  1.00  0.00    -0.387 OA
ATOM     25  H   UNL     1     161.555 176.072 173.880  1.00  0.00     0.211 HD
ENDBRANCH   3  24
BRANCH   5  26
ATOM     26  O   UNL     1     161.244 172.780 172.053  1.00  0.00    -0.454 OA
BRANCH  26  27
ATOM     27  C   UNL     1     162.336 172.097 171.498  1.00  0.00     0.214 A 
ATOM     28  C   UNL     1     162.248 170.722 171.196  1.00  0.00     0.180 A 
ATOM     29  C   UNL     1     163.575 172.742 171.342  1.00  0.00     0.239 A 
ATOM     30  O   UNL     1     163.316 170.074 170.742  1.00  0.00    -0.452 OA
ATOM     31  C   UNL     1     164.680 172.025 170.840  1.00  0.00     0.111 A 
ATOM     32  O   UNL     1     163.696 173.946 171.695  1.00  0.00    -0.285 OA
ATOM     33  C   UNL     1     164.497 170.653 170.550  1.00  0.00     0.146 A 
ATOM     34  C   UNL     1     165.957 172.605 170.647  1.00  0.00     0.134 A 
ATOM     35  C   UNL     1     165.565 169.885 170.073  1.00  0.00     0.094 A 
ATOM     36  C   UNL     1     167.017 171.817 170.174  1.00  0.00     0.093 A 
ATOM     37  C   UNL     1     166.826 170.464 169.887  1.00  0.00     0.123 A 
BRANCH  28  38
ATOM     38  C   UNL     1     161.015 169.936 171.434  1.00  0.00     0.025 A 
ATOM     39  C   UNL     1     160.066 169.728 170.418  1.00  0.00     0.062 A 
ATOM     40  C   UNL     1     160.823 169.329 172.682  1.00  0.00     0.016 A 
ATOM     41  C   UNL     1     158.913 168.968 170.668  1.00  0.00     0.158 A 
ATOM     42  C   UNL     1     159.681 168.562 172.931  1.00  0.00     0.051 A 
ATOM     43  C   UNL     1     158.720 168.386 171.932  1.00  0.00     0.157 A 
BRANCH  41  44
ATOM     44  O   UNL     1     157.965 168.785 169.663  1.00  0.00    -0.504 OA
ATOM     45  H   UNL     1     157.529 167.883 169.502  1.00  0.00     0.293 HD
ENDBRANCH  41  44
BRANCH  43  46
ATOM     46  O   UNL     1     157.585 167.625 172.211  1.00  0.00    -0.504 OA
ATOM     47  H   UNL     1     157.186 167.576 173.144  1.00  0.00     0.293 HD
ENDBRANCH  43  46
ENDBRANCH  28  38
BRANCH  34  48
ATOM     48  O   UNL     1     166.184 173.953 170.926  1.00  0.00    -0.507 OA
ATOM     49  H   UNL     1     165.418 174.609 171.041  1.00  0.00     0.293 HD
ENDBRANCH  34  48
BRANCH  37  50
ATOM     50  O   UNL     1     167.898 169.703 169.428  1.00  0.00    -0.508 OA
ATOM     51  H   UNL     1     168.262 169.813 168.489  1.00  0.00     0.293 HD
ENDBRANCH  37  50
ENDBRANCH  26  27
ENDBRANCH   5  26
BRANCH   4  52
ATOM     52  O   UNL     1     159.458 175.427 170.234  1.00  0.00    -0.384 OA
ATOM     53  H   UNL     1     158.657 175.676 170.769  1.00  0.00     0.211 HD
ENDBRANCH   4  52
TORSDOF 16
ENDMDL
MODEL 4
REMARK VINA RESULT:    -6.642      1.882      2.743
REMARK INTER + INTRA:         -14.046
REMARK INTER:                 -11.496
REMARK INTRA:                  -2.550
REMARK UNBOUND:                -3.133
REMARK SMILES C[C@H]1O[C@H](OC[C@@H]2O[C@H](Oc3c(-c4ccc(O)c(O)c4)oc4cc(O)cc(O)c4c3=O)[C@@H](O)[C@H](O)[C@@H]2O)[C@H](O)[C@@H](O)[C@@H]1O
REMARK SMILES IDX 7 1 36 2 34 3 32 4 9 5 8 6 6 7 5 8 4 9 1 10 2 11 42 12 3 13
REMARK SMILES IDX 40 14 38 15 43 16 41 18 39 20 37 22 35 24 10 26 11 27 12 28
REMARK SMILES IDX 30 29 21 30 29 31 31 32 22 33 27 34 23 35 26 36 24 37 13 38
REMARK SMILES IDX 20 39 14 40 18 41 15 42 16 43 19 44 17 46 28 48 25 50 33 52
REMARK H PARENT 43 17 41 19 39 21 37 23 35 25 19 45 17 47 28 49 25 51 33 53
REMARK Flexibility Score: inf
ROOT
ATOM      1  C   UNL     1     157.134 173.257 171.500  1.00  0.00     0.180 C 
ATOM      2  C   UNL     1     157.012 174.178 170.254  1.00  0.00     0.177 C 
ATOM      3  C   UNL     1     158.259 174.112 169.353  1.00  0.00     0.180 C 
ATOM      4  C   UNL     1     158.605 172.642 169.079  1.00  0.00     0.214 C 
ATOM      5  C   UNL     1     158.731 171.862 170.401  1.00  0.00     0.339 C 
ATOM      6  O   UNL     1     157.530 171.930 171.162  1.00  0.00    -0.332 OA
ENDROOT
BRANCH   1   7
ATOM      7  C   UNL     1     157.962 173.839 172.673  1.00  0.00     0.198 C 
BRANCH   7   8
ATOM      8  O   UNL     1     158.153 172.855 173.670  1.00  0.00    -0.347 OA
BRANCH   8   9
ATOM      9  C   UNL     1     158.153 173.454 174.961  1.00  0.00     0.281 C 
ATOM     10  C   UNL     1     155.223 171.767 176.433  1.00  0.00     0.041 C 
ATOM     11  C   UNL     1     156.631 171.894 175.844  1.00  0.00     0.150 C 
ATOM     12  C   UNL     1     157.686 171.276 176.795  1.00  0.00     0.174 C 
ATOM     13  O   UNL     1     156.902 173.269 175.611  1.00  0.00    -0.344 OA
ATOM     14  C   UNL     1     159.082 171.430 176.163  1.00  0.00     0.179 C 
ATOM     15  C   UNL     1     159.320 172.911 175.813  1.00  0.00     0.202 C 
BRANCH  12  16
ATOM     16  O   UNL     1     157.408 169.926 177.071  1.00  0.00    -0.388 OA
ATOM     17  H   UNL     1     157.082 169.505 176.225  1.00  0.00     0.211 HD
ENDBRANCH  12  16
BRANCH  14  18
ATOM     18  O   UNL     1     160.082 170.936 177.021  1.00  0.00    -0.387 OA
ATOM     19  H   UNL     1     160.267 169.995 176.758  1.00  0.00     0.211 HD
ENDBRANCH  14  18
BRANCH  15  20
ATOM     20  O   UNL     1     160.523 173.059 175.103  1.00  0.00    -0.385 OA
ATOM     21  H   UNL     1     160.359 172.708 174.189  1.00  0.00     0.211 HD
ENDBRANCH  15  20
ENDBRANCH   8   9
ENDBRANCH   7   8
ENDBRANCH   1   7
BRANCH   2  22
ATOM     22  O   UNL     1     156.748 175.503 170.638  1.00  0.00    -0.387 OA
ATOM     23  H   UNL     1     155.864 175.503 171.094  1.00  0.00     0.211 HD
ENDBRANCH   2  22
BRANCH   3  24
ATOM     24  O   UNL     1     159.359 174.753 169.950  1.00  0.00    -0.387 OA
ATOM     25  H   UNL     1     159.982 174.045 170.257  1.00  0.00     0.211 HD
ENDBRANCH   3  24
BRANCH   5  26
ATOM     26  O   UNL     1     159.846 172.287 171.197  1.00  0.00    -0.454 OA
BRANCH  26  27
ATOM     27  C   UNL     1     161.160 171.836 171.009  1.00  0.00     0.214 A 
ATOM     28  C   UNL     1     161.529 170.523 171.369  1.00  0.00     0.180 A 
ATOM     29  C   UNL     1     162.161 172.720 170.572  1.00  0.00     0.239 A 
ATOM     30  O   UNL     1     162.796 170.136 171.257  1.00  0.00    -0.452 OA
ATOM     31  C   UNL     1     163.491 172.267 170.449  1.00  0.00     0.111 A 
ATOM     32  O   UNL     1     161.867 173.922 170.337  1.00  0.00    -0.285 OA
ATOM     33  C   UNL     1     163.767 170.930 170.818  1.00  0.00     0.146 A 
ATOM     34  C   UNL     1     164.553 173.094 170.008  1.00  0.00     0.134 A 
ATOM     35  C   UNL     1     165.073 170.433 170.739  1.00  0.00     0.094 A 
ATOM     36  C   UNL     1     165.857 172.579 169.942  1.00  0.00     0.093 A 
ATOM     37  C   UNL     1     166.120 171.257 170.305  1.00  0.00     0.123 A 
BRANCH  28  38
ATOM     38  C   UNL     1     160.563 169.558 171.943  1.00  0.00     0.025 A 
ATOM     39  C   UNL     1     160.392 169.422 173.332  1.00  0.00     0.062 A 
ATOM     40  C   UNL     1     159.751 168.811 171.080  1.00  0.00     0.016 A 
ATOM     41  C   UNL     1     159.460 168.509 173.847  1.00  0.00     0.158 A 
ATOM     42  C   UNL     1     158.813 167.908 171.590  1.00  0.00     0.051 A 
ATOM     43  C   UNL     1     158.670 167.747 172.970  1.00  0.00     0.157 A 
BRANCH  41  44
ATOM     44  O   UNL     1     159.312 168.363 175.226  1.00  0.00    -0.504 OA
ATOM     45  H   UNL     1     159.329 167.450 175.667  1.00  0.00     0.293 HD
ENDBRANCH  41  44
BRANCH  43  46
ATOM     46  O   UNL     1     157.734 166.831 173.451  1.00  0.00    -0.504 OA
ATOM     47  H   UNL     1     157.334 166.109 172.859  1.00  0.00     0.293 HD
ENDBRANCH  43  46
ENDBRANCH  28  38
BRANCH  34  48
ATOM     48  O   UNL     1     164.327 174.421 169.640  1.00  0.00    -0.507 OA
ATOM     49  H   UNL     1     164.893 175.179 170.006  1.00  0.00     0.293 HD
ENDBRANCH  34  48
BRANCH  37  50
ATOM     50  O   UNL     1     167.424 170.775 170.240  1.00  0.00    -0.508 OA
ATOM     51  H   UNL     1     167.902 170.429 171.063  1.00  0.00     0.293 HD
ENDBRANCH  37  50
ENDBRANCH  26  27
ENDBRANCH   5  26
BRANCH   4  52
ATOM     52  O   UNL     1     157.594 172.047 168.301  1.00  0.00    -0.384 OA
ATOM     53  H   UNL     1     157.912 172.057 167.358  1.00  0.00     0.211 HD
ENDBRANCH   4  52
TORSDOF 16
ENDMDL
MODEL 5
REMARK VINA RESULT:    -6.529      3.206      7.883
REMARK INTER + INTRA:         -13.861
REMARK INTER:                 -11.117
REMARK INTRA:                  -2.744
REMARK UNBOUND:                -3.133
REMARK SMILES C[C@H]1O[C@H](OC[C@@H]2O[C@H](Oc3c(-c4ccc(O)c(O)c4)oc4cc(O)cc(O)c4c3=O)[C@@H](O)[C@H](O)[C@@H]2O)[C@H](O)[C@@H](O)[C@@H]1O
REMARK SMILES IDX 7 1 36 2 34 3 32 4 9 5 8 6 6 7 5 8 4 9 1 10 2 11 42 12 3 13
REMARK SMILES IDX 40 14 38 15 43 16 41 18 39 20 37 22 35 24 10 26 11 27 12 28
REMARK SMILES IDX 30 29 21 30 29 31 31 32 22 33 27 34 23 35 26 36 24 37 13 38
REMARK SMILES IDX 20 39 14 40 18 41 15 42 16 43 19 44 17 46 28 48 25 50 33 52
REMARK H PARENT 43 17 41 19 39 21 37 23 35 25 19 45 17 47 28 49 25 51 33 53
REMARK Flexibility Score: inf
ROOT
ATOM      1  C   UNL     1     158.468 172.749 174.503  1.00  0.00     0.180 C 
ATOM      2  C   UNL     1     157.957 172.922 175.960  1.00  0.00     0.177 C 
ATOM      3  C   UNL     1     157.725 171.571 176.664  1.00  0.00     0.180 C 
ATOM      4  C   UNL     1     158.968 170.689 176.480  1.00  0.00     0.214 C 
ATOM      5  C   UNL     1     159.335 170.577 174.989  1.00  0.00     0.339 C 
ATOM      6  O   UNL     1     159.577 171.857 174.416  1.00  0.00    -0.332 OA
ENDROOT
BRANCH   1   7
ATOM      7  C   UNL     1     157.374 172.436 173.452  1.00  0.00     0.198 C 
BRANCH   7   8
ATOM      8  O   UNL     1     157.536 173.265 172.318  1.00  0.00    -0.347 OA
BRANCH   8   9
ATOM      9  C   UNL     1     158.372 172.629 171.357  1.00  0.00     0.281 C 
ATOM     10  C   UNL     1     156.157 172.774 168.412  1.00  0.00     0.041 C 
ATOM     11  C   UNL     1     157.044 173.310 169.540  1.00  0.00     0.150 C 
ATOM     12  C   UNL     1     158.142 174.249 168.981  1.00  0.00     0.174 C 
ATOM     13  O   UNL     1     157.620 172.208 170.226  1.00  0.00    -0.344 OA
ATOM     14  C   UNL     1     159.008 174.759 170.148  1.00  0.00     0.179 C 
ATOM     15  C   UNL     1     159.537 173.555 170.951  1.00  0.00     0.202 C 
BRANCH  12  16
ATOM     16  O   UNL     1     157.590 175.323 168.261  1.00  0.00    -0.388 OA
ATOM     17  H   UNL     1     158.218 176.095 168.340  1.00  0.00     0.211 HD
ENDBRANCH  12  16
BRANCH  14  18
ATOM     18  O   UNL     1     160.059 175.569 169.681  1.00  0.00    -0.387 OA
ATOM     19  H   UNL     1     159.730 176.060 168.882  1.00  0.00     0.211 HD
ENDBRANCH  14  18
BRANCH  15  20
ATOM     20  O   UNL     1     160.208 173.994 172.105  1.00  0.00    -0.385 OA
ATOM     21  H   UNL     1     160.805 173.251 172.385  1.00  0.00     0.211 HD
ENDBRANCH  15  20
ENDBRANCH   8   9
ENDBRANCH   7   8
ENDBRANCH   1   7
BRANCH   2  22
ATOM     22  O   UNL     1     156.789 173.701 175.990  1.00  0.00    -0.387 OA
ATOM     23  H   UNL     1     156.114 173.234 175.428  1.00  0.00     0.211 HD
ENDBRANCH   2  22
BRANCH   3  24
ATOM     24  O   UNL     1     156.596 170.910 176.148  1.00  0.00    -0.387 OA
ATOM     25  H   UNL     1     156.868 170.486 175.295  1.00  0.00     0.211 HD
ENDBRANCH   3  24
BRANCH   5  26
ATOM     26  O   UNL     1     158.351 169.869 174.223  1.00  0.00    -0.454 OA
BRANCH  26  27
ATOM     27  C   UNL     1     158.380 168.485 173.998  1.00  0.00     0.214 A 
ATOM     28  C   UNL     1     159.081 167.949 172.897  1.00  0.00     0.180 A 
ATOM     29  C   UNL     1     157.613 167.618 174.793  1.00  0.00     0.239 A 
ATOM     30  O   UNL     1     159.034 166.644 172.653  1.00  0.00    -0.452 OA
ATOM     31  C   UNL     1     157.603 166.235 174.514  1.00  0.00     0.111 A 
ATOM     32  O   UNL     1     156.906 168.091 175.722  1.00  0.00    -0.285 OA
ATOM     33  C   UNL     1     158.348 165.784 173.400  1.00  0.00     0.146 A 
ATOM     34  C   UNL     1     156.863 165.297 175.274  1.00  0.00     0.134 A 
ATOM     35  C   UNL     1     158.355 164.427 173.060  1.00  0.00     0.094 A 
ATOM     36  C   UNL     1     156.878 163.941 174.914  1.00  0.00     0.093 A 
ATOM     37  C   UNL     1     157.619 163.504 173.814  1.00  0.00     0.123 A 
BRANCH  28  38
ATOM     38  C   UNL     1     159.825 168.802 171.940  1.00  0.00     0.025 A 
ATOM     39  C   UNL     1     159.302 169.122 170.676  1.00  0.00     0.062 A 
ATOM     40  C   UNL     1     161.050 169.358 172.333  1.00  0.00     0.016 A 
ATOM     41  C   UNL     1     160.023 169.943 169.795  1.00  0.00     0.158 A 
ATOM     42  C   UNL     1     161.766 170.185 171.462  1.00  0.00     0.051 A 
ATOM     43  C   UNL     1     161.263 170.473 170.191  1.00  0.00     0.157 A 
BRANCH  41  44
ATOM     44  O   UNL     1     159.509 170.237 168.533  1.00  0.00    -0.504 OA
ATOM     45  H   UNL     1     159.612 169.595 167.755  1.00  0.00     0.293 HD
ENDBRANCH  41  44
BRANCH  43  46
ATOM     46  O   UNL     1     162.003 171.292 169.340  1.00  0.00    -0.504 OA
ATOM     47  H   UNL     1     161.946 172.305 169.384  1.00  0.00     0.293 HD
ENDBRANCH  43  46
ENDBRANCH  28  38
BRANCH  34  48
ATOM     48  O   UNL     1     156.110 165.699 176.378  1.00  0.00    -0.507 OA
ATOM     49  H   UNL     1     155.159 166.037 176.279  1.00  0.00     0.293 HD
ENDBRANCH  34  48
BRANCH  37  50
ATOM     50  O   UNL     1     157.608 162.154 173.473  1.00  0.00    -0.508 OA
ATOM     51  H   UNL     1     156.787 161.578 173.619  1.00  0.00     0.293 HD
ENDBRANCH  37  50
ENDBRANCH  26  27
ENDBRANCH   5  26
BRANCH   4  52
ATOM     52  O   UNL     1     160.060 171.247 177.172  1.00  0.00    -0.384 OA
ATOM     53  H   UNL     1     159.755 172.121 177.535  1.00  0.00     0.211 HD
ENDBRANCH   4  52
TORSDOF 16
ENDMDL
MODEL 6
REMARK VINA RESULT:    -6.360      2.786      8.086
REMARK INTER + INTRA:         -13.582
REMARK INTER:                 -11.279
REMARK INTRA:                  -2.303
REMARK UNBOUND:                -3.133
REMARK SMILES C[C@H]1O[C@H](OC[C@@H]2O[C@H](Oc3c(-c4ccc(O)c(O)c4)oc4cc(O)cc(O)c4c3=O)[C@@H](O)[C@H](O)[C@@H]2O)[C@H](O)[C@@H](O)[C@@H]1O
REMARK SMILES IDX 7 1 36 2 34 3 32 4 9 5 8 6 6 7 5 8 4 9 1 10 2 11 42 12 3 13
REMARK SMILES IDX 40 14 38 15 43 16 41 18 39 20 37 22 35 24 10 26 11 27 12 28
REMARK SMILES IDX 30 29 21 30 29 31 31 32 22 33 27 34 23 35 26 36 24 37 13 38
REMARK SMILES IDX 20 39 14 40 18 41 15 42 16 43 19 44 17 46 28 48 25 50 33 52
REMARK H PARENT 43 17 41 19 39 21 37 23 35 25 19 45 17 47 28 49 25 51 33 53
REMARK Flexibility Score: inf
ROOT
ATOM      1  C   UNL     1     161.642 172.002 172.922  1.00  0.00     0.180 C 
ATOM      2  C   UNL     1     161.089 173.383 172.475  1.00  0.00     0.177 C 
ATOM      3  C   UNL     1     159.778 173.258 171.675  1.00  0.00     0.180 C 
ATOM      4  C   UNL     1     158.805 172.353 172.441  1.00  0.00     0.214 C 
ATOM      5  C   UNL     1     159.474 171.009 172.784  1.00  0.00     0.339 C 
ATOM      6  O   UNL     1     160.652 171.197 173.560  1.00  0.00    -0.332 OA
ENDROOT
BRANCH   1   7
ATOM      7  C   UNL     1     162.427 171.222 171.838  1.00  0.00     0.198 C 
BRANCH   7   8
ATOM      8  O   UNL     1     163.723 171.767 171.687  1.00  0.00    -0.347 OA
BRANCH   8   9
ATOM      9  C   UNL     1     164.096 171.779 170.314  1.00  0.00     0.281 C 
ATOM     10  C   UNL     1     164.811 175.372 169.894  1.00  0.00     0.041 C 
ATOM     11  C   UNL     1     164.995 173.949 170.428  1.00  0.00     0.150 C 
ATOM     12  C   UNL     1     166.443 173.452 170.193  1.00  0.00     0.174 C 
ATOM     13  O   UNL     1     164.056 173.099 169.785  1.00  0.00    -0.344 OA
ATOM     14  C   UNL     1     166.578 172.021 170.743  1.00  0.00     0.179 C 
ATOM     15  C   UNL     1     165.483 171.133 170.121  1.00  0.00     0.202 C 
BRANCH  12  16
ATOM     16  O   UNL     1     167.388 174.307 170.787  1.00  0.00    -0.388 OA
ATOM     17  H   UNL     1     168.155 173.745 171.093  1.00  0.00     0.211 HD
ENDBRANCH  12  16
BRANCH  14  18
ATOM     18  O   UNL     1     167.863 171.503 170.497  1.00  0.00    -0.387 OA
ATOM     19  H   UNL     1     167.807 170.931 169.685  1.00  0.00     0.211 HD
ENDBRANCH  14  18
BRANCH  15  20
ATOM     20  O   UNL     1     165.490 169.859 170.714  1.00  0.00    -0.385 OA
ATOM     21  H   UNL     1     164.590 169.725 171.109  1.00  0.00     0.211 HD
ENDBRANCH  15  20
ENDBRANCH   8   9
ENDBRANCH   7   8
ENDBRANCH   1   7
BRANCH   2  22
ATOM     22  O   UNL     1     162.052 174.091 171.739  1.00  0.00    -0.387 OA
ATOM     23  H   UNL     1     161.624 174.361 170.883  1.00  0.00     0.211 HD
ENDBRANCH   2  22
BRANCH   3  24
ATOM     24  O   UNL     1     160.008 172.727 170.393  1.00  0.00    -0.387 OA
ATOM     25  H   UNL     1     160.231 171.767 170.508  1.00  0.00     0.211 HD
ENDBRANCH   3  24
BRANCH   5  26
ATOM     26  O   UNL     1     159.766 170.218 171.625  1.00  0.00    -0.454 OA
BRANCH  26  27
ATOM     27  C   UNL     1     159.105 169.023 171.304  1.00  0.00     0.214 A 
ATOM     28  C   UNL     1     158.354 168.913 170.114  1.00  0.00     0.180 A 
ATOM     29  C   UNL     1     159.078 167.956 172.218  1.00  0.00     0.239 A 
ATOM     30  O   UNL     1     157.672 167.801 169.862  1.00  0.00    -0.452 OA
ATOM     31  C   UNL     1     158.356 166.785 171.906  1.00  0.00     0.111 A 
ATOM     32  O   UNL     1     159.664 168.074 173.326  1.00  0.00    -0.285 OA
ATOM     33  C   UNL     1     157.645 166.756 170.684  1.00  0.00     0.146 A 
ATOM     34  C   UNL     1     158.287 165.665 172.770  1.00  0.00     0.134 A 
ATOM     35  C   UNL     1     156.892 165.630 170.334  1.00  0.00     0.094 A 
ATOM     36  C   UNL     1     157.521 164.548 172.405  1.00  0.00     0.093 A 
ATOM     37  C   UNL     1     156.826 164.526 171.194  1.00  0.00     0.123 A 
BRANCH  28  38
ATOM     38  C   UNL     1     158.235 170.028 169.146  1.00  0.00     0.025 A 
ATOM     39  C   UNL     1     157.233 171.005 169.266  1.00  0.00     0.062 A 
ATOM     40  C   UNL     1     159.188 170.149 168.125  1.00  0.00     0.016 A 
ATOM     41  C   UNL     1     157.152 172.058 168.342  1.00  0.00     0.158 A 
ATOM     42  C   UNL     1     159.117 171.202 167.209  1.00  0.00     0.051 A 
ATOM     43  C   UNL     1     158.098 172.153 167.307  1.00  0.00     0.157 A 
BRANCH  41  44
ATOM     44  O   UNL     1     156.141 173.011 168.453  1.00  0.00    -0.504 OA
ATOM     45  H   UNL     1     155.314 172.978 167.868  1.00  0.00     0.293 HD
ENDBRANCH  41  44
BRANCH  43  46
ATOM     46  O   UNL     1     158.045 173.188 166.373  1.00  0.00    -0.504 OA
ATOM     47  H   UNL     1     157.634 173.062 165.453  1.00  0.00     0.293 HD
ENDBRANCH  43  46
ENDBRANCH  28  38
BRANCH  34  48
ATOM     48  O   UNL     1     158.968 165.653 173.988  1.00  0.00    -0.507 OA
ATOM     49  H   UNL     1     158.562 165.239 174.821  1.00  0.00     0.293 HD
ENDBRANCH  34  48
BRANCH  37  50
ATOM     50  O   UNL     1     156.065 163.409 170.861  1.00  0.00    -0.508 OA
ATOM     51  H   UNL     1     156.150 162.538 171.372  1.00  0.00     0.293 HD
ENDBRANCH  37  50
ENDBRANCH  26  27
ENDBRANCH   5  26
BRANCH   4  52
ATOM     52  O   UNL     1     158.410 172.977 173.639  1.00  0.00    -0.384 OA
ATOM     53  H   UNL     1     158.635 173.942 173.550  1.00  0.00     0.211 HD
ENDBRANCH   4  52
TORSDOF 16
ENDMDL
MODEL 7
REMARK VINA RESULT:    -6.326      6.290     12.394
REMARK INTER + INTRA:         -13.527
REMARK INTER:                 -11.122
REMARK INTRA:                  -2.405
REMARK UNBOUND:                -3.133
REMARK SMILES C[C@H]1O[C@H](OC[C@@H]2O[C@H](Oc3c(-c4ccc(O)c(O)c4)oc4cc(O)cc(O)c4c3=O)[C@@H](O)[C@H](O)[C@@H]2O)[C@H](O)[C@@H](O)[C@@H]1O
REMARK SMILES IDX 7 1 36 2 34 3 32 4 9 5 8 6 6 7 5 8 4 9 1 10 2 11 42 12 3 13
REMARK SMILES IDX 40 14 38 15 43 16 41 18 39 20 37 22 35 24 10 26 11 27 12 28
REMARK SMILES IDX 30 29 21 30 29 31 31 32 22 33 27 34 23 35 26 36 24 37 13 38
REMARK SMILES IDX 20 39 14 40 18 41 15 42 16 43 19 44 17 46 28 48 25 50 33 52
REMARK H PARENT 43 17 41 19 39 21 37 23 35 25 19 45 17 47 28 49 25 51 33 53
REMARK Flexibility Score: inf
ROOT
ATOM      1  C   UNL     1     168.904 174.514 165.099  1.00  0.00     0.180 C 
ATOM      2  C   UNL     1     167.377 174.227 165.064  1.00  0.00     0.177 C 
ATOM      3  C   UNL     1     166.822 173.843 166.449  1.00  0.00     0.180 C 
ATOM      4  C   UNL     1     167.296 174.873 167.484  1.00  0.00     0.214 C 
ATOM      5  C   UNL     1     168.827 175.026 167.430  1.00  0.00     0.339 C 
ATOM      6  O   UNL     1     169.265 175.424 166.136  1.00  0.00    -0.332 OA
ENDROOT
BRANCH   1   7
ATOM      7  C   UNL     1     169.813 173.261 165.070  1.00  0.00     0.198 C 
BRANCH   7   8
ATOM      8  O   UNL     1     170.809 173.403 164.076  1.00  0.00    -0.347 OA
BRANCH   8   9
ATOM      9  C   UNL     1     172.061 172.934 164.562  1.00  0.00     0.281 C 
ATOM     10  C   UNL     1     173.314 171.248 161.531  1.00  0.00     0.041 C 
ATOM     11  C   UNL     1     172.864 172.416 162.413  1.00  0.00     0.150 C 
ATOM     12  C   UNL     1     173.946 173.524 162.458  1.00  0.00     0.174 C 
ATOM     13  O   UNL     1     172.590 171.921 163.716  1.00  0.00    -0.344 OA
ATOM     14  C   UNL     1     173.450 174.672 163.357  1.00  0.00     0.179 C 
ATOM     15  C   UNL     1     173.052 174.105 164.732  1.00  0.00     0.202 C 
BRANCH  12  16
ATOM     16  O   UNL     1     174.259 173.995 161.172  1.00  0.00    -0.388 OA
ATOM     17  H   UNL     1     173.409 174.299 160.744  1.00  0.00     0.211 HD
ENDBRANCH  12  16
BRANCH  14  18
ATOM     18  O   UNL     1     174.428 175.677 163.478  1.00  0.00    -0.387 OA
ATOM     19  H   UNL     1     173.956 176.547 163.575  1.00  0.00     0.211 HD
ENDBRANCH  14  18
BRANCH  15  20
ATOM     20  O   UNL     1     172.460 175.105 165.522  1.00  0.00    -0.385 OA
ATOM     21  H   UNL     1     171.902 174.639 166.198  1.00  0.00     0.211 HD
ENDBRANCH  15  20
ENDBRANCH   8   9
ENDBRANCH   7   8
ENDBRANCH   1   7
BRANCH   2  22
ATOM     22  O   UNL     1     167.078 173.233 164.119  1.00  0.00    -0.387 OA
ATOM     23  H   UNL     1     167.696 173.367 163.351  1.00  0.00     0.211 HD
ENDBRANCH   2  22
BRANCH   3  24
ATOM     24  O   UNL     1     167.244 172.558 166.833  1.00  0.00    -0.387 OA
ATOM     25  H   UNL     1     166.750 171.906 166.273  1.00  0.00     0.211 HD
ENDBRANCH   3  24
BRANCH   5  26
ATOM     26  O   UNL     1     169.522 173.844 167.847  1.00  0.00    -0.454 OA
BRANCH  26  27
ATOM     27  C   UNL     1     170.211 173.727 169.063  1.00  0.00     0.214 A 
ATOM     28  C   UNL     1     169.603 173.116 170.180  1.00  0.00     0.180 A 
ATOM     29  C   UNL     1     171.474 174.322 169.227  1.00  0.00     0.239 A 
ATOM     30  O   UNL     1     170.240 173.081 171.345  1.00  0.00    -0.452 OA
ATOM     31  C   UNL     1     172.126 174.249 170.475  1.00  0.00     0.111 A 
ATOM     32  O   UNL     1     171.990 174.953 168.267  1.00  0.00    -0.285 OA
ATOM     33  C   UNL     1     171.448 173.603 171.535  1.00  0.00     0.146 A 
ATOM     34  C   UNL     1     173.401 174.815 170.717  1.00  0.00     0.134 A 
ATOM     35  C   UNL     1     172.036 173.522 172.802  1.00  0.00     0.094 A 
ATOM     36  C   UNL     1     173.972 174.730 171.996  1.00  0.00     0.093 A 
ATOM     37  C   UNL     1     173.296 174.087 173.035  1.00  0.00     0.123 A 
BRANCH  28  38
ATOM     38  C   UNL     1     168.230 172.561 170.129  1.00  0.00     0.025 A 
ATOM     39  C   UNL     1     167.988 171.224 169.769  1.00  0.00     0.062 A 
ATOM     40  C   UNL     1     167.152 173.370 170.514  1.00  0.00     0.016 A 
ATOM     41  C   UNL     1     166.678 170.722 169.742  1.00  0.00     0.158 A 
ATOM     42  C   UNL     1     165.847 172.870 170.499  1.00  0.00     0.051 A 
ATOM     43  C   UNL     1     165.603 171.552 170.106  1.00  0.00     0.157 A 
BRANCH  41  44
ATOM     44  O   UNL     1     166.442 169.402 169.362  1.00  0.00    -0.504 OA
ATOM     45  H   UNL     1     167.024 168.935 168.675  1.00  0.00     0.293 HD
ENDBRANCH  41  44
BRANCH  43  46
ATOM     46  O   UNL     1     164.290 171.082 170.090  1.00  0.00    -0.504 OA
ATOM     47  H   UNL     1     163.536 171.577 170.556  1.00  0.00     0.293 HD
ENDBRANCH  43  46
ENDBRANCH  28  38
BRANCH  34  48
ATOM     48  O   UNL     1     174.103 175.466 169.701  1.00  0.00    -0.507 OA
ATOM     49  H   UNL     1     174.671 176.286 169.888  1.00  0.00     0.293 HD
ENDBRANCH  34  48
BRANCH  37  50
ATOM     50  O   UNL     1     173.881 174.026 174.297  1.00  0.00    -0.508 OA
ATOM     51  H   UNL     1     173.470 173.480 175.045  1.00  0.00     0.293 HD
ENDBRANCH  37  50
ENDBRANCH  26  27
ENDBRANCH   5  26
BRANCH   4  52
ATOM     52  O   UNL     1     166.709 176.125 167.220  1.00  0.00    -0.384 OA
ATOM     53  H   UNL     1     165.729 175.972 167.133  1.00  0.00     0.211 HD
ENDBRANCH   4  52
TORSDOF 16
ENDMDL
MODEL 8
REMARK VINA RESULT:    -6.307      4.420      7.415
REMARK INTER + INTRA:         -13.497
REMARK INTER:                 -10.738
REMARK INTRA:                  -2.758
REMARK UNBOUND:                -3.133
REMARK SMILES C[C@H]1O[C@H](OC[C@@H]2O[C@H](Oc3c(-c4ccc(O)c(O)c4)oc4cc(O)cc(O)c4c3=O)[C@@H](O)[C@H](O)[C@@H]2O)[C@H](O)[C@@H](O)[C@@H]1O
REMARK SMILES IDX 7 1 36 2 34 3 32 4 9 5 8 6 6 7 5 8 4 9 1 10 2 11 42 12 3 13
REMARK SMILES IDX 40 14 38 15 43 16 41 18 39 20 37 22 35 24 10 26 11 27 12 28
REMARK SMILES IDX 30 29 21 30 29 31 31 32 22 33 27 34 23 35 26 36 24 37 13 38
REMARK SMILES IDX 20 39 14 40 18 41 15 42 16 43 19 44 17 46 28 48 25 50 33 52
REMARK H PARENT 43 17 41 19 39 21 37 23 35 25 19 45 17 47 28 49 25 51 33 53
REMARK Flexibility Score: inf
ROOT
ATOM      1  C   UNL     1     155.816 167.431 173.760  1.00  0.00     0.180 C 
ATOM      2  C   UNL     1     155.593 167.884 175.229  1.00  0.00     0.177 C 
ATOM      3  C   UNL     1     156.510 169.056 175.627  1.00  0.00     0.180 C 
ATOM      4  C   UNL     1     156.416 170.153 174.557  1.00  0.00     0.214 C 
ATOM      5  C   UNL     1     156.696 169.569 173.160  1.00  0.00     0.339 C 
ATOM      6  O   UNL     1     155.786 168.522 172.842  1.00  0.00    -0.332 OA
ENDROOT
BRANCH   1   7
ATOM      7  C   UNL     1     157.034 166.502 173.532  1.00  0.00     0.198 C 
BRANCH   7   8
ATOM      8  O   UNL     1     156.607 165.159 173.412  1.00  0.00    -0.347 OA
BRANCH   8   9
ATOM      9  C   UNL     1     157.451 164.304 174.174  1.00  0.00     0.281 C 
ATOM     10  C   UNL     1     154.927 162.699 176.331  1.00  0.00     0.041 C 
ATOM     11  C   UNL     1     155.653 163.054 175.030  1.00  0.00     0.150 C 
ATOM     12  C   UNL     1     156.065 161.774 174.261  1.00  0.00     0.174 C 
ATOM     13  O   UNL     1     156.789 163.845 175.346  1.00  0.00    -0.344 OA
ATOM     14  C   UNL     1     156.791 162.180 172.965  1.00  0.00     0.179 C 
ATOM     15  C   UNL     1     157.956 163.128 173.311  1.00  0.00     0.202 C 
BRANCH  12  16
ATOM     16  O   UNL     1     154.956 160.958 173.978  1.00  0.00    -0.388 OA
ATOM     17  H   UNL     1     154.893 160.272 174.701  1.00  0.00     0.211 HD
ENDBRANCH  12  16
BRANCH  14  18
ATOM     18  O   UNL     1     157.241 161.048 172.261  1.00  0.00    -0.387 OA
ATOM     19  H   UNL     1     157.104 161.222 171.292  1.00  0.00     0.211 HD
ENDBRANCH  14  18
BRANCH  15  20
ATOM     20  O   UNL     1     158.544 163.629 172.138  1.00  0.00    -0.385 OA
ATOM     21  H   UNL     1     159.494 163.821 172.356  1.00  0.00     0.211 HD
ENDBRANCH  15  20
ENDBRANCH   8   9
ENDBRANCH   7   8
ENDBRANCH   1   7
BRANCH   2  22
ATOM     22  O   UNL     1     155.758 166.805 176.113  1.00  0.00    -0.387 OA
ATOM     23  H   UNL     1     155.747 167.180 177.035  1.00  0.00     0.211 HD
ENDBRANCH   2  22
BRANCH   3  24
ATOM     24  O   UNL     1     157.846 168.640 175.761  1.00  0.00    -0.387 OA
ATOM     25  H   UNL     1     158.378 169.436 176.018  1.00  0.00     0.211 HD
ENDBRANCH   3  24
BRANCH   5  26
ATOM     26  O   UNL     1     158.047 169.116 173.004  1.00  0.00    -0.454 OA
BRANCH  26  27
ATOM     27  C   UNL     1     159.002 169.758 172.204  1.00  0.00     0.214 A 
ATOM     28  C   UNL     1     159.075 169.498 170.819  1.00  0.00     0.180 A 
ATOM     29  C   UNL     1     159.982 170.582 172.785  1.00  0.00     0.239 A 
ATOM     30  O   UNL     1     160.034 170.057 170.089  1.00  0.00    -0.452 OA
ATOM     31  C   UNL     1     160.974 171.170 171.974  1.00  0.00     0.111 A 
ATOM     32  O   UNL     1     159.989 170.749 174.034  1.00  0.00    -0.285 OA
ATOM     33  C   UNL     1     160.960 170.866 170.593  1.00  0.00     0.146 A 
ATOM     34  C   UNL     1     161.988 172.017 172.484  1.00  0.00     0.134 A 
ATOM     35  C   UNL     1     161.935 171.403 169.744  1.00  0.00     0.094 A 
ATOM     36  C   UNL     1     162.961 172.540 171.618  1.00  0.00     0.093 A 
ATOM     37  C   UNL     1     162.938 172.237 170.255  1.00  0.00     0.123 A 
BRANCH  28  38
ATOM     38  C   UNL     1     158.153 168.558 170.141  1.00  0.00     0.025 A 
ATOM     39  C   UNL     1     158.075 167.205 170.512  1.00  0.00     0.062 A 
ATOM     40  C   UNL     1     157.289 169.044 169.150  1.00  0.00     0.016 A 
ATOM     41  C   UNL     1     157.183 166.339 169.861  1.00  0.00     0.158 A 
ATOM     42  C   UNL     1     156.391 168.187 168.506  1.00  0.00     0.051 A 
ATOM     43  C   UNL     1     156.340 166.835 168.851  1.00  0.00     0.157 A 
BRANCH  41  44
ATOM     44  O   UNL     1     157.126 164.993 170.218  1.00  0.00    -0.504 OA
ATOM     45  H   UNL     1     157.247 164.693 171.180  1.00  0.00     0.293 HD
ENDBRANCH  41  44
BRANCH  43  46
ATOM     46  O   UNL     1     155.442 166.000 168.185  1.00  0.00    -0.504 OA
ATOM     47  H   UNL     1     154.519 165.798 168.557  1.00  0.00     0.293 HD
ENDBRANCH  43  46
ENDBRANCH  28  38
BRANCH  34  48
ATOM     48  O   UNL     1     162.043 172.339 173.841  1.00  0.00    -0.507 OA
ATOM     49  H   UNL     1     162.622 173.098 174.185  1.00  0.00     0.293 HD
ENDBRANCH  34  48
BRANCH  37  50
ATOM     50  O   UNL     1     163.921 172.761 169.420  1.00  0.00    -0.508 OA
ATOM     51  H   UNL     1     164.881 172.440 169.466  1.00  0.00     0.293 HD
ENDBRANCH  37  50
ENDBRANCH  26  27
ENDBRANCH   5  26
BRANCH   4  52
ATOM     52  O   UNL     1     155.127 170.717 174.559  1.00  0.00    -0.384 OA
ATOM     53  H   UNL     1     154.555 170.133 173.993  1.00  0.00     0.211 HD
ENDBRANCH   4  52
TORSDOF 16
ENDMDL
MODEL 9
REMARK VINA RESULT:    -6.260      3.774      8.872
REMARK INTER + INTRA:         -13.419
REMARK INTER:                 -10.790
REMARK INTRA:                  -2.628
REMARK UNBOUND:                -3.133
REMARK SMILES C[C@H]1O[C@H](OC[C@@H]2O[C@H](Oc3c(-c4ccc(O)c(O)c4)oc4cc(O)cc(O)c4c3=O)[C@@H](O)[C@H](O)[C@@H]2O)[C@H](O)[C@@H](O)[C@@H]1O
REMARK SMILES IDX 7 1 36 2 34 3 32 4 9 5 8 6 6 7 5 8 4 9 1 10 2 11 42 12 3 13
REMARK SMILES IDX 40 14 38 15 43 16 41 18 39 20 37 22 35 24 10 26 11 27 12 28
REMARK SMILES IDX 30 29 21 30 29 31 31 32 22 33 27 34 23 35 26 36 24 37 13 38
REMARK SMILES IDX 20 39 14 40 18 41 15 42 16 43 19 44 17 46 28 48 25 50 33 52
REMARK H PARENT 43 17 41 19 39 21 37 23 35 25 19 45 17 47 28 49 25 51 33 53
REMARK Flexibility Score: inf
ROOT
ATOM      1  C   UNL     1     158.242 170.442 170.228  1.00  0.00     0.180 C 
ATOM      2  C   UNL     1     157.325 170.197 168.998  1.00  0.00     0.177 C 
ATOM      3  C   UNL     1     156.561 168.863 169.094  1.00  0.00     0.180 C 
ATOM      4  C   UNL     1     155.890 168.765 170.471  1.00  0.00     0.214 C 
ATOM      5  C   UNL     1     156.923 168.992 171.591  1.00  0.00     0.339 C 
ATOM      6  O   UNL     1     157.557 170.259 171.466  1.00  0.00    -0.332 OA
ENDROOT
BRANCH   1   7
ATOM      7  C   UNL     1     159.605 169.707 170.194  1.00  0.00     0.198 C 
BRANCH   7   8
ATOM      8  O   UNL     1     160.663 170.633 170.340  1.00  0.00    -0.347 OA
BRANCH   8   9
ATOM      9  C   UNL     1     161.314 170.445 171.592  1.00  0.00     0.281 C 
ATOM     10  C   UNL     1     164.831 170.669 170.505  1.00  0.00     0.041 C 
ATOM     11  C   UNL     1     163.403 171.152 170.774  1.00  0.00     0.150 C 
ATOM     12  C   UNL     1     163.408 172.430 171.649  1.00  0.00     0.174 C 
ATOM     13  O   UNL     1     162.683 170.105 171.409  1.00  0.00    -0.344 OA
ATOM     14  C   UNL     1     161.954 172.875 171.894  1.00  0.00     0.179 C 
ATOM     15  C   UNL     1     161.155 171.696 172.481  1.00  0.00     0.202 C 
BRANCH  12  16
ATOM     16  O   UNL     1     164.153 173.463 171.054  1.00  0.00    -0.388 OA
ATOM     17  H   UNL     1     164.950 173.633 171.632  1.00  0.00     0.211 HD
ENDBRANCH  12  16
BRANCH  14  18
ATOM     18  O   UNL     1     161.905 174.001 172.737  1.00  0.00    -0.387 OA
ATOM     19  H   UNL     1     162.741 174.011 173.276  1.00  0.00     0.211 HD
ENDBRANCH  14  18
BRANCH  15  20
ATOM     20  O   UNL     1     159.793 172.028 172.578  1.00  0.00    -0.385 OA
ATOM     21  H   UNL     1     159.712 172.680 173.322  1.00  0.00     0.211 HD
ENDBRANCH  15  20
ENDBRANCH   8   9
ENDBRANCH   7   8
ENDBRANCH   1   7
BRANCH   2  22
ATOM     22  O   UNL     1     158.064 170.259 167.806  1.00  0.00    -0.387 OA
ATOM     23  H   UNL     1     157.466 169.944 167.076  1.00  0.00     0.211 HD
ENDBRANCH   2  22
BRANCH   3  24
ATOM     24  O   UNL     1     157.420 167.765 168.908  1.00  0.00    -0.387 OA
ATOM     25  H   UNL     1     157.137 167.059 169.543  1.00  0.00     0.211 HD
ENDBRANCH   3  24
BRANCH   5  26
ATOM     26  O   UNL     1     157.905 167.950 171.664  1.00  0.00    -0.454 OA
BRANCH  26  27
ATOM     27  C   UNL     1     157.735 166.761 172.388  1.00  0.00     0.214 A 
ATOM     28  C   UNL     1     157.980 166.721 173.777  1.00  0.00     0.180 A 
ATOM     29  C   UNL     1     157.435 165.560 171.723  1.00  0.00     0.239 A 
ATOM     30  O   UNL     1     157.889 165.569 174.433  1.00  0.00    -0.452 OA
ATOM     31  C   UNL     1     157.329 164.360 172.457  1.00  0.00     0.111 A 
ATOM     32  O   UNL     1     157.306 165.560 170.470  1.00  0.00    -0.285 OA
ATOM     33  C   UNL     1     157.576 164.417 173.849  1.00  0.00     0.146 A 
ATOM     34  C   UNL     1     157.021 163.113 171.862  1.00  0.00     0.134 A 
ATOM     35  C   UNL     1     157.509 163.254 174.624  1.00  0.00     0.094 A 
ATOM     36  C   UNL     1     156.966 161.956 172.655  1.00  0.00     0.093 A 
ATOM     37  C   UNL     1     157.207 162.022 174.029  1.00  0.00     0.123 A 
BRANCH  28  38
ATOM     38  C   UNL     1     158.410 167.916 174.539  1.00  0.00     0.025 A 
ATOM     39  C   UNL     1     157.528 168.607 175.387  1.00  0.00     0.062 A 
ATOM     40  C   UNL     1     159.748 168.327 174.467  1.00  0.00     0.016 A 
ATOM     41  C   UNL     1     157.967 169.728 176.108  1.00  0.00     0.158 A 
ATOM     42  C   UNL     1     160.192 169.436 175.192  1.00  0.00     0.051 A 
ATOM     43  C   UNL     1     159.305 170.145 176.006  1.00  0.00     0.157 A 
BRANCH  41  44
ATOM     44  O   UNL     1     157.080 170.423 176.929  1.00  0.00    -0.504 OA
ATOM     45  H   UNL     1     156.080 170.261 176.887  1.00  0.00     0.293 HD
ENDBRANCH  41  44
BRANCH  43  46
ATOM     46  O   UNL     1     159.771 171.255 176.709  1.00  0.00    -0.504 OA
ATOM     47  H   UNL     1     159.140 171.917 177.150  1.00  0.00     0.293 HD
ENDBRANCH  43  46
ENDBRANCH  28  38
BRANCH  34  48
ATOM     48  O   UNL     1     156.777 163.010 170.492  1.00  0.00    -0.507 OA
ATOM     49  H   UNL     1     155.955 162.536 170.133  1.00  0.00     0.293 HD
ENDBRANCH  34  48
BRANCH  37  50
ATOM     50  O   UNL     1     157.156 160.858 174.790  1.00  0.00    -0.508 OA
ATOM     51  H   UNL     1     157.686 160.033 174.534  1.00  0.00     0.293 HD
ENDBRANCH  37  50
ENDBRANCH  26  27
ENDBRANCH   5  26
BRANCH   4  52
ATOM     52  O   UNL     1     154.882 169.741 170.585  1.00  0.00    -0.384 OA
ATOM     53  H   UNL     1     155.194 170.402 171.259  1.00  0.00     0.211 HD
ENDBRANCH   4  52
TORSDOF 16
ENDMDL
