MODEL 1
REMARK VINA RESULT:    -3.887      0.000      0.000
REMARK INTER + INTRA:          -4.274
REMARK INTER:                  -4.114
REMARK INTRA:                  -0.160
REMARK UNBOUND:                -0.160
REMARK SMILES C=C(C)[C@H]1CC=C(C)CC1
REMARK SMILES IDX 8 1 7 2 6 3 5 4 4 5 10 6 9 7 2 8 1 9 3 10
REMARK H PARENT
REMARK Flexibility Score: inf
ROOT
ATOM      1  C   UNL     1      10.875   7.899  16.055  1.00  0.00     0.039 C 
ATOM      2  C   UNL     1      11.552   6.869  16.917  1.00  0.00    -0.077 C 
ATOM      3  C   UNL     1      10.946   5.699  17.175  1.00  0.00    -0.027 C 
ATOM      4  C   UNL     1      11.662   4.662  17.996  1.00  0.00     0.035 C 
ATOM      5  C   UNL     1      13.123   4.508  17.508  1.00  0.00     0.018 C 
ATOM      6  C   UNL     1      13.834   5.874  17.227  1.00  0.00     0.013 C 
ATOM      7  C   UNL     1      12.938   7.102  17.473  1.00  0.00     0.031 C 
ENDROOT
BRANCH   5   8
ATOM      8  C   UNL     1      13.923   3.639  18.468  1.00  0.00    -0.077 C 
ATOM      9  C   UNL     1      14.981   2.930  18.040  1.00  0.00     0.008 C 
ATOM     10  C   UNL     1      13.537   3.557  19.922  1.00  0.00     0.039 C 
ENDBRANCH   5   8
TORSDOF 1
ENDMDL
MODEL 2
REMARK VINA RESULT:    -3.715      1.020      4.217
REMARK INTER + INTRA:          -4.092
REMARK INTER:                  -3.929
REMARK INTRA:                  -0.163
REMARK UNBOUND:                -0.160
REMARK SMILES C=C(C)[C@H]1CC=C(C)CC1
REMARK SMILES IDX 8 1 7 2 6 3 5 4 4 5 10 6 9 7 2 8 1 9 3 10
REMARK H PARENT
REMARK Flexibility Score: inf
ROOT
ATOM      1  C   UNL     1      15.625   2.747  18.126  1.00  0.00     0.039 C 
ATOM      2  C   UNL     1      14.389   3.545  17.814  1.00  0.00    -0.077 C 
ATOM      3  C   UNL     1      13.459   3.748  18.761  1.00  0.00    -0.027 C 
ATOM      4  C   UNL     1      12.256   4.593  18.445  1.00  0.00     0.035 C 
ATOM      5  C   UNL     1      12.688   5.888  17.714  1.00  0.00     0.018 C 
ATOM      6  C   UNL     1      13.758   5.646  16.598  1.00  0.00     0.013 C 
ATOM      7  C   UNL     1      14.185   4.174  16.455  1.00  0.00     0.031 C 
ENDROOT
BRANCH   5   8
ATOM      8  C   UNL     1      11.474   6.638  17.184  1.00  0.00    -0.077 C 
ATOM      9  C   UNL     1      10.875   6.263  16.042  1.00  0.00     0.008 C 
ATOM     10  C   UNL     1      10.922   7.821  17.937  1.00  0.00     0.039 C 
ENDBRANCH   5   8
TORSDOF 1
ENDMDL
MODEL 3
REMARK VINA RESULT:    -3.639      1.594      4.318
REMARK INTER + INTRA:          -4.011
REMARK INTER:                  -3.852
REMARK INTRA:                  -0.159
REMARK UNBOUND:                -0.160
REMARK SMILES C=C(C)[C@H]1CC=C(C)CC1
REMARK SMILES IDX 8 1 7 2 6 3 5 4 4 5 10 6 9 7 2 8 1 9 3 10
REMARK H PARENT
REMARK Flexibility Score: inf
ROOT
ATOM      1  C   UNL     1      17.145   4.715  16.728  1.00  0.00     0.039 C 
ATOM      2  C   UNL     1      15.758   5.274  16.889  1.00  0.00    -0.077 C 
ATOM      3  C   UNL     1      15.352   6.304  16.130  1.00  0.00    -0.027 C 
ATOM      4  C   UNL     1      13.944   6.814  16.269  1.00  0.00     0.035 C 
ATOM      5  C   UNL     1      12.946   5.631  16.293  1.00  0.00     0.018 C 
ATOM      6  C   UNL     1      13.412   4.440  17.194  1.00  0.00     0.013 C 
ATOM      7  C   UNL     1      14.778   4.668  17.867  1.00  0.00     0.031 C 
ENDROOT
BRANCH   5   8
ATOM      8  C   UNL     1      11.550   6.112  16.664  1.00  0.00    -0.077 C 
ATOM      9  C   UNL     1      10.890   6.984  15.883  1.00  0.00     0.008 C 
ATOM     10  C   UNL     1      10.883   5.617  17.921  1.00  0.00     0.039 C 
ENDBRANCH   5   8
TORSDOF 1
ENDMDL
MODEL 4
REMARK VINA RESULT:    -3.599      1.202      4.505
REMARK INTER + INTRA:          -3.968
REMARK INTER:                  -3.811
REMARK INTRA:                  -0.157
REMARK UNBOUND:                -0.160
REMARK SMILES C=C(C)[C@H]1CC=C(C)CC1
REMARK SMILES IDX 8 1 7 2 6 3 5 4 4 5 10 6 9 7 2 8 1 9 3 10
REMARK H PARENT
REMARK Flexibility Score: inf
ROOT
ATOM      1  C   UNL     1      16.069   2.287  18.564  1.00  0.00     0.039 C 
ATOM      2  C   UNL     1      15.071   3.380  18.299  1.00  0.00    -0.077 C 
ATOM      3  C   UNL     1      14.795   3.751  17.038  1.00  0.00    -0.027 C 
ATOM      4  C   UNL     1      13.755   4.810  16.791  1.00  0.00     0.035 C 
ATOM      5  C   UNL     1      12.494   4.532  17.646  1.00  0.00     0.018 C 
ATOM      6  C   UNL     1      12.819   4.119  19.120  1.00  0.00     0.013 C 
ATOM      7  C   UNL     1      14.326   4.053  19.428  1.00  0.00     0.031 C 
ENDROOT
BRANCH   5   8
ATOM      8  C   UNL     1      11.532   5.710  17.584  1.00  0.00    -0.077 C 
ATOM      9  C   UNL     1      11.251   6.430  18.684  1.00  0.00     0.008 C 
ATOM     10  C   UNL     1      10.876   6.090  16.282  1.00  0.00     0.039 C 
ENDBRANCH   5   8
TORSDOF 1
ENDMDL
MODEL 5
REMARK VINA RESULT:    -3.589     12.118     14.746
REMARK INTER + INTRA:          -3.958
REMARK INTER:                  -3.799
REMARK INTRA:                  -0.159
REMARK UNBOUND:                -0.160
REMARK SMILES C=C(C)[C@H]1CC=C(C)CC1
REMARK SMILES IDX 8 1 7 2 6 3 5 4 4 5 10 6 9 7 2 8 1 9 3 10
REMARK H PARENT
REMARK Flexibility Score: inf
ROOT
ATOM      1  C   UNL     1      23.520   0.817  17.768  1.00  0.00     0.039 C 
ATOM      2  C   UNL     1      24.855   1.500  17.660  1.00  0.00    -0.077 C 
ATOM      3  C   UNL     1      25.873   1.124  18.451  1.00  0.00    -0.027 C 
ATOM      4  C   UNL     1      27.214   1.785  18.291  1.00  0.00     0.035 C 
ATOM      5  C   UNL     1      27.594   1.871  16.792  1.00  0.00     0.018 C 
ATOM      6  C   UNL     1      26.411   2.328  15.875  1.00  0.00     0.013 C 
ATOM      7  C   UNL     1      25.098   2.587  16.638  1.00  0.00     0.031 C 
ENDROOT
BRANCH   5   8
ATOM      8  C   UNL     1      28.830   2.737  16.599  1.00  0.00    -0.077 C 
ATOM      9  C   UNL     1      30.041   2.311  16.997  1.00  0.00     0.008 C 
ATOM     10  C   UNL     1      28.716   4.095  15.956  1.00  0.00     0.039 C 
ENDBRANCH   5   8
TORSDOF 1
ENDMDL
MODEL 6
REMARK VINA RESULT:    -3.586      1.144      4.348
REMARK INTER + INTRA:          -3.955
REMARK INTER:                  -3.795
REMARK INTRA:                  -0.161
REMARK UNBOUND:                -0.160
REMARK SMILES C=C(C)[C@H]1CC=C(C)CC1
REMARK SMILES IDX 8 1 7 2 6 3 5 4 4 5 10 6 9 7 2 8 1 9 3 10
REMARK H PARENT
REMARK Flexibility Score: inf
ROOT
ATOM      1  C   UNL     1      13.533   3.042  21.200  1.00  0.00     0.039 C 
ATOM      2  C   UNL     1      13.408   3.938  19.999  1.00  0.00    -0.077 C 
ATOM      3  C   UNL     1      13.736   3.483  18.779  1.00  0.00    -0.027 C 
ATOM      4  C   UNL     1      13.554   4.377  17.583  1.00  0.00     0.035 C 
ATOM      5  C   UNL     1      12.168   5.066  17.636  1.00  0.00     0.018 C 
ATOM      6  C   UNL     1      11.797   5.613  19.054  1.00  0.00     0.013 C 
ATOM      7  C   UNL     1      12.872   5.346  20.124  1.00  0.00     0.031 C 
ENDROOT
BRANCH   5   8
ATOM      8  C   UNL     1      12.061   6.143  16.565  1.00  0.00    -0.077 C 
ATOM      9  C   UNL     1      10.877   6.448  16.009  1.00  0.00     0.008 C 
ATOM     10  C   UNL     1      13.289   6.888  16.110  1.00  0.00     0.039 C 
ENDBRANCH   5   8
TORSDOF 1
ENDMDL
MODEL 7
REMARK VINA RESULT:    -3.566      1.388      4.471
REMARK INTER + INTRA:          -3.934
REMARK INTER:                  -3.776
REMARK INTRA:                  -0.157
REMARK UNBOUND:                -0.160
REMARK SMILES C=C(C)[C@H]1CC=C(C)CC1
REMARK SMILES IDX 8 1 7 2 6 3 5 4 4 5 10 6 9 7 2 8 1 9 3 10
REMARK H PARENT
REMARK Flexibility Score: inf
ROOT
ATOM      1  C   UNL     1      13.798   2.254  21.491  1.00  0.00     0.039 C 
ATOM      2  C   UNL     1      13.955   3.170  20.309  1.00  0.00    -0.077 C 
ATOM      3  C   UNL     1      14.868   2.900  19.362  1.00  0.00    -0.027 C 
ATOM      4  C   UNL     1      14.973   3.799  18.161  1.00  0.00     0.035 C 
ATOM      5  C   UNL     1      13.564   4.105  17.595  1.00  0.00     0.018 C 
ATOM      6  C   UNL     1      12.508   4.439  18.701  1.00  0.00     0.013 C 
ATOM      7  C   UNL     1      13.069   4.382  20.134  1.00  0.00     0.031 C 
ENDROOT
BRANCH   5   8
ATOM      8  C   UNL     1      13.636   5.191  16.531  1.00  0.00    -0.077 C 
ATOM      9  C   UNL     1      14.782   5.440  15.875  1.00  0.00     0.008 C 
ATOM     10  C   UNL     1      12.416   6.009  16.195  1.00  0.00     0.039 C 
ENDBRANCH   5   8
TORSDOF 1
ENDMDL
MODEL 8
REMARK VINA RESULT:    -3.543      1.562      4.189
REMARK INTER + INTRA:          -3.910
REMARK INTER:                  -3.746
REMARK INTRA:                  -0.164
REMARK UNBOUND:                -0.160
REMARK SMILES C=C(C)[C@H]1CC=C(C)CC1
REMARK SMILES IDX 8 1 7 2 6 3 5 4 4 5 10 6 9 7 2 8 1 9 3 10
REMARK H PARENT
REMARK Flexibility Score: inf
ROOT
ATOM      1  C   UNL     1      17.111   4.359  16.640  1.00  0.00     0.039 C 
ATOM      2  C   UNL     1      15.636   4.647  16.646  1.00  0.00    -0.077 C 
ATOM      3  C   UNL     1      14.802   3.888  17.377  1.00  0.00    -0.027 C 
ATOM      4  C   UNL     1      13.337   4.225  17.411  1.00  0.00     0.035 C 
ATOM      5  C   UNL     1      13.142   5.746  17.628  1.00  0.00     0.018 C 
ATOM      6  C   UNL     1      14.101   6.627  16.761  1.00  0.00     0.013 C 
ATOM      7  C   UNL     1      15.062   5.813  15.875  1.00  0.00     0.031 C 
ENDROOT
BRANCH   5   8
ATOM      8  C   UNL     1      11.683   6.134  17.435  1.00  0.00    -0.077 C 
ATOM      9  C   UNL     1      10.894   6.401  18.490  1.00  0.00     0.008 C 
ATOM     10  C   UNL     1      11.096   6.225  16.050  1.00  0.00     0.039 C 
ENDBRANCH   5   8
TORSDOF 1
ENDMDL
MODEL 9
REMARK VINA RESULT:    -3.488      1.554      2.388
REMARK INTER + INTRA:          -3.851
REMARK INTER:                  -3.694
REMARK INTRA:                  -0.157
REMARK UNBOUND:                -0.160
REMARK SMILES C=C(C)[C@H]1CC=C(C)CC1
REMARK SMILES IDX 8 1 7 2 6 3 5 4 4 5 10 6 9 7 2 8 1 9 3 10
REMARK H PARENT
REMARK Flexibility Score: inf
ROOT
ATOM      1  C   UNL     1      11.466   6.632  15.875  1.00  0.00     0.039 C 
ATOM      2  C   UNL     1      11.713   5.823  17.118  1.00  0.00    -0.077 C 
ATOM      3  C   UNL     1      12.717   4.933  17.156  1.00  0.00    -0.027 C 
ATOM      4  C   UNL     1      12.981   4.171  18.426  1.00  0.00     0.035 C 
ATOM      5  C   UNL     1      12.957   5.131  19.641  1.00  0.00     0.018 C 
ATOM      6  C   UNL     1      11.775   6.155  19.603  1.00  0.00     0.013 C 
ATOM      7  C   UNL     1      10.875   6.020  18.360  1.00  0.00     0.031 C 
ENDROOT
BRANCH   5   8
ATOM      8  C   UNL     1      12.991   4.348  20.946  1.00  0.00    -0.077 C 
ATOM      9  C   UNL     1      13.493   3.102  20.991  1.00  0.00     0.008 C 
ATOM     10  C   UNL     1      12.457   4.960  22.215  1.00  0.00     0.039 C 
ENDBRANCH   5   8
TORSDOF 1
ENDMDL
