MODEL 1
REMARK VINA RESULT:    -3.690      0.000      0.000
REMARK INTER + INTRA:          -8.799
REMARK INTER:                  -6.711
REMARK INTRA:                  -2.088
REMARK UNBOUND:                -2.088
REMARK SMILES CCCCCC=CCC=CCCCCCCCC(=O)[O-]
REMARK SMILES IDX 11 1 12 2 13 3 14 4 15 5 16 6 17 7 18 8 19 9 20 10 10 11
REMARK SMILES IDX 9 12 8 13 7 14 6 15 5 16 4 17 3 18 2 19 1 20
REMARK H PARENT
REMARK Flexibility Score: inf
ROOT
ATOM      1  C   UNL     1      24.072  63.528  78.990  1.00  0.00     0.027 C 
ENDROOT
BRANCH   1   2
ATOM      2  C   UNL     1      24.695  63.501  80.395  1.00  0.00     0.004 C 
BRANCH   2   3
ATOM      3  C   UNL     1      25.112  62.106  80.895  1.00  0.00     0.000 C 
BRANCH   3   4
ATOM      4  C   UNL     1      26.562  62.064  81.410  1.00  0.00     0.000 C 
BRANCH   4   5
ATOM      5  C   UNL     1      27.591  62.047  80.268  1.00  0.00     0.000 C 
BRANCH   5   6
ATOM      6  C   UNL     1      27.680  60.679  79.569  1.00  0.00     0.006 C 
BRANCH   6   7
ATOM      7  C   UNL     1      28.658  60.697  78.387  1.00  0.00     0.053 C 
BRANCH   7   8
ATOM      8  C   UNL     1      28.245  59.738  77.313  1.00  0.00     0.041 C 
ATOM      9  O   UNL     1      27.199  59.050  77.444  1.00  0.00    -0.550 OA
ATOM     10  O   UNL     1      28.999  59.628  76.151  1.00  0.00    -0.550 OA
ENDBRANCH   7   8
ENDBRANCH   6   7
ENDBRANCH   5   6
ENDBRANCH   4   5
ENDBRANCH   3   4
ENDBRANCH   2   3
ENDBRANCH   1   2
BRANCH   1  11
ATOM     11  C   UNL     1      24.124  62.178  78.312  1.00  0.00    -0.031 C 
ATOM     12  C   UNL     1      24.993  61.826  77.345  1.00  0.00    -0.027 C 
BRANCH  12  13
ATOM     13  C   UNL     1      26.038  62.738  76.754  1.00  0.00     0.054 C 
BRANCH  13  14
ATOM     14  C   UNL     1      25.775  62.996  75.291  1.00  0.00    -0.027 C 
ATOM     15  C   UNL     1      25.387  64.187  74.800  1.00  0.00    -0.031 C 
BRANCH  15  16
ATOM     16  C   UNL     1      25.136  65.415  75.639  1.00  0.00     0.027 C 
BRANCH  16  17
ATOM     17  C   UNL     1      26.328  66.380  75.568  1.00  0.00     0.004 C 
BRANCH  17  18
ATOM     18  C   UNL     1      25.957  67.818  75.977  1.00  0.00     0.000 C 
BRANCH  18  19
ATOM     19  C   UNL     1      24.446  68.088  76.082  1.00  0.00    -0.003 C 
ATOM     20  C   UNL     1      24.004  68.462  77.497  1.00  0.00     0.004 C 
ENDBRANCH  18  19
ENDBRANCH  17  18
ENDBRANCH  16  17
ENDBRANCH  15  16
ENDBRANCH  13  14
ENDBRANCH  12  13
ENDBRANCH   1  11
TORSDOF 14
ENDMDL
MODEL 2
REMARK VINA RESULT:    -3.567      5.369      8.319
REMARK INTER + INTRA:          -8.574
REMARK INTER:                  -6.061
REMARK INTRA:                  -2.513
REMARK UNBOUND:                -2.088
REMARK SMILES CCCCCC=CCC=CCCCCCCCC(=O)[O-]
REMARK SMILES IDX 11 1 12 2 13 3 14 4 15 5 16 6 17 7 18 8 19 9 20 10 10 11
REMARK SMILES IDX 9 12 8 13 7 14 6 15 5 16 4 17 3 18 2 19 1 20
REMARK H PARENT
REMARK Flexibility Score: inf
ROOT
ATOM      1  C   UNL     1      30.833  58.614  81.162  1.00  0.00     0.027 C 
ENDROOT
BRANCH   1   2
ATOM      2  C   UNL     1      31.902  58.130  82.157  1.00  0.00     0.004 C 
BRANCH   2   3
ATOM      3  C   UNL     1      31.433  57.032  83.129  1.00  0.00     0.000 C 
BRANCH   3   4
ATOM      4  C   UNL     1      31.390  57.508  84.592  1.00  0.00     0.000 C 
BRANCH   4   5
ATOM      5  C   UNL     1      29.958  57.557  85.152  1.00  0.00     0.000 C 
BRANCH   5   6
ATOM      6  C   UNL     1      29.723  58.766  86.074  1.00  0.00     0.006 C 
BRANCH   6   7
ATOM      7  C   UNL     1      28.250  59.197  86.097  1.00  0.00     0.053 C 
BRANCH   7   8
ATOM      8  C   UNL     1      27.934  60.023  87.305  1.00  0.00     0.041 C 
ATOM      9  O   UNL     1      27.238  59.542  88.238  1.00  0.00    -0.550 OA
ATOM     10  O   UNL     1      28.435  61.314  87.416  1.00  0.00    -0.550 OA
ENDBRANCH   7   8
ENDBRANCH   6   7
ENDBRANCH   5   6
ENDBRANCH   4   5
ENDBRANCH   3   4
ENDBRANCH   2   3
ENDBRANCH   1   2
BRANCH   1  11
ATOM     11  C   UNL     1      29.494  57.951  81.388  1.00  0.00    -0.031 C 
ATOM     12  C   UNL     1      28.430  58.530  81.978  1.00  0.00    -0.027 C 
BRANCH  12  13
ATOM     13  C   UNL     1      28.414  59.928  82.544  1.00  0.00     0.054 C 
BRANCH  13  14
ATOM     14  C   UNL     1      27.005  60.455  82.658  1.00  0.00    -0.027 C 
ATOM     15  C   UNL     1      26.516  61.450  81.895  1.00  0.00    -0.031 C 
BRANCH  15  16
ATOM     16  C   UNL     1      27.308  62.192  80.849  1.00  0.00     0.027 C 
BRANCH  16  17
ATOM     17  C   UNL     1      26.945  61.704  79.439  1.00  0.00     0.004 C 
BRANCH  17  18
ATOM     18  C   UNL     1      28.181  61.324  78.602  1.00  0.00     0.000 C 
BRANCH  18  19
ATOM     19  C   UNL     1      28.412  59.810  78.445  1.00  0.00    -0.003 C 
ATOM     20  C   UNL     1      27.119  58.999  78.510  1.00  0.00     0.004 C 
ENDBRANCH  18  19
ENDBRANCH  17  18
ENDBRANCH  16  17
ENDBRANCH  15  16
ENDBRANCH  13  14
ENDBRANCH  12  13
ENDBRANCH   1  11
TORSDOF 14
ENDMDL
MODEL 3
REMARK VINA RESULT:    -3.560      5.199      9.397
REMARK INTER + INTRA:          -8.561
REMARK INTER:                  -6.277
REMARK INTRA:                  -2.284
REMARK UNBOUND:                -2.088
REMARK SMILES CCCCCC=CCC=CCCCCCCCC(=O)[O-]
REMARK SMILES IDX 11 1 12 2 13 3 14 4 15 5 16 6 17 7 18 8 19 9 20 10 10 11
REMARK SMILES IDX 9 12 8 13 7 14 6 15 5 16 4 17 3 18 2 19 1 20
REMARK H PARENT
REMARK Flexibility Score: inf
ROOT
ATOM      1  C   UNL     1      27.623  61.732  82.600  1.00  0.00     0.027 C 
ENDROOT
BRANCH   1   2
ATOM      2  C   UNL     1      27.270  61.776  81.104  1.00  0.00     0.004 C 
BRANCH   2   3
ATOM      3  C   UNL     1      26.636  60.488  80.548  1.00  0.00     0.000 C 
BRANCH   3   4
ATOM      4  C   UNL     1      27.473  59.844  79.429  1.00  0.00     0.000 C 
BRANCH   4   5
ATOM      5  C   UNL     1      28.984  60.032  79.643  1.00  0.00     0.000 C 
BRANCH   5   6
ATOM      6  C   UNL     1      29.757  58.702  79.627  1.00  0.00     0.006 C 
BRANCH   6   7
ATOM      7  C   UNL     1      29.812  58.048  81.014  1.00  0.00     0.053 C 
BRANCH   7   8
ATOM      8  C   UNL     1      31.126  58.293  81.689  1.00  0.00     0.041 C 
ATOM      9  O   UNL     1      31.406  57.703  82.766  1.00  0.00    -0.550 OA
ATOM     10  O   UNL     1      32.056  59.148  81.112  1.00  0.00    -0.550 OA
ENDBRANCH   7   8
ENDBRANCH   6   7
ENDBRANCH   5   6
ENDBRANCH   4   5
ENDBRANCH   3   4
ENDBRANCH   2   3
ENDBRANCH   1   2
BRANCH   1  11
ATOM     11  C   UNL     1      27.716  60.319  83.128  1.00  0.00    -0.031 C 
ATOM     12  C   UNL     1      27.210  59.893  84.302  1.00  0.00    -0.027 C 
BRANCH  12  13
ATOM     13  C   UNL     1      26.497  60.768  85.301  1.00  0.00     0.054 C 
BRANCH  13  14
ATOM     14  C   UNL     1      27.456  61.324  86.324  1.00  0.00    -0.027 C 
ATOM     15  C   UNL     1      27.752  60.707  87.483  1.00  0.00    -0.031 C 
BRANCH  15  16
ATOM     16  C   UNL     1      27.149  59.400  87.933  1.00  0.00     0.027 C 
BRANCH  16  17
ATOM     17  C   UNL     1      28.207  58.287  87.951  1.00  0.00     0.004 C 
BRANCH  17  18
ATOM     18  C   UNL     1      28.033  57.279  86.801  1.00  0.00     0.000 C 
BRANCH  18  19
ATOM     19  C   UNL     1      29.168  57.285  85.762  1.00  0.00    -0.003 C 
ATOM     20  C   UNL     1      30.193  58.392  86.003  1.00  0.00     0.004 C 
ENDBRANCH  18  19
ENDBRANCH  17  18
ENDBRANCH  16  17
ENDBRANCH  15  16
ENDBRANCH  13  14
ENDBRANCH  12  13
ENDBRANCH   1  11
TORSDOF 14
ENDMDL
MODEL 4
REMARK VINA RESULT:    -3.548      4.800      9.129
REMARK INTER + INTRA:          -8.540
REMARK INTER:                  -6.182
REMARK INTRA:                  -2.357
REMARK UNBOUND:                -2.088
REMARK SMILES CCCCCC=CCC=CCCCCCCCC(=O)[O-]
REMARK SMILES IDX 11 1 12 2 13 3 14 4 15 5 16 6 17 7 18 8 19 9 20 10 10 11
REMARK SMILES IDX 9 12 8 13 7 14 6 15 5 16 4 17 3 18 2 19 1 20
REMARK H PARENT
REMARK Flexibility Score: inf
ROOT
ATOM      1  C   UNL     1      27.594  58.660  83.502  1.00  0.00     0.027 C 
ENDROOT
BRANCH   1   2
ATOM      2  C   UNL     1      26.444  59.579  83.950  1.00  0.00     0.004 C 
BRANCH   2   3
ATOM      3  C   UNL     1      26.453  60.985  83.321  1.00  0.00     0.000 C 
BRANCH   3   4
ATOM      4  C   UNL     1      25.410  61.144  82.201  1.00  0.00     0.000 C 
BRANCH   4   5
ATOM      5  C   UNL     1      25.841  62.167  81.137  1.00  0.00     0.000 C 
BRANCH   5   6
ATOM      6  C   UNL     1      27.320  62.021  80.738  1.00  0.00     0.006 C 
BRANCH   6   7
ATOM      7  C   UNL     1      27.555  60.814  79.820  1.00  0.00     0.053 C 
BRANCH   7   8
ATOM      8  C   UNL     1      27.827  61.238  78.409  1.00  0.00     0.041 C 
ATOM      9  O   UNL     1      28.898  60.899  77.840  1.00  0.00    -0.550 OA
ATOM     10  O   UNL     1      26.883  61.980  77.711  1.00  0.00    -0.550 OA
ENDBRANCH   7   8
ENDBRANCH   6   7
ENDBRANCH   5   6
ENDBRANCH   4   5
ENDBRANCH   3   4
ENDBRANCH   2   3
ENDBRANCH   1   2
BRANCH   1  11
ATOM     11  C   UNL     1      28.790  59.438  83.002  1.00  0.00    -0.031 C 
ATOM     12  C   UNL     1      30.042  58.953  82.895  1.00  0.00    -0.027 C 
BRANCH  12  13
ATOM     13  C   UNL     1      30.464  57.561  83.290  1.00  0.00     0.054 C 
BRANCH  13  14
ATOM     14  C   UNL     1      31.530  57.594  84.356  1.00  0.00    -0.027 C 
ATOM     15  C   UNL     1      31.274  57.473  85.672  1.00  0.00    -0.031 C 
BRANCH  15  16
ATOM     16  C   UNL     1      29.896  57.318  86.263  1.00  0.00     0.027 C 
BRANCH  16  17
ATOM     17  C   UNL     1      29.327  58.679  86.689  1.00  0.00     0.004 C 
BRANCH  17  18
ATOM     18  C   UNL     1      27.907  58.575  87.276  1.00  0.00     0.000 C 
BRANCH  18  19
ATOM     19  C   UNL     1      27.310  59.909  87.757  1.00  0.00    -0.003 C 
ATOM     20  C   UNL     1      28.086  61.126  87.257  1.00  0.00     0.004 C 
ENDBRANCH  18  19
ENDBRANCH  17  18
ENDBRANCH  16  17
ENDBRANCH  15  16
ENDBRANCH  13  14
ENDBRANCH  12  13
ENDBRANCH   1  11
TORSDOF 14
ENDMDL
MODEL 5
REMARK VINA RESULT:    -3.547      5.013      9.444
REMARK INTER + INTRA:          -8.537
REMARK INTER:                  -6.140
REMARK INTRA:                  -2.398
REMARK UNBOUND:                -2.088
REMARK SMILES CCCCCC=CCC=CCCCCCCCC(=O)[O-]
REMARK SMILES IDX 11 1 12 2 13 3 14 4 15 5 16 6 17 7 18 8 19 9 20 10 10 11
REMARK SMILES IDX 9 12 8 13 7 14 6 15 5 16 4 17 3 18 2 19 1 20
REMARK H PARENT
REMARK Flexibility Score: inf
ROOT
ATOM      1  C   UNL     1      29.381  57.688  80.358  1.00  0.00     0.027 C 
ENDROOT
BRANCH   1   2
ATOM      2  C   UNL     1      28.077  58.335  80.854  1.00  0.00     0.004 C 
BRANCH   2   3
ATOM      3  C   UNL     1      27.587  57.838  82.227  1.00  0.00     0.000 C 
BRANCH   3   4
ATOM      4  C   UNL     1      27.183  58.986  83.169  1.00  0.00     0.000 C 
BRANCH   4   5
ATOM      5  C   UNL     1      28.203  60.136  83.166  1.00  0.00     0.000 C 
BRANCH   5   6
ATOM      6  C   UNL     1      27.540  61.518  83.028  1.00  0.00     0.006 C 
BRANCH   6   7
ATOM      7  C   UNL     1      26.246  61.459  82.207  1.00  0.00     0.053 C 
BRANCH   7   8
ATOM      8  C   UNL     1      26.445  61.988  80.820  1.00  0.00     0.041 C 
ATOM      9  O   UNL     1      27.452  61.642  80.147  1.00  0.00    -0.550 OA
ATOM     10  O   UNL     1      25.501  62.838  80.257  1.00  0.00    -0.550 OA
ENDBRANCH   7   8
ENDBRANCH   6   7
ENDBRANCH   5   6
ENDBRANCH   4   5
ENDBRANCH   3   4
ENDBRANCH   2   3
ENDBRANCH   1   2
BRANCH   1  11
ATOM     11  C   UNL     1      30.603  58.495  80.734  1.00  0.00    -0.031 C 
ATOM     12  C   UNL     1      31.435  58.213  81.756  1.00  0.00    -0.027 C 
BRANCH  12  13
ATOM     13  C   UNL     1      31.262  57.064  82.716  1.00  0.00     0.054 C 
BRANCH  13  14
ATOM     14  C   UNL     1      32.001  57.313  84.007  1.00  0.00    -0.027 C 
ATOM     15  C   UNL     1      31.392  57.571  85.179  1.00  0.00    -0.031 C 
BRANCH  15  16
ATOM     16  C   UNL     1      29.898  57.674  85.360  1.00  0.00     0.027 C 
BRANCH  16  17
ATOM     17  C   UNL     1      29.541  58.819  86.319  1.00  0.00     0.004 C 
BRANCH  17  18
ATOM     18  C   UNL     1      28.260  58.543  87.127  1.00  0.00     0.000 C 
BRANCH  18  19
ATOM     19  C   UNL     1      27.567  59.799  87.684  1.00  0.00    -0.003 C 
ATOM     20  C   UNL     1      28.268  61.096  87.282  1.00  0.00     0.004 C 
ENDBRANCH  18  19
ENDBRANCH  17  18
ENDBRANCH  16  17
ENDBRANCH  15  16
ENDBRANCH  13  14
ENDBRANCH  12  13
ENDBRANCH   1  11
TORSDOF 14
ENDMDL
MODEL 6
REMARK VINA RESULT:    -3.538      3.111      4.754
REMARK INTER + INTRA:          -8.522
REMARK INTER:                  -6.500
REMARK INTRA:                  -2.022
REMARK UNBOUND:                -2.088
REMARK SMILES CCCCCC=CCC=CCCCCCCCC(=O)[O-]
REMARK SMILES IDX 11 1 12 2 13 3 14 4 15 5 16 6 17 7 18 8 19 9 20 10 10 11
REMARK SMILES IDX 9 12 8 13 7 14 6 15 5 16 4 17 3 18 2 19 1 20
REMARK H PARENT
REMARK Flexibility Score: inf
ROOT
ATOM      1  C   UNL     1      27.620  61.557  79.444  1.00  0.00     0.027 C 
ENDROOT
BRANCH   1   2
ATOM      2  C   UNL     1      27.953  60.086  79.747  1.00  0.00     0.004 C 
BRANCH   2   3
ATOM      3  C   UNL     1      26.877  59.074  79.311  1.00  0.00     0.000 C 
BRANCH   3   4
ATOM      4  C   UNL     1      25.891  58.727  80.440  1.00  0.00     0.000 C 
BRANCH   4   5
ATOM      5  C   UNL     1      26.488  58.966  81.836  1.00  0.00     0.000 C 
BRANCH   5   6
ATOM      6  C   UNL     1      25.470  59.566  82.822  1.00  0.00     0.006 C 
BRANCH   6   7
ATOM      7  C   UNL     1      26.060  59.735  84.229  1.00  0.00     0.053 C 
BRANCH   7   8
ATOM      8  C   UNL     1      26.083  61.172  84.651  1.00  0.00     0.041 C 
ATOM      9  O   UNL     1      25.255  61.988  84.169  1.00  0.00    -0.550 OA
ATOM     10  O   UNL     1      27.000  61.602  85.602  1.00  0.00    -0.550 OA
ENDBRANCH   7   8
ENDBRANCH   6   7
ENDBRANCH   5   6
ENDBRANCH   4   5
ENDBRANCH   3   4
ENDBRANCH   2   3
ENDBRANCH   1   2
BRANCH   1  11
ATOM     11  C   UNL     1      27.034  62.273  80.639  1.00  0.00    -0.031 C 
ATOM     12  C   UNL     1      25.736  62.603  80.787  1.00  0.00    -0.027 C 
BRANCH  12  13
ATOM     13  C   UNL     1      24.659  62.343  79.764  1.00  0.00     0.054 C 
BRANCH  13  14
ATOM     14  C   UNL     1      24.208  63.624  79.108  1.00  0.00    -0.027 C 
ATOM     15  C   UNL     1      24.450  63.928  77.819  1.00  0.00    -0.031 C 
BRANCH  15  16
ATOM     16  C   UNL     1      25.224  63.053  76.866  1.00  0.00     0.027 C 
BRANCH  16  17
ATOM     17  C   UNL     1      26.009  63.903  75.857  1.00  0.00     0.004 C 
BRANCH  17  18
ATOM     18  C   UNL     1      25.373  65.285  75.618  1.00  0.00     0.000 C 
BRANCH  18  19
ATOM     19  C   UNL     1      26.372  66.454  75.568  1.00  0.00    -0.003 C 
ATOM     20  C   UNL     1      25.764  67.779  76.026  1.00  0.00     0.004 C 
ENDBRANCH  18  19
ENDBRANCH  17  18
ENDBRANCH  16  17
ENDBRANCH  15  16
ENDBRANCH  13  14
ENDBRANCH  12  13
ENDBRANCH   1  11
TORSDOF 14
ENDMDL
MODEL 7
REMARK VINA RESULT:    -3.524      4.130      5.332
REMARK INTER + INTRA:          -8.496
REMARK INTER:                  -7.423
REMARK INTRA:                  -1.073
REMARK UNBOUND:                -2.088
REMARK SMILES CCCCCC=CCC=CCCCCCCCC(=O)[O-]
REMARK SMILES IDX 11 1 12 2 13 3 14 4 15 5 16 6 17 7 18 8 19 9 20 10 10 11
REMARK SMILES IDX 9 12 8 13 7 14 6 15 5 16 4 17 3 18 2 19 1 20
REMARK H PARENT
REMARK Flexibility Score: inf
ROOT
ATOM      1  C   UNL     1      25.730  61.894  81.352  1.00  0.00     0.027 C 
ENDROOT
BRANCH   1   2
ATOM      2  C   UNL     1      25.713  61.083  82.659  1.00  0.00     0.004 C 
BRANCH   2   3
ATOM      3  C   UNL     1      26.974  61.229  83.531  1.00  0.00     0.000 C 
BRANCH   3   4
ATOM      4  C   UNL     1      26.651  61.381  85.028  1.00  0.00     0.000 C 
BRANCH   4   5
ATOM      5  C   UNL     1      26.545  60.026  85.747  1.00  0.00     0.000 C 
BRANCH   5   6
ATOM      6  C   UNL     1      27.167  60.051  87.154  1.00  0.00     0.006 C 
BRANCH   6   7
ATOM      7  C   UNL     1      28.694  59.909  87.113  1.00  0.00     0.053 C 
BRANCH   7   8
ATOM      8  C   UNL     1      29.115  58.664  86.393  1.00  0.00     0.041 C 
ATOM      9  O   UNL     1      29.850  58.738  85.374  1.00  0.00    -0.550 OA
ATOM     10  O   UNL     1      28.723  57.420  86.869  1.00  0.00    -0.550 OA
ENDBRANCH   7   8
ENDBRANCH   6   7
ENDBRANCH   5   6
ENDBRANCH   4   5
ENDBRANCH   3   4
ENDBRANCH   2   3
ENDBRANCH   1   2
BRANCH   1  11
ATOM     11  C   UNL     1      27.123  62.036  80.781  1.00  0.00    -0.031 C 
ATOM     12  C   UNL     1      27.471  61.771  79.507  1.00  0.00    -0.027 C 
BRANCH  12  13
ATOM     13  C   UNL     1      26.532  61.253  78.447  1.00  0.00     0.054 C 
BRANCH  13  14
ATOM     14  C   UNL     1      26.885  61.803  77.088  1.00  0.00    -0.027 C 
ATOM     15  C   UNL     1      26.147  62.722  76.439  1.00  0.00    -0.031 C 
BRANCH  15  16
ATOM     16  C   UNL     1      24.858  63.305  76.961  1.00  0.00     0.027 C 
BRANCH  16  17
ATOM     17  C   UNL     1      24.789  64.814  76.686  1.00  0.00     0.004 C 
BRANCH  17  18
ATOM     18  C   UNL     1      25.476  65.212  75.367  1.00  0.00     0.000 C 
BRANCH  18  19
ATOM     19  C   UNL     1      26.501  66.353  75.494  1.00  0.00    -0.003 C 
ATOM     20  C   UNL     1      25.871  67.678  75.922  1.00  0.00     0.004 C 
ENDBRANCH  18  19
ENDBRANCH  17  18
ENDBRANCH  16  17
ENDBRANCH  15  16
ENDBRANCH  13  14
ENDBRANCH  12  13
ENDBRANCH   1  11
TORSDOF 14
ENDMDL
MODEL 8
REMARK VINA RESULT:    -3.490      5.581      8.289
REMARK INTER + INTRA:          -8.434
REMARK INTER:                  -6.395
REMARK INTRA:                  -2.039
REMARK UNBOUND:                -2.088
REMARK SMILES CCCCCC=CCC=CCCCCCCCC(=O)[O-]
REMARK SMILES IDX 11 1 12 2 13 3 14 4 15 5 16 6 17 7 18 8 19 9 20 10 10 11
REMARK SMILES IDX 9 12 8 13 7 14 6 15 5 16 4 17 3 18 2 19 1 20
REMARK H PARENT
REMARK Flexibility Score: inf
ROOT
ATOM      1  C   UNL     1      30.282  58.614  82.917  1.00  0.00     0.027 C 
ENDROOT
BRANCH   1   2
ATOM      2  C   UNL     1      31.374  57.605  83.312  1.00  0.00     0.004 C 
BRANCH   2   3
ATOM      3  C   UNL     1      31.133  56.876  84.646  1.00  0.00     0.000 C 
BRANCH   3   4
ATOM      4  C   UNL     1      30.856  57.841  85.813  1.00  0.00     0.000 C 
BRANCH   4   5
ATOM      5  C   UNL     1      29.710  57.358  86.717  1.00  0.00     0.000 C 
BRANCH   5   6
ATOM      6  C   UNL     1      28.360  58.003  86.360  1.00  0.00     0.006 C 
BRANCH   6   7
ATOM      7  C   UNL     1      28.477  59.522  86.173  1.00  0.00     0.053 C 
BRANCH   7   8
ATOM      8  C   UNL     1      27.877  60.269  87.324  1.00  0.00     0.041 C 
ATOM      9  O   UNL     1      27.113  59.681  88.133  1.00  0.00    -0.550 OA
ATOM     10  O   UNL     1      28.188  61.608  87.521  1.00  0.00    -0.550 OA
ENDBRANCH   7   8
ENDBRANCH   6   7
ENDBRANCH   5   6
ENDBRANCH   4   5
ENDBRANCH   3   4
ENDBRANCH   2   3
ENDBRANCH   1   2
BRANCH   1  11
ATOM     11  C   UNL     1      29.149  57.967  82.155  1.00  0.00    -0.031 C 
ATOM     12  C   UNL     1      28.932  58.090  80.831  1.00  0.00    -0.027 C 
BRANCH  12  13
ATOM     13  C   UNL     1      29.769  58.927  79.896  1.00  0.00     0.054 C 
BRANCH  13  14
ATOM     14  C   UNL     1      29.113  59.058  78.544  1.00  0.00    -0.027 C 
ATOM     15  C   UNL     1      28.477  60.168  78.126  1.00  0.00    -0.031 C 
BRANCH  15  16
ATOM     16  C   UNL     1      28.307  61.417  78.954  1.00  0.00     0.027 C 
BRANCH  16  17
ATOM     17  C   UNL     1      27.015  61.355  79.780  1.00  0.00     0.004 C 
BRANCH  17  18
ATOM     18  C   UNL     1      27.123  62.112  81.116  1.00  0.00     0.000 C 
BRANCH  18  19
ATOM     19  C   UNL     1      27.633  61.266  82.296  1.00  0.00    -0.003 C 
ATOM     20  C   UNL     1      26.782  61.422  83.555  1.00  0.00     0.004 C 
ENDBRANCH  18  19
ENDBRANCH  17  18
ENDBRANCH  16  17
ENDBRANCH  15  16
ENDBRANCH  13  14
ENDBRANCH  12  13
ENDBRANCH   1  11
TORSDOF 14
ENDMDL
MODEL 9
REMARK VINA RESULT:    -3.450      4.962      7.557
REMARK INTER + INTRA:          -8.362
REMARK INTER:                  -5.764
REMARK INTRA:                  -2.598
REMARK UNBOUND:                -2.088
REMARK SMILES CCCCCC=CCC=CCCCCCCCC(=O)[O-]
REMARK SMILES IDX 11 1 12 2 13 3 14 4 15 5 16 6 17 7 18 8 19 9 20 10 10 11
REMARK SMILES IDX 9 12 8 13 7 14 6 15 5 16 4 17 3 18 2 19 1 20
REMARK H PARENT
REMARK Flexibility Score: inf
ROOT
ATOM      1  C   UNL     1      27.225  61.353  84.260  1.00  0.00     0.027 C 
ENDROOT
BRANCH   1   2
ATOM      2  C   UNL     1      26.836  61.383  85.748  1.00  0.00     0.004 C 
BRANCH   2   3
ATOM      3  C   UNL     1      27.944  60.932  86.718  1.00  0.00     0.000 C 
BRANCH   3   4
ATOM      4  C   UNL     1      27.530  59.726  87.579  1.00  0.00     0.000 C 
BRANCH   4   5
ATOM      5  C   UNL     1      28.319  58.454  87.226  1.00  0.00     0.000 C 
BRANCH   5   6
ATOM      6  C   UNL     1      29.577  58.748  86.391  1.00  0.00     0.006 C 
BRANCH   6   7
ATOM      7  C   UNL     1      30.287  57.463  85.943  1.00  0.00     0.053 C 
BRANCH   7   8
ATOM      8  C   UNL     1      31.135  57.692  84.731  1.00  0.00     0.041 C 
ATOM      9  O   UNL     1      30.655  58.270  83.720  1.00  0.00    -0.550 OA
ATOM     10  O   UNL     1      32.467  57.297  84.728  1.00  0.00    -0.550 OA
ENDBRANCH   7   8
ENDBRANCH   6   7
ENDBRANCH   5   6
ENDBRANCH   4   5
ENDBRANCH   3   4
ENDBRANCH   2   3
ENDBRANCH   1   2
BRANCH   1  11
ATOM     11  C   UNL     1      27.608  59.968  83.793  1.00  0.00    -0.031 C 
ATOM     12  C   UNL     1      26.745  59.027  83.360  1.00  0.00    -0.027 C 
BRANCH  12  13
ATOM     13  C   UNL     1      25.247  59.192  83.306  1.00  0.00     0.054 C 
BRANCH  13  14
ATOM     14  C   UNL     1      24.746  59.169  81.883  1.00  0.00    -0.027 C 
ATOM     15  C   UNL     1      24.540  60.275  81.146  1.00  0.00    -0.031 C 
BRANCH  15  16
ATOM     16  C   UNL     1      24.751  61.683  81.642  1.00  0.00     0.027 C 
BRANCH  16  17
ATOM     17  C   UNL     1      25.608  62.489  80.654  1.00  0.00     0.004 C 
BRANCH  17  18
ATOM     18  C   UNL     1      27.108  62.157  80.756  1.00  0.00     0.000 C 
BRANCH  18  19
ATOM     19  C   UNL     1      27.667  61.335  79.582  1.00  0.00    -0.003 C 
ATOM     20  C   UNL     1      28.114  59.933  79.993  1.00  0.00     0.004 C 
ENDBRANCH  18  19
ENDBRANCH  17  18
ENDBRANCH  16  17
ENDBRANCH  15  16
ENDBRANCH  13  14
ENDBRANCH  12  13
ENDBRANCH   1  11
TORSDOF 14
ENDMDL
