MODEL 1
REMARK VINA RESULT:    -6.049      0.000      0.000
REMARK INTER + INTRA:         -10.820
REMARK INTER:                  -9.409
REMARK INTRA:                  -1.411
REMARK UNBOUND:                -1.411
REMARK SMILES COc1cc(CNC(=O)CCCCC=CC(C)C)ccc1O
REMARK SMILES IDX 11 1 12 2 13 3 14 4 15 5 16 6 17 7 18 8 10 9 8 10 9 11 7 12
REMARK SMILES IDX 6 14 5 15 4 16 19 17 3 18 20 19 21 20 2 21 1 22 22 23
REMARK H PARENT 7 13 22 24
REMARK Flexibility Score: inf
ROOT
ATOM      1  C   UNL     1     180.890 178.591 184.968  1.00  0.00     0.010 C 
ENDROOT
BRANCH   1   2
ATOM      2  C   UNL     1     179.659 179.470 185.235  1.00  0.00     0.005 C 
BRANCH   2   3
ATOM      3  C   UNL     1     180.034 180.861 185.767  1.00  0.00     0.027 C 
BRANCH   3   4
ATOM      4  C   UNL     1     181.327 180.812 186.533  1.00  0.00    -0.031 C 
ATOM      5  C   UNL     1     181.392 181.184 187.821  1.00  0.00    -0.028 C 
BRANCH   5   6
ATOM      6  C   UNL     1     182.689 181.118 188.593  1.00  0.00     0.005 C 
ATOM      7  C   UNL     1     183.200 179.674 188.659  1.00  0.00     0.012 C 
ATOM      8  C   UNL     1     183.741 182.027 187.952  1.00  0.00     0.012 C 
ENDBRANCH   5   6
ENDBRANCH   3   4
ENDBRANCH   2   3
ENDBRANCH   1   2
BRANCH   1   9
ATOM      9  C   UNL     1     181.040 178.225 183.486  1.00  0.00     0.100 C 
BRANCH   9  10
ATOM     10  C   UNL     1     181.215 179.460 182.656  1.00  0.00     0.220 C 
ATOM     11  O   UNL     1     182.262 180.150 182.785  1.00  0.00    -0.275 OA
ATOM     12  N   UNL     1     180.216 179.829 181.695  1.00  0.00    -0.352 N 
ATOM     13  H   UNL     1     179.383 179.209 181.565  1.00  0.00     0.163 HD
BRANCH  12  14
ATOM     14  C   UNL     1     180.315 181.041 180.887  1.00  0.00     0.151 C 
BRANCH  14  15
ATOM     15  C   UNL     1     179.775 182.224 181.647  1.00  0.00    -0.025 A 
ATOM     16  C   UNL     1     180.389 183.481 181.518  1.00  0.00     0.056 A 
ATOM     17  C   UNL     1     178.647 182.088 182.467  1.00  0.00     0.009 A 
ATOM     18  C   UNL     1     179.880 184.601 182.205  1.00  0.00     0.160 A 
ATOM     19  C   UNL     1     178.140 183.193 183.152  1.00  0.00     0.050 A 
ATOM     20  C   UNL     1     178.747 184.447 183.027  1.00  0.00     0.157 A 
BRANCH  18  21
ATOM     21  O   UNL     1     180.468 185.872 182.094  1.00  0.00    -0.493 OA
ATOM     22  C   UNL     1     180.999 186.413 180.888  1.00  0.00     0.278 C 
ENDBRANCH  18  21
BRANCH  20  23
ATOM     23  O   UNL     1     178.210 185.528 183.724  1.00  0.00    -0.504 OA
ATOM     24  H   UNL     1     177.452 186.088 183.353  1.00  0.00     0.293 HD
ENDBRANCH  20  23
ENDBRANCH  14  15
ENDBRANCH  12  14
ENDBRANCH   9  10
ENDBRANCH   1   9
TORSDOF 10
ENDMDL
MODEL 2
REMARK VINA RESULT:    -5.544      2.566      4.887
REMARK INTER + INTRA:         -10.035
REMARK INTER:                  -9.189
REMARK INTRA:                  -0.846
REMARK UNBOUND:                -1.411
REMARK SMILES COc1cc(CNC(=O)CCCCC=CC(C)C)ccc1O
REMARK SMILES IDX 11 1 12 2 13 3 14 4 15 5 16 6 17 7 18 8 10 9 8 10 9 11 7 12
REMARK SMILES IDX 6 14 5 15 4 16 19 17 3 18 20 19 21 20 2 21 1 22 22 23
REMARK H PARENT 7 13 22 24
REMARK Flexibility Score: inf
ROOT
ATOM      1  C   UNL     1     181.409 179.123 185.621  1.00  0.00     0.010 C 
ENDROOT
BRANCH   1   2
ATOM      2  C   UNL     1     181.823 178.441 184.307  1.00  0.00     0.005 C 
BRANCH   2   3
ATOM      3  C   UNL     1     180.764 177.450 183.800  1.00  0.00     0.027 C 
BRANCH   3   4
ATOM      4  C   UNL     1     181.364 176.472 182.830  1.00  0.00    -0.031 C 
ATOM      5  C   UNL     1     182.064 175.407 183.252  1.00  0.00    -0.028 C 
BRANCH   5   6
ATOM      6  C   UNL     1     182.652 174.416 182.275  1.00  0.00     0.005 C 
ATOM      7  C   UNL     1     183.748 173.583 182.952  1.00  0.00     0.012 C 
ATOM      8  C   UNL     1     181.558 173.502 181.715  1.00  0.00     0.012 C 
ENDBRANCH   5   6
ENDBRANCH   3   4
ENDBRANCH   2   3
ENDBRANCH   1   2
BRANCH   1   9
ATOM      9  C   UNL     1     179.929 179.524 185.632  1.00  0.00     0.100 C 
BRANCH   9  10
ATOM     10  C   UNL     1     179.750 180.883 185.027  1.00  0.00     0.220 C 
ATOM     11  O   UNL     1     180.363 181.867 185.521  1.00  0.00    -0.275 OA
ATOM     12  N   UNL     1     178.916 181.052 183.872  1.00  0.00    -0.352 N 
ATOM     13  H   UNL     1     178.462 180.211 183.447  1.00  0.00     0.163 HD
BRANCH  12  14
ATOM     14  C   UNL     1     178.673 182.358 183.264  1.00  0.00     0.151 C 
BRANCH  14  15
ATOM     15  C   UNL     1     179.611 182.580 182.107  1.00  0.00    -0.025 A 
ATOM     16  C   UNL     1     180.052 183.877 181.799  1.00  0.00     0.056 A 
ATOM     17  C   UNL     1     180.069 181.496 181.345  1.00  0.00     0.009 A 
ATOM     18  C   UNL     1     180.948 184.096 180.734  1.00  0.00     0.160 A 
ATOM     19  C   UNL     1     180.954 181.707 180.287  1.00  0.00     0.050 A 
ATOM     20  C   UNL     1     181.397 182.997 179.977  1.00  0.00     0.157 A 
BRANCH  18  21
ATOM     21  O   UNL     1     181.411 185.380 180.404  1.00  0.00    -0.493 OA
ATOM     22  C   UNL     1     180.886 186.591 180.941  1.00  0.00     0.278 C 
ENDBRANCH  18  21
BRANCH  20  23
ATOM     23  O   UNL     1     182.284 183.168 178.915  1.00  0.00    -0.504 OA
ATOM     24  H   UNL     1     183.070 183.805 178.964  1.00  0.00     0.293 HD
ENDBRANCH  20  23
ENDBRANCH  14  15
ENDBRANCH  12  14
ENDBRANCH   9  10
ENDBRANCH   1   9
TORSDOF 10
ENDMDL
MODEL 3
REMARK VINA RESULT:    -5.486      2.459      4.281
REMARK INTER + INTRA:          -9.944
REMARK INTER:                  -7.733
REMARK INTRA:                  -2.211
REMARK UNBOUND:                -1.411
REMARK SMILES COc1cc(CNC(=O)CCCCC=CC(C)C)ccc1O
REMARK SMILES IDX 11 1 12 2 13 3 14 4 15 5 16 6 17 7 18 8 10 9 8 10 9 11 7 12
REMARK SMILES IDX 6 14 5 15 4 16 19 17 3 18 20 19 21 20 2 21 1 22 22 23
REMARK H PARENT 7 13 22 24
REMARK Flexibility Score: inf
ROOT
ATOM      1  C   UNL     1     183.700 180.716 188.189  1.00  0.00     0.010 C 
ENDROOT
BRANCH   1   2
ATOM      2  C   UNL     1     182.337 181.344 188.520  1.00  0.00     0.005 C 
BRANCH   2   3
ATOM      3  C   UNL     1     181.264 181.007 187.474  1.00  0.00     0.027 C 
BRANCH   3   4
ATOM      4  C   UNL     1     181.685 179.835 186.631  1.00  0.00    -0.031 C 
ATOM      5  C   UNL     1     180.953 179.429 185.581  1.00  0.00    -0.028 C 
BRANCH   5   6
ATOM      6  C   UNL     1     181.387 178.262 184.726  1.00  0.00     0.005 C 
ATOM      7  C   UNL     1     180.404 178.053 183.568  1.00  0.00     0.012 C 
ATOM      8  C   UNL     1     182.803 178.488 184.189  1.00  0.00     0.012 C 
ENDBRANCH   5   6
ENDBRANCH   3   4
ENDBRANCH   2   3
ENDBRANCH   1   2
BRANCH   1   9
ATOM      9  C   UNL     1     184.679 181.727 187.579  1.00  0.00     0.100 C 
BRANCH   9  10
ATOM     10  C   UNL     1     184.576 181.721 186.084  1.00  0.00     0.220 C 
ATOM     11  O   UNL     1     185.248 180.886 185.420  1.00  0.00    -0.275 OA
ATOM     12  N   UNL     1     183.691 182.633 185.421  1.00  0.00    -0.352 N 
ATOM     13  H   UNL     1     183.101 183.277 185.996  1.00  0.00     0.163 HD
BRANCH  12  14
ATOM     14  C   UNL     1     183.579 182.699 183.966  1.00  0.00     0.151 C 
BRANCH  14  15
ATOM     15  C   UNL     1     182.174 182.372 183.532  1.00  0.00    -0.025 A 
ATOM     16  C   UNL     1     181.081 182.912 184.229  1.00  0.00     0.056 A 
ATOM     17  C   UNL     1     181.946 181.549 182.421  1.00  0.00     0.009 A 
ATOM     18  C   UNL     1     179.761 182.633 183.820  1.00  0.00     0.160 A 
ATOM     19  C   UNL     1     180.642 181.266 182.012  1.00  0.00     0.050 A 
ATOM     20  C   UNL     1     179.549 181.803 182.702  1.00  0.00     0.157 A 
BRANCH  18  21
ATOM     21  O   UNL     1     178.647 183.161 184.491  1.00  0.00    -0.493 OA
ATOM     22  C   UNL     1     178.301 184.543 184.520  1.00  0.00     0.278 C 
ENDBRANCH  18  21
BRANCH  20  23
ATOM     23  O   UNL     1     178.261 181.501 182.263  1.00  0.00    -0.504 OA
ATOM     24  H   UNL     1     177.717 182.144 181.700  1.00  0.00     0.293 HD
ENDBRANCH  20  23
ENDBRANCH  14  15
ENDBRANCH  12  14
ENDBRANCH   9  10
ENDBRANCH   1   9
TORSDOF 10
ENDMDL
MODEL 4
REMARK VINA RESULT:    -5.388      1.421      2.195
REMARK INTER + INTRA:          -9.791
REMARK INTER:                  -8.417
REMARK INTRA:                  -1.374
REMARK UNBOUND:                -1.411
REMARK SMILES COc1cc(CNC(=O)CCCCC=CC(C)C)ccc1O
REMARK SMILES IDX 11 1 12 2 13 3 14 4 15 5 16 6 17 7 18 8 10 9 8 10 9 11 7 12
REMARK SMILES IDX 6 14 5 15 4 16 19 17 3 18 20 19 21 20 2 21 1 22 22 23
REMARK H PARENT 7 13 22 24
REMARK Flexibility Score: inf
ROOT
ATOM      1  C   UNL     1     180.887 178.497 185.000  1.00  0.00     0.010 C 
ENDROOT
BRANCH   1   2
ATOM      2  C   UNL     1     179.685 179.382 185.364  1.00  0.00     0.005 C 
BRANCH   2   3
ATOM      3  C   UNL     1     180.108 180.786 185.824  1.00  0.00     0.027 C 
BRANCH   3   4
ATOM      4  C   UNL     1     181.391 180.732 186.604  1.00  0.00    -0.031 C 
ATOM      5  C   UNL     1     181.469 181.206 187.858  1.00  0.00    -0.028 C 
BRANCH   5   6
ATOM      6  C   UNL     1     182.755 181.136 188.647  1.00  0.00     0.005 C 
ATOM      7  C   UNL     1     183.291 179.699 188.671  1.00  0.00     0.012 C 
ATOM      8  C   UNL     1     183.801 182.084 188.052  1.00  0.00     0.012 C 
ENDBRANCH   5   6
ENDBRANCH   3   4
ENDBRANCH   2   3
ENDBRANCH   1   2
BRANCH   1   9
ATOM      9  C   UNL     1     180.781 177.918 183.584  1.00  0.00     0.100 C 
BRANCH   9  10
ATOM     10  C   UNL     1     181.381 178.861 182.586  1.00  0.00     0.220 C 
ATOM     11  O   UNL     1     181.051 178.771 181.372  1.00  0.00    -0.275 OA
ATOM     12  N   UNL     1     182.292 179.881 183.017  1.00  0.00    -0.352 N 
ATOM     13  H   UNL     1     182.507 179.971 184.037  1.00  0.00     0.163 HD
BRANCH  12  14
ATOM     14  C   UNL     1     182.937 180.802 182.085  1.00  0.00     0.151 C 
BRANCH  14  15
ATOM     15  C   UNL     1     182.082 182.025 181.881  1.00  0.00    -0.025 A 
ATOM     16  C   UNL     1     181.395 182.591 182.967  1.00  0.00     0.056 A 
ATOM     17  C   UNL     1     181.984 182.622 180.616  1.00  0.00     0.009 A 
ATOM     18  C   UNL     1     180.610 183.749 182.796  1.00  0.00     0.160 A 
ATOM     19  C   UNL     1     181.207 183.767 180.439  1.00  0.00     0.050 A 
ATOM     20  C   UNL     1     180.521 184.335 181.518  1.00  0.00     0.157 A 
BRANCH  18  21
ATOM     21  O   UNL     1     179.915 184.341 183.862  1.00  0.00    -0.493 OA
ATOM     22  C   UNL     1     178.604 183.969 184.277  1.00  0.00     0.278 C 
ENDBRANCH  18  21
BRANCH  20  23
ATOM     23  O   UNL     1     179.757 185.481 181.303  1.00  0.00    -0.504 OA
ATOM     24  H   UNL     1     179.302 185.977 182.060  1.00  0.00     0.293 HD
ENDBRANCH  20  23
ENDBRANCH  14  15
ENDBRANCH  12  14
ENDBRANCH   9  10
ENDBRANCH   1   9
TORSDOF 10
ENDMDL
MODEL 5
REMARK VINA RESULT:    -5.342      2.128      4.397
REMARK INTER + INTRA:          -9.721
REMARK INTER:                  -8.459
REMARK INTRA:                  -1.261
REMARK UNBOUND:                -1.411
REMARK SMILES COc1cc(CNC(=O)CCCCC=CC(C)C)ccc1O
REMARK SMILES IDX 11 1 12 2 13 3 14 4 15 5 16 6 17 7 18 8 10 9 8 10 9 11 7 12
REMARK SMILES IDX 6 14 5 15 4 16 19 17 3 18 20 19 21 20 2 21 1 22 22 23
REMARK H PARENT 7 13 22 24
REMARK Flexibility Score: inf
ROOT
ATOM      1  C   UNL     1     180.020 180.886 186.135  1.00  0.00     0.010 C 
ENDROOT
BRANCH   1   2
ATOM      2  C   UNL     1     179.381 179.725 185.357  1.00  0.00     0.005 C 
BRANCH   2   3
ATOM      3  C   UNL     1     179.432 179.938 183.837  1.00  0.00     0.027 C 
BRANCH   3   4
ATOM      4  C   UNL     1     180.489 179.074 183.209  1.00  0.00    -0.031 C 
ATOM      5  C   UNL     1     180.949 177.972 183.823  1.00  0.00    -0.028 C 
BRANCH   5   6
ATOM      6  C   UNL     1     182.000 177.096 183.183  1.00  0.00     0.005 C 
ATOM      7  C   UNL     1     181.647 175.615 183.368  1.00  0.00     0.012 C 
ATOM      8  C   UNL     1     182.141 177.429 181.694  1.00  0.00     0.012 C 
ENDBRANCH   5   6
ENDBRANCH   3   4
ENDBRANCH   2   3
ENDBRANCH   1   2
BRANCH   1   9
ATOM      9  C   UNL     1     181.480 180.606 186.512  1.00  0.00     0.100 C 
BRANCH   9  10
ATOM     10  C   UNL     1     182.406 181.425 185.665  1.00  0.00     0.220 C 
ATOM     11  O   UNL     1     183.354 180.859 185.056  1.00  0.00    -0.275 OA
ATOM     12  N   UNL     1     182.190 182.836 185.520  1.00  0.00    -0.352 N 
ATOM     13  H   UNL     1     181.363 183.273 185.989  1.00  0.00     0.163 HD
BRANCH  12  14
ATOM     14  C   UNL     1     183.082 183.690 184.740  1.00  0.00     0.151 C 
BRANCH  14  15
ATOM     15  C   UNL     1     182.307 184.429 183.681  1.00  0.00    -0.025 A 
ATOM     16  C   UNL     1     181.004 184.021 183.351  1.00  0.00     0.056 A 
ATOM     17  C   UNL     1     182.867 185.539 183.035  1.00  0.00     0.009 A 
ATOM     18  C   UNL     1     180.259 184.718 182.379  1.00  0.00     0.160 A 
ATOM     19  C   UNL     1     182.136 186.232 182.069  1.00  0.00     0.050 A 
ATOM     20  C   UNL     1     180.837 185.831 181.738  1.00  0.00     0.157 A 
BRANCH  18  21
ATOM     21  O   UNL     1     178.953 184.339 182.030  1.00  0.00    -0.493 OA
ATOM     22  C   UNL     1     178.248 183.244 182.608  1.00  0.00     0.278 C 
ENDBRANCH  18  21
BRANCH  20  23
ATOM     23  O   UNL     1     180.136 186.549 180.771  1.00  0.00    -0.504 OA
ATOM     24  H   UNL     1     180.409 187.483 180.487  1.00  0.00     0.293 HD
ENDBRANCH  20  23
ENDBRANCH  14  15
ENDBRANCH  12  14
ENDBRANCH   9  10
ENDBRANCH   1   9
TORSDOF 10
ENDMDL
MODEL 6
REMARK VINA RESULT:    -5.284      7.128     10.302
REMARK INTER + INTRA:          -9.629
REMARK INTER:                  -8.837
REMARK INTRA:                  -0.792
REMARK UNBOUND:                -1.411
REMARK SMILES COc1cc(CNC(=O)CCCCC=CC(C)C)ccc1O
REMARK SMILES IDX 11 1 12 2 13 3 14 4 15 5 16 6 17 7 18 8 10 9 8 10 9 11 7 12
REMARK SMILES IDX 6 14 5 15 4 16 19 17 3 18 20 19 21 20 2 21 1 22 22 23
REMARK H PARENT 7 13 22 24
REMARK Flexibility Score: inf
ROOT
ATOM      1  C   UNL     1     181.480 175.443 181.202  1.00  0.00     0.010 C 
ENDROOT
BRANCH   1   2
ATOM      2  C   UNL     1     181.921 176.755 181.869  1.00  0.00     0.005 C 
BRANCH   2   3
ATOM      3  C   UNL     1     181.959 176.652 183.401  1.00  0.00     0.027 C 
BRANCH   3   4
ATOM      4  C   UNL     1     180.866 177.477 184.022  1.00  0.00    -0.031 C 
ATOM      5  C   UNL     1     180.469 178.638 183.476  1.00  0.00    -0.028 C 
BRANCH   5   6
ATOM      6  C   UNL     1     179.360 179.457 184.092  1.00  0.00     0.005 C 
ATOM      7  C   UNL     1     179.726 179.863 185.525  1.00  0.00     0.012 C 
ATOM      8  C   UNL     1     179.076 180.700 183.243  1.00  0.00     0.012 C 
ENDBRANCH   5   6
ENDBRANCH   3   4
ENDBRANCH   2   3
ENDBRANCH   1   2
BRANCH   1   9
ATOM      9  C   UNL     1     181.395 174.279 182.197  1.00  0.00     0.100 C 
BRANCH   9  10
ATOM     10  C   UNL     1     181.980 173.035 181.601  1.00  0.00     0.220 C 
ATOM     11  O   UNL     1     183.217 172.816 181.712  1.00  0.00    -0.275 OA
ATOM     12  N   UNL     1     181.131 172.084 180.943  1.00  0.00    -0.352 N 
ATOM     13  H   UNL     1     180.100 172.260 180.913  1.00  0.00     0.163 HD
BRANCH  12  14
ATOM     14  C   UNL     1     181.650 170.875 180.309  1.00  0.00     0.151 C 
BRANCH  14  15
ATOM     15  C   UNL     1     182.023 171.152 178.877  1.00  0.00    -0.025 A 
ATOM     16  C   UNL     1     181.024 171.457 177.938  1.00  0.00     0.056 A 
ATOM     17  C   UNL     1     183.365 171.131 178.474  1.00  0.00     0.009 A 
ATOM     18  C   UNL     1     181.360 171.742 176.599  1.00  0.00     0.160 A 
ATOM     19  C   UNL     1     183.705 171.409 177.149  1.00  0.00     0.050 A 
ATOM     20  C   UNL     1     182.714 171.715 176.211  1.00  0.00     0.157 A 
BRANCH  18  21
ATOM     21  O   UNL     1     180.386 172.055 175.638  1.00  0.00    -0.493 OA
ATOM     22  C   UNL     1     178.988 172.133 175.901  1.00  0.00     0.278 C 
ENDBRANCH  18  21
BRANCH  20  23
ATOM     23  O   UNL     1     183.091 171.990 174.897  1.00  0.00    -0.504 OA
ATOM     24  H   UNL     1     182.548 172.596 174.294  1.00  0.00     0.293 HD
ENDBRANCH  20  23
ENDBRANCH  14  15
ENDBRANCH  12  14
ENDBRANCH   9  10
ENDBRANCH   1   9
TORSDOF 10
ENDMDL
MODEL 7
REMARK VINA RESULT:    -5.279      2.670      5.820
REMARK INTER + INTRA:          -9.621
REMARK INTER:                  -8.068
REMARK INTRA:                  -1.553
REMARK UNBOUND:                -1.411
REMARK SMILES COc1cc(CNC(=O)CCCCC=CC(C)C)ccc1O
REMARK SMILES IDX 11 1 12 2 13 3 14 4 15 5 16 6 17 7 18 8 10 9 8 10 9 11 7 12
REMARK SMILES IDX 6 14 5 15 4 16 19 17 3 18 20 19 21 20 2 21 1 22 22 23
REMARK H PARENT 7 13 22 24
REMARK Flexibility Score: inf
ROOT
ATOM      1  C   UNL     1     179.638 181.094 182.247  1.00  0.00     0.010 C 
ENDROOT
BRANCH   1   2
ATOM      2  C   UNL     1     178.991 181.062 183.641  1.00  0.00     0.005 C 
BRANCH   2   3
ATOM      3  C   UNL     1     179.052 179.668 184.284  1.00  0.00     0.027 C 
BRANCH   3   4
ATOM      4  C   UNL     1     180.130 178.832 183.653  1.00  0.00    -0.031 C 
ATOM      5  C   UNL     1     181.083 178.243 184.393  1.00  0.00    -0.028 C 
BRANCH   5   6
ATOM      6  C   UNL     1     182.155 177.389 183.759  1.00  0.00     0.005 C 
ATOM      7  C   UNL     1     181.536 176.140 183.118  1.00  0.00     0.012 C 
ATOM      8  C   UNL     1     182.932 178.194 182.713  1.00  0.00     0.012 C 
ENDBRANCH   5   6
ENDBRANCH   3   4
ENDBRANCH   2   3
ENDBRANCH   1   2
BRANCH   1   9
ATOM      9  C   UNL     1     179.984 182.518 181.794  1.00  0.00     0.100 C 
BRANCH   9  10
ATOM     10  C   UNL     1     180.991 183.132 182.718  1.00  0.00     0.220 C 
ATOM     11  O   UNL     1     180.887 184.350 183.027  1.00  0.00    -0.275 OA
ATOM     12  N   UNL     1     182.041 182.329 183.274  1.00  0.00    -0.352 N 
ATOM     13  H   UNL     1     182.074 181.308 183.047  1.00  0.00     0.163 HD
BRANCH  12  14
ATOM     14  C   UNL     1     183.073 182.882 184.148  1.00  0.00     0.151 C 
BRANCH  14  15
ATOM     15  C   UNL     1     182.934 182.325 185.540  1.00  0.00    -0.025 A 
ATOM     16  C   UNL     1     183.936 182.563 186.495  1.00  0.00     0.056 A 
ATOM     17  C   UNL     1     181.797 181.589 185.901  1.00  0.00     0.009 A 
ATOM     18  C   UNL     1     183.808 182.069 187.808  1.00  0.00     0.160 A 
ATOM     19  C   UNL     1     181.665 181.093 187.200  1.00  0.00     0.050 A 
ATOM     20  C   UNL     1     182.660 181.329 188.154  1.00  0.00     0.157 A 
BRANCH  18  21
ATOM     21  O   UNL     1     184.790 182.293 188.787  1.00  0.00    -0.493 OA
ATOM     22  C   UNL     1     184.990 183.533 189.459  1.00  0.00     0.278 C 
ENDBRANCH  18  21
BRANCH  20  23
ATOM     23  O   UNL     1     182.493 180.821 189.442  1.00  0.00    -0.504 OA
ATOM     24  H   UNL     1     181.728 181.109 190.041  1.00  0.00     0.293 HD
ENDBRANCH  20  23
ENDBRANCH  14  15
ENDBRANCH  12  14
ENDBRANCH   9  10
ENDBRANCH   1   9
TORSDOF 10
ENDMDL
MODEL 8
REMARK VINA RESULT:    -5.276      2.216      6.279
REMARK INTER + INTRA:          -9.617
REMARK INTER:                  -7.951
REMARK INTRA:                  -1.666
REMARK UNBOUND:                -1.411
REMARK SMILES COc1cc(CNC(=O)CCCCC=CC(C)C)ccc1O
REMARK SMILES IDX 11 1 12 2 13 3 14 4 15 5 16 6 17 7 18 8 10 9 8 10 9 11 7 12
REMARK SMILES IDX 6 14 5 15 4 16 19 17 3 18 20 19 21 20 2 21 1 22 22 23
REMARK H PARENT 7 13 22 24
REMARK Flexibility Score: inf
ROOT
ATOM      1  C   UNL     1     179.876 180.997 181.789  1.00  0.00     0.010 C 
ENDROOT
BRANCH   1   2
ATOM      2  C   UNL     1     181.393 181.210 181.669  1.00  0.00     0.005 C 
BRANCH   2   3
ATOM      3  C   UNL     1     182.137 179.925 181.277  1.00  0.00     0.027 C 
BRANCH   3   4
ATOM      4  C   UNL     1     181.715 178.773 182.146  1.00  0.00    -0.031 C 
ATOM      5  C   UNL     1     182.442 177.646 182.217  1.00  0.00    -0.028 C 
BRANCH   5   6
ATOM      6  C   UNL     1     182.025 176.497 183.104  1.00  0.00     0.005 C 
ATOM      7  C   UNL     1     180.958 176.954 184.106  1.00  0.00     0.012 C 
ATOM      8  C   UNL     1     181.499 175.332 182.260  1.00  0.00     0.012 C 
ENDBRANCH   5   6
ENDBRANCH   3   4
ENDBRANCH   2   3
ENDBRANCH   1   2
BRANCH   1   9
ATOM      9  C   UNL     1     179.139 182.264 182.242  1.00  0.00     0.100 C 
BRANCH   9  10
ATOM     10  C   UNL     1     179.277 182.450 183.723  1.00  0.00     0.220 C 
ATOM     11  O   UNL     1     179.203 183.609 184.212  1.00  0.00    -0.275 OA
ATOM     12  N   UNL     1     179.454 181.311 184.577  1.00  0.00    -0.352 N 
ATOM     13  H   UNL     1     179.456 180.355 184.154  1.00  0.00     0.163 HD
BRANCH  12  14
ATOM     14  C   UNL     1     179.633 181.435 186.022  1.00  0.00     0.151 C 
BRANCH  14  15
ATOM     15  C   UNL     1     180.993 180.929 186.427  1.00  0.00    -0.025 A 
ATOM     16  C   UNL     1     181.817 180.296 185.483  1.00  0.00     0.056 A 
ATOM     17  C   UNL     1     181.455 181.105 187.738  1.00  0.00     0.009 A 
ATOM     18  C   UNL     1     183.100 179.839 185.842  1.00  0.00     0.160 A 
ATOM     19  C   UNL     1     182.724 180.652 188.102  1.00  0.00     0.050 A 
ATOM     20  C   UNL     1     183.549 180.022 187.164  1.00  0.00     0.157 A 
BRANCH  18  21
ATOM     21  O   UNL     1     183.950 179.207 184.920  1.00  0.00    -0.493 OA
ATOM     22  C   UNL     1     184.809 179.891 184.012  1.00  0.00     0.278 C 
ENDBRANCH  18  21
BRANCH  20  23
ATOM     23  O   UNL     1     184.812 179.586 187.563  1.00  0.00    -0.504 OA
ATOM     24  H   UNL     1     185.628 180.185 187.523  1.00  0.00     0.293 HD
ENDBRANCH  20  23
ENDBRANCH  14  15
ENDBRANCH  12  14
ENDBRANCH   9  10
ENDBRANCH   1   9
TORSDOF 10
ENDMDL
MODEL 9
REMARK VINA RESULT:    -5.255      2.167      4.196
REMARK INTER + INTRA:          -9.585
REMARK INTER:                  -7.543
REMARK INTRA:                  -2.042
REMARK UNBOUND:                -1.411
REMARK SMILES COc1cc(CNC(=O)CCCCC=CC(C)C)ccc1O
REMARK SMILES IDX 11 1 12 2 13 3 14 4 15 5 16 6 17 7 18 8 10 9 8 10 9 11 7 12
REMARK SMILES IDX 6 14 5 15 4 16 19 17 3 18 20 19 21 20 2 21 1 22 22 23
REMARK H PARENT 7 13 22 24
REMARK Flexibility Score: inf
ROOT
ATOM      1  C   UNL     1     182.710 181.722 186.762  1.00  0.00     0.010 C 
ENDROOT
BRANCH   1   2
ATOM      2  C   UNL     1     183.653 180.809 185.963  1.00  0.00     0.005 C 
BRANCH   2   3
ATOM      3  C   UNL     1     183.740 181.204 184.482  1.00  0.00     0.027 C 
BRANCH   3   4
ATOM      4  C   UNL     1     182.715 180.465 183.668  1.00  0.00    -0.031 C 
ATOM      5  C   UNL     1     182.384 179.194 183.947  1.00  0.00    -0.028 C 
BRANCH   5   6
ATOM      6  C   UNL     1     181.342 178.457 183.138  1.00  0.00     0.005 C 
ATOM      7  C   UNL     1     181.919 178.030 181.783  1.00  0.00     0.012 C 
ATOM      8  C   UNL     1     180.830 177.236 183.908  1.00  0.00     0.012 C 
ENDBRANCH   5   6
ENDBRANCH   3   4
ENDBRANCH   2   3
ENDBRANCH   1   2
BRANCH   1   9
ATOM      9  C   UNL     1     181.446 180.993 187.233  1.00  0.00     0.100 C 
BRANCH   9  10
ATOM     10  C   UNL     1     180.316 181.231 186.277  1.00  0.00     0.220 C 
ATOM     11  O   UNL     1     179.543 180.280 185.982  1.00  0.00    -0.275 OA
ATOM     12  N   UNL     1     180.097 182.540 185.734  1.00  0.00    -0.352 N 
ATOM     13  H   UNL     1     180.717 183.326 186.037  1.00  0.00     0.163 HD
BRANCH  12  14
ATOM     14  C   UNL     1     179.037 182.822 184.769  1.00  0.00     0.151 C 
BRANCH  14  15
ATOM     15  C   UNL     1     179.573 182.746 183.364  1.00  0.00    -0.025 A 
ATOM     16  C   UNL     1     180.233 183.851 182.803  1.00  0.00     0.056 A 
ATOM     17  C   UNL     1     179.441 181.569 182.615  1.00  0.00     0.009 A 
ATOM     18  C   UNL     1     180.761 183.786 181.498  1.00  0.00     0.160 A 
ATOM     19  C   UNL     1     179.958 181.498 181.320  1.00  0.00     0.050 A 
ATOM     20  C   UNL     1     180.617 182.597 180.758  1.00  0.00     0.157 A 
BRANCH  18  21
ATOM     21  O   UNL     1     181.430 184.872 180.911  1.00  0.00    -0.493 OA
ATOM     22  C   UNL     1     181.007 186.229 181.007  1.00  0.00     0.278 C 
ENDBRANCH  18  21
BRANCH  20  23
ATOM     23  O   UNL     1     181.124 182.488 179.464  1.00  0.00    -0.504 OA
ATOM     24  H   UNL     1     181.740 183.186 179.064  1.00  0.00     0.293 HD
ENDBRANCH  20  23
ENDBRANCH  14  15
ENDBRANCH  12  14
ENDBRANCH   9  10
ENDBRANCH   1   9
TORSDOF 10
ENDMDL
