MODEL 1
REMARK VINA RESULT:    -4.292      0.000      0.000
REMARK INTER + INTRA:          -6.446
REMARK INTER:                  -5.798
REMARK INTRA:                  -0.648
REMARK UNBOUND:                -0.648
REMARK SMILES CC(=O)CCC=C(C)CCC=C(C)C
REMARK SMILES IDX 7 1 6 2 8 3 9 4 10 5 11 6 13 7 12 8 14 9 5 10 4 11 2 12 3 13
REMARK SMILES IDX 1 14
REMARK H PARENT
REMARK Flexibility Score: inf
ROOT
ATOM      1  C   UNL     1     157.173 161.519 199.388  1.00  0.00    -0.077 C 
ATOM      2  C   UNL     1     158.124 162.409 199.754  1.00  0.00    -0.028 C 
ATOM      3  C   UNL     1     156.528 161.557 198.022  1.00  0.00     0.039 C 
ENDROOT
BRANCH   1   4
ATOM      4  C   UNL     1     156.740 160.460 200.379  1.00  0.00     0.034 C 
BRANCH   4   5
ATOM      5  C   UNL     1     155.285 160.044 200.132  1.00  0.00     0.032 C 
BRANCH   5   6
ATOM      6  C   UNL     1     154.377 160.623 201.188  1.00  0.00    -0.028 C 
ATOM      7  C   UNL     1     152.351 161.676 202.098  1.00  0.00     0.039 C 
ATOM      8  C   UNL     1     153.132 161.091 200.949  1.00  0.00    -0.080 C 
ATOM      9  C   UNL     1     152.501 161.027 199.578  1.00  0.00     0.039 C 
ENDBRANCH   5   6
ENDBRANCH   4   5
ENDBRANCH   1   4
BRANCH   2  10
ATOM     10  C   UNL     1     158.676 163.486 198.855  1.00  0.00     0.035 C 
BRANCH  10  11
ATOM     11  C   UNL     1     159.164 164.682 199.678  1.00  0.00     0.079 C 
BRANCH  11  12
ATOM     12  C   UNL     1     158.670 165.974 199.082  1.00  0.00     0.130 C 
ATOM     13  O   UNL     1     159.246 167.019 199.348  1.00  0.00    -0.300 OA
ATOM     14  C   UNL     1     157.489 166.006 198.157  1.00  0.00     0.087 C 
ENDBRANCH  11  12
ENDBRANCH  10  11
ENDBRANCH   2  10
TORSDOF 6
ENDMDL
MODEL 2
REMARK VINA RESULT:    -4.181      2.482      4.472
REMARK INTER + INTRA:          -6.295
REMARK INTER:                  -5.382
REMARK INTRA:                  -0.914
REMARK UNBOUND:                -0.648
REMARK SMILES CC(=O)CCC=C(C)CCC=C(C)C
REMARK SMILES IDX 7 1 6 2 8 3 9 4 10 5 11 6 13 7 12 8 14 9 5 10 4 11 2 12 3 13
REMARK SMILES IDX 1 14
REMARK H PARENT
REMARK Flexibility Score: inf
ROOT
ATOM      1  C   UNL     1     152.933 161.073 200.744  1.00  0.00    -0.077 C 
ATOM      2  C   UNL     1     154.239 160.772 200.922  1.00  0.00    -0.028 C 
ATOM      3  C   UNL     1     152.309 161.133 199.369  1.00  0.00     0.039 C 
ENDROOT
BRANCH   1   4
ATOM      4  C   UNL     1     152.076 161.365 201.957  1.00  0.00     0.034 C 
BRANCH   4   5
ATOM      5  C   UNL     1     151.033 160.261 202.166  1.00  0.00     0.032 C 
BRANCH   5   6
ATOM      6  C   UNL     1     151.563 159.195 203.093  1.00  0.00    -0.028 C 
ATOM      7  C   UNL     1     152.486 157.008 203.730  1.00  0.00     0.039 C 
ATOM      8  C   UNL     1     152.020 157.990 202.686  1.00  0.00    -0.080 C 
ATOM      9  C   UNL     1     152.095 157.613 201.225  1.00  0.00     0.039 C 
ENDBRANCH   5   6
ENDBRANCH   4   5
ENDBRANCH   1   4
BRANCH   2  10
ATOM     10  C   UNL     1     155.195 160.421 199.810  1.00  0.00     0.035 C 
BRANCH  10  11
ATOM     11  C   UNL     1     156.647 160.594 200.267  1.00  0.00     0.079 C 
BRANCH  11  12
ATOM     12  C   UNL     1     157.340 161.649 199.446  1.00  0.00     0.130 C 
ATOM     13  O   UNL     1     158.207 162.339 199.961  1.00  0.00    -0.300 OA
ATOM     14  C   UNL     1     156.997 161.865 198.002  1.00  0.00     0.087 C 
ENDBRANCH  11  12
ENDBRANCH  10  11
ENDBRANCH   2  10
TORSDOF 6
ENDMDL
MODEL 3
REMARK VINA RESULT:    -4.168      4.159      5.853
REMARK INTER + INTRA:          -6.278
REMARK INTER:                  -4.931
REMARK INTRA:                  -1.347
REMARK UNBOUND:                -0.648
REMARK SMILES CC(=O)CCC=C(C)CCC=C(C)C
REMARK SMILES IDX 7 1 6 2 8 3 9 4 10 5 11 6 13 7 12 8 14 9 5 10 4 11 2 12 3 13
REMARK SMILES IDX 1 14
REMARK H PARENT
REMARK Flexibility Score: inf
ROOT
ATOM      1  C   UNL     1     152.849 161.078 200.878  1.00  0.00    -0.077 C 
ATOM      2  C   UNL     1     154.146 160.794 201.137  1.00  0.00    -0.028 C 
ATOM      3  C   UNL     1     152.314 161.145 199.466  1.00  0.00     0.039 C 
ENDROOT
BRANCH   1   4
ATOM      4  C   UNL     1     151.911 161.344 202.036  1.00  0.00     0.034 C 
BRANCH   4   5
ATOM      5  C   UNL     1     150.939 160.175 202.230  1.00  0.00     0.032 C 
BRANCH   5   6
ATOM      6  C   UNL     1     151.523 159.144 203.164  1.00  0.00    -0.028 C 
ATOM      7  C   UNL     1     152.548 157.008 203.817  1.00  0.00     0.039 C 
ATOM      8  C   UNL     1     152.031 157.956 202.766  1.00  0.00    -0.080 C 
ATOM      9  C   UNL     1     152.111 157.566 201.309  1.00  0.00     0.039 C 
ENDBRANCH   5   6
ENDBRANCH   4   5
ENDBRANCH   1   4
BRANCH   2  10
ATOM     10  C   UNL     1     155.176 160.469 200.085  1.00  0.00     0.035 C 
BRANCH  10  11
ATOM     11  C   UNL     1     155.382 158.955 199.977  1.00  0.00     0.079 C 
BRANCH  11  12
ATOM     12  C   UNL     1     156.303 158.465 201.062  1.00  0.00     0.130 C 
ATOM     13  O   UNL     1     157.477 158.802 201.053  1.00  0.00    -0.300 OA
ATOM     14  C   UNL     1     155.807 157.576 202.165  1.00  0.00     0.087 C 
ENDBRANCH  11  12
ENDBRANCH  10  11
ENDBRANCH   2  10
TORSDOF 6
ENDMDL
MODEL 4
REMARK VINA RESULT:    -4.098      5.095      7.246
REMARK INTER + INTRA:          -6.184
REMARK INTER:                  -5.103
REMARK INTRA:                  -1.080
REMARK UNBOUND:                -0.648
REMARK SMILES CC(=O)CCC=C(C)CCC=C(C)C
REMARK SMILES IDX 7 1 6 2 8 3 9 4 10 5 11 6 13 7 12 8 14 9 5 10 4 11 2 12 3 13
REMARK SMILES IDX 1 14
REMARK H PARENT
REMARK Flexibility Score: inf
ROOT
ATOM      1  C   UNL     1     153.407 160.776 200.285  1.00  0.00    -0.077 C 
ATOM      2  C   UNL     1     152.209 161.141 200.796  1.00  0.00    -0.028 C 
ATOM      3  C   UNL     1     154.570 160.397 201.173  1.00  0.00     0.039 C 
ENDROOT
BRANCH   1   4
ATOM      4  C   UNL     1     153.588 160.755 198.783  1.00  0.00     0.034 C 
BRANCH   4   5
ATOM      5  C   UNL     1     152.286 161.138 198.071  1.00  0.00     0.032 C 
BRANCH   5   6
ATOM      6  C   UNL     1     151.798 160.005 197.203  1.00  0.00    -0.028 C 
ATOM      7  C   UNL     1     150.294 158.207 196.466  1.00  0.00     0.039 C 
ATOM      8  C   UNL     1     150.634 159.344 197.393  1.00  0.00    -0.080 C 
ATOM      9  C   UNL     1     149.667 159.726 198.488  1.00  0.00     0.039 C 
ENDBRANCH   5   6
ENDBRANCH   4   5
ENDBRANCH   1   4
BRANCH   2  10
ATOM     10  C   UNL     1     151.879 161.166 202.267  1.00  0.00     0.035 C 
BRANCH  10  11
ATOM     11  C   UNL     1     150.911 160.035 202.625  1.00  0.00     0.079 C 
BRANCH  11  12
ATOM     12  C   UNL     1     151.666 158.770 202.941  1.00  0.00     0.130 C 
ATOM     13  O   UNL     1     152.073 158.580 204.078  1.00  0.00    -0.300 OA
ATOM     14  C   UNL     1     151.921 157.730 201.891  1.00  0.00     0.087 C 
ENDBRANCH  11  12
ENDBRANCH  10  11
ENDBRANCH   2  10
TORSDOF 6
ENDMDL
MODEL 5
REMARK VINA RESULT:    -4.079      3.287      6.728
REMARK INTER + INTRA:          -6.159
REMARK INTER:                  -5.613
REMARK INTRA:                  -0.545
REMARK UNBOUND:                -0.648
REMARK SMILES CC(=O)CCC=C(C)CCC=C(C)C
REMARK SMILES IDX 7 1 6 2 8 3 9 4 10 5 11 6 13 7 12 8 14 9 5 10 4 11 2 12 3 13
REMARK SMILES IDX 1 14
REMARK H PARENT
REMARK Flexibility Score: inf
ROOT
ATOM      1  C   UNL     1     155.576 160.735 199.807  1.00  0.00    -0.077 C 
ATOM      2  C   UNL     1     154.654 160.715 200.796  1.00  0.00    -0.028 C 
ATOM      3  C   UNL     1     155.183 160.754 198.348  1.00  0.00     0.039 C 
ENDROOT
BRANCH   1   4
ATOM      4  C   UNL     1     157.045 160.731 200.175  1.00  0.00     0.034 C 
BRANCH   4   5
ATOM      5  C   UNL     1     157.864 161.535 199.159  1.00  0.00     0.032 C 
BRANCH   5   6
ATOM      6  C   UNL     1     158.528 162.716 199.821  1.00  0.00    -0.028 C 
ATOM      7  C   UNL     1     159.296 165.038 200.059  1.00  0.00     0.039 C 
ATOM      8  C   UNL     1     158.563 163.963 199.300  1.00  0.00    -0.080 C 
ATOM      9  C   UNL     1     157.876 164.306 197.999  1.00  0.00     0.039 C 
ENDBRANCH   5   6
ENDBRANCH   4   5
ENDBRANCH   1   4
BRANCH   2  10
ATOM     10  C   UNL     1     153.163 160.758 200.574  1.00  0.00     0.035 C 
BRANCH  10  11
ATOM     11  C   UNL     1     152.443 161.278 201.822  1.00  0.00     0.079 C 
BRANCH  11  12
ATOM     12  C   UNL     1     151.513 160.231 202.374  1.00  0.00     0.130 C 
ATOM     13  O   UNL     1     150.310 160.444 202.394  1.00  0.00    -0.300 OA
ATOM     14  C   UNL     1     152.030 158.922 202.894  1.00  0.00     0.087 C 
ENDBRANCH  11  12
ENDBRANCH  10  11
ENDBRANCH   2  10
TORSDOF 6
ENDMDL
MODEL 6
REMARK VINA RESULT:    -4.028      4.041      7.624
REMARK INTER + INTRA:          -6.090
REMARK INTER:                  -5.125
REMARK INTRA:                  -0.965
REMARK UNBOUND:                -0.648
REMARK SMILES CC(=O)CCC=C(C)CCC=C(C)C
REMARK SMILES IDX 7 1 6 2 8 3 9 4 10 5 11 6 13 7 12 8 14 9 5 10 4 11 2 12 3 13
REMARK SMILES IDX 1 14
REMARK H PARENT
REMARK Flexibility Score: inf
ROOT
ATOM      1  C   UNL     1     152.103 160.781 201.272  1.00  0.00    -0.077 C 
ATOM      2  C   UNL     1     151.825 159.497 201.594  1.00  0.00    -0.028 C 
ATOM      3  C   UNL     1     152.210 161.861 202.324  1.00  0.00     0.039 C 
ENDROOT
BRANCH   1   4
ATOM      4  C   UNL     1     152.304 161.145 199.817  1.00  0.00     0.034 C 
BRANCH   4   5
ATOM      5  C   UNL     1     153.299 160.189 199.149  1.00  0.00     0.032 C 
BRANCH   5   6
ATOM      6  C   UNL     1     154.679 160.797 199.109  1.00  0.00    -0.028 C 
ATOM      7  C   UNL     1     156.982 161.227 199.851  1.00  0.00     0.039 C 
ATOM      8  C   UNL     1     155.662 160.514 199.993  1.00  0.00    -0.080 C 
ATOM      9  C   UNL     1     155.480 159.499 201.095  1.00  0.00     0.039 C 
ENDBRANCH   5   6
ENDBRANCH   4   5
ENDBRANCH   1   4
BRANCH   2  10
ATOM     10  C   UNL     1     151.642 158.989 203.002  1.00  0.00     0.035 C 
BRANCH  10  11
ATOM     11  C   UNL     1     152.015 157.506 203.097  1.00  0.00     0.079 C 
BRANCH  11  12
ATOM     12  C   UNL     1     153.210 157.315 203.993  1.00  0.00     0.130 C 
ATOM     13  O   UNL     1     154.314 157.149 203.497  1.00  0.00    -0.300 OA
ATOM     14  C   UNL     1     153.076 157.333 205.487  1.00  0.00     0.087 C 
ENDBRANCH  11  12
ENDBRANCH  10  11
ENDBRANCH   2  10
TORSDOF 6
ENDMDL
MODEL 7
REMARK VINA RESULT:    -3.996      4.935      6.698
REMARK INTER + INTRA:          -6.046
REMARK INTER:                  -5.016
REMARK INTRA:                  -1.030
REMARK UNBOUND:                -0.648
REMARK SMILES CC(=O)CCC=C(C)CCC=C(C)C
REMARK SMILES IDX 7 1 6 2 8 3 9 4 10 5 11 6 13 7 12 8 14 9 5 10 4 11 2 12 3 13
REMARK SMILES IDX 1 14
REMARK H PARENT
REMARK Flexibility Score: inf
ROOT
ATOM      1  C   UNL     1     152.850 161.085 200.806  1.00  0.00    -0.077 C 
ATOM      2  C   UNL     1     152.245 161.091 199.597  1.00  0.00    -0.028 C 
ATOM      3  C   UNL     1     154.313 160.739 200.964  1.00  0.00     0.039 C 
ENDROOT
BRANCH   1   4
ATOM      4  C   UNL     1     152.036 161.427 202.035  1.00  0.00     0.034 C 
BRANCH   4   5
ATOM      5  C   UNL     1     150.981 160.349 202.308  1.00  0.00     0.032 C 
BRANCH   5   6
ATOM      6  C   UNL     1     151.550 159.251 203.172  1.00  0.00    -0.028 C 
ATOM      7  C   UNL     1     152.485 157.038 203.692  1.00  0.00     0.039 C 
ATOM      8  C   UNL     1     151.973 158.054 202.705  1.00  0.00    -0.080 C 
ATOM      9  C   UNL     1     151.963 157.721 201.232  1.00  0.00     0.039 C 
ENDBRANCH   5   6
ENDBRANCH   4   5
ENDBRANCH   1   4
BRANCH   2  10
ATOM     10  C   UNL     1     152.943 160.811 198.290  1.00  0.00     0.035 C 
BRANCH  10  11
ATOM     11  C   UNL     1     152.328 159.592 197.596  1.00  0.00     0.079 C 
BRANCH  11  12
ATOM     12  C   UNL     1     150.988 159.938 197.003  1.00  0.00     0.130 C 
ATOM     13  O   UNL     1     150.936 160.621 195.990  1.00  0.00    -0.300 OA
ATOM     14  C   UNL     1     149.710 159.455 197.623  1.00  0.00     0.087 C 
ENDBRANCH  11  12
ENDBRANCH  10  11
ENDBRANCH   2  10
TORSDOF 6
ENDMDL
MODEL 8
REMARK VINA RESULT:    -3.974      5.937      7.278
REMARK INTER + INTRA:          -6.017
REMARK INTER:                  -4.590
REMARK INTRA:                  -1.427
REMARK UNBOUND:                -0.648
REMARK SMILES CC(=O)CCC=C(C)CCC=C(C)C
REMARK SMILES IDX 7 1 6 2 8 3 9 4 10 5 11 6 13 7 12 8 14 9 5 10 4 11 2 12 3 13
REMARK SMILES IDX 1 14
REMARK H PARENT
REMARK Flexibility Score: inf
ROOT
ATOM      1  C   UNL     1     151.116 160.402 198.826  1.00  0.00    -0.077 C 
ATOM      2  C   UNL     1     152.108 160.946 199.567  1.00  0.00    -0.028 C 
ATOM      3  C   UNL     1     149.684 160.372 199.308  1.00  0.00     0.039 C 
ENDROOT
BRANCH   1   4
ATOM      4  C   UNL     1     151.453 159.802 197.478  1.00  0.00     0.034 C 
BRANCH   4   5
ATOM      5  C   UNL     1     152.440 158.639 197.631  1.00  0.00     0.032 C 
BRANCH   5   6
ATOM      6  C   UNL     1     151.864 157.561 198.514  1.00  0.00    -0.028 C 
ATOM      7  C   UNL     1     151.774 155.998 200.408  1.00  0.00     0.039 C 
ATOM      8  C   UNL     1     152.449 157.107 199.645  1.00  0.00    -0.080 C 
ATOM      9  C   UNL     1     153.739 157.692 200.168  1.00  0.00     0.039 C 
ENDBRANCH   5   6
ENDBRANCH   4   5
ENDBRANCH   1   4
BRANCH   2  10
ATOM     10  C   UNL     1     151.907 161.613 200.904  1.00  0.00     0.035 C 
BRANCH  10  11
ATOM     11  C   UNL     1     152.488 160.753 202.032  1.00  0.00     0.079 C 
BRANCH  11  12
ATOM     12  C   UNL     1     151.418 159.894 202.651  1.00  0.00     0.130 C 
ATOM     13  O   UNL     1     150.270 160.311 202.708  1.00  0.00    -0.300 OA
ATOM     14  C   UNL     1     151.727 158.530 203.191  1.00  0.00     0.087 C 
ENDBRANCH  11  12
ENDBRANCH  10  11
ENDBRANCH   2  10
TORSDOF 6
ENDMDL
MODEL 9
REMARK VINA RESULT:    -3.937      3.407      5.512
REMARK INTER + INTRA:          -5.966
REMARK INTER:                  -4.791
REMARK INTRA:                  -1.175
REMARK UNBOUND:                -0.648
REMARK SMILES CC(=O)CCC=C(C)CCC=C(C)C
REMARK SMILES IDX 7 1 6 2 8 3 9 4 10 5 11 6 13 7 12 8 14 9 5 10 4 11 2 12 3 13
REMARK SMILES IDX 1 14
REMARK H PARENT
REMARK Flexibility Score: inf
ROOT
ATOM      1  C   UNL     1     158.976 166.230 198.733  1.00  0.00    -0.077 C 
ATOM      2  C   UNL     1     157.730 165.972 198.274  1.00  0.00    -0.028 C 
ATOM      3  C   UNL     1     160.020 166.902 197.871  1.00  0.00     0.039 C 
ENDROOT
BRANCH   1   4
ATOM      4  C   UNL     1     159.335 165.827 200.147  1.00  0.00     0.034 C 
BRANCH   4   5
ATOM      5  C   UNL     1     160.047 164.470 200.163  1.00  0.00     0.032 C 
BRANCH   5   6
ATOM      6  C   UNL     1     159.046 163.341 200.165  1.00  0.00    -0.028 C 
ATOM      7  C   UNL     1     157.742 161.474 199.242  1.00  0.00     0.039 C 
ATOM      8  C   UNL     1     158.798 162.540 199.105  1.00  0.00    -0.080 C 
ATOM      9  C   UNL     1     159.559 162.670 197.807  1.00  0.00     0.039 C 
ENDBRANCH   5   6
ENDBRANCH   4   5
ENDBRANCH   1   4
BRANCH   2  10
ATOM     10  C   UNL     1     157.227 166.355 196.905  1.00  0.00     0.035 C 
BRANCH  10  11
ATOM     11  C   UNL     1     157.618 165.297 195.868  1.00  0.00     0.079 C 
BRANCH  11  12
ATOM     12  C   UNL     1     156.439 164.424 195.528  1.00  0.00     0.130 C 
ATOM     13  O   UNL     1     155.522 164.883 194.863  1.00  0.00    -0.300 OA
ATOM     14  C   UNL     1     156.369 162.996 195.981  1.00  0.00     0.087 C 
ENDBRANCH  11  12
ENDBRANCH  10  11
ENDBRANCH   2  10
TORSDOF 6
ENDMDL
