MODEL 1
REMARK VINA RESULT:    -5.080      0.000      0.000
REMARK INTER + INTRA:         -16.873
REMARK INTER:                 -12.802
REMARK INTRA:                  -4.071
REMARK UNBOUND:                -4.071
REMARK SMILES CCCCCCCCCCCCCCCCCCCCCCCCCCCC(=O)[O-]
REMARK SMILES IDX 15 1 16 2 17 3 18 4 19 5 20 6 21 7 22 8 23 9 24 10 25 11
REMARK SMILES IDX 26 12 27 13 28 14 29 15 30 16 14 17 13 18 12 19 11 20 10 21
REMARK SMILES IDX 9 22 8 23 7 24 6 25 5 26 4 27 3 28 2 29 1 30
REMARK H PARENT
REMARK Flexibility Score: inf
ROOT
ATOM      1  C   UNL     1     -19.848  42.716  86.615  1.00  0.00     0.000 C 
ENDROOT
BRANCH   1   2
ATOM      2  C   UNL     1     -21.315  42.317  86.395  1.00  0.00     0.000 C 
BRANCH   2   3
ATOM      3  C   UNL     1     -22.144  42.347  87.689  1.00  0.00     0.000 C 
BRANCH   3   4
ATOM      4  C   UNL     1     -21.428  42.953  88.913  1.00  0.00     0.000 C 
BRANCH   4   5
ATOM      5  C   UNL     1     -21.850  42.333  90.262  1.00  0.00     0.000 C 
BRANCH   5   6
ATOM      6  C   UNL     1     -21.011  41.096  90.637  1.00  0.00     0.000 C 
BRANCH   6   7
ATOM      7  C   UNL     1     -19.641  41.077  89.944  1.00  0.00     0.000 C 
BRANCH   7   8
ATOM      8  C   UNL     1     -19.449  39.847  89.040  1.00  0.00     0.000 C 
BRANCH   8   9
ATOM      9  C   UNL     1     -20.688  38.937  88.999  1.00  0.00     0.000 C 
BRANCH   9  10
ATOM     10  C   UNL     1     -20.722  38.043  87.748  1.00  0.00     0.000 C 
BRANCH  10  11
ATOM     11  C   UNL     1     -20.775  38.847  86.436  1.00  0.00     0.000 C 
BRANCH  11  12
ATOM     12  C   UNL     1     -19.545  38.692  85.517  1.00  0.00     0.006 C 
BRANCH  12  13
ATOM     13  C   UNL     1     -19.599  37.481  84.572  1.00  0.00     0.053 C 
BRANCH  13  14
ATOM     14  C   UNL     1     -18.232  37.017  84.172  1.00  0.00     0.041 C 
ATOM     15  O   UNL     1     -17.759  35.953  84.652  1.00  0.00    -0.550 OA
ATOM     16  O   UNL     1     -17.501  37.732  83.231  1.00  0.00    -0.550 OA
ENDBRANCH  13  14
ENDBRANCH  12  13
ENDBRANCH  11  12
ENDBRANCH  10  11
ENDBRANCH   9  10
ENDBRANCH   8   9
ENDBRANCH   7   8
ENDBRANCH   6   7
ENDBRANCH   5   6
ENDBRANCH   4   5
ENDBRANCH   3   4
ENDBRANCH   2   3
ENDBRANCH   1   2
BRANCH   1  17
ATOM     17  C   UNL     1     -19.263  43.383  85.361  1.00  0.00     0.000 C 
BRANCH  17  18
ATOM     18  C   UNL     1     -18.196  44.442  85.689  1.00  0.00     0.000 C 
BRANCH  18  19
ATOM     19  C   UNL     1     -17.956  45.493  84.586  1.00  0.00     0.000 C 
BRANCH  19  20
ATOM     20  C   UNL     1     -18.756  45.279  83.289  1.00  0.00     0.000 C 
BRANCH  20  21
ATOM     21  C   UNL     1     -19.768  46.406  83.021  1.00  0.00     0.000 C 
BRANCH  21  22
ATOM     22  C   UNL     1     -20.421  46.927  84.311  1.00  0.00    -0.000 C 
BRANCH  22  23
ATOM     23  C   UNL     1     -21.638  46.087  84.738  1.00  0.00    -0.000 C 
BRANCH  23  24
ATOM     24  C   UNL     1     -21.810  46.018  86.267  1.00  0.00    -0.000 C 
BRANCH  24  25
ATOM     25  C   UNL     1     -23.268  46.041  86.758  1.00  0.00    -0.000 C 
BRANCH  25  26
ATOM     26  C   UNL     1     -23.384  45.877  88.284  1.00  0.00    -0.000 C 
BRANCH  26  27
ATOM     27  C   UNL     1     -24.632  45.083  88.707  1.00  0.00    -0.000 C 
BRANCH  27  28
ATOM     28  C   UNL     1     -25.978  45.705  88.286  1.00  0.00    -0.000 C 
BRANCH  28  29
ATOM     29  C   UNL     1     -26.609  46.612  89.364  1.00  0.00    -0.003 C 
ATOM     30  C   UNL     1     -27.319  45.813  90.456  1.00  0.00     0.004 C 
ENDBRANCH  28  29
ENDBRANCH  27  28
ENDBRANCH  26  27
ENDBRANCH  25  26
ENDBRANCH  24  25
ENDBRANCH  23  24
ENDBRANCH  22  23
ENDBRANCH  21  22
ENDBRANCH  20  21
ENDBRANCH  19  20
ENDBRANCH  18  19
ENDBRANCH  17  18
ENDBRANCH   1  17
TORSDOF 26
ENDMDL
MODEL 2
REMARK VINA RESULT:    -5.043      3.713      8.814
REMARK INTER + INTRA:         -16.779
REMARK INTER:                 -13.622
REMARK INTRA:                  -3.156
REMARK UNBOUND:                -4.071
REMARK SMILES CCCCCCCCCCCCCCCCCCCCCCCCCCCC(=O)[O-]
REMARK SMILES IDX 15 1 16 2 17 3 18 4 19 5 20 6 21 7 22 8 23 9 24 10 25 11
REMARK SMILES IDX 26 12 27 13 28 14 29 15 30 16 14 17 13 18 12 19 11 20 10 21
REMARK SMILES IDX 9 22 8 23 7 24 6 25 5 26 4 27 3 28 2 29 1 30
REMARK H PARENT
REMARK Flexibility Score: inf
ROOT
ATOM      1  C   UNL     1     -19.116  43.502  85.367  1.00  0.00     0.000 C 
ENDROOT
BRANCH   1   2
ATOM      2  C   UNL     1     -18.598  44.912  85.045  1.00  0.00     0.000 C 
BRANCH   2   3
ATOM      3  C   UNL     1     -18.643  45.238  83.544  1.00  0.00     0.000 C 
BRANCH   3   4
ATOM      4  C   UNL     1     -19.705  46.276  83.130  1.00  0.00     0.000 C 
BRANCH   4   5
ATOM      5  C   UNL     1     -21.112  46.001  83.703  1.00  0.00     0.000 C 
BRANCH   5   6
ATOM      6  C   UNL     1     -21.535  47.034  84.764  1.00  0.00     0.000 C 
BRANCH   6   7
ATOM      7  C   UNL     1     -22.636  46.509  85.698  1.00  0.00     0.000 C 
BRANCH   7   8
ATOM      8  C   UNL     1     -22.148  46.322  87.145  1.00  0.00     0.000 C 
BRANCH   8   9
ATOM      9  C   UNL     1     -23.302  46.213  88.155  1.00  0.00     0.000 C 
BRANCH   9  10
ATOM     10  C   UNL     1     -24.152  44.948  87.945  1.00  0.00     0.000 C 
BRANCH  10  11
ATOM     11  C   UNL     1     -25.051  44.622  89.151  1.00  0.00     0.000 C 
BRANCH  11  12
ATOM     12  C   UNL     1     -26.372  45.418  89.222  1.00  0.00     0.006 C 
BRANCH  12  13
ATOM     13  C   UNL     1     -27.181  45.205  90.512  1.00  0.00     0.053 C 
BRANCH  13  14
ATOM     14  C   UNL     1     -27.542  43.766  90.720  1.00  0.00     0.041 C 
ATOM     15  O   UNL     1     -28.124  43.122  89.808  1.00  0.00    -0.550 OA
ATOM     16  O   UNL     1     -27.193  43.123  91.901  1.00  0.00    -0.550 OA
ENDBRANCH  13  14
ENDBRANCH  12  13
ENDBRANCH  11  12
ENDBRANCH  10  11
ENDBRANCH   9  10
ENDBRANCH   8   9
ENDBRANCH   7   8
ENDBRANCH   6   7
ENDBRANCH   5   6
ENDBRANCH   4   5
ENDBRANCH   3   4
ENDBRANCH   2   3
ENDBRANCH   1   2
BRANCH   1  17
ATOM     17  C   UNL     1     -20.321  43.560  86.318  1.00  0.00     0.000 C 
BRANCH  17  18
ATOM     18  C   UNL     1     -21.023  42.201  86.479  1.00  0.00     0.000 C 
BRANCH  18  19
ATOM     19  C   UNL     1     -21.979  42.095  87.685  1.00  0.00     0.000 C 
BRANCH  19  20
ATOM     20  C   UNL     1     -21.396  42.570  89.028  1.00  0.00     0.000 C 
BRANCH  20  21
ATOM     21  C   UNL     1     -20.478  41.523  89.682  1.00  0.00     0.000 C 
BRANCH  21  22
ATOM     22  C   UNL     1     -20.951  41.126  91.089  1.00  0.00    -0.000 C 
BRANCH  22  23
ATOM     23  C   UNL     1     -20.896  39.606  91.324  1.00  0.00    -0.000 C 
BRANCH  23  24
ATOM     24  C   UNL     1     -19.473  39.099  91.624  1.00  0.00    -0.000 C 
BRANCH  24  25
ATOM     25  C   UNL     1     -18.730  38.499  90.417  1.00  0.00    -0.000 C 
BRANCH  25  26
ATOM     26  C   UNL     1     -19.537  37.397  89.710  1.00  0.00    -0.000 C 
BRANCH  26  27
ATOM     27  C   UNL     1     -19.704  37.652  88.202  1.00  0.00    -0.000 C 
BRANCH  27  28
ATOM     28  C   UNL     1     -20.945  38.477  87.810  1.00  0.00    -0.000 C 
BRANCH  28  29
ATOM     29  C   UNL     1     -21.102  38.683  86.289  1.00  0.00    -0.003 C 
ATOM     30  C   UNL     1     -19.906  38.149  85.501  1.00  0.00     0.004 C 
ENDBRANCH  28  29
ENDBRANCH  27  28
ENDBRANCH  26  27
ENDBRANCH  25  26
ENDBRANCH  24  25
ENDBRANCH  23  24
ENDBRANCH  22  23
ENDBRANCH  21  22
ENDBRANCH  20  21
ENDBRANCH  19  20
ENDBRANCH  18  19
ENDBRANCH  17  18
ENDBRANCH   1  17
TORSDOF 26
ENDMDL
MODEL 3
REMARK VINA RESULT:    -5.034      2.986      6.763
REMARK INTER + INTRA:         -16.757
REMARK INTER:                 -13.416
REMARK INTRA:                  -3.340
REMARK UNBOUND:                -4.071
REMARK SMILES CCCCCCCCCCCCCCCCCCCCCCCCCCCC(=O)[O-]
REMARK SMILES IDX 15 1 16 2 17 3 18 4 19 5 20 6 21 7 22 8 23 9 24 10 25 11
REMARK SMILES IDX 26 12 27 13 28 14 29 15 30 16 14 17 13 18 12 19 11 20 10 21
REMARK SMILES IDX 9 22 8 23 7 24 6 25 5 26 4 27 3 28 2 29 1 30
REMARK H PARENT
REMARK Flexibility Score: inf
ROOT
ATOM      1  C   UNL     1     -19.428  38.457  85.384  1.00  0.00     0.000 C 
ENDROOT
BRANCH   1   2
ATOM      2  C   UNL     1     -19.553  37.469  84.213  1.00  0.00     0.000 C 
BRANCH   2   3
ATOM      3  C   UNL     1     -18.398  37.587  83.205  1.00  0.00     0.000 C 
BRANCH   3   4
ATOM      4  C   UNL     1     -17.076  36.925  83.643  1.00  0.00     0.000 C 
BRANCH   4   5
ATOM      5  C   UNL     1     -17.230  35.465  84.121  1.00  0.00     0.000 C 
BRANCH   5   6
ATOM      6  C   UNL     1     -16.517  35.198  85.459  1.00  0.00     0.000 C 
BRANCH   6   7
ATOM      7  C   UNL     1     -17.387  35.549  86.675  1.00  0.00     0.000 C 
BRANCH   7   8
ATOM      8  C   UNL     1     -17.010  34.740  87.929  1.00  0.00     0.000 C 
BRANCH   8   9
ATOM      9  C   UNL     1     -17.760  35.205  89.188  1.00  0.00     0.000 C 
BRANCH   9  10
ATOM     10  C   UNL     1     -18.715  36.378  88.905  1.00  0.00     0.000 C 
BRANCH  10  11
ATOM     11  C   UNL     1     -18.623  37.493  89.962  1.00  0.00     0.000 C 
BRANCH  11  12
ATOM     12  C   UNL     1     -19.881  38.377  90.098  1.00  0.00     0.006 C 
BRANCH  12  13
ATOM     13  C   UNL     1     -20.074  39.010  91.486  1.00  0.00     0.053 C 
BRANCH  13  14
ATOM     14  C   UNL     1     -20.055  40.506  91.431  1.00  0.00     0.041 C 
ATOM     15  O   UNL     1     -18.962  41.122  91.322  1.00  0.00    -0.550 OA
ATOM     16  O   UNL     1     -21.248  41.219  91.451  1.00  0.00    -0.550 OA
ENDBRANCH  13  14
ENDBRANCH  12  13
ENDBRANCH  11  12
ENDBRANCH  10  11
ENDBRANCH   9  10
ENDBRANCH   8   9
ENDBRANCH   7   8
ENDBRANCH   6   7
ENDBRANCH   5   6
ENDBRANCH   4   5
ENDBRANCH   3   4
ENDBRANCH   2   3
ENDBRANCH   1   2
BRANCH   1  17
ATOM     17  C   UNL     1     -20.462  38.149  86.478  1.00  0.00     0.000 C 
BRANCH  17  18
ATOM     18  C   UNL     1     -21.387  39.341  86.778  1.00  0.00     0.000 C 
BRANCH  18  19
ATOM     19  C   UNL     1     -20.726  40.729  86.667  1.00  0.00     0.000 C 
BRANCH  19  20
ATOM     20  C   UNL     1     -20.356  41.390  88.007  1.00  0.00     0.000 C 
BRANCH  20  21
ATOM     21  C   UNL     1     -21.027  42.761  88.199  1.00  0.00     0.000 C 
BRANCH  21  22
ATOM     22  C   UNL     1     -22.484  42.775  87.712  1.00  0.00    -0.000 C 
BRANCH  22  23
ATOM     23  C   UNL     1     -23.063  44.198  87.617  1.00  0.00    -0.000 C 
BRANCH  23  24
ATOM     24  C   UNL     1     -22.064  45.280  88.068  1.00  0.00    -0.000 C 
BRANCH  24  25
ATOM     25  C   UNL     1     -21.525  46.177  86.939  1.00  0.00    -0.000 C 
BRANCH  25  26
ATOM     26  C   UNL     1     -21.785  45.592  85.540  1.00  0.00    -0.000 C 
BRANCH  26  27
ATOM     27  C   UNL     1     -20.489  45.308  84.761  1.00  0.00    -0.000 C 
BRANCH  27  28
ATOM     28  C   UNL     1     -19.439  44.473  85.518  1.00  0.00    -0.000 C 
BRANCH  28  29
ATOM     29  C   UNL     1     -17.996  44.679  85.012  1.00  0.00    -0.003 C 
ATOM     30  C   UNL     1     -17.814  46.015  84.293  1.00  0.00     0.004 C 
ENDBRANCH  28  29
ENDBRANCH  27  28
ENDBRANCH  26  27
ENDBRANCH  25  26
ENDBRANCH  24  25
ENDBRANCH  23  24
ENDBRANCH  22  23
ENDBRANCH  21  22
ENDBRANCH  20  21
ENDBRANCH  19  20
ENDBRANCH  18  19
ENDBRANCH  17  18
ENDBRANCH   1  17
TORSDOF 26
ENDMDL
MODEL 4
REMARK VINA RESULT:    -4.992      3.622      9.304
REMARK INTER + INTRA:         -16.652
REMARK INTER:                 -13.558
REMARK INTRA:                  -3.093
REMARK UNBOUND:                -4.071
REMARK SMILES CCCCCCCCCCCCCCCCCCCCCCCCCCCC(=O)[O-]
REMARK SMILES IDX 15 1 16 2 17 3 18 4 19 5 20 6 21 7 22 8 23 9 24 10 25 11
REMARK SMILES IDX 26 12 27 13 28 14 29 15 30 16 14 17 13 18 12 19 11 20 10 21
REMARK SMILES IDX 9 22 8 23 7 24 6 25 5 26 4 27 3 28 2 29 1 30
REMARK H PARENT
REMARK Flexibility Score: inf
ROOT
ATOM      1  C   UNL     1     -21.747  42.317  88.256  1.00  0.00     0.000 C 
ENDROOT
BRANCH   1   2
ATOM      2  C   UNL     1     -21.385  42.035  86.789  1.00  0.00     0.000 C 
BRANCH   2   3
ATOM      3  C   UNL     1     -19.880  42.174  86.507  1.00  0.00     0.000 C 
BRANCH   3   4
ATOM      4  C   UNL     1     -19.506  43.247  85.465  1.00  0.00     0.000 C 
BRANCH   4   5
ATOM      5  C   UNL     1     -19.935  44.679  85.852  1.00  0.00     0.000 C 
BRANCH   5   6
ATOM      6  C   UNL     1     -20.920  45.298  84.843  1.00  0.00     0.000 C 
BRANCH   6   7
ATOM      7  C   UNL     1     -22.082  46.035  85.526  1.00  0.00     0.000 C 
BRANCH   7   8
ATOM      8  C   UNL     1     -22.157  45.755  87.037  1.00  0.00     0.000 C 
BRANCH   8   9
ATOM      9  C   UNL     1     -22.691  46.952  87.840  1.00  0.00     0.000 C 
BRANCH   9  10
ATOM     10  C   UNL     1     -23.660  46.528  88.958  1.00  0.00     0.000 C 
BRANCH  10  11
ATOM     11  C   UNL     1     -24.594  45.379  88.538  1.00  0.00     0.000 C 
BRANCH  11  12
ATOM     12  C   UNL     1     -26.102  45.704  88.585  1.00  0.00     0.006 C 
BRANCH  12  13
ATOM     13  C   UNL     1     -26.754  45.524  89.966  1.00  0.00     0.053 C 
BRANCH  13  14
ATOM     14  C   UNL     1     -26.713  44.100  90.428  1.00  0.00     0.041 C 
ATOM     15  O   UNL     1     -25.938  43.759  91.360  1.00  0.00    -0.550 OA
ATOM     16  O   UNL     1     -27.565  43.159  89.863  1.00  0.00    -0.550 OA
ENDBRANCH  13  14
ENDBRANCH  12  13
ENDBRANCH  11  12
ENDBRANCH  10  11
ENDBRANCH   9  10
ENDBRANCH   8   9
ENDBRANCH   7   8
ENDBRANCH   6   7
ENDBRANCH   5   6
ENDBRANCH   4   5
ENDBRANCH   3   4
ENDBRANCH   2   3
ENDBRANCH   1   2
BRANCH   1  17
ATOM     17  C   UNL     1     -20.609  41.892  89.197  1.00  0.00     0.000 C 
BRANCH  17  18
ATOM     18  C   UNL     1     -21.115  41.404  90.565  1.00  0.00     0.000 C 
BRANCH  18  19
ATOM     19  C   UNL     1     -20.013  41.011  91.570  1.00  0.00     0.000 C 
BRANCH  19  20
ATOM     20  C   UNL     1     -19.804  39.498  91.757  1.00  0.00     0.000 C 
BRANCH  20  21
ATOM     21  C   UNL     1     -18.416  39.027  91.292  1.00  0.00     0.000 C 
BRANCH  21  22
ATOM     22  C   UNL     1     -18.497  37.936  90.213  1.00  0.00    -0.000 C 
BRANCH  22  23
ATOM     23  C   UNL     1     -19.934  37.706  89.711  1.00  0.00    -0.000 C 
BRANCH  23  24
ATOM     24  C   UNL     1     -20.020  37.586  88.179  1.00  0.00    -0.000 C 
BRANCH  24  25
ATOM     25  C   UNL     1     -20.899  38.647  87.492  1.00  0.00    -0.000 C 
BRANCH  25  26
ATOM     26  C   UNL     1     -20.956  38.473  85.964  1.00  0.00    -0.000 C 
BRANCH  26  27
ATOM     27  C   UNL     1     -19.580  38.172  85.346  1.00  0.00    -0.000 C 
BRANCH  27  28
ATOM     28  C   UNL     1     -19.618  37.453  83.983  1.00  0.00    -0.000 C 
BRANCH  28  29
ATOM     29  C   UNL     1     -18.223  37.092  83.430  1.00  0.00    -0.003 C 
ATOM     30  C   UNL     1     -17.491  36.078  84.309  1.00  0.00     0.004 C 
ENDBRANCH  28  29
ENDBRANCH  27  28
ENDBRANCH  26  27
ENDBRANCH  25  26
ENDBRANCH  24  25
ENDBRANCH  23  24
ENDBRANCH  22  23
ENDBRANCH  21  22
ENDBRANCH  20  21
ENDBRANCH  19  20
ENDBRANCH  18  19
ENDBRANCH  17  18
ENDBRANCH   1  17
TORSDOF 26
ENDMDL
MODEL 5
REMARK VINA RESULT:    -4.981      3.838      8.844
REMARK INTER + INTRA:         -16.625
REMARK INTER:                 -12.990
REMARK INTRA:                  -3.635
REMARK UNBOUND:                -4.071
REMARK SMILES CCCCCCCCCCCCCCCCCCCCCCCCCCCC(=O)[O-]
REMARK SMILES IDX 15 1 16 2 17 3 18 4 19 5 20 6 21 7 22 8 23 9 24 10 25 11
REMARK SMILES IDX 26 12 27 13 28 14 29 15 30 16 14 17 13 18 12 19 11 20 10 21
REMARK SMILES IDX 9 22 8 23 7 24 6 25 5 26 4 27 3 28 2 29 1 30
REMARK H PARENT
REMARK Flexibility Score: inf
ROOT
ATOM      1  C   UNL     1     -19.449  43.871  85.449  1.00  0.00     0.000 C 
ENDROOT
BRANCH   1   2
ATOM      2  C   UNL     1     -20.707  44.647  85.028  1.00  0.00     0.000 C 
BRANCH   2   3
ATOM      3  C   UNL     1     -20.587  46.160  85.271  1.00  0.00     0.000 C 
BRANCH   3   4
ATOM      4  C   UNL     1     -21.578  46.739  86.300  1.00  0.00     0.000 C 
BRANCH   4   5
ATOM      5  C   UNL     1     -21.507  46.071  87.689  1.00  0.00     0.000 C 
BRANCH   5   6
ATOM      6  C   UNL     1     -22.889  45.639  88.214  1.00  0.00     0.000 C 
BRANCH   6   7
ATOM      7  C   UNL     1     -23.837  45.195  87.090  1.00  0.00     0.000 C 
BRANCH   7   8
ATOM      8  C   UNL     1     -25.010  46.170  86.882  1.00  0.00     0.000 C 
BRANCH   8   9
ATOM      9  C   UNL     1     -26.262  45.775  87.681  1.00  0.00     0.000 C 
BRANCH   9  10
ATOM     10  C   UNL     1     -26.591  46.782  88.797  1.00  0.00     0.000 C 
BRANCH  10  11
ATOM     11  C   UNL     1     -26.460  46.178  90.207  1.00  0.00     0.000 C 
BRANCH  11  12
ATOM     12  C   UNL     1     -25.867  44.755  90.262  1.00  0.00     0.006 C 
BRANCH  12  13
ATOM     13  C   UNL     1     -26.738  43.724  90.998  1.00  0.00     0.053 C 
BRANCH  13  14
ATOM     14  C   UNL     1     -28.001  43.418  90.252  1.00  0.00     0.041 C 
ATOM     15  O   UNL     1     -28.017  42.507  89.383  1.00  0.00    -0.550 OA
ATOM     16  O   UNL     1     -29.171  44.104  90.552  1.00  0.00    -0.550 OA
ENDBRANCH  13  14
ENDBRANCH  12  13
ENDBRANCH  11  12
ENDBRANCH  10  11
ENDBRANCH   9  10
ENDBRANCH   8   9
ENDBRANCH   7   8
ENDBRANCH   6   7
ENDBRANCH   5   6
ENDBRANCH   4   5
ENDBRANCH   3   4
ENDBRANCH   2   3
ENDBRANCH   1   2
BRANCH   1  17
ATOM     17  C   UNL     1     -19.816  42.623  86.265  1.00  0.00     0.000 C 
BRANCH  17  18
ATOM     18  C   UNL     1     -21.335  42.446  86.437  1.00  0.00     0.000 C 
BRANCH  18  19
ATOM     19  C   UNL     1     -21.788  41.998  87.842  1.00  0.00     0.000 C 
BRANCH  19  20
ATOM     20  C   UNL     1     -20.968  42.573  89.011  1.00  0.00     0.000 C 
BRANCH  20  21
ATOM     21  C   UNL     1     -20.024  41.535  89.642  1.00  0.00     0.000 C 
BRANCH  21  22
ATOM     22  C   UNL     1     -20.603  40.920  90.927  1.00  0.00    -0.000 C 
BRANCH  22  23
ATOM     23  C   UNL     1     -21.196  39.519  90.696  1.00  0.00    -0.000 C 
BRANCH  23  24
ATOM     24  C   UNL     1     -20.127  38.410  90.696  1.00  0.00    -0.000 C 
BRANCH  24  25
ATOM     25  C   UNL     1     -19.375  38.234  89.365  1.00  0.00    -0.000 C 
BRANCH  25  26
ATOM     26  C   UNL     1     -20.233  37.553  88.284  1.00  0.00    -0.000 C 
BRANCH  26  27
ATOM     27  C   UNL     1     -20.975  38.560  87.388  1.00  0.00    -0.000 C 
BRANCH  27  28
ATOM     28  C   UNL     1     -20.292  38.864  86.040  1.00  0.00    -0.000 C 
BRANCH  28  29
ATOM     29  C   UNL     1     -19.413  37.710  85.512  1.00  0.00    -0.003 C 
ATOM     30  C   UNL     1     -19.498  37.560  83.993  1.00  0.00     0.004 C 
ENDBRANCH  28  29
ENDBRANCH  27  28
ENDBRANCH  26  27
ENDBRANCH  25  26
ENDBRANCH  24  25
ENDBRANCH  23  24
ENDBRANCH  22  23
ENDBRANCH  21  22
ENDBRANCH  20  21
ENDBRANCH  19  20
ENDBRANCH  18  19
ENDBRANCH  17  18
ENDBRANCH   1  17
TORSDOF 26
ENDMDL
MODEL 6
REMARK VINA RESULT:    -4.973      3.930      8.669
REMARK INTER + INTRA:         -16.604
REMARK INTER:                 -13.150
REMARK INTRA:                  -3.454
REMARK UNBOUND:                -4.071
REMARK SMILES CCCCCCCCCCCCCCCCCCCCCCCCCCCC(=O)[O-]
REMARK SMILES IDX 15 1 16 2 17 3 18 4 19 5 20 6 21 7 22 8 23 9 24 10 25 11
REMARK SMILES IDX 26 12 27 13 28 14 29 15 30 16 14 17 13 18 12 19 11 20 10 21
REMARK SMILES IDX 9 22 8 23 7 24 6 25 5 26 4 27 3 28 2 29 1 30
REMARK H PARENT
REMARK Flexibility Score: inf
ROOT
ATOM      1  C   UNL     1     -21.665  41.150  90.920  1.00  0.00     0.000 C 
ENDROOT
BRANCH   1   2
ATOM      2  C   UNL     1     -22.151  42.592  90.704  1.00  0.00     0.000 C 
BRANCH   2   3
ATOM      3  C   UNL     1     -22.606  42.860  89.260  1.00  0.00     0.000 C 
BRANCH   3   4
ATOM      4  C   UNL     1     -22.368  44.297  88.754  1.00  0.00     0.000 C 
BRANCH   4   5
ATOM      5  C   UNL     1     -23.192  44.669  87.503  1.00  0.00     0.000 C 
BRANCH   5   6
ATOM      6  C   UNL     1     -23.062  46.157  87.126  1.00  0.00     0.000 C 
BRANCH   6   7
ATOM      7  C   UNL     1     -24.290  46.686  86.370  1.00  0.00     0.000 C 
BRANCH   7   8
ATOM      8  C   UNL     1     -25.609  46.077  86.878  1.00  0.00     0.000 C 
BRANCH   8   9
ATOM      9  C   UNL     1     -26.367  47.010  87.836  1.00  0.00     0.000 C 
BRANCH   9  10
ATOM     10  C   UNL     1     -25.980  46.785  89.308  1.00  0.00     0.000 C 
BRANCH  10  11
ATOM     11  C   UNL     1     -26.797  45.666  89.979  1.00  0.00     0.000 C 
BRANCH  11  12
ATOM     12  C   UNL     1     -25.966  44.510  90.574  1.00  0.00     0.006 C 
BRANCH  12  13
ATOM     13  C   UNL     1     -26.771  43.240  90.897  1.00  0.00     0.053 C 
BRANCH  13  14
ATOM     14  C   UNL     1     -28.074  43.197  90.161  1.00  0.00     0.041 C 
ATOM     15  O   UNL     1     -28.161  42.588  89.062  1.00  0.00    -0.550 OA
ATOM     16  O   UNL     1     -29.206  43.787  90.712  1.00  0.00    -0.550 OA
ENDBRANCH  13  14
ENDBRANCH  12  13
ENDBRANCH  11  12
ENDBRANCH  10  11
ENDBRANCH   9  10
ENDBRANCH   8   9
ENDBRANCH   7   8
ENDBRANCH   6   7
ENDBRANCH   5   6
ENDBRANCH   4   5
ENDBRANCH   3   4
ENDBRANCH   2   3
ENDBRANCH   1   2
BRANCH   1  17
ATOM     17  C   UNL     1     -20.342  41.125  91.700  1.00  0.00     0.000 C 
BRANCH  17  18
ATOM     18  C   UNL     1     -19.141  40.715  90.830  1.00  0.00     0.000 C 
BRANCH  18  19
ATOM     19  C   UNL     1     -18.400  39.444  91.292  1.00  0.00     0.000 C 
BRANCH  19  20
ATOM     20  C   UNL     1     -18.508  38.238  90.342  1.00  0.00     0.000 C 
BRANCH  20  21
ATOM     21  C   UNL     1     -19.929  38.047  89.783  1.00  0.00     0.000 C 
BRANCH  21  22
ATOM     22  C   UNL     1     -19.926  37.509  88.344  1.00  0.00    -0.000 C 
BRANCH  22  23
ATOM     23  C   UNL     1     -20.887  38.280  87.422  1.00  0.00    -0.000 C 
BRANCH  23  24
ATOM     24  C   UNL     1     -20.895  39.795  87.700  1.00  0.00    -0.000 C 
BRANCH  24  25
ATOM     25  C   UNL     1     -20.003  40.631  86.763  1.00  0.00    -0.000 C 
BRANCH  25  26
ATOM     26  C   UNL     1     -20.229  42.144  86.923  1.00  0.00    -0.000 C 
BRANCH  26  27
ATOM     27  C   UNL     1     -19.751  42.952  85.704  1.00  0.00    -0.000 C 
BRANCH  27  28
ATOM     28  C   UNL     1     -19.455  44.439  85.978  1.00  0.00    -0.000 C 
BRANCH  28  29
ATOM     29  C   UNL     1     -19.647  45.351  84.747  1.00  0.00    -0.003 C 
ATOM     30  C   UNL     1     -21.053  45.247  84.158  1.00  0.00     0.004 C 
ENDBRANCH  28  29
ENDBRANCH  27  28
ENDBRANCH  26  27
ENDBRANCH  25  26
ENDBRANCH  24  25
ENDBRANCH  23  24
ENDBRANCH  22  23
ENDBRANCH  21  22
ENDBRANCH  20  21
ENDBRANCH  19  20
ENDBRANCH  18  19
ENDBRANCH  17  18
ENDBRANCH   1  17
TORSDOF 26
ENDMDL
MODEL 7
REMARK VINA RESULT:    -4.962      1.430      3.207
REMARK INTER + INTRA:         -16.577
REMARK INTER:                 -13.846
REMARK INTRA:                  -2.731
REMARK UNBOUND:                -4.071
REMARK SMILES CCCCCCCCCCCCCCCCCCCCCCCCCCCC(=O)[O-]
REMARK SMILES IDX 15 1 16 2 17 3 18 4 19 5 20 6 21 7 22 8 23 9 24 10 25 11
REMARK SMILES IDX 26 12 27 13 28 14 29 15 30 16 14 17 13 18 12 19 11 20 10 21
REMARK SMILES IDX 9 22 8 23 7 24 6 25 5 26 4 27 3 28 2 29 1 30
REMARK H PARENT
REMARK Flexibility Score: inf
ROOT
ATOM      1  C   UNL     1     -19.782  41.237  89.559  1.00  0.00     0.000 C 
ENDROOT
BRANCH   1   2
ATOM      2  C   UNL     1     -19.851  41.076  91.086  1.00  0.00     0.000 C 
BRANCH   2   3
ATOM      3  C   UNL     1     -19.865  39.605  91.532  1.00  0.00     0.000 C 
BRANCH   3   4
ATOM      4  C   UNL     1     -18.519  38.866  91.396  1.00  0.00     0.000 C 
BRANCH   4   5
ATOM      5  C   UNL     1     -18.465  37.863  90.223  1.00  0.00     0.000 C 
BRANCH   5   6
ATOM      6  C   UNL     1     -19.853  37.575  89.623  1.00  0.00     0.000 C 
BRANCH   6   7
ATOM      7  C   UNL     1     -19.869  37.679  88.090  1.00  0.00     0.000 C 
BRANCH   7   8
ATOM      8  C   UNL     1     -21.027  38.547  87.566  1.00  0.00     0.000 C 
BRANCH   8   9
ATOM      9  C   UNL     1     -20.999  38.720  86.039  1.00  0.00     0.000 C 
BRANCH   9  10
ATOM     10  C   UNL     1     -19.643  38.331  85.425  1.00  0.00     0.000 C 
BRANCH  10  11
ATOM     11  C   UNL     1     -19.780  37.388  84.217  1.00  0.00     0.000 C 
BRANCH  11  12
ATOM     12  C   UNL     1     -18.619  37.446  83.200  1.00  0.00     0.006 C 
BRANCH  12  13
ATOM     13  C   UNL     1     -17.223  37.231  83.807  1.00  0.00     0.053 C 
BRANCH  13  14
ATOM     14  C   UNL     1     -16.938  35.784  84.067  1.00  0.00     0.041 C 
ATOM     15  O   UNL     1     -16.537  35.412  85.201  1.00  0.00    -0.550 OA
ATOM     16  O   UNL     1     -17.163  34.840  83.072  1.00  0.00    -0.550 OA
ENDBRANCH  13  14
ENDBRANCH  12  13
ENDBRANCH  11  12
ENDBRANCH  10  11
ENDBRANCH   9  10
ENDBRANCH   8   9
ENDBRANCH   7   8
ENDBRANCH   6   7
ENDBRANCH   5   6
ENDBRANCH   4   5
ENDBRANCH   3   4
ENDBRANCH   2   3
ENDBRANCH   1   2
BRANCH   1  17
ATOM     17  C   UNL     1     -21.077  41.855  89.010  1.00  0.00     0.000 C 
BRANCH  17  18
ATOM     18  C   UNL     1     -20.825  43.088  88.125  1.00  0.00     0.000 C 
BRANCH  18  19
ATOM     19  C   UNL     1     -20.690  42.796  86.617  1.00  0.00     0.000 C 
BRANCH  19  20
ATOM     20  C   UNL     1     -19.547  43.542  85.904  1.00  0.00     0.000 C 
BRANCH  20  21
ATOM     21  C   UNL     1     -20.056  44.636  84.950  1.00  0.00     0.000 C 
BRANCH  21  22
ATOM     22  C   UNL     1     -21.441  45.167  85.352  1.00  0.00    -0.000 C 
BRANCH  22  23
ATOM     23  C   UNL     1     -21.358  46.405  86.263  1.00  0.00    -0.000 C 
BRANCH  23  24
ATOM     24  C   UNL     1     -22.607  46.581  87.147  1.00  0.00    -0.000 C 
BRANCH  24  25
ATOM     25  C   UNL     1     -23.646  45.450  87.034  1.00  0.00    -0.000 C 
BRANCH  25  26
ATOM     26  C   UNL     1     -23.966  44.800  88.391  1.00  0.00    -0.000 C 
BRANCH  26  27
ATOM     27  C   UNL     1     -25.034  45.570  89.186  1.00  0.00    -0.000 C 
BRANCH  27  28
ATOM     28  C   UNL     1     -26.412  44.885  89.266  1.00  0.00    -0.000 C 
BRANCH  28  29
ATOM     29  C   UNL     1     -27.074  44.975  90.658  1.00  0.00    -0.003 C 
ATOM     30  C   UNL     1     -27.033  43.645  91.410  1.00  0.00     0.004 C 
ENDBRANCH  28  29
ENDBRANCH  27  28
ENDBRANCH  26  27
ENDBRANCH  25  26
ENDBRANCH  24  25
ENDBRANCH  23  24
ENDBRANCH  22  23
ENDBRANCH  21  22
ENDBRANCH  20  21
ENDBRANCH  19  20
ENDBRANCH  18  19
ENDBRANCH  17  18
ENDBRANCH   1  17
TORSDOF 26
ENDMDL
MODEL 8
REMARK VINA RESULT:    -4.943      1.735      2.496
REMARK INTER + INTRA:         -16.528
REMARK INTER:                 -13.609
REMARK INTRA:                  -2.920
REMARK UNBOUND:                -4.071
REMARK SMILES CCCCCCCCCCCCCCCCCCCCCCCCCCCC(=O)[O-]
REMARK SMILES IDX 15 1 16 2 17 3 18 4 19 5 20 6 21 7 22 8 23 9 24 10 25 11
REMARK SMILES IDX 26 12 27 13 28 14 29 15 30 16 14 17 13 18 12 19 11 20 10 21
REMARK SMILES IDX 9 22 8 23 7 24 6 25 5 26 4 27 3 28 2 29 1 30
REMARK H PARENT
REMARK Flexibility Score: inf
ROOT
ATOM      1  C   UNL     1     -19.852  43.674  85.558  1.00  0.00     0.000 C 
ENDROOT
BRANCH   1   2
ATOM      2  C   UNL     1     -20.335  43.869  87.004  1.00  0.00     0.000 C 
BRANCH   2   3
ATOM      3  C   UNL     1     -21.532  42.973  87.360  1.00  0.00     0.000 C 
BRANCH   3   4
ATOM      4  C   UNL     1     -21.781  42.781  88.869  1.00  0.00     0.000 C 
BRANCH   4   5
ATOM      5  C   UNL     1     -20.792  41.813  89.553  1.00  0.00     0.000 C 
BRANCH   5   6
ATOM      6  C   UNL     1     -21.239  41.409  90.971  1.00  0.00     0.000 C 
BRANCH   6   7
ATOM      7  C   UNL     1     -20.082  40.871  91.826  1.00  0.00     0.000 C 
BRANCH   7   8
ATOM      8  C   UNL     1     -18.701  41.197  91.230  1.00  0.00     0.000 C 
BRANCH   8   9
ATOM      9  C   UNL     1     -17.903  39.939  90.849  1.00  0.00     0.000 C 
BRANCH   9  10
ATOM     10  C   UNL     1     -18.655  38.639  91.183  1.00  0.00     0.000 C 
BRANCH  10  11
ATOM     11  C   UNL     1     -19.070  37.847  89.931  1.00  0.00     0.000 C 
BRANCH  11  12
ATOM     12  C   UNL     1     -19.846  38.653  88.868  1.00  0.00     0.006 C 
BRANCH  12  13
ATOM     13  C   UNL     1     -20.561  37.797  87.809  1.00  0.00     0.053 C 
BRANCH  13  14
ATOM     14  C   UNL     1     -20.687  38.511  86.498  1.00  0.00     0.041 C 
ATOM     15  O   UNL     1     -21.468  39.493  86.384  1.00  0.00    -0.550 OA
ATOM     16  O   UNL     1     -19.905  38.125  85.416  1.00  0.00    -0.550 OA
ENDBRANCH  13  14
ENDBRANCH  12  13
ENDBRANCH  11  12
ENDBRANCH  10  11
ENDBRANCH   9  10
ENDBRANCH   8   9
ENDBRANCH   7   8
ENDBRANCH   6   7
ENDBRANCH   5   6
ENDBRANCH   4   5
ENDBRANCH   3   4
ENDBRANCH   2   3
ENDBRANCH   1   2
BRANCH   1  17
ATOM     17  C   UNL     1     -18.453  44.278  85.357  1.00  0.00     0.000 C 
BRANCH  17  18
ATOM     18  C   UNL     1     -18.270  44.916  83.970  1.00  0.00     0.000 C 
BRANCH  18  19
ATOM     19  C   UNL     1     -18.885  46.321  83.808  1.00  0.00     0.000 C 
BRANCH  19  20
ATOM     20  C   UNL     1     -20.070  46.410  82.828  1.00  0.00     0.000 C 
BRANCH  20  21
ATOM     21  C   UNL     1     -21.432  46.251  83.526  1.00  0.00     0.000 C 
BRANCH  21  22
ATOM     22  C   UNL     1     -21.462  46.915  84.912  1.00  0.00    -0.000 C 
BRANCH  22  23
ATOM     23  C   UNL     1     -22.791  46.680  85.651  1.00  0.00    -0.000 C 
BRANCH  23  24
ATOM     24  C   UNL     1     -22.625  46.639  87.181  1.00  0.00    -0.000 C 
BRANCH  24  25
ATOM     25  C   UNL     1     -23.942  46.651  87.978  1.00  0.00    -0.000 C 
BRANCH  25  26
ATOM     26  C   UNL     1     -24.620  45.270  88.024  1.00  0.00    -0.000 C 
BRANCH  26  27
ATOM     27  C   UNL     1     -25.854  45.241  88.943  1.00  0.00    -0.000 C 
BRANCH  27  28
ATOM     28  C   UNL     1     -26.037  43.944  89.754  1.00  0.00    -0.000 C 
BRANCH  28  29
ATOM     29  C   UNL     1     -27.052  44.068  90.910  1.00  0.00    -0.003 C 
ATOM     30  C   UNL     1     -28.419  43.485  90.551  1.00  0.00     0.004 C 
ENDBRANCH  28  29
ENDBRANCH  27  28
ENDBRANCH  26  27
ENDBRANCH  25  26
ENDBRANCH  24  25
ENDBRANCH  23  24
ENDBRANCH  22  23
ENDBRANCH  21  22
ENDBRANCH  20  21
ENDBRANCH  19  20
ENDBRANCH  18  19
ENDBRANCH  17  18
ENDBRANCH   1  17
TORSDOF 26
ENDMDL
MODEL 9
REMARK VINA RESULT:    -4.902      1.413      5.021
REMARK INTER + INTRA:         -16.425
REMARK INTER:                 -13.508
REMARK INTRA:                  -2.916
REMARK UNBOUND:                -4.071
REMARK SMILES CCCCCCCCCCCCCCCCCCCCCCCCCCCC(=O)[O-]
REMARK SMILES IDX 15 1 16 2 17 3 18 4 19 5 20 6 21 7 22 8 23 9 24 10 25 11
REMARK SMILES IDX 26 12 27 13 28 14 29 15 30 16 14 17 13 18 12 19 11 20 10 21
REMARK SMILES IDX 9 22 8 23 7 24 6 25 5 26 4 27 3 28 2 29 1 30
REMARK H PARENT
REMARK Flexibility Score: inf
ROOT
ATOM      1  C   UNL     1     -21.045  42.244  88.293  1.00  0.00     0.000 C 
ENDROOT
BRANCH   1   2
ATOM      2  C   UNL     1     -21.083  41.689  89.726  1.00  0.00     0.000 C 
BRANCH   2   3
ATOM      3  C   UNL     1     -19.700  41.255  90.237  1.00  0.00     0.000 C 
BRANCH   3   4
ATOM      4  C   UNL     1     -19.710  40.081  91.236  1.00  0.00     0.000 C 
BRANCH   4   5
ATOM      5  C   UNL     1     -18.403  39.259  91.256  1.00  0.00     0.000 C 
BRANCH   5   6
ATOM      6  C   UNL     1     -18.464  38.024  90.339  1.00  0.00     0.000 C 
BRANCH   6   7
ATOM      7  C   UNL     1     -19.864  37.788  89.753  1.00  0.00     0.000 C 
BRANCH   7   8
ATOM      8  C   UNL     1     -19.862  37.724  88.216  1.00  0.00     0.000 C 
BRANCH   8   9
ATOM      9  C   UNL     1     -20.932  38.625  87.579  1.00  0.00     0.000 C 
BRANCH   9  10
ATOM     10  C   UNL     1     -20.860  38.631  86.042  1.00  0.00     0.000 C 
BRANCH  10  11
ATOM     11  C   UNL     1     -19.476  38.227  85.505  1.00  0.00     0.000 C 
BRANCH  11  12
ATOM     12  C   UNL     1     -19.487  37.446  84.174  1.00  0.00     0.006 C 
BRANCH  12  13
ATOM     13  C   UNL     1     -18.101  37.227  83.545  1.00  0.00     0.053 C 
BRANCH  13  14
ATOM     14  C   UNL     1     -17.454  35.967  84.032  1.00  0.00     0.041 C 
ATOM     15  O   UNL     1     -17.489  35.669  85.255  1.00  0.00    -0.550 OA
ATOM     16  O   UNL     1     -16.855  35.098  83.128  1.00  0.00    -0.550 OA
ENDBRANCH  13  14
ENDBRANCH  12  13
ENDBRANCH  11  12
ENDBRANCH  10  11
ENDBRANCH   9  10
ENDBRANCH   8   9
ENDBRANCH   7   8
ENDBRANCH   6   7
ENDBRANCH   5   6
ENDBRANCH   4   5
ENDBRANCH   3   4
ENDBRANCH   2   3
ENDBRANCH   1   2
BRANCH   1  17
ATOM     17  C   UNL     1     -22.286  43.101  88.000  1.00  0.00     0.000 C 
BRANCH  17  18
ATOM     18  C   UNL     1     -22.759  43.907  89.221  1.00  0.00     0.000 C 
BRANCH  18  19
ATOM     19  C   UNL     1     -24.256  43.763  89.562  1.00  0.00     0.000 C 
BRANCH  19  20
ATOM     20  C   UNL     1     -25.191  44.752  88.842  1.00  0.00     0.000 C 
BRANCH  20  21
ATOM     21  C   UNL     1     -24.516  46.102  88.548  1.00  0.00     0.000 C 
BRANCH  21  22
ATOM     22  C   UNL     1     -24.930  46.682  87.186  1.00  0.00    -0.000 C 
BRANCH  22  23
ATOM     23  C   UNL     1     -23.758  46.750  86.191  1.00  0.00    -0.000 C 
BRANCH  23  24
ATOM     24  C   UNL     1     -22.384  46.700  86.883  1.00  0.00    -0.000 C 
BRANCH  24  25
ATOM     25  C   UNL     1     -21.188  46.491  85.936  1.00  0.00    -0.000 C 
BRANCH  25  26
ATOM     26  C   UNL     1     -21.390  45.304  84.978  1.00  0.00    -0.000 C 
BRANCH  26  27
ATOM     27  C   UNL     1     -20.074  44.814  84.348  1.00  0.00    -0.000 C 
BRANCH  27  28
ATOM     28  C   UNL     1     -19.050  44.231  85.342  1.00  0.00    -0.000 C 
BRANCH  28  29
ATOM     29  C   UNL     1     -17.666  44.912  85.282  1.00  0.00    -0.003 C 
ATOM     30  C   UNL     1     -17.624  46.061  84.275  1.00  0.00     0.004 C 
ENDBRANCH  28  29
ENDBRANCH  27  28
ENDBRANCH  26  27
ENDBRANCH  25  26
ENDBRANCH  24  25
ENDBRANCH  23  24
ENDBRANCH  22  23
ENDBRANCH  21  22
ENDBRANCH  20  21
ENDBRANCH  19  20
ENDBRANCH  18  19
ENDBRANCH  17  18
ENDBRANCH   1  17
TORSDOF 26
ENDMDL
