MODEL 1
REMARK VINA RESULT:    -7.312      0.000      0.000
REMARK INTER + INTRA:          -9.522
REMARK INTER:                  -9.022
REMARK INTRA:                  -0.500
REMARK UNBOUND:                -0.500
REMARK SMILES C=C(CCC=C(C)C)[C@H]1CC=C(C)CC1
REMARK SMILES IDX 3 1 2 2 1 3 9 4 13 5 12 6 11 7 14 8 10 9 15 10 4 11 5 12
REMARK SMILES IDX 6 13 7 14 8 15
REMARK H PARENT
REMARK Flexibility Score: inf
ROOT
ATOM      1  C   UNL     1      15.850  29.494  24.141  1.00  0.00     0.035 C 
ENDROOT
BRANCH   1   2
ATOM      2  C   UNL     1      17.062  30.395  24.255  1.00  0.00    -0.074 C 
ATOM      3  C   UNL     1      17.114  31.530  23.534  1.00  0.00     0.008 C 
BRANCH   2   4
ATOM      4  C   UNL     1      18.170  30.026  25.231  1.00  0.00     0.018 C 
ATOM      5  C   UNL     1      20.542  28.919  28.738  1.00  0.00     0.039 C 
ATOM      6  C   UNL     1      19.604  29.274  27.617  1.00  0.00    -0.077 C 
ATOM      7  C   UNL     1      19.212  30.559  27.473  1.00  0.00    -0.027 C 
ATOM      8  C   UNL     1      19.232  28.206  26.607  1.00  0.00     0.031 C 
ATOM      9  C   UNL     1      18.232  31.006  26.416  1.00  0.00     0.035 C 
ATOM     10  C   UNL     1      18.020  28.588  25.749  1.00  0.00     0.013 C 
ENDBRANCH   2   4
ENDBRANCH   1   2
BRANCH   1  11
ATOM     11  C   UNL     1      14.979  29.863  22.933  1.00  0.00     0.032 C 
BRANCH  11  12
ATOM     12  C   UNL     1      14.562  28.646  22.142  1.00  0.00    -0.028 C 
ATOM     13  C   UNL     1      14.351  28.635  20.806  1.00  0.00    -0.080 C 
ATOM     14  C   UNL     1      13.908  27.364  20.129  1.00  0.00     0.039 C 
ATOM     15  C   UNL     1      14.603  29.848  19.945  1.00  0.00     0.039 C 
ENDBRANCH  11  12
ENDBRANCH   1  11
TORSDOF 4
ENDMDL
MODEL 2
REMARK VINA RESULT:    -7.050      2.243      7.282
REMARK INTER + INTRA:          -9.199
REMARK INTER:                  -8.677
REMARK INTRA:                  -0.522
REMARK UNBOUND:                -0.500
REMARK SMILES C=C(CCC=C(C)C)[C@H]1CC=C(C)CC1
REMARK SMILES IDX 3 1 2 2 1 3 9 4 13 5 12 6 11 7 14 8 10 9 15 10 4 11 5 12
REMARK SMILES IDX 6 13 7 14 8 15
REMARK H PARENT
REMARK Flexibility Score: inf
ROOT
ATOM      1  C   UNL     1      17.029  31.276  23.979  1.00  0.00     0.035 C 
ENDROOT
BRANCH   1   2
ATOM      2  C   UNL     1      15.850  30.588  23.323  1.00  0.00    -0.074 C 
ATOM      3  C   UNL     1      15.441  29.392  23.784  1.00  0.00     0.008 C 
BRANCH   2   4
ATOM      4  C   UNL     1      15.113  31.295  22.194  1.00  0.00     0.018 C 
ATOM      5  C   UNL     1      12.635  33.947  19.750  1.00  0.00     0.039 C 
ATOM      6  C   UNL     1      13.460  33.130  20.706  1.00  0.00    -0.077 C 
ATOM      7  C   UNL     1      12.864  32.137  21.403  1.00  0.00    -0.027 C 
ATOM      8  C   UNL     1      14.958  33.357  20.760  1.00  0.00     0.031 C 
ATOM      9  C   UNL     1      13.592  31.298  22.424  1.00  0.00     0.035 C 
ATOM     10  C   UNL     1      15.615  32.733  21.997  1.00  0.00     0.013 C 
ENDBRANCH   2   4
ENDBRANCH   1   2
BRANCH   1  11
ATOM     11  C   UNL     1      18.134  30.279  24.352  1.00  0.00     0.032 C 
BRANCH  11  12
ATOM     12  C   UNL     1      18.579  30.437  25.787  1.00  0.00    -0.028 C 
ATOM     13  C   UNL     1      18.971  29.417  26.584  1.00  0.00    -0.080 C 
ATOM     14  C   UNL     1      19.367  29.693  28.011  1.00  0.00     0.039 C 
ATOM     15  C   UNL     1      19.088  28.002  26.076  1.00  0.00     0.039 C 
ENDBRANCH  11  12
ENDBRANCH   1  11
TORSDOF 4
ENDMDL
MODEL 3
REMARK VINA RESULT:    -6.640      1.147      7.172
REMARK INTER + INTRA:          -8.693
REMARK INTER:                  -8.225
REMARK INTRA:                  -0.467
REMARK UNBOUND:                -0.500
REMARK SMILES C=C(CCC=C(C)C)[C@H]1CC=C(C)CC1
REMARK SMILES IDX 3 1 2 2 1 3 9 4 13 5 12 6 11 7 14 8 10 9 15 10 4 11 5 12
REMARK SMILES IDX 6 13 7 14 8 15
REMARK H PARENT
REMARK Flexibility Score: inf
ROOT
ATOM      1  C   UNL     1      15.594  29.970  23.894  1.00  0.00     0.035 C 
ENDROOT
BRANCH   1   2
ATOM      2  C   UNL     1      15.228  30.720  22.630  1.00  0.00    -0.074 C 
ATOM      3  C   UNL     1      15.747  31.942  22.410  1.00  0.00     0.008 C 
BRANCH   2   4
ATOM      4  C   UNL     1      14.326  30.048  21.604  1.00  0.00     0.018 C 
ATOM      5  C   UNL     1      12.667  27.743  18.275  1.00  0.00     0.039 C 
ATOM      6  C   UNL     1      13.371  28.470  19.387  1.00  0.00    -0.077 C 
ATOM      7  C   UNL     1      13.919  29.679  19.136  1.00  0.00    -0.027 C 
ATOM      8  C   UNL     1      13.329  27.887  20.787  1.00  0.00     0.031 C 
ATOM      9  C   UNL     1      14.691  30.463  20.169  1.00  0.00     0.035 C 
ATOM     10  C   UNL     1      14.359  28.517  21.730  1.00  0.00     0.013 C 
ENDBRANCH   2   4
ENDBRANCH   1   2
BRANCH   1  11
ATOM     11  C   UNL     1      16.997  30.344  24.390  1.00  0.00     0.032 C 
BRANCH  11  12
ATOM     12  C   UNL     1      17.717  29.163  24.998  1.00  0.00    -0.028 C 
ATOM     13  C   UNL     1      18.628  29.252  25.994  1.00  0.00    -0.080 C 
ATOM     14  C   UNL     1      19.303  28.004  26.502  1.00  0.00     0.039 C 
ATOM     15  C   UNL     1      18.956  30.561  26.667  1.00  0.00     0.039 C 
ENDBRANCH  11  12
ENDBRANCH   1  11
TORSDOF 4
ENDMDL
MODEL 4
REMARK VINA RESULT:    -6.521      6.538      8.770
REMARK INTER + INTRA:          -8.546
REMARK INTER:                  -7.852
REMARK INTRA:                  -0.694
REMARK UNBOUND:                -0.500
REMARK SMILES C=C(CCC=C(C)C)[C@H]1CC=C(C)CC1
REMARK SMILES IDX 3 1 2 2 1 3 9 4 13 5 12 6 11 7 14 8 10 9 15 10 4 11 5 12
REMARK SMILES IDX 6 13 7 14 8 15
REMARK H PARENT
REMARK Flexibility Score: inf
ROOT
ATOM      1  C   UNL     1       9.122  33.805  21.934  1.00  0.00     0.035 C 
ENDROOT
BRANCH   1   2
ATOM      2  C   UNL     1      10.301  32.871  21.756  1.00  0.00    -0.074 C 
ATOM      3  C   UNL     1      10.126  31.546  21.918  1.00  0.00     0.008 C 
BRANCH   2   4
ATOM      4  C   UNL     1      11.646  33.445  21.336  1.00  0.00     0.018 C 
ATOM      5  C   UNL     1      15.724  34.072  19.880  1.00  0.00     0.039 C 
ATOM      6  C   UNL     1      14.334  33.714  20.328  1.00  0.00    -0.077 C 
ATOM      7  C   UNL     1      14.153  33.222  21.573  1.00  0.00    -0.027 C 
ATOM      8  C   UNL     1      13.165  34.041  19.420  1.00  0.00     0.031 C 
ATOM      9  C   UNL     1      12.808  32.783  22.097  1.00  0.00     0.035 C 
ATOM     10  C   UNL     1      11.874  33.319  19.822  1.00  0.00     0.013 C 
ENDBRANCH   2   4
ENDBRANCH   1   2
BRANCH   1  11
ATOM     11  C   UNL     1       9.264  34.664  23.197  1.00  0.00     0.032 C 
BRANCH  11  12
ATOM     12  C   UNL     1       9.876  33.892  24.342  1.00  0.00    -0.028 C 
ATOM     13  C   UNL     1       9.175  33.137  25.218  1.00  0.00    -0.080 C 
ATOM     14  C   UNL     1       9.892  32.433  26.341  1.00  0.00     0.039 C 
ATOM     15  C   UNL     1       7.688  32.919  25.079  1.00  0.00     0.039 C 
ENDBRANCH  11  12
ENDBRANCH   1  11
TORSDOF 4
ENDMDL
MODEL 5
REMARK VINA RESULT:    -6.498      6.693      9.025
REMARK INTER + INTRA:          -8.517
REMARK INTER:                  -7.399
REMARK INTRA:                  -1.119
REMARK UNBOUND:                -0.500
REMARK SMILES C=C(CCC=C(C)C)[C@H]1CC=C(C)CC1
REMARK SMILES IDX 3 1 2 2 1 3 9 4 13 5 12 6 11 7 14 8 10 9 15 10 4 11 5 12
REMARK SMILES IDX 6 13 7 14 8 15
REMARK H PARENT
REMARK Flexibility Score: inf
ROOT
ATOM      1  C   UNL     1       8.594  32.019  21.992  1.00  0.00     0.035 C 
ENDROOT
BRANCH   1   2
ATOM      2  C   UNL     1       9.365  33.155  21.354  1.00  0.00    -0.074 C 
ATOM      3  C   UNL     1       8.741  34.321  21.103  1.00  0.00     0.008 C 
BRANCH   2   4
ATOM      4  C   UNL     1      10.849  32.975  21.065  1.00  0.00     0.018 C 
ATOM      5  C   UNL     1      15.143  33.514  20.425  1.00  0.00     0.039 C 
ATOM      6  C   UNL     1      13.665  33.472  20.695  1.00  0.00    -0.077 C 
ATOM      7  C   UNL     1      12.808  33.820  19.709  1.00  0.00    -0.027 C 
ATOM      8  C   UNL     1      13.177  32.914  22.018  1.00  0.00     0.031 C 
ATOM      9  C   UNL     1      11.312  33.863  19.897  1.00  0.00     0.035 C 
ATOM     10  C   UNL     1      11.710  33.252  22.306  1.00  0.00     0.013 C 
ENDBRANCH   2   4
ENDBRANCH   1   2
BRANCH   1  11
ATOM     11  C   UNL     1       7.815  32.484  23.229  1.00  0.00     0.032 C 
BRANCH  11  12
ATOM     12  C   UNL     1       8.555  32.179  24.511  1.00  0.00    -0.028 C 
ATOM     13  C   UNL     1       9.263  33.087  25.221  1.00  0.00    -0.080 C 
ATOM     14  C   UNL     1       9.984  32.659  26.473  1.00  0.00     0.039 C 
ATOM     15  C   UNL     1       9.310  34.545  24.838  1.00  0.00     0.039 C 
ENDBRANCH  11  12
ENDBRANCH   1  11
TORSDOF 4
ENDMDL
MODEL 6
REMARK VINA RESULT:    -6.432      4.645      7.910
REMARK INTER + INTRA:          -8.436
REMARK INTER:                  -7.444
REMARK INTRA:                  -0.993
REMARK UNBOUND:                -0.500
REMARK SMILES C=C(CCC=C(C)C)[C@H]1CC=C(C)CC1
REMARK SMILES IDX 3 1 2 2 1 3 9 4 13 5 12 6 11 7 14 8 10 9 15 10 4 11 5 12
REMARK SMILES IDX 6 13 7 14 8 15
REMARK H PARENT
REMARK Flexibility Score: inf
ROOT
ATOM      1  C   UNL     1      14.227  33.499  21.608  1.00  0.00     0.035 C 
ENDROOT
BRANCH   1   2
ATOM      2  C   UNL     1      12.797  33.221  21.193  1.00  0.00    -0.074 C 
ATOM      3  C   UNL     1      12.550  32.694  19.979  1.00  0.00     0.008 C 
BRANCH   2   4
ATOM      4  C   UNL     1      11.672  33.486  22.183  1.00  0.00     0.018 C 
ATOM      5  C   UNL     1       8.010  33.374  24.575  1.00  0.00     0.039 C 
ATOM      6  C   UNL     1       9.227  33.277  23.698  1.00  0.00    -0.077 C 
ATOM      7  C   UNL     1       9.174  33.778  22.444  1.00  0.00    -0.027 C 
ATOM      8  C   UNL     1      10.516  32.741  24.291  1.00  0.00     0.031 C 
ATOM      9  C   UNL     1      10.323  33.682  21.470  1.00  0.00     0.035 C 
ATOM     10  C   UNL     1      11.554  32.366  23.227  1.00  0.00     0.013 C 
ENDBRANCH   2   4
ENDBRANCH   1   2
BRANCH   1  11
ATOM     11  C   UNL     1      15.169  32.360  21.199  1.00  0.00     0.032 C 
BRANCH  11  12
ATOM     12  C   UNL     1      15.600  31.528  22.384  1.00  0.00    -0.028 C 
ATOM     13  C   UNL     1      15.104  30.305  22.682  1.00  0.00    -0.080 C 
ATOM     14  C   UNL     1      15.590  29.580  23.910  1.00  0.00     0.039 C 
ATOM     15  C   UNL     1      14.114  29.601  21.787  1.00  0.00     0.039 C 
ENDBRANCH  11  12
ENDBRANCH   1  11
TORSDOF 4
ENDMDL
MODEL 7
REMARK VINA RESULT:    -6.361      6.277      8.461
REMARK INTER + INTRA:          -8.348
REMARK INTER:                  -7.306
REMARK INTRA:                  -1.042
REMARK UNBOUND:                -0.500
REMARK SMILES C=C(CCC=C(C)C)[C@H]1CC=C(C)CC1
REMARK SMILES IDX 3 1 2 2 1 3 9 4 13 5 12 6 11 7 14 8 10 9 15 10 4 11 5 12
REMARK SMILES IDX 6 13 7 14 8 15
REMARK H PARENT
REMARK Flexibility Score: inf
ROOT
ATOM      1  C   UNL     1      11.040  32.762  23.507  1.00  0.00     0.035 C 
ENDROOT
BRANCH   1   2
ATOM      2  C   UNL     1      11.592  32.316  22.170  1.00  0.00    -0.074 C 
ATOM      3  C   UNL     1      11.157  31.165  21.624  1.00  0.00     0.008 C 
BRANCH   2   4
ATOM      4  C   UNL     1      12.584  33.211  21.441  1.00  0.00     0.018 C 
ATOM      5  C   UNL     1      15.715  34.862  18.869  1.00  0.00     0.039 C 
ATOM      6  C   UNL     1      14.656  34.164  19.677  1.00  0.00    -0.077 C 
ATOM      7  C   UNL     1      15.012  33.519  20.809  1.00  0.00    -0.027 C 
ATOM      8  C   UNL     1      13.203  34.319  19.268  1.00  0.00     0.031 C 
ATOM      9  C   UNL     1      14.034  32.745  21.658  1.00  0.00     0.035 C 
ATOM     10  C   UNL     1      12.280  33.294  19.938  1.00  0.00     0.013 C 
ENDBRANCH   2   4
ENDBRANCH   1   2
BRANCH   1  11
ATOM     11  C   UNL     1      10.068  33.940  23.357  1.00  0.00     0.032 C 
BRANCH  11  12
ATOM     12  C   UNL     1       8.671  33.482  23.011  1.00  0.00    -0.028 C 
ATOM     13  C   UNL     1       8.074  33.683  21.814  1.00  0.00    -0.080 C 
ATOM     14  C   UNL     1       6.662  33.205  21.593  1.00  0.00     0.039 C 
ATOM     15  C   UNL     1       8.796  34.323  20.655  1.00  0.00     0.039 C 
ENDBRANCH  11  12
ENDBRANCH   1  11
TORSDOF 4
ENDMDL
MODEL 8
REMARK VINA RESULT:    -6.344      3.600      5.660
REMARK INTER + INTRA:          -8.327
REMARK INTER:                  -7.758
REMARK INTRA:                  -0.568
REMARK UNBOUND:                -0.500
REMARK SMILES C=C(CCC=C(C)C)[C@H]1CC=C(C)CC1
REMARK SMILES IDX 3 1 2 2 1 3 9 4 13 5 12 6 11 7 14 8 10 9 15 10 4 11 5 12
REMARK SMILES IDX 6 13 7 14 8 15
REMARK H PARENT
REMARK Flexibility Score: inf
ROOT
ATOM      1  C   UNL     1      12.975  32.939  21.306  1.00  0.00     0.035 C 
ENDROOT
BRANCH   1   2
ATOM      2  C   UNL     1      13.503  31.529  21.467  1.00  0.00    -0.074 C 
ATOM      3  C   UNL     1      13.129  30.578  20.590  1.00  0.00     0.008 C 
BRANCH   2   4
ATOM      4  C   UNL     1      14.494  31.230  22.582  1.00  0.00     0.018 C 
ATOM      5  C   UNL     1      17.858  29.839  25.010  1.00  0.00     0.039 C 
ATOM      6  C   UNL     1      16.777  30.264  24.055  1.00  0.00    -0.077 C 
ATOM      7  C   UNL     1      15.771  29.405  23.778  1.00  0.00    -0.027 C 
ATOM      8  C   UNL     1      16.777  31.689  23.536  1.00  0.00     0.031 C 
ATOM      9  C   UNL     1      14.671  29.716  22.794  1.00  0.00     0.035 C 
ATOM     10  C   UNL     1      15.859  31.885  22.324  1.00  0.00     0.013 C 
ENDBRANCH   2   4
ENDBRANCH   1   2
BRANCH   1  11
ATOM     11  C   UNL     1      11.523  33.062  21.785  1.00  0.00     0.032 C 
BRANCH  11  12
ATOM     12  C   UNL     1      11.379  32.723  23.249  1.00  0.00    -0.028 C 
ATOM     13  C   UNL     1      10.487  33.301  24.085  1.00  0.00    -0.080 C 
ATOM     14  C   UNL     1      10.454  32.901  25.538  1.00  0.00     0.039 C 
ATOM     15  C   UNL     1       9.466  34.301  23.602  1.00  0.00     0.039 C 
ENDBRANCH  11  12
ENDBRANCH   1  11
TORSDOF 4
ENDMDL
MODEL 9
REMARK VINA RESULT:    -6.144      6.867      8.936
REMARK INTER + INTRA:          -8.081
REMARK INTER:                  -7.453
REMARK INTRA:                  -0.628
REMARK UNBOUND:                -0.500
REMARK SMILES C=C(CCC=C(C)C)[C@H]1CC=C(C)CC1
REMARK SMILES IDX 3 1 2 2 1 3 9 4 13 5 12 6 11 7 14 8 10 9 15 10 4 11 5 12
REMARK SMILES IDX 6 13 7 14 8 15
REMARK H PARENT
REMARK Flexibility Score: inf
ROOT
ATOM      1  C   UNL     1      11.871  33.884  19.997  1.00  0.00     0.035 C 
ENDROOT
BRANCH   1   2
ATOM      2  C   UNL     1      12.030  33.379  21.416  1.00  0.00    -0.074 C 
ATOM      3  C   UNL     1      13.262  33.269  21.946  1.00  0.00     0.008 C 
BRANCH   2   4
ATOM      4  C   UNL     1      10.786  33.066  22.235  1.00  0.00     0.018 C 
ATOM      5  C   UNL     1       7.407  33.134  25.015  1.00  0.00     0.039 C 
ATOM      6  C   UNL     1       8.591  33.256  24.096  1.00  0.00    -0.077 C 
ATOM      7  C   UNL     1       9.822  32.960  24.570  1.00  0.00    -0.027 C 
ATOM      8  C   UNL     1       8.355  33.579  22.634  1.00  0.00     0.031 C 
ATOM      9  C   UNL     1      11.077  33.102  23.746  1.00  0.00     0.035 C 
ATOM     10  C   UNL     1       9.628  34.019  21.903  1.00  0.00     0.013 C 
ENDBRANCH   2   4
ENDBRANCH   1   2
BRANCH   1  11
ATOM     11  C   UNL     1      12.999  33.381  19.086  1.00  0.00     0.032 C 
BRANCH  11  12
ATOM     12  C   UNL     1      13.858  34.512  18.572  1.00  0.00    -0.028 C 
ATOM     13  C   UNL     1      15.196  34.600  18.753  1.00  0.00    -0.080 C 
ATOM     14  C   UNL     1      15.946  35.793  18.219  1.00  0.00     0.039 C 
ATOM     15  C   UNL     1      15.988  33.507  19.425  1.00  0.00     0.039 C 
ENDBRANCH  11  12
ENDBRANCH   1  11
TORSDOF 4
ENDMDL
