MODEL 1
REMARK VINA RESULT:     0.000      0.000      0.000
REMARK INTER + INTRA:           0.000
REMARK INTER:                   0.000
REMARK INTRA:                   0.000
REMARK UNBOUND:                 0.000
REMARK SMILES CC1(C)[C@H]2CC[C@](C)(C2)[C@@H]1O
REMARK SMILES IDX 1 1 2 2 4 3 5 4 6 5 7 6 9 7 10 8 8 9 3 10 11 11
REMARK H PARENT 11 12
REMARK Flexibility Score: inf
ROOT
ATOM      1  C   UNL     1     118.423 125.445 124.987  1.00  0.00     0.014 C 
ATOM      2  C   UNL     1     117.077 126.181 124.779  1.00  0.00    -0.006 C 
ATOM      3  C   UNL     1     116.502 126.038 123.329  1.00  0.00    -0.002 C 
ATOM      4  C   UNL     1     116.519 124.568 122.860  1.00  0.00     0.005 C 
ATOM      5  C   UNL     1     115.467 123.910 123.766  1.00  0.00     0.010 C 
ATOM      6  C   UNL     1     114.903 125.110 124.562  1.00  0.00    -0.006 C 
ATOM      7  C   UNL     1     115.012 126.228 123.549  1.00  0.00     0.013 C 
ATOM      8  C   UNL     1     115.938 125.532 125.638  1.00  0.00     0.126 C 
ATOM      9  C   UNL     1     113.481 124.873 125.088  1.00  0.00     0.014 C 
ATOM     10  C   UNL     1     117.317 127.681 125.099  1.00  0.00     0.014 C 
ENDROOT
BRANCH   8  11
ATOM     11  O   UNL     1     115.366 126.446 126.542  1.00  0.00    -0.392 OA
ATOM     12  H   UNL     1     114.715 126.988 126.024  1.00  0.00     0.211 HD
ENDBRANCH   8  11
TORSDOF 1
ENDMDL
MODEL 2
REMARK VINA RESULT:     0.000      1.574      2.232
REMARK INTER + INTRA:           0.000
REMARK INTER:                   0.000
REMARK INTRA:                   0.000
REMARK UNBOUND:                 0.000
REMARK SMILES CC1(C)[C@H]2CC[C@](C)(C2)[C@@H]1O
REMARK SMILES IDX 1 1 2 2 4 3 5 4 6 5 7 6 9 7 10 8 8 9 3 10 11 11
REMARK H PARENT 11 12
REMARK Flexibility Score: inf
ROOT
ATOM      1  C   UNL     1     119.997 125.112 125.994  1.00  0.00     0.014 C 
ATOM      2  C   UNL     1     118.846 125.650 125.109  1.00  0.00    -0.006 C 
ATOM      3  C   UNL     1     118.960 125.223 123.606  1.00  0.00    -0.002 C 
ATOM      4  C   UNL     1     119.233 123.710 123.470  1.00  0.00     0.005 C 
ATOM      5  C   UNL     1     117.920 123.082 123.958  1.00  0.00     0.010 C 
ATOM      6  C   UNL     1     117.021 124.316 124.206  1.00  0.00    -0.006 C 
ATOM      7  C   UNL     1     117.514 125.273 123.143  1.00  0.00     0.013 C 
ATOM      8  C   UNL     1     117.473 125.012 125.518  1.00  0.00     0.126 C 
ATOM      9  C   UNL     1     115.522 124.000 124.123  1.00  0.00     0.014 C 
ATOM     10  C   UNL     1     118.867 127.198 125.214  1.00  0.00     0.014 C 
ENDROOT
BRANCH   8  11
ATOM     11  O   UNL     1     116.533 125.981 125.912  1.00  0.00    -0.392 OA
ATOM     12  H   UNL     1     115.645 125.538 125.895  1.00  0.00     0.211 HD
ENDBRANCH   8  11
TORSDOF 1
ENDMDL
MODEL 3
REMARK VINA RESULT:     0.000      2.037      2.515
REMARK INTER + INTRA:           0.000
REMARK INTER:                   0.000
REMARK INTRA:                   0.000
REMARK UNBOUND:                 0.000
REMARK SMILES CC1(C)[C@H]2CC[C@](C)(C2)[C@@H]1O
REMARK SMILES IDX 1 1 2 2 4 3 5 4 6 5 7 6 9 7 10 8 8 9 3 10 11 11
REMARK H PARENT 11 12
REMARK Flexibility Score: inf
ROOT
ATOM      1  C   UNL     1     119.287 125.689 126.835  1.00  0.00     0.014 C 
ATOM      2  C   UNL     1     117.773 125.975 126.689  1.00  0.00    -0.006 C 
ATOM      3  C   UNL     1     117.129 125.313 125.424  1.00  0.00    -0.002 C 
ATOM      4  C   UNL     1     117.525 123.826 125.304  1.00  0.00     0.005 C 
ATOM      5  C   UNL     1     116.799 123.183 126.495  1.00  0.00     0.010 C 
ATOM      6  C   UNL     1     115.990 124.364 127.080  1.00  0.00    -0.006 C 
ATOM      7  C   UNL     1     115.675 125.166 125.837  1.00  0.00     0.013 C 
ATOM      8  C   UNL     1     116.957 125.305 127.849  1.00  0.00     0.126 C 
ATOM      9  C   UNL     1     114.754 123.918 127.872  1.00  0.00     0.014 C 
ATOM     10  C   UNL     1     117.598 127.515 126.618  1.00  0.00     0.014 C 
ENDROOT
BRANCH   8  11
ATOM     11  O   UNL     1     116.233 126.247 128.604  1.00  0.00    -0.392 OA
ATOM     12  H   UNL     1     115.883 126.916 127.961  1.00  0.00     0.211 HD
ENDBRANCH   8  11
TORSDOF 1
ENDMDL
MODEL 4
REMARK VINA RESULT:     0.000      5.544      7.248
REMARK INTER + INTRA:           0.000
REMARK INTER:                   0.000
REMARK INTRA:                   0.000
REMARK UNBOUND:                 0.000
REMARK SMILES CC1(C)[C@H]2CC[C@](C)(C2)[C@@H]1O
REMARK SMILES IDX 1 1 2 2 4 3 5 4 6 5 7 6 9 7 10 8 8 9 3 10 11 11
REMARK H PARENT 11 12
REMARK Flexibility Score: inf
ROOT
ATOM      1  C   UNL     1     119.607 124.903 130.150  1.00  0.00     0.014 C 
ATOM      2  C   UNL     1     121.031 124.767 129.557  1.00  0.00    -0.006 C 
ATOM      3  C   UNL     1     121.107 123.808 128.321  1.00  0.00    -0.002 C 
ATOM      4  C   UNL     1     120.002 124.127 127.292  1.00  0.00     0.005 C 
ATOM      5  C   UNL     1     120.428 125.499 126.750  1.00  0.00     0.010 C 
ATOM      6  C   UNL     1     121.782 125.741 127.456  1.00  0.00    -0.006 C 
ATOM      7  C   UNL     1     122.322 124.333 127.575  1.00  0.00     0.013 C 
ATOM      8  C   UNL     1     121.517 126.123 128.938  1.00  0.00     0.126 C 
ATOM      9  C   UNL     1     122.700 126.705 126.693  1.00  0.00     0.014 C 
ATOM     10  C   UNL     1     121.953 124.236 130.687  1.00  0.00     0.014 C 
ENDROOT
BRANCH   8  11
ATOM     11  O   UNL     1     122.695 126.594 129.545  1.00  0.00    -0.392 OA
ATOM     12  H   UNL     1     122.414 127.225 130.257  1.00  0.00     0.211 HD
ENDBRANCH   8  11
TORSDOF 1
ENDMDL
MODEL 5
REMARK VINA RESULT:     0.000      4.597      6.074
REMARK INTER + INTRA:           0.000
REMARK INTER:                   0.000
REMARK INTRA:                   0.000
REMARK UNBOUND:                 0.000
REMARK SMILES CC1(C)[C@H]2CC[C@](C)(C2)[C@@H]1O
REMARK SMILES IDX 1 1 2 2 4 3 5 4 6 5 7 6 9 7 10 8 8 9 3 10 11 11
REMARK H PARENT 11 12
REMARK Flexibility Score: inf
ROOT
ATOM      1  C   UNL     1     119.607 124.903 130.150  1.00  0.00     0.014 C 
ATOM      2  C   UNL     1     120.315 125.340 128.844  1.00  0.00    -0.006 C 
ATOM      3  C   UNL     1     119.439 125.145 127.560  1.00  0.00    -0.002 C 
ATOM      4  C   UNL     1     118.021 125.721 127.755  1.00  0.00     0.005 C 
ATOM      5  C   UNL     1     118.274 127.233 127.831  1.00  0.00     0.010 C 
ATOM      6  C   UNL     1     119.792 127.340 127.559  1.00  0.00    -0.006 C 
ATOM      7  C   UNL     1     120.016 126.182 126.611  1.00  0.00     0.013 C 
ATOM      8  C   UNL     1     120.564 126.888 128.828  1.00  0.00     0.126 C 
ATOM      9  C   UNL     1     120.212 128.704 126.996  1.00  0.00     0.014 C 
ATOM     10  C   UNL     1     121.615 124.502 128.720  1.00  0.00     0.014 C 
ENDROOT
BRANCH   8  11
ATOM     11  O   UNL     1     121.930 127.207 128.714  1.00  0.00    -0.392 OA
ATOM     12  H   UNL     1     122.379 126.818 129.510  1.00  0.00     0.211 HD
ENDBRANCH   8  11
TORSDOF 1
ENDMDL
MODEL 6
REMARK VINA RESULT:     0.000      4.099      5.437
REMARK INTER + INTRA:           0.000
REMARK INTER:                   0.000
REMARK INTRA:                   0.000
REMARK UNBOUND:                 0.000
REMARK SMILES CC1(C)[C@H]2CC[C@](C)(C2)[C@@H]1O
REMARK SMILES IDX 1 1 2 2 4 3 5 4 6 5 7 6 9 7 10 8 8 9 3 10 11 11
REMARK H PARENT 11 12
REMARK Flexibility Score: inf
ROOT
ATOM      1  C   UNL     1     119.607 124.903 130.150  1.00  0.00     0.014 C 
ATOM      2  C   UNL     1     119.302 125.653 128.830  1.00  0.00    -0.006 C 
ATOM      3  C   UNL     1     117.937 125.246 128.178  1.00  0.00    -0.002 C 
ATOM      4  C   UNL     1     116.793 125.260 129.214  1.00  0.00     0.005 C 
ATOM      5  C   UNL     1     116.644 126.754 129.535  1.00  0.00     0.010 C 
ATOM      6  C   UNL     1     117.645 127.416 128.561  1.00  0.00    -0.006 C 
ATOM      7  C   UNL     1     117.579 126.482 127.372  1.00  0.00     0.013 C 
ATOM      8  C   UNL     1     119.088 127.185 129.087  1.00  0.00     0.126 C 
ATOM      9  C   UNL     1     117.300 128.875 128.236  1.00  0.00     0.014 C 
ATOM     10  C   UNL     1     120.462 125.346 127.846  1.00  0.00     0.014 C 
ENDROOT
BRANCH   8  11
ATOM     11  O   UNL     1     120.006 127.978 128.375  1.00  0.00    -0.392 OA
ATOM     12  H   UNL     1     120.910 127.722 128.696  1.00  0.00     0.211 HD
ENDBRANCH   8  11
TORSDOF 1
ENDMDL
MODEL 7
REMARK VINA RESULT:     0.000      4.307      6.076
REMARK INTER + INTRA:           0.000
REMARK INTER:                   0.000
REMARK INTRA:                   0.000
REMARK UNBOUND:                 0.000
REMARK SMILES CC1(C)[C@H]2CC[C@](C)(C2)[C@@H]1O
REMARK SMILES IDX 1 1 2 2 4 3 5 4 6 5 7 6 9 7 10 8 8 9 3 10 11 11
REMARK H PARENT 11 12
REMARK Flexibility Score: inf
ROOT
ATOM      1  C   UNL     1     119.951 123.657 128.946  1.00  0.00     0.014 C 
ATOM      2  C   UNL     1     120.708 123.261 127.654  1.00  0.00    -0.006 C 
ATOM      3  C   UNL     1     119.781 122.658 126.545  1.00  0.00    -0.002 C 
ATOM      4  C   UNL     1     118.529 123.532 126.323  1.00  0.00     0.005 C 
ATOM      5  C   UNL     1     119.109 124.808 125.698  1.00  0.00     0.010 C 
ATOM      6  C   UNL     1     120.608 124.460 125.539  1.00  0.00    -0.006 C 
ATOM      7  C   UNL     1     120.550 122.972 125.273  1.00  0.00     0.013 C 
ATOM      8  C   UNL     1     121.291 124.524 126.931  1.00  0.00     0.126 C 
ATOM      9  C   UNL     1     121.304 125.270 124.437  1.00  0.00     0.014 C 
ATOM     10  C   UNL     1     121.789 122.221 128.053  1.00  0.00     0.014 C 
ENDROOT
BRANCH   8  11
ATOM     11  O   UNL     1     122.690 124.464 126.798  1.00  0.00    -0.392 OA
ATOM     12  H   UNL     1     122.896 123.593 126.369  1.00  0.00     0.211 HD
ENDBRANCH   8  11
TORSDOF 1
ENDMDL
MODEL 8
REMARK VINA RESULT:     0.000     13.657     14.662
REMARK INTER + INTRA:           0.000
REMARK INTER:                   0.000
REMARK INTRA:                   0.000
REMARK UNBOUND:                 0.000
REMARK SMILES CC1(C)[C@H]2CC[C@](C)(C2)[C@@H]1O
REMARK SMILES IDX 1 1 2 2 4 3 5 4 6 5 7 6 9 7 10 8 8 9 3 10 11 11
REMARK H PARENT 11 12
REMARK Flexibility Score: inf
ROOT
ATOM      1  C   UNL     1     124.034 114.662 124.890  1.00  0.00     0.014 C 
ATOM      2  C   UNL     1     125.425 114.741 125.567  1.00  0.00    -0.006 C 
ATOM      3  C   UNL     1     126.619 114.583 124.566  1.00  0.00    -0.002 C 
ATOM      4  C   UNL     1     126.444 115.494 123.334  1.00  0.00     0.005 C 
ATOM      5  C   UNL     1     126.610 116.902 123.924  1.00  0.00     0.010 C 
ATOM      6  C   UNL     1     126.970 116.614 125.400  1.00  0.00    -0.006 C 
ATOM      7  C   UNL     1     127.741 115.318 125.280  1.00  0.00     0.013 C 
ATOM      8  C   UNL     1     125.687 116.171 126.154  1.00  0.00     0.126 C 
ATOM      9  C   UNL     1     127.752 117.753 126.066  1.00  0.00     0.014 C 
ATOM     10  C   UNL     1     125.484 113.613 126.632  1.00  0.00     0.014 C 
ENDROOT
BRANCH   8  11
ATOM     11  O   UNL     1     125.915 116.143 127.542  1.00  0.00    -0.392 OA
ATOM     12  H   UNL     1     125.265 115.497 127.923  1.00  0.00     0.211 HD
ENDBRANCH   8  11
TORSDOF 1
ENDMDL
MODEL 9
REMARK VINA RESULT:     0.000     14.042     15.508
REMARK INTER + INTRA:           0.000
REMARK INTER:                   0.000
REMARK INTRA:                   0.000
REMARK UNBOUND:                 0.000
REMARK SMILES CC1(C)[C@H]2CC[C@](C)(C2)[C@@H]1O
REMARK SMILES IDX 1 1 2 2 4 3 5 4 6 5 7 6 9 7 10 8 8 9 3 10 11 11
REMARK H PARENT 11 12
REMARK Flexibility Score: inf
ROOT
ATOM      1  C   UNL     1     124.034 114.662 124.890  1.00  0.00     0.014 C 
ATOM      2  C   UNL     1     125.478 114.165 124.631  1.00  0.00    -0.006 C 
ATOM      3  C   UNL     1     125.561 112.990 123.598  1.00  0.00    -0.002 C 
ATOM      4  C   UNL     1     124.742 113.300 122.327  1.00  0.00     0.005 C 
ATOM      5  C   UNL     1     125.535 114.446 121.682  1.00  0.00     0.010 C 
ATOM      6  C   UNL     1     126.768 114.572 122.608  1.00  0.00    -0.006 C 
ATOM      7  C   UNL     1     126.968 113.139 123.048  1.00  0.00     0.013 C 
ATOM      8  C   UNL     1     126.338 115.270 123.926  1.00  0.00     0.126 C 
ATOM      9  C   UNL     1     127.985 115.194 121.912  1.00  0.00     0.014 C 
ATOM     10  C   UNL     1     126.058 113.702 125.994  1.00  0.00     0.014 C 
ENDROOT
BRANCH   8  11
ATOM     11  O   UNL     1     127.468 115.630 124.685  1.00  0.00    -0.392 OA
ATOM     12  H   UNL     1     127.171 115.675 125.631  1.00  0.00     0.211 HD
ENDBRANCH   8  11
TORSDOF 1
ENDMDL
