MODEL 1
REMARK VINA RESULT:    -6.443      0.000      0.000
REMARK INTER + INTRA:         -14.082
REMARK INTER:                 -11.716
REMARK INTRA:                  -2.366
REMARK UNBOUND:                -2.366
REMARK SMILES CCCCCC=CCC=CCCCCCCCC(=O)[O-]
REMARK SMILES IDX 11 1 12 2 13 3 14 4 15 5 16 6 17 7 18 8 19 9 20 10 10 11
REMARK SMILES IDX 9 12 8 13 7 14 6 15 5 16 4 17 3 18 2 19 1 20
REMARK H PARENT
REMARK Flexibility Score: inf
ROOT
ATOM      1  C   UNL     1     108.049 104.451 108.773  1.00  0.00     0.027 C 
ENDROOT
BRANCH   1   2
ATOM      2  C   UNL     1     107.722 104.348 107.274  1.00  0.00     0.004 C 
BRANCH   2   3
ATOM      3  C   UNL     1     106.673 105.363 106.783  1.00  0.00     0.000 C 
BRANCH   3   4
ATOM      4  C   UNL     1     105.503 104.701 106.040  1.00  0.00     0.000 C 
BRANCH   4   5
ATOM      5  C   UNL     1     105.681 103.179 105.982  1.00  0.00     0.000 C 
BRANCH   5   6
ATOM      6  C   UNL     1     105.325 102.636 104.592  1.00  0.00     0.006 C 
BRANCH   6   7
ATOM      7  C   UNL     1     105.880 101.223 104.396  1.00  0.00     0.053 C 
BRANCH   7   8
ATOM      8  C   UNL     1     104.974 100.213 105.026  1.00  0.00     0.041 C 
ATOM      9  O   UNL     1     103.750 100.190 104.735  1.00  0.00    -0.550 OA
ATOM     10  O   UNL     1     105.472  99.328 105.975  1.00  0.00    -0.550 OA
ENDBRANCH   7   8
ENDBRANCH   6   7
ENDBRANCH   5   6
ENDBRANCH   4   5
ENDBRANCH   3   4
ENDBRANCH   2   3
ENDBRANCH   1   2
BRANCH   1  11
ATOM     11  C   UNL     1     107.089 103.655 109.623  1.00  0.00    -0.031 C 
ATOM     12  C   UNL     1     105.998 104.165 110.223  1.00  0.00    -0.027 C 
BRANCH  12  13
ATOM     13  C   UNL     1     105.608 105.620 110.189  1.00  0.00     0.054 C 
BRANCH  13  14
ATOM     14  C   UNL     1     104.206 105.795 109.673  1.00  0.00    -0.027 C 
ATOM     15  C   UNL     1     103.213 105.011 110.112  1.00  0.00    -0.031 C 
BRANCH  15  16
ATOM     16  C   UNL     1     101.805 105.156 109.597  1.00  0.00     0.027 C 
BRANCH  16  17
ATOM     17  C   UNL     1     101.338 103.920 108.814  1.00  0.00     0.004 C 
BRANCH  17  18
ATOM     18  C   UNL     1     102.226 103.643 107.589  1.00  0.00     0.000 C 
BRANCH  18  19
ATOM     19  C   UNL     1     101.737 104.376 106.329  1.00  0.00    -0.003 C 
ATOM     20  C   UNL     1     101.715 103.479 105.092  1.00  0.00     0.004 C 
ENDBRANCH  18  19
ENDBRANCH  17  18
ENDBRANCH  16  17
ENDBRANCH  15  16
ENDBRANCH  13  14
ENDBRANCH  12  13
ENDBRANCH   1  11
TORSDOF 14
ENDMDL
MODEL 2
REMARK VINA RESULT:    -6.413      5.806      7.880
REMARK INTER + INTRA:         -14.028
REMARK INTER:                 -12.597
REMARK INTRA:                  -1.432
REMARK UNBOUND:                -2.366
REMARK SMILES CCCCCC=CCC=CCCCCCCCC(=O)[O-]
REMARK SMILES IDX 11 1 12 2 13 3 14 4 15 5 16 6 17 7 18 8 19 9 20 10 10 11
REMARK SMILES IDX 9 12 8 13 7 14 6 15 5 16 4 17 3 18 2 19 1 20
REMARK H PARENT
REMARK Flexibility Score: inf
ROOT
ATOM      1  C   UNL     1     107.244 107.498 104.626  1.00  0.00     0.027 C 
ENDROOT
BRANCH   1   2
ATOM      2  C   UNL     1     106.800 106.125 104.095  1.00  0.00     0.004 C 
BRANCH   2   3
ATOM      3  C   UNL     1     106.464 105.099 105.194  1.00  0.00     0.000 C 
BRANCH   3   4
ATOM      4  C   UNL     1     107.000 105.506 106.575  1.00  0.00     0.000 C 
BRANCH   4   5
ATOM      5  C   UNL     1     107.514 104.285 107.346  1.00  0.00     0.000 C 
BRANCH   5   6
ATOM      6  C   UNL     1     107.858 104.654 108.795  1.00  0.00     0.006 C 
BRANCH   6   7
ATOM      7  C   UNL     1     106.870 104.011 109.774  1.00  0.00     0.053 C 
BRANCH   7   8
ATOM      8  C   UNL     1     105.781 104.974 110.124  1.00  0.00     0.041 C 
ATOM      9  O   UNL     1     104.618 104.556 110.364  1.00  0.00    -0.550 OA
ATOM     10  O   UNL     1     106.037 106.340 110.137  1.00  0.00    -0.550 OA
ENDBRANCH   7   8
ENDBRANCH   6   7
ENDBRANCH   5   6
ENDBRANCH   4   5
ENDBRANCH   3   4
ENDBRANCH   2   3
ENDBRANCH   1   2
BRANCH   1  11
ATOM     11  C   UNL     1     106.159 108.539 104.495  1.00  0.00    -0.031 C 
ATOM     12  C   UNL     1     105.970 109.314 103.411  1.00  0.00    -0.027 C 
BRANCH  12  13
ATOM     13  C   UNL     1     106.855 109.302 102.191  1.00  0.00     0.054 C 
BRANCH  13  14
ATOM     14  C   UNL     1     106.150 108.688 101.013  1.00  0.00    -0.027 C 
ATOM     15  C   UNL     1     105.074 107.910 101.190  1.00  0.00    -0.031 C 
BRANCH  15  16
ATOM     16  C   UNL     1     104.363 107.270 100.027  1.00  0.00     0.027 C 
BRANCH  16  17
ATOM     17  C   UNL     1     104.643 107.991  98.700  1.00  0.00     0.004 C 
BRANCH  17  18
ATOM     18  C   UNL     1     103.497 108.938  98.304  1.00  0.00     0.000 C 
BRANCH  18  19
ATOM     19  C   UNL     1     103.968 110.391  98.130  1.00  0.00    -0.003 C 
ATOM     20  C   UNL     1     105.454 110.496  97.790  1.00  0.00     0.004 C 
ENDBRANCH  18  19
ENDBRANCH  17  18
ENDBRANCH  16  17
ENDBRANCH  15  16
ENDBRANCH  13  14
ENDBRANCH  12  13
ENDBRANCH   1  11
TORSDOF 14
ENDMDL
MODEL 3
REMARK VINA RESULT:    -6.223      2.713      5.233
REMARK INTER + INTRA:         -13.682
REMARK INTER:                 -11.357
REMARK INTRA:                  -2.326
REMARK UNBOUND:                -2.366
REMARK SMILES CCCCCC=CCC=CCCCCCCCC(=O)[O-]
REMARK SMILES IDX 11 1 12 2 13 3 14 4 15 5 16 6 17 7 18 8 19 9 20 10 10 11
REMARK SMILES IDX 9 12 8 13 7 14 6 15 5 16 4 17 3 18 2 19 1 20
REMARK H PARENT
REMARK Flexibility Score: inf
ROOT
ATOM      1  C   UNL     1     104.700 104.238 110.377  1.00  0.00     0.027 C 
ENDROOT
BRANCH   1   2
ATOM      2  C   UNL     1     103.224 104.343 110.799  1.00  0.00     0.004 C 
BRANCH   2   3
ATOM      3  C   UNL     1     102.327 105.082 109.787  1.00  0.00     0.000 C 
BRANCH   3   4
ATOM      4  C   UNL     1     101.450 104.129 108.961  1.00  0.00     0.000 C 
BRANCH   4   5
ATOM      5  C   UNL     1     101.555 104.444 107.465  1.00  0.00     0.000 C 
BRANCH   5   6
ATOM      6  C   UNL     1     103.017 104.651 107.048  1.00  0.00     0.006 C 
BRANCH   6   7
ATOM      7  C   UNL     1     103.125 105.674 105.914  1.00  0.00     0.053 C 
BRANCH   7   8
ATOM      8  C   UNL     1     103.943 106.849 106.346  1.00  0.00     0.041 C 
ATOM      9  O   UNL     1     103.977 107.187 107.559  1.00  0.00    -0.550 OA
ATOM     10  O   UNL     1     104.631 107.604 105.403  1.00  0.00    -0.550 OA
ENDBRANCH   7   8
ENDBRANCH   6   7
ENDBRANCH   5   6
ENDBRANCH   4   5
ENDBRANCH   3   4
ENDBRANCH   2   3
ENDBRANCH   1   2
BRANCH   1  11
ATOM     11  C   UNL     1     105.383 105.584 110.350  1.00  0.00    -0.031 C 
ATOM     12  C   UNL     1     106.499 105.860 109.650  1.00  0.00    -0.027 C 
BRANCH  12  13
ATOM     13  C   UNL     1     107.268 104.849 108.840  1.00  0.00     0.054 C 
BRANCH  13  14
ATOM     14  C   UNL     1     107.006 105.018 107.368  1.00  0.00    -0.027 C 
ATOM     15  C   UNL     1     106.727 103.959 106.598  1.00  0.00    -0.031 C 
BRANCH  15  16
ATOM     16  C   UNL     1     106.478 104.102 105.119  1.00  0.00     0.027 C 
BRANCH  16  17
ATOM     17  C   UNL     1     105.494 103.051 104.587  1.00  0.00     0.004 C 
BRANCH  17  18
ATOM     18  C   UNL     1     105.314 101.878 105.566  1.00  0.00     0.000 C 
BRANCH  18  19
ATOM     19  C   UNL     1     104.894 100.579 104.859  1.00  0.00    -0.003 C 
ATOM     20  C   UNL     1     105.420  99.326 105.559  1.00  0.00     0.004 C 
ENDBRANCH  18  19
ENDBRANCH  17  18
ENDBRANCH  16  17
ENDBRANCH  15  16
ENDBRANCH  13  14
ENDBRANCH  12  13
ENDBRANCH   1  11
TORSDOF 14
ENDMDL
MODEL 4
REMARK VINA RESULT:    -6.196      2.428      4.289
REMARK INTER + INTRA:         -13.634
REMARK INTER:                 -11.697
REMARK INTRA:                  -1.937
REMARK UNBOUND:                -2.366
REMARK SMILES CCCCCC=CCC=CCCCCCCCC(=O)[O-]
REMARK SMILES IDX 11 1 12 2 13 3 14 4 15 5 16 6 17 7 18 8 19 9 20 10 10 11
REMARK SMILES IDX 9 12 8 13 7 14 6 15 5 16 4 17 3 18 2 19 1 20
REMARK H PARENT
REMARK Flexibility Score: inf
ROOT
ATOM      1  C   UNL     1     103.347 104.331 110.934  1.00  0.00     0.027 C 
ENDROOT
BRANCH   1   2
ATOM      2  C   UNL     1     104.558 105.042 110.307  1.00  0.00     0.004 C 
BRANCH   2   3
ATOM      3  C   UNL     1     105.920 104.444 110.707  1.00  0.00     0.000 C 
BRANCH   3   4
ATOM      4  C   UNL     1     106.582 103.654 109.568  1.00  0.00     0.000 C 
BRANCH   4   5
ATOM      5  C   UNL     1     107.660 104.493 108.872  1.00  0.00     0.000 C 
BRANCH   5   6
ATOM      6  C   UNL     1     107.384 104.604 107.367  1.00  0.00     0.006 C 
BRANCH   6   7
ATOM      7  C   UNL     1     106.162 103.770 106.969  1.00  0.00     0.053 C 
BRANCH   7   8
ATOM      8  C   UNL     1     106.154 103.527 105.493  1.00  0.00     0.041 C 
ATOM      9  O   UNL     1     106.272 104.491 104.691  1.00  0.00    -0.550 OA
ATOM     10  O   UNL     1     105.963 102.242 105.000  1.00  0.00    -0.550 OA
ENDBRANCH   7   8
ENDBRANCH   6   7
ENDBRANCH   5   6
ENDBRANCH   4   5
ENDBRANCH   3   4
ENDBRANCH   2   3
ENDBRANCH   1   2
BRANCH   1  11
ATOM     11  C   UNL     1     102.979 103.069 110.194  1.00  0.00    -0.031 C 
ATOM     12  C   UNL     1     102.068 102.999 109.206  1.00  0.00    -0.027 C 
BRANCH  12  13
ATOM     13  C   UNL     1     101.231 104.161 108.737  1.00  0.00     0.054 C 
BRANCH  13  14
ATOM     14  C   UNL     1     101.646 104.610 107.362  1.00  0.00    -0.027 C 
ATOM     15  C   UNL     1     102.737 105.368 107.191  1.00  0.00    -0.031 C 
BRANCH  15  16
ATOM     16  C   UNL     1     103.162 105.843 105.826  1.00  0.00     0.027 C 
BRANCH  16  17
ATOM     17  C   UNL     1     103.954 107.157 105.885  1.00  0.00     0.004 C 
BRANCH  17  18
ATOM     18  C   UNL     1     103.541 108.131 104.768  1.00  0.00     0.000 C 
BRANCH  18  19
ATOM     19  C   UNL     1     103.154 107.407 103.468  1.00  0.00    -0.003 C 
ATOM     20  C   UNL     1     104.347 107.175 102.541  1.00  0.00     0.004 C 
ENDBRANCH  18  19
ENDBRANCH  17  18
ENDBRANCH  16  17
ENDBRANCH  15  16
ENDBRANCH  13  14
ENDBRANCH  12  13
ENDBRANCH   1  11
TORSDOF 14
ENDMDL
MODEL 5
REMARK VINA RESULT:    -6.189      3.416      5.613
REMARK INTER + INTRA:         -13.621
REMARK INTER:                 -10.880
REMARK INTRA:                  -2.741
REMARK UNBOUND:                -2.366
REMARK SMILES CCCCCC=CCC=CCCCCCCCC(=O)[O-]
REMARK SMILES IDX 11 1 12 2 13 3 14 4 15 5 16 6 17 7 18 8 19 9 20 10 10 11
REMARK SMILES IDX 9 12 8 13 7 14 6 15 5 16 4 17 3 18 2 19 1 20
REMARK H PARENT
REMARK Flexibility Score: inf
ROOT
ATOM      1  C   UNL     1     102.255 105.147 109.677  1.00  0.00     0.027 C 
ENDROOT
BRANCH   1   2
ATOM      2  C   UNL     1     101.367 104.188 108.865  1.00  0.00     0.004 C 
BRANCH   2   3
ATOM      3  C   UNL     1     101.446 104.390 107.340  1.00  0.00     0.000 C 
BRANCH   3   4
ATOM      4  C   UNL     1     102.637 105.262 106.914  1.00  0.00     0.000 C 
BRANCH   4   5
ATOM      5  C   UNL     1     102.729 105.358 105.387  1.00  0.00     0.000 C 
BRANCH   5   6
ATOM      6  C   UNL     1     103.696 106.471 104.963  1.00  0.00     0.006 C 
BRANCH   6   7
ATOM      7  C   UNL     1     103.720 107.601 105.996  1.00  0.00     0.053 C 
BRANCH   7   8
ATOM      8  C   UNL     1     104.082 108.897 105.344  1.00  0.00     0.041 C 
ATOM      9  O   UNL     1     103.491 109.960 105.672  1.00  0.00    -0.550 OA
ATOM     10  O   UNL     1     105.038 108.926 104.336  1.00  0.00    -0.550 OA
ENDBRANCH   7   8
ENDBRANCH   6   7
ENDBRANCH   5   6
ENDBRANCH   4   5
ENDBRANCH   3   4
ENDBRANCH   2   3
ENDBRANCH   1   2
BRANCH   1  11
ATOM     11  C   UNL     1     103.302 104.414 110.479  1.00  0.00    -0.031 C 
ATOM     12  C   UNL     1     104.588 104.795 110.585  1.00  0.00    -0.027 C 
BRANCH  12  13
ATOM     13  C   UNL     1     105.189 105.974 109.865  1.00  0.00     0.054 C 
BRANCH  13  14
ATOM     14  C   UNL     1     105.812 105.555 108.561  1.00  0.00    -0.027 C 
ATOM     15  C   UNL     1     107.001 104.940 108.537  1.00  0.00    -0.031 C 
BRANCH  15  16
ATOM     16  C   UNL     1     107.651 104.527 107.243  1.00  0.00     0.027 C 
BRANCH  16  17
ATOM     17  C   UNL     1     106.664 104.523 106.067  1.00  0.00     0.004 C 
BRANCH  17  18
ATOM     18  C   UNL     1     106.328 103.097 105.599  1.00  0.00     0.000 C 
BRANCH  18  19
ATOM     19  C   UNL     1     104.924 102.649 106.036  1.00  0.00    -0.003 C 
ATOM     20  C   UNL     1     104.887 102.132 107.473  1.00  0.00     0.004 C 
ENDBRANCH  18  19
ENDBRANCH  17  18
ENDBRANCH  16  17
ENDBRANCH  15  16
ENDBRANCH  13  14
ENDBRANCH  12  13
ENDBRANCH   1  11
TORSDOF 14
ENDMDL
MODEL 6
REMARK VINA RESULT:    -6.183      1.324      4.040
REMARK INTER + INTRA:         -13.610
REMARK INTER:                 -10.947
REMARK INTRA:                  -2.662
REMARK UNBOUND:                -2.366
REMARK SMILES CCCCCC=CCC=CCCCCCCCC(=O)[O-]
REMARK SMILES IDX 11 1 12 2 13 3 14 4 15 5 16 6 17 7 18 8 19 9 20 10 10 11
REMARK SMILES IDX 9 12 8 13 7 14 6 15 5 16 4 17 3 18 2 19 1 20
REMARK H PARENT
REMARK Flexibility Score: inf
ROOT
ATOM      1  C   UNL     1     101.309 104.102 108.811  1.00  0.00     0.027 C 
ENDROOT
BRANCH   1   2
ATOM      2  C   UNL     1     101.605 104.394 107.330  1.00  0.00     0.004 C 
BRANCH   2   3
ATOM      3  C   UNL     1     103.082 104.711 107.029  1.00  0.00     0.000 C 
BRANCH   3   4
ATOM      4  C   UNL     1     103.703 103.746 106.008  1.00  0.00     0.000 C 
BRANCH   4   5
ATOM      5  C   UNL     1     104.554 102.680 106.707  1.00  0.00     0.000 C 
BRANCH   5   6
ATOM      6  C   UNL     1     105.541 102.034 105.726  1.00  0.00     0.006 C 
BRANCH   6   7
ATOM      7  C   UNL     1     105.201 100.558 105.496  1.00  0.00     0.053 C 
BRANCH   7   8
ATOM      8  C   UNL     1     104.344 100.402 104.280  1.00  0.00     0.041 C 
ATOM      9  O   UNL     1     104.537 101.130 103.271  1.00  0.00    -0.550 OA
ATOM     10  O   UNL     1     103.298  99.487 104.279  1.00  0.00    -0.550 OA
ENDBRANCH   7   8
ENDBRANCH   6   7
ENDBRANCH   5   6
ENDBRANCH   4   5
ENDBRANCH   3   4
ENDBRANCH   2   3
ENDBRANCH   1   2
BRANCH   1  11
ATOM     11  C   UNL     1     102.136 102.957 109.343  1.00  0.00    -0.031 C 
ATOM     12  C   UNL     1     103.098 103.078 110.276  1.00  0.00    -0.027 C 
BRANCH  12  13
ATOM     13  C   UNL     1     103.539 104.386 110.880  1.00  0.00     0.054 C 
BRANCH  13  14
ATOM     14  C   UNL     1     105.027 104.569 110.755  1.00  0.00    -0.027 C 
ATOM     15  C   UNL     1     105.694 104.055 109.713  1.00  0.00    -0.031 C 
BRANCH  15  16
ATOM     16  C   UNL     1     107.185 104.210 109.576  1.00  0.00     0.027 C 
BRANCH  16  17
ATOM     17  C   UNL     1     107.638 104.245 108.109  1.00  0.00     0.004 C 
BRANCH  17  18
ATOM     18  C   UNL     1     107.065 105.457 107.356  1.00  0.00     0.000 C 
BRANCH  18  19
ATOM     19  C   UNL     1     107.195 105.318 105.830  1.00  0.00    -0.003 C 
ATOM     20  C   UNL     1     106.269 106.264 105.068  1.00  0.00     0.004 C 
ENDBRANCH  18  19
ENDBRANCH  17  18
ENDBRANCH  16  17
ENDBRANCH  15  16
ENDBRANCH  13  14
ENDBRANCH  12  13
ENDBRANCH   1  11
TORSDOF 14
ENDMDL
MODEL 7
REMARK VINA RESULT:    -6.169      3.551      5.698
REMARK INTER + INTRA:         -13.585
REMARK INTER:                 -11.438
REMARK INTRA:                  -2.147
REMARK UNBOUND:                -2.366
REMARK SMILES CCCCCC=CCC=CCCCCCCCC(=O)[O-]
REMARK SMILES IDX 11 1 12 2 13 3 14 4 15 5 16 6 17 7 18 8 19 9 20 10 10 11
REMARK SMILES IDX 9 12 8 13 7 14 6 15 5 16 4 17 3 18 2 19 1 20
REMARK H PARENT
REMARK Flexibility Score: inf
ROOT
ATOM      1  C   UNL     1     101.248 104.433 108.490  1.00  0.00     0.027 C 
ENDROOT
BRANCH   1   2
ATOM      2  C   UNL     1     101.760 104.714 107.067  1.00  0.00     0.004 C 
BRANCH   2   3
ATOM      3  C   UNL     1     103.245 105.116 106.996  1.00  0.00     0.000 C 
BRANCH   3   4
ATOM      4  C   UNL     1     103.498 106.301 106.051  1.00  0.00     0.000 C 
BRANCH   4   5
ATOM      5  C   UNL     1     103.181 105.922 104.600  1.00  0.00     0.000 C 
BRANCH   5   6
ATOM      6  C   UNL     1     103.691 106.994 103.628  1.00  0.00     0.006 C 
BRANCH   6   7
ATOM      7  C   UNL     1     105.201 107.202 103.783  1.00  0.00     0.053 C 
BRANCH   7   8
ATOM      8  C   UNL     1     105.520 108.661 103.876  1.00  0.00     0.041 C 
ATOM      9  O   UNL     1     104.864 109.405 104.650  1.00  0.00    -0.550 OA
ATOM     10  O   UNL     1     106.509 109.209 103.068  1.00  0.00    -0.550 OA
ENDBRANCH   7   8
ENDBRANCH   6   7
ENDBRANCH   5   6
ENDBRANCH   4   5
ENDBRANCH   3   4
ENDBRANCH   2   3
ENDBRANCH   1   2
BRANCH   1  11
ATOM     11  C   UNL     1     101.884 103.204 109.094  1.00  0.00    -0.031 C 
ATOM     12  C   UNL     1     102.850 103.226 110.031  1.00  0.00    -0.027 C 
BRANCH  12  13
ATOM     13  C   UNL     1     103.487 104.481 110.569  1.00  0.00     0.054 C 
BRANCH  13  14
ATOM     14  C   UNL     1     104.980 104.330 110.677  1.00  0.00    -0.027 C 
ATOM     15  C   UNL     1     105.710 103.971 109.613  1.00  0.00    -0.031 C 
BRANCH  15  16
ATOM     16  C   UNL     1     107.203 103.796 109.703  1.00  0.00     0.027 C 
BRANCH  16  17
ATOM     17  C   UNL     1     107.935 104.382 108.486  1.00  0.00     0.004 C 
BRANCH  17  18
ATOM     18  C   UNL     1     106.965 105.043 107.492  1.00  0.00     0.000 C 
BRANCH  18  19
ATOM     19  C   UNL     1     107.306 104.712 106.029  1.00  0.00    -0.003 C 
ATOM     20  C   UNL     1     106.343 103.700 105.411  1.00  0.00     0.004 C 
ENDBRANCH  18  19
ENDBRANCH  17  18
ENDBRANCH  16  17
ENDBRANCH  15  16
ENDBRANCH  13  14
ENDBRANCH  12  13
ENDBRANCH   1  11
TORSDOF 14
ENDMDL
MODEL 8
REMARK VINA RESULT:    -6.163      2.320      3.839
REMARK INTER + INTRA:         -13.572
REMARK INTER:                 -11.035
REMARK INTRA:                  -2.537
REMARK UNBOUND:                -2.366
REMARK SMILES CCCCCC=CCC=CCCCCCCCC(=O)[O-]
REMARK SMILES IDX 11 1 12 2 13 3 14 4 15 5 16 6 17 7 18 8 19 9 20 10 10 11
REMARK SMILES IDX 9 12 8 13 7 14 6 15 5 16 4 17 3 18 2 19 1 20
REMARK H PARENT
REMARK Flexibility Score: inf
ROOT
ATOM      1  C   UNL     1     105.926 104.365 110.545  1.00  0.00     0.027 C 
ENDROOT
BRANCH   1   2
ATOM      2  C   UNL     1     107.007 103.635 109.730  1.00  0.00     0.004 C 
BRANCH   2   3
ATOM      3  C   UNL     1     107.853 104.556 108.830  1.00  0.00     0.000 C 
BRANCH   3   4
ATOM      4  C   UNL     1     107.060 105.117 107.640  1.00  0.00     0.000 C 
BRANCH   4   5
ATOM      5  C   UNL     1     106.995 104.099 106.495  1.00  0.00     0.000 C 
BRANCH   5   6
ATOM      6  C   UNL     1     105.543 103.722 106.177  1.00  0.00     0.006 C 
BRANCH   6   7
ATOM      7  C   UNL     1     105.170 102.383 106.820  1.00  0.00     0.053 C 
BRANCH   7   8
ATOM      8  C   UNL     1     104.902 101.354 105.769  1.00  0.00     0.041 C 
ATOM      9  O   UNL     1     104.114 101.607 104.820  1.00  0.00    -0.550 OA
ATOM     10  O   UNL     1     105.483 100.095 105.862  1.00  0.00    -0.550 OA
ENDBRANCH   7   8
ENDBRANCH   6   7
ENDBRANCH   5   6
ENDBRANCH   4   5
ENDBRANCH   3   4
ENDBRANCH   2   3
ENDBRANCH   1   2
BRANCH   1  11
ATOM     11  C   UNL     1     104.534 103.904 110.188  1.00  0.00    -0.031 C 
ATOM     12  C   UNL     1     103.625 104.653 109.537  1.00  0.00    -0.027 C 
BRANCH  12  13
ATOM     13  C   UNL     1     103.840 106.087 109.126  1.00  0.00     0.054 C 
BRANCH  13  14
ATOM     14  C   UNL     1     103.628 106.265 107.647  1.00  0.00    -0.027 C 
ATOM     15  C   UNL     1     104.004 107.395 107.034  1.00  0.00    -0.031 C 
BRANCH  15  16
ATOM     16  C   UNL     1     103.786 107.603 105.559  1.00  0.00     0.027 C 
BRANCH  16  17
ATOM     17  C   UNL     1     104.004 109.063 105.134  1.00  0.00     0.004 C 
BRANCH  17  18
ATOM     18  C   UNL     1     105.331 109.253 104.380  1.00  0.00     0.000 C 
BRANCH  18  19
ATOM     19  C   UNL     1     106.029 107.919 104.070  1.00  0.00    -0.003 C 
ATOM     20  C   UNL     1     107.386 107.786 104.760  1.00  0.00     0.004 C 
ENDBRANCH  18  19
ENDBRANCH  17  18
ENDBRANCH  16  17
ENDBRANCH  15  16
ENDBRANCH  13  14
ENDBRANCH  12  13
ENDBRANCH   1  11
TORSDOF 14
ENDMDL
MODEL 9
REMARK VINA RESULT:    -6.058      2.604      4.526
REMARK INTER + INTRA:         -13.382
REMARK INTER:                 -11.481
REMARK INTRA:                  -1.901
REMARK UNBOUND:                -2.366
REMARK SMILES CCCCCC=CCC=CCCCCCCCC(=O)[O-]
REMARK SMILES IDX 11 1 12 2 13 3 14 4 15 5 16 6 17 7 18 8 19 9 20 10 10 11
REMARK SMILES IDX 9 12 8 13 7 14 6 15 5 16 4 17 3 18 2 19 1 20
REMARK H PARENT
REMARK Flexibility Score: inf
ROOT
ATOM      1  C   UNL     1     104.425 104.853 110.420  1.00  0.00     0.027 C 
ENDROOT
BRANCH   1   2
ATOM      2  C   UNL     1     105.892 104.526 110.750  1.00  0.00     0.004 C 
BRANCH   2   3
ATOM      3  C   UNL     1     106.622 103.720 109.660  1.00  0.00     0.000 C 
BRANCH   3   4
ATOM      4  C   UNL     1     107.628 104.567 108.866  1.00  0.00     0.000 C 
BRANCH   4   5
ATOM      5  C   UNL     1     107.385 104.436 107.358  1.00  0.00     0.000 C 
BRANCH   5   6
ATOM      6  C   UNL     1     105.894 104.240 107.056  1.00  0.00     0.006 C 
BRANCH   6   7
ATOM      7  C   UNL     1     105.242 105.559 106.630  1.00  0.00     0.053 C 
BRANCH   7   8
ATOM      8  C   UNL     1     105.738 105.976 105.282  1.00  0.00     0.041 C 
ATOM      9  O   UNL     1     105.429 105.310 104.259  1.00  0.00    -0.550 OA
ATOM     10  O   UNL     1     106.583 107.072 105.160  1.00  0.00    -0.550 OA
ENDBRANCH   7   8
ENDBRANCH   6   7
ENDBRANCH   5   6
ENDBRANCH   4   5
ENDBRANCH   3   4
ENDBRANCH   2   3
ENDBRANCH   1   2
BRANCH   1  11
ATOM     11  C   UNL     1     103.571 103.613 110.323  1.00  0.00    -0.031 C 
ATOM     12  C   UNL     1     102.418 103.531 109.634  1.00  0.00    -0.027 C 
BRANCH  12  13
ATOM     13  C   UNL     1     101.774 104.685 108.911  1.00  0.00     0.054 C 
BRANCH  13  14
ATOM     14  C   UNL     1     101.530 104.353 107.464  1.00  0.00    -0.027 C 
ATOM     15  C   UNL     1     102.212 103.369 106.865  1.00  0.00    -0.031 C 
BRANCH  15  16
ATOM     16  C   UNL     1     101.998 103.030 105.413  1.00  0.00     0.027 C 
BRANCH  16  17
ATOM     17  C   UNL     1     102.881 101.863 104.948  1.00  0.00     0.004 C 
BRANCH  17  18
ATOM     18  C   UNL     1     102.048 100.687 104.408  1.00  0.00     0.000 C 
BRANCH  18  19
ATOM     19  C   UNL     1     102.848  99.790 103.451  1.00  0.00    -0.003 C 
ATOM     20  C   UNL     1     102.060  99.410 102.197  1.00  0.00     0.004 C 
ENDBRANCH  18  19
ENDBRANCH  17  18
ENDBRANCH  16  17
ENDBRANCH  15  16
ENDBRANCH  13  14
ENDBRANCH  12  13
ENDBRANCH   1  11
TORSDOF 14
ENDMDL
