MODEL 1
REMARK VINA RESULT:    -3.531      0.000      0.000
REMARK INTER + INTRA:          -4.739
REMARK INTER:                  -4.562
REMARK INTRA:                  -0.177
REMARK UNBOUND:                -0.177
REMARK SMILES CCCCCCC(=O)[O-]
REMARK SMILES IDX 5 1 6 2 7 3 8 4 9 5 4 6 3 7 2 8 1 9
REMARK H PARENT
REMARK Flexibility Score: inf
ROOT
ATOM      1  C   UNL     1     101.031 -67.773   7.073  1.00  0.00     0.006 C 
ENDROOT
BRANCH   1   2
ATOM      2  C   UNL     1     100.675 -69.228   6.724  1.00  0.00     0.053 C 
BRANCH   2   3
ATOM      3  C   UNL     1     100.688 -69.470   5.246  1.00  0.00     0.041 C 
ATOM      4  O   UNL     1      99.617 -69.428   4.588  1.00  0.00    -0.550 OA
ATOM      5  O   UNL     1     101.880 -69.777   4.602  1.00  0.00    -0.550 OA
ENDBRANCH   2   3
ENDBRANCH   1   2
BRANCH   1   6
ATOM      6  C   UNL     1     101.040 -67.470   8.582  1.00  0.00     0.000 C 
BRANCH   6   7
ATOM      7  C   UNL     1     100.771 -68.719   9.441  1.00  0.00    -0.000 C 
BRANCH   7   8
ATOM      8  C   UNL     1     100.309 -68.366  10.864  1.00  0.00    -0.003 C 
ATOM      9  C   UNL     1     100.069 -66.868  11.051  1.00  0.00     0.004 C 
ENDBRANCH   7   8
ENDBRANCH   6   7
ENDBRANCH   1   6
TORSDOF 5
ENDMDL
MODEL 2
REMARK VINA RESULT:    -3.489      3.527      5.129
REMARK INTER + INTRA:          -4.685
REMARK INTER:                  -4.575
REMARK INTRA:                  -0.110
REMARK UNBOUND:                -0.177
REMARK SMILES CCCCCCC(=O)[O-]
REMARK SMILES IDX 5 1 6 2 7 3 8 4 9 5 4 6 3 7 2 8 1 9
REMARK H PARENT
REMARK Flexibility Score: inf
ROOT
ATOM      1  C   UNL     1      98.331 -68.606   2.800  1.00  0.00     0.006 C 
ENDROOT
BRANCH   1   2
ATOM      2  C   UNL     1      99.269 -68.116   1.683  1.00  0.00     0.053 C 
BRANCH   2   3
ATOM      3  C   UNL     1      99.059 -68.868   0.404  1.00  0.00     0.041 C 
ATOM      4  O   UNL     1      99.256 -68.303  -0.702  1.00  0.00    -0.550 OA
ATOM      5  O   UNL     1      98.610 -70.182   0.436  1.00  0.00    -0.550 OA
ENDBRANCH   2   3
ENDBRANCH   1   2
BRANCH   1   6
ATOM      6  C   UNL     1      98.769 -68.195   4.217  1.00  0.00     0.000 C 
BRANCH   6   7
ATOM      7  C   UNL     1     100.185 -68.687   4.567  1.00  0.00    -0.000 C 
BRANCH   7   8
ATOM      8  C   UNL     1     100.198 -69.617   5.790  1.00  0.00    -0.003 C 
ATOM      9  C   UNL     1     100.904 -68.996   6.995  1.00  0.00     0.004 C 
ENDBRANCH   7   8
ENDBRANCH   6   7
ENDBRANCH   1   6
TORSDOF 5
ENDMDL
MODEL 3
REMARK VINA RESULT:    -3.479      3.521      5.133
REMARK INTER + INTRA:          -4.672
REMARK INTER:                  -4.535
REMARK INTRA:                  -0.137
REMARK UNBOUND:                -0.177
REMARK SMILES CCCCCCC(=O)[O-]
REMARK SMILES IDX 5 1 6 2 7 3 8 4 9 5 4 6 3 7 2 8 1 9
REMARK H PARENT
REMARK Flexibility Score: inf
ROOT
ATOM      1  C   UNL     1      98.228 -68.348   2.786  1.00  0.00     0.006 C 
ENDROOT
BRANCH   1   2
ATOM      2  C   UNL     1      99.364 -68.121   1.774  1.00  0.00     0.053 C 
BRANCH   2   3
ATOM      3  C   UNL     1      99.098 -68.806   0.469  1.00  0.00     0.041 C 
ATOM      4  O   UNL     1      98.718 -70.005   0.448  1.00  0.00    -0.550 OA
ATOM      5  O   UNL     1      99.304 -68.129  -0.726  1.00  0.00    -0.550 OA
ENDBRANCH   2   3
ENDBRANCH   1   2
BRANCH   1   6
ATOM      6  C   UNL     1      98.667 -68.260   4.258  1.00  0.00     0.000 C 
BRANCH   6   7
ATOM      7  C   UNL     1     100.107 -68.755   4.480  1.00  0.00    -0.000 C 
BRANCH   7   8
ATOM      8  C   UNL     1     100.219 -69.723   5.668  1.00  0.00    -0.003 C 
ATOM      9  C   UNL     1     100.796 -69.058   6.917  1.00  0.00     0.004 C 
ENDBRANCH   7   8
ENDBRANCH   6   7
ENDBRANCH   1   6
TORSDOF 5
ENDMDL
MODEL 4
REMARK VINA RESULT:    -3.446      4.193      6.013
REMARK INTER + INTRA:          -4.630
REMARK INTER:                  -4.456
REMARK INTRA:                  -0.174
REMARK UNBOUND:                -0.177
REMARK SMILES CCCCCCC(=O)[O-]
REMARK SMILES IDX 5 1 6 2 7 3 8 4 9 5 4 6 3 7 2 8 1 9
REMARK H PARENT
REMARK Flexibility Score: inf
ROOT
ATOM      1  C   UNL     1      99.588 -68.065   1.836  1.00  0.00     0.006 C 
ENDROOT
BRANCH   1   2
ATOM      2  C   UNL     1      99.199 -67.920   0.355  1.00  0.00     0.053 C 
BRANCH   2   3
ATOM      3  C   UNL     1      98.695 -69.207  -0.221  1.00  0.00     0.041 C 
ATOM      4  O   UNL     1      98.646 -70.244   0.491  1.00  0.00    -0.550 OA
ATOM      5  O   UNL     1      98.314 -69.270  -1.555  1.00  0.00    -0.550 OA
ENDBRANCH   2   3
ENDBRANCH   1   2
BRANCH   1   6
ATOM      6  C   UNL     1      98.486 -67.640   2.823  1.00  0.00     0.000 C 
BRANCH   6   7
ATOM      7  C   UNL     1      98.559 -68.402   4.158  1.00  0.00    -0.000 C 
BRANCH   7   8
ATOM      8  C   UNL     1     100.005 -68.678   4.599  1.00  0.00    -0.003 C 
ATOM      9  C   UNL     1     100.089 -69.682   5.748  1.00  0.00     0.004 C 
ENDBRANCH   7   8
ENDBRANCH   6   7
ENDBRANCH   1   6
TORSDOF 5
ENDMDL
MODEL 5
REMARK VINA RESULT:    -3.344      1.804      2.866
REMARK INTER + INTRA:          -4.498
REMARK INTER:                  -4.377
REMARK INTRA:                  -0.121
REMARK UNBOUND:                -0.177
REMARK SMILES CCCCCCC(=O)[O-]
REMARK SMILES IDX 5 1 6 2 7 3 8 4 9 5 4 6 3 7 2 8 1 9
REMARK H PARENT
REMARK Flexibility Score: inf
ROOT
ATOM      1  C   UNL     1      99.895 -69.430   5.427  1.00  0.00     0.006 C 
ENDROOT
BRANCH   1   2
ATOM      2  C   UNL     1      99.589 -68.131   4.663  1.00  0.00     0.053 C 
BRANCH   2   3
ATOM      3  C   UNL     1      98.463 -68.303   3.690  1.00  0.00     0.041 C 
ATOM      4  O   UNL     1      98.618 -69.010   2.661  1.00  0.00    -0.550 OA
ATOM      5  O   UNL     1      97.255 -67.652   3.903  1.00  0.00    -0.550 OA
ENDBRANCH   2   3
ENDBRANCH   1   2
BRANCH   1   6
ATOM      6  C   UNL     1     101.106 -69.338   6.372  1.00  0.00     0.000 C 
BRANCH   6   7
ATOM      7  C   UNL     1     101.043 -68.110   7.299  1.00  0.00    -0.000 C 
BRANCH   7   8
ATOM      8  C   UNL     1     100.974 -68.498   8.784  1.00  0.00    -0.003 C 
ATOM      9  C   UNL     1     100.529 -67.339   9.676  1.00  0.00     0.004 C 
ENDBRANCH   7   8
ENDBRANCH   6   7
ENDBRANCH   1   6
TORSDOF 5
ENDMDL
MODEL 6
REMARK VINA RESULT:    -3.330      1.486      1.978
REMARK INTER + INTRA:          -4.480
REMARK INTER:                  -4.295
REMARK INTRA:                  -0.185
REMARK UNBOUND:                -0.177
REMARK SMILES CCCCCCC(=O)[O-]
REMARK SMILES IDX 5 1 6 2 7 3 8 4 9 5 4 6 3 7 2 8 1 9
REMARK H PARENT
REMARK Flexibility Score: inf
ROOT
ATOM      1  C   UNL     1     101.148 -68.826   6.162  1.00  0.00     0.006 C 
ENDROOT
BRANCH   1   2
ATOM      2  C   UNL     1      99.951 -69.508   5.479  1.00  0.00     0.053 C 
BRANCH   2   3
ATOM      3  C   UNL     1      99.293 -68.612   4.474  1.00  0.00     0.041 C 
ATOM      4  O   UNL     1      98.805 -69.095   3.419  1.00  0.00    -0.550 OA
ATOM      5  O   UNL     1      99.252 -67.240   4.687  1.00  0.00    -0.550 OA
ENDBRANCH   2   3
ENDBRANCH   1   2
BRANCH   1   6
ATOM      6  C   UNL     1     101.066 -68.796   7.698  1.00  0.00     0.000 C 
BRANCH   6   7
ATOM      7  C   UNL     1     100.887 -67.373   8.256  1.00  0.00    -0.000 C 
BRANCH   7   8
ATOM      8  C   UNL     1     100.538 -67.368   9.753  1.00  0.00    -0.003 C 
ATOM      9  C   UNL     1     100.544 -68.769  10.364  1.00  0.00     0.004 C 
ENDBRANCH   7   8
ENDBRANCH   6   7
ENDBRANCH   1   6
TORSDOF 5
ENDMDL
MODEL 7
REMARK VINA RESULT:    -3.324      3.326      4.930
REMARK INTER + INTRA:          -4.473
REMARK INTER:                  -4.268
REMARK INTRA:                  -0.205
REMARK UNBOUND:                -0.177
REMARK SMILES CCCCCCC(=O)[O-]
REMARK SMILES IDX 5 1 6 2 7 3 8 4 9 5 4 6 3 7 2 8 1 9
REMARK H PARENT
REMARK Flexibility Score: inf
ROOT
ATOM      1  C   UNL     1     100.948 -67.437   8.446  1.00  0.00     0.006 C 
ENDROOT
BRANCH   1   2
ATOM      2  C   UNL     1     101.022 -68.745   9.251  1.00  0.00     0.053 C 
BRANCH   2   3
ATOM      3  C   UNL     1     100.613 -68.549  10.678  1.00  0.00     0.041 C 
ATOM      4  O   UNL     1      99.962 -67.527  11.017  1.00  0.00    -0.550 OA
ATOM      5  O   UNL     1     100.984 -69.479  11.642  1.00  0.00    -0.550 OA
ENDBRANCH   2   3
ENDBRANCH   1   2
BRANCH   1   6
ATOM      6  C   UNL     1     100.933 -67.634   6.919  1.00  0.00     0.000 C 
BRANCH   6   7
ATOM      7  C   UNL     1     101.267 -69.078   6.504  1.00  0.00    -0.000 C 
BRANCH   7   8
ATOM      8  C   UNL     1     100.126 -69.742   5.716  1.00  0.00    -0.003 C 
ATOM      9  C   UNL     1      99.453 -68.784   4.734  1.00  0.00     0.004 C 
ENDBRANCH   7   8
ENDBRANCH   6   7
ENDBRANCH   1   6
TORSDOF 5
ENDMDL
MODEL 8
REMARK VINA RESULT:    -3.220      3.727      5.430
REMARK INTER + INTRA:          -4.337
REMARK INTER:                  -4.229
REMARK INTRA:                  -0.108
REMARK UNBOUND:                -0.177
REMARK SMILES CCCCCCC(=O)[O-]
REMARK SMILES IDX 5 1 6 2 7 3 8 4 9 5 4 6 3 7 2 8 1 9
REMARK H PARENT
REMARK Flexibility Score: inf
ROOT
ATOM      1  C   UNL     1     100.813 -67.451   9.425  1.00  0.00     0.006 C 
ENDROOT
BRANCH   1   2
ATOM      2  C   UNL     1     100.219 -67.722  10.817  1.00  0.00     0.053 C 
BRANCH   2   3
ATOM      3  C   UNL     1     101.230 -68.304  11.756  1.00  0.00     0.041 C 
ATOM      4  O   UNL     1     101.985 -67.549  12.421  1.00  0.00    -0.550 OA
ATOM      5  O   UNL     1     101.364 -69.682  11.867  1.00  0.00    -0.550 OA
ENDBRANCH   2   3
ENDBRANCH   1   2
BRANCH   1   6
ATOM      6  C   UNL     1     100.918 -68.699   8.529  1.00  0.00     0.000 C 
BRANCH   6   7
ATOM      7  C   UNL     1     101.008 -68.350   7.033  1.00  0.00    -0.000 C 
BRANCH   7   8
ATOM      8  C   UNL     1     100.543 -69.504   6.131  1.00  0.00    -0.003 C 
ATOM      9  C   UNL     1      99.643 -69.034   4.989  1.00  0.00     0.004 C 
ENDBRANCH   7   8
ENDBRANCH   6   7
ENDBRANCH   1   6
TORSDOF 5
ENDMDL
MODEL 9
REMARK VINA RESULT:    -3.088      7.807     10.370
REMARK INTER + INTRA:          -4.168
REMARK INTER:                  -3.923
REMARK INTRA:                  -0.245
REMARK UNBOUND:                -0.177
REMARK SMILES CCCCCCC(=O)[O-]
REMARK SMILES IDX 5 1 6 2 7 3 8 4 9 5 4 6 3 7 2 8 1 9
REMARK H PARENT
REMARK Flexibility Score: inf
ROOT
ATOM      1  C   UNL     1      98.469 -68.735  -2.153  1.00  0.00     0.006 C 
ENDROOT
BRANCH   1   2
ATOM      2  C   UNL     1      98.792 -68.006  -0.838  1.00  0.00     0.053 C 
BRANCH   2   3
ATOM      3  C   UNL     1      99.126 -68.961   0.266  1.00  0.00     0.041 C 
ATOM      4  O   UNL     1      98.602 -70.105   0.295  1.00  0.00    -0.550 OA
ATOM      5  O   UNL     1      99.990 -68.574   1.283  1.00  0.00    -0.550 OA
ENDBRANCH   2   3
ENDBRANCH   1   2
BRANCH   1   6
ATOM      6  C   UNL     1      98.335 -67.807  -3.373  1.00  0.00     0.000 C 
BRANCH   6   7
ATOM      7  C   UNL     1      99.654 -67.098  -3.728  1.00  0.00    -0.000 C 
BRANCH   7   8
ATOM      8  C   UNL     1     100.810 -68.085  -3.952  1.00  0.00    -0.003 C 
ATOM      9  C   UNL     1     101.983 -67.844  -3.002  1.00  0.00     0.004 C 
ENDBRANCH   7   8
ENDBRANCH   6   7
ENDBRANCH   1   6
TORSDOF 5
ENDMDL
