MODEL 1
REMARK VINA RESULT:    -4.729      0.000      0.000
REMARK INTER + INTRA:          -9.844
REMARK INTER:                  -8.046
REMARK INTRA:                  -1.797
REMARK UNBOUND:                -1.797
REMARK SMILES CCCCCCCCCCCCCC(=O)[O-]
REMARK SMILES IDX 8 1 9 2 10 3 11 4 12 5 13 6 14 7 15 8 16 9 7 10 6 11 5 12
REMARK SMILES IDX 4 13 3 14 2 15 1 16
REMARK H PARENT
REMARK Flexibility Score: inf
ROOT
ATOM      1  C   UNL     1      34.133   4.672  13.304  1.00  0.00     0.000 C 
ENDROOT
BRANCH   1   2
ATOM      2  C   UNL     1      32.632   4.948  13.135  1.00  0.00     0.000 C 
BRANCH   2   3
ATOM      3  C   UNL     1      32.176   4.863  11.671  1.00  0.00     0.000 C 
BRANCH   3   4
ATOM      4  C   UNL     1      32.843   3.702  10.910  1.00  0.00     0.000 C 
BRANCH   4   5
ATOM      5  C   UNL     1      32.939   3.964   9.399  1.00  0.00     0.006 C 
BRANCH   5   6
ATOM      6  C   UNL     1      34.036   4.975   9.045  1.00  0.00     0.053 C 
BRANCH   6   7
ATOM      7  C   UNL     1      33.584   5.870   7.935  1.00  0.00     0.041 C 
ATOM      8  O   UNL     1      33.882   7.093   7.946  1.00  0.00    -0.550 OA
ATOM      9  O   UNL     1      32.875   5.344   6.862  1.00  0.00    -0.550 OA
ENDBRANCH   6   7
ENDBRANCH   5   6
ENDBRANCH   4   5
ENDBRANCH   3   4
ENDBRANCH   2   3
ENDBRANCH   1   2
BRANCH   1  10
ATOM     10  C   UNL     1      34.927   5.981  13.388  1.00  0.00     0.000 C 
BRANCH  10  11
ATOM     11  C   UNL     1      35.684   6.250  12.079  1.00  0.00    -0.000 C 
BRANCH  11  12
ATOM     12  C   UNL     1      35.175   7.502  11.347  1.00  0.00    -0.000 C 
BRANCH  12  13
ATOM     13  C   UNL     1      34.104   8.261  12.145  1.00  0.00    -0.000 C 
BRANCH  13  14
ATOM     14  C   UNL     1      32.783   8.322  11.370  1.00  0.00    -0.000 C 
BRANCH  14  15
ATOM     15  C   UNL     1      31.620   8.704  12.293  1.00  0.00    -0.003 C 
ATOM     16  C   UNL     1      31.282  10.186  12.171  1.00  0.00     0.004 C 
ENDBRANCH  14  15
ENDBRANCH  13  14
ENDBRANCH  12  13
ENDBRANCH  11  12
ENDBRANCH  10  11
ENDBRANCH   1  10
TORSDOF 12
ENDMDL
MODEL 2
REMARK VINA RESULT:    -4.706      1.221      3.369
REMARK INTER + INTRA:          -9.804
REMARK INTER:                  -8.091
REMARK INTRA:                  -1.713
REMARK UNBOUND:                -1.797
REMARK SMILES CCCCCCCCCCCCCC(=O)[O-]
REMARK SMILES IDX 8 1 9 2 10 3 11 4 12 5 13 6 14 7 15 8 16 9 7 10 6 11 5 12
REMARK SMILES IDX 4 13 3 14 2 15 1 16
REMARK H PARENT
REMARK Flexibility Score: inf
ROOT
ATOM      1  C   UNL     1      31.511   6.178  12.091  1.00  0.00     0.000 C 
ENDROOT
BRANCH   1   2
ATOM      2  C   UNL     1      32.455   5.195  12.798  1.00  0.00     0.000 C 
BRANCH   2   3
ATOM      3  C   UNL     1      33.178   4.260  11.816  1.00  0.00     0.000 C 
BRANCH   3   4
ATOM      4  C   UNL     1      32.857   4.583  10.346  1.00  0.00     0.000 C 
BRANCH   4   5
ATOM      5  C   UNL     1      33.798   3.866   9.365  1.00  0.00     0.006 C 
BRANCH   5   6
ATOM      6  C   UNL     1      34.632   4.843   8.528  1.00  0.00     0.053 C 
BRANCH   6   7
ATOM      7  C   UNL     1      33.739   5.739   7.728  1.00  0.00     0.041 C 
ATOM      8  O   UNL     1      32.950   5.251   6.877  1.00  0.00    -0.550 OA
ATOM      9  O   UNL     1      33.744   7.109   7.958  1.00  0.00    -0.550 OA
ENDBRANCH   6   7
ENDBRANCH   5   6
ENDBRANCH   4   5
ENDBRANCH   3   4
ENDBRANCH   2   3
ENDBRANCH   1   2
BRANCH   1  10
ATOM     10  C   UNL     1      31.876   7.629  12.427  1.00  0.00     0.000 C 
BRANCH  10  11
ATOM     11  C   UNL     1      32.965   8.156  11.481  1.00  0.00    -0.000 C 
BRANCH  11  12
ATOM     12  C   UNL     1      34.378   8.022  12.070  1.00  0.00    -0.000 C 
BRANCH  12  13
ATOM     13  C   UNL     1      35.410   7.551  11.034  1.00  0.00    -0.000 C 
BRANCH  13  14
ATOM     14  C   UNL     1      36.240   6.382  11.578  1.00  0.00    -0.000 C 
BRANCH  14  15
ATOM     15  C   UNL     1      37.430   6.078  10.661  1.00  0.00    -0.003 C 
ATOM     16  C   UNL     1      38.708   6.724  11.184  1.00  0.00     0.004 C 
ENDBRANCH  14  15
ENDBRANCH  13  14
ENDBRANCH  12  13
ENDBRANCH  11  12
ENDBRANCH  10  11
ENDBRANCH   1  10
TORSDOF 12
ENDMDL
MODEL 3
REMARK VINA RESULT:    -4.673      2.982      5.047
REMARK INTER + INTRA:          -9.748
REMARK INTER:                  -8.072
REMARK INTRA:                  -1.676
REMARK UNBOUND:                -1.797
REMARK SMILES CCCCCCCCCCCCCC(=O)[O-]
REMARK SMILES IDX 8 1 9 2 10 3 11 4 12 5 13 6 14 7 15 8 16 9 7 10 6 11 5 12
REMARK SMILES IDX 4 13 3 14 2 15 1 16
REMARK H PARENT
REMARK Flexibility Score: inf
ROOT
ATOM      1  C   UNL     1      33.858   6.234   8.343  1.00  0.00     0.000 C 
ENDROOT
BRANCH   1   2
ATOM      2  C   UNL     1      35.137   5.392   8.473  1.00  0.00     0.000 C 
BRANCH   2   3
ATOM      3  C   UNL     1      34.955   4.181   9.401  1.00  0.00     0.000 C 
BRANCH   3   4
ATOM      4  C   UNL     1      33.490   3.976   9.827  1.00  0.00     0.000 C 
BRANCH   4   5
ATOM      5  C   UNL     1      33.364   3.257  11.179  1.00  0.00     0.006 C 
BRANCH   5   6
ATOM      6  C   UNL     1      32.898   4.192  12.302  1.00  0.00     0.053 C 
BRANCH   6   7
ATOM      7  C   UNL     1      33.564   3.832  13.592  1.00  0.00     0.041 C 
ATOM      8  O   UNL     1      34.303   4.666  14.179  1.00  0.00    -0.550 OA
ATOM      9  O   UNL     1      33.329   2.591  14.172  1.00  0.00    -0.550 OA
ENDBRANCH   6   7
ENDBRANCH   5   6
ENDBRANCH   4   5
ENDBRANCH   3   4
ENDBRANCH   2   3
ENDBRANCH   1   2
BRANCH   1  10
ATOM     10  C   UNL     1      33.999   7.566   9.090  1.00  0.00     0.000 C 
BRANCH  10  11
ATOM     11  C   UNL     1      33.461   7.452  10.524  1.00  0.00    -0.000 C 
BRANCH  11  12
ATOM     12  C   UNL     1      34.486   7.899  11.579  1.00  0.00    -0.000 C 
BRANCH  12  13
ATOM     13  C   UNL     1      35.649   6.907  11.733  1.00  0.00    -0.000 C 
BRANCH  13  14
ATOM     14  C   UNL     1      36.938   7.474  11.127  1.00  0.00    -0.000 C 
BRANCH  14  15
ATOM     15  C   UNL     1      37.955   6.359  10.855  1.00  0.00    -0.003 C 
ATOM     16  C   UNL     1      39.302   6.673  11.497  1.00  0.00     0.004 C 
ENDBRANCH  14  15
ENDBRANCH  13  14
ENDBRANCH  12  13
ENDBRANCH  11  12
ENDBRANCH  10  11
ENDBRANCH   1  10
TORSDOF 12
ENDMDL
MODEL 4
REMARK VINA RESULT:    -4.578      2.812      3.964
REMARK INTER + INTRA:          -9.586
REMARK INTER:                  -7.697
REMARK INTRA:                  -1.889
REMARK UNBOUND:                -1.797
REMARK SMILES CCCCCCCCCCCCCC(=O)[O-]
REMARK SMILES IDX 8 1 9 2 10 3 11 4 12 5 13 6 14 7 15 8 16 9 7 10 6 11 5 12
REMARK SMILES IDX 4 13 3 14 2 15 1 16
REMARK H PARENT
REMARK Flexibility Score: inf
ROOT
ATOM      1  C   UNL     1      36.202   5.279   9.680  1.00  0.00     0.000 C 
ENDROOT
BRANCH   1   2
ATOM      2  C   UNL     1      35.130   5.685   8.657  1.00  0.00     0.000 C 
BRANCH   2   3
ATOM      3  C   UNL     1      33.735   5.157   9.022  1.00  0.00     0.000 C 
BRANCH   3   4
ATOM      4  C   UNL     1      33.790   3.857   9.843  1.00  0.00     0.000 C 
BRANCH   4   5
ATOM      5  C   UNL     1      32.797   3.857  11.016  1.00  0.00     0.006 C 
BRANCH   5   6
ATOM      6  C   UNL     1      33.160   2.831  12.096  1.00  0.00     0.053 C 
BRANCH   6   7
ATOM      7  C   UNL     1      33.021   3.436  13.458  1.00  0.00     0.041 C 
ATOM      8  O   UNL     1      32.227   4.394  13.648  1.00  0.00    -0.550 OA
ATOM      9  O   UNL     1      33.731   2.907  14.529  1.00  0.00    -0.550 OA
ENDBRANCH   6   7
ENDBRANCH   5   6
ENDBRANCH   4   5
ENDBRANCH   3   4
ENDBRANCH   2   3
ENDBRANCH   1   2
BRANCH   1  10
ATOM     10  C   UNL     1      37.098   6.471  10.040  1.00  0.00     0.000 C 
BRANCH  10  11
ATOM     11  C   UNL     1      36.666   7.102  11.371  1.00  0.00    -0.000 C 
BRANCH  11  12
ATOM     12  C   UNL     1      35.820   6.150  12.232  1.00  0.00    -0.000 C 
BRANCH  12  13
ATOM     13  C   UNL     1      34.485   6.772  12.668  1.00  0.00    -0.000 C 
BRANCH  13  14
ATOM     14  C   UNL     1      34.214   8.077  11.910  1.00  0.00    -0.000 C 
BRANCH  14  15
ATOM     15  C   UNL     1      32.832   8.052  11.246  1.00  0.00    -0.003 C 
ATOM     16  C   UNL     1      31.726   8.301  12.266  1.00  0.00     0.004 C 
ENDBRANCH  14  15
ENDBRANCH  13  14
ENDBRANCH  12  13
ENDBRANCH  11  12
ENDBRANCH  10  11
ENDBRANCH   1  10
TORSDOF 12
ENDMDL
MODEL 5
REMARK VINA RESULT:    -4.575      2.201      4.812
REMARK INTER + INTRA:          -9.581
REMARK INTER:                  -7.797
REMARK INTRA:                  -1.784
REMARK UNBOUND:                -1.797
REMARK SMILES CCCCCCCCCCCCCC(=O)[O-]
REMARK SMILES IDX 8 1 9 2 10 3 11 4 12 5 13 6 14 7 15 8 16 9 7 10 6 11 5 12
REMARK SMILES IDX 4 13 3 14 2 15 1 16
REMARK H PARENT
REMARK Flexibility Score: inf
ROOT
ATOM      1  C   UNL     1      31.879   5.872  12.191  1.00  0.00     0.000 C 
ENDROOT
BRANCH   1   2
ATOM      2  C   UNL     1      32.354   7.269  12.617  1.00  0.00     0.000 C 
BRANCH   2   3
ATOM      3  C   UNL     1      32.926   8.081  11.445  1.00  0.00     0.000 C 
BRANCH   3   4
ATOM      4  C   UNL     1      34.149   7.407  10.798  1.00  0.00     0.000 C 
BRANCH   4   5
ATOM      5  C   UNL     1      35.447   7.662  11.580  1.00  0.00     0.006 C 
BRANCH   5   6
ATOM      6  C   UNL     1      36.359   6.430  11.628  1.00  0.00     0.053 C 
BRANCH   6   7
ATOM      7  C   UNL     1      37.686   6.738  11.010  1.00  0.00     0.041 C 
ATOM      8  O   UNL     1      37.771   6.974   9.776  1.00  0.00    -0.550 OA
ATOM      9  O   UNL     1      38.822   6.815  11.806  1.00  0.00    -0.550 OA
ENDBRANCH   6   7
ENDBRANCH   5   6
ENDBRANCH   4   5
ENDBRANCH   3   4
ENDBRANCH   2   3
ENDBRANCH   1   2
BRANCH   1  10
ATOM     10  C   UNL     1      32.235   4.824  13.252  1.00  0.00     0.000 C 
BRANCH  10  11
ATOM     11  C   UNL     1      33.448   3.988  12.815  1.00  0.00    -0.000 C 
BRANCH  11  12
ATOM     12  C   UNL     1      33.180   3.181  11.535  1.00  0.00    -0.000 C 
BRANCH  12  13
ATOM     13  C   UNL     1      33.975   3.702  10.328  1.00  0.00    -0.000 C 
BRANCH  13  14
ATOM     14  C   UNL     1      33.060   3.905   9.115  1.00  0.00    -0.000 C 
BRANCH  14  15
ATOM     15  C   UNL     1      33.618   4.984   8.180  1.00  0.00    -0.003 C 
ATOM     16  C   UNL     1      35.142   4.940   8.132  1.00  0.00     0.004 C 
ENDBRANCH  14  15
ENDBRANCH  13  14
ENDBRANCH  12  13
ENDBRANCH  11  12
ENDBRANCH  10  11
ENDBRANCH   1  10
TORSDOF 12
ENDMDL
MODEL 6
REMARK VINA RESULT:    -4.574      3.049      4.978
REMARK INTER + INTRA:          -9.581
REMARK INTER:                  -7.738
REMARK INTRA:                  -1.842
REMARK UNBOUND:                -1.797
REMARK SMILES CCCCCCCCCCCCCC(=O)[O-]
REMARK SMILES IDX 8 1 9 2 10 3 11 4 12 5 13 6 14 7 15 8 16 9 7 10 6 11 5 12
REMARK SMILES IDX 4 13 3 14 2 15 1 16
REMARK H PARENT
REMARK Flexibility Score: inf
ROOT
ATOM      1  C   UNL     1      34.758   7.874  11.674  1.00  0.00     0.000 C 
ENDROOT
BRANCH   1   2
ATOM      2  C   UNL     1      33.437   7.305  11.134  1.00  0.00     0.000 C 
BRANCH   2   3
ATOM      3  C   UNL     1      32.517   6.787  12.250  1.00  0.00     0.000 C 
BRANCH   3   4
ATOM      4  C   UNL     1      32.028   5.350  11.994  1.00  0.00     0.000 C 
BRANCH   4   5
ATOM      5  C   UNL     1      33.173   4.325  12.012  1.00  0.00     0.006 C 
BRANCH   5   6
ATOM      6  C   UNL     1      32.938   3.197  13.025  1.00  0.00     0.053 C 
BRANCH   6   7
ATOM      7  C   UNL     1      33.811   3.382  14.225  1.00  0.00     0.041 C 
ATOM      8  O   UNL     1      33.956   2.445  15.053  1.00  0.00    -0.550 OA
ATOM      9  O   UNL     1      34.506   4.572  14.402  1.00  0.00    -0.550 OA
ENDBRANCH   6   7
ENDBRANCH   5   6
ENDBRANCH   4   5
ENDBRANCH   3   4
ENDBRANCH   2   3
ENDBRANCH   1   2
BRANCH   1  10
ATOM     10  C   UNL     1      35.878   6.829  11.600  1.00  0.00     0.000 C 
BRANCH  10  11
ATOM     11  C   UNL     1      36.277   6.553  10.143  1.00  0.00    -0.000 C 
BRANCH  11  12
ATOM     12  C   UNL     1      36.444   5.054   9.848  1.00  0.00    -0.000 C 
BRANCH  12  13
ATOM     13  C   UNL     1      35.290   4.482   9.010  1.00  0.00    -0.000 C 
BRANCH  13  14
ATOM     14  C   UNL     1      34.654   5.570   8.136  1.00  0.00    -0.000 C 
BRANCH  14  15
ATOM     15  C   UNL     1      33.231   5.182   7.722  1.00  0.00    -0.003 C 
ATOM     16  C   UNL     1      32.820   3.850   8.341  1.00  0.00     0.004 C 
ENDBRANCH  14  15
ENDBRANCH  13  14
ENDBRANCH  12  13
ENDBRANCH  11  12
ENDBRANCH  10  11
ENDBRANCH   1  10
TORSDOF 12
ENDMDL
MODEL 7
REMARK VINA RESULT:    -4.552      2.179      5.023
REMARK INTER + INTRA:          -9.543
REMARK INTER:                  -7.769
REMARK INTRA:                  -1.774
REMARK UNBOUND:                -1.797
REMARK SMILES CCCCCCCCCCCCCC(=O)[O-]
REMARK SMILES IDX 8 1 9 2 10 3 11 4 12 5 13 6 14 7 15 8 16 9 7 10 6 11 5 12
REMARK SMILES IDX 4 13 3 14 2 15 1 16
REMARK H PARENT
REMARK Flexibility Score: inf
ROOT
ATOM      1  C   UNL     1      35.903   4.428   9.233  1.00  0.00     0.000 C 
ENDROOT
BRANCH   1   2
ATOM      2  C   UNL     1      36.547   5.344  10.285  1.00  0.00     0.000 C 
BRANCH   2   3
ATOM      3  C   UNL     1      36.237   6.829  10.044  1.00  0.00     0.000 C 
BRANCH   3   4
ATOM      4  C   UNL     1      35.592   7.505  11.267  1.00  0.00     0.000 C 
BRANCH   4   5
ATOM      5  C   UNL     1      34.069   7.650  11.127  1.00  0.00     0.006 C 
BRANCH   5   6
ATOM      6  C   UNL     1      33.458   8.536  12.219  1.00  0.00     0.053 C 
BRANCH   6   7
ATOM      7  C   UNL     1      31.968   8.401  12.229  1.00  0.00     0.041 C 
ATOM      8  O   UNL     1      31.436   7.260  12.257  1.00  0.00    -0.550 OA
ATOM      9  O   UNL     1      31.167   9.535  12.259  1.00  0.00    -0.550 OA
ENDBRANCH   6   7
ENDBRANCH   5   6
ENDBRANCH   4   5
ENDBRANCH   3   4
ENDBRANCH   2   3
ENDBRANCH   1   2
BRANCH   1  10
ATOM     10  C   UNL     1      34.958   5.219   8.320  1.00  0.00     0.000 C 
BRANCH  10  11
ATOM     11  C   UNL     1      33.492   4.860   8.602  1.00  0.00    -0.000 C 
BRANCH  11  12
ATOM     12  C   UNL     1      33.346   3.740   9.645  1.00  0.00    -0.000 C 
BRANCH  12  13
ATOM     13  C   UNL     1      32.689   4.224  10.946  1.00  0.00    -0.000 C 
BRANCH  13  14
ATOM     14  C   UNL     1      33.084   3.328  12.127  1.00  0.00    -0.000 C 
BRANCH  14  15
ATOM     15  C   UNL     1      32.991   4.092  13.453  1.00  0.00    -0.003 C 
ATOM     16  C   UNL     1      34.185   5.022  13.638  1.00  0.00     0.004 C 
ENDBRANCH  14  15
ENDBRANCH  13  14
ENDBRANCH  12  13
ENDBRANCH  11  12
ENDBRANCH  10  11
ENDBRANCH   1  10
TORSDOF 12
ENDMDL
MODEL 8
REMARK VINA RESULT:    -4.529      0.587      1.571
REMARK INTER + INTRA:          -9.504
REMARK INTER:                  -7.767
REMARK INTRA:                  -1.737
REMARK UNBOUND:                -1.797
REMARK SMILES CCCCCCCCCCCCCC(=O)[O-]
REMARK SMILES IDX 8 1 9 2 10 3 11 4 12 5 13 6 14 7 15 8 16 9 7 10 6 11 5 12
REMARK SMILES IDX 4 13 3 14 2 15 1 16
REMARK H PARENT
REMARK Flexibility Score: inf
ROOT
ATOM      1  C   UNL     1      32.603   5.041  13.195  1.00  0.00     0.000 C 
ENDROOT
BRANCH   1   2
ATOM      2  C   UNL     1      32.236   4.532  11.793  1.00  0.00     0.000 C 
BRANCH   2   3
ATOM      3  C   UNL     1      33.231   3.489  11.264  1.00  0.00     0.000 C 
BRANCH   3   4
ATOM      4  C   UNL     1      32.777   2.858   9.935  1.00  0.00     0.000 C 
BRANCH   4   5
ATOM      5  C   UNL     1      32.551   3.904   8.833  1.00  0.00     0.006 C 
BRANCH   5   6
ATOM      6  C   UNL     1      33.821   4.698   8.503  1.00  0.00     0.053 C 
BRANCH   6   7
ATOM      7  C   UNL     1      33.514   5.794   7.532  1.00  0.00     0.041 C 
ATOM      8  O   UNL     1      32.943   5.532   6.441  1.00  0.00    -0.550 OA
ATOM      9  O   UNL     1      33.814   7.112   7.854  1.00  0.00    -0.550 OA
ENDBRANCH   6   7
ENDBRANCH   5   6
ENDBRANCH   4   5
ENDBRANCH   3   4
ENDBRANCH   2   3
ENDBRANCH   1   2
BRANCH   1  10
ATOM     10  C   UNL     1      34.066   4.722  13.530  1.00  0.00     0.000 C 
BRANCH  10  11
ATOM     11  C   UNL     1      34.937   5.984  13.443  1.00  0.00    -0.000 C 
BRANCH  11  12
ATOM     12  C   UNL     1      35.656   6.117  12.091  1.00  0.00    -0.000 C 
BRANCH  12  13
ATOM     13  C   UNL     1      35.023   7.184  11.186  1.00  0.00    -0.000 C 
BRANCH  13  14
ATOM     14  C   UNL     1      34.225   8.201  12.011  1.00  0.00    -0.000 C 
BRANCH  14  15
ATOM     15  C   UNL     1      32.789   8.328  11.487  1.00  0.00    -0.003 C 
ATOM     16  C   UNL     1      31.799   8.509  12.633  1.00  0.00     0.004 C 
ENDBRANCH  14  15
ENDBRANCH  13  14
ENDBRANCH  12  13
ENDBRANCH  11  12
ENDBRANCH  10  11
ENDBRANCH   1  10
TORSDOF 12
ENDMDL
MODEL 9
REMARK VINA RESULT:    -4.523      2.647      3.708
REMARK INTER + INTRA:          -9.494
REMARK INTER:                  -8.056
REMARK INTRA:                  -1.437
REMARK UNBOUND:                -1.797
REMARK SMILES CCCCCCCCCCCCCC(=O)[O-]
REMARK SMILES IDX 8 1 9 2 10 3 11 4 12 5 13 6 14 7 15 8 16 9 7 10 6 11 5 12
REMARK SMILES IDX 4 13 3 14 2 15 1 16
REMARK H PARENT
REMARK Flexibility Score: inf
ROOT
ATOM      1  C   UNL     1      36.635   5.871  10.346  1.00  0.00     0.000 C 
ENDROOT
BRANCH   1   2
ATOM      2  C   UNL     1      35.511   5.745   9.308  1.00  0.00     0.000 C 
BRANCH   2   3
ATOM      3  C   UNL     1      34.797   4.387   9.372  1.00  0.00     0.000 C 
BRANCH   3   4
ATOM      4  C   UNL     1      33.268   4.525   9.483  1.00  0.00     0.000 C 
BRANCH   4   5
ATOM      5  C   UNL     1      32.777   4.505  10.939  1.00  0.00     0.006 C 
BRANCH   5   6
ATOM      6  C   UNL     1      33.545   3.500  11.805  1.00  0.00     0.053 C 
BRANCH   6   7
ATOM      7  C   UNL     1      33.235   3.715  13.253  1.00  0.00     0.041 C 
ATOM      8  O   UNL     1      32.982   4.871  13.682  1.00  0.00    -0.550 OA
ATOM      9  O   UNL     1      33.178   2.631  14.120  1.00  0.00    -0.550 OA
ENDBRANCH   6   7
ENDBRANCH   5   6
ENDBRANCH   4   5
ENDBRANCH   3   4
ENDBRANCH   2   3
ENDBRANCH   1   2
BRANCH   1  10
ATOM     10  C   UNL     1      36.136   6.575  11.615  1.00  0.00     0.000 C 
BRANCH  10  11
ATOM     11  C   UNL     1      35.218   7.755  11.264  1.00  0.00    -0.000 C 
BRANCH  11  12
ATOM     12  C   UNL     1      33.989   7.844  12.182  1.00  0.00    -0.000 C 
BRANCH  12  13
ATOM     13  C   UNL     1      32.705   8.207  11.421  1.00  0.00    -0.000 C 
BRANCH  13  14
ATOM     14  C   UNL     1      31.734   8.982  12.320  1.00  0.00    -0.000 C 
BRANCH  14  15
ATOM     15  C   UNL     1      31.691  10.465  11.936  1.00  0.00    -0.003 C 
ATOM     16  C   UNL     1      30.311  11.062  12.192  1.00  0.00     0.004 C 
ENDBRANCH  14  15
ENDBRANCH  13  14
ENDBRANCH  12  13
ENDBRANCH  11  12
ENDBRANCH  10  11
ENDBRANCH   1  10
TORSDOF 12
ENDMDL
