MODEL 1
REMARK VINA RESULT:    -7.359      0.000      0.000
REMARK INTER + INTRA:          -9.278
REMARK INTER:                  -8.865
REMARK INTRA:                  -0.413
REMARK UNBOUND:                -0.413
REMARK SMILES O=c1c(O)c(-c2ccc(O)cc2O)oc2cc(O)cc(O)c12
REMARK SMILES IDX 5 1 3 2 2 3 1 4 22 5 20 6 19 7 17 8 16 9 15 10 14 11 6 12
REMARK SMILES IDX 8 13 7 14 9 15 11 16 12 17 10 18 13 20 4 22 21 24 18 26
REMARK H PARENT 10 19 13 21 4 23 21 25 18 27
REMARK Flexibility Score: inf
ROOT
ATOM      1  C   UNL     1       3.252 -11.825 -40.169  1.00  0.00     0.184 A 
ATOM      2  C   UNL     1       2.989 -11.501 -41.512  1.00  0.00     0.208 A 
ATOM      3  C   UNL     1       4.061 -11.428 -42.413  1.00  0.00     0.238 A 
ATOM      4  O   UNL     1       3.840 -11.127 -43.618  1.00  0.00    -0.285 OA
ATOM      5  C   UNL     1       5.370 -11.699 -41.962  1.00  0.00     0.111 A 
ATOM      6  C   UNL     1       6.505 -11.651 -42.806  1.00  0.00     0.134 A 
ATOM      7  C   UNL     1       7.774 -11.943 -42.284  1.00  0.00     0.093 A 
ATOM      8  C   UNL     1       7.929 -12.282 -40.938  1.00  0.00     0.123 A 
ATOM      9  C   UNL     1       6.811 -12.330 -40.098  1.00  0.00     0.094 A 
ATOM     10  C   UNL     1       5.539 -12.041 -40.600  1.00  0.00     0.146 A 
ATOM     11  O   UNL     1       4.495 -12.090 -39.780  1.00  0.00    -0.451 OA
ENDROOT
BRANCH   1  12
ATOM     12  C   UNL     1       2.170 -11.908 -39.165  1.00  0.00     0.063 A 
ATOM     13  C   UNL     1       0.592 -10.762 -37.712  1.00  0.00     0.047 A 
ATOM     14  C   UNL     1       1.620 -10.720 -38.659  1.00  0.00     0.020 A 
ATOM     15  C   UNL     1       0.093 -11.990 -37.271  1.00  0.00     0.119 A 
ATOM     16  C   UNL     1       0.618 -13.181 -37.788  1.00  0.00     0.093 A 
ATOM     17  C   UNL     1       1.646 -13.147 -38.742  1.00  0.00     0.130 A 
BRANCH  15  18
ATOM     18  O   UNL     1      -0.929 -12.016 -36.324  1.00  0.00    -0.508 OA
ATOM     19  H   UNL     1      -1.174 -11.193 -35.786  1.00  0.00     0.293 HD
ENDBRANCH  15  18
BRANCH  17  20
ATOM     20  O   UNL     1       2.128 -14.339 -39.285  1.00  0.00    -0.507 OA
ATOM     21  H   UNL     1       2.024 -14.555 -40.270  1.00  0.00     0.293 HD
ENDBRANCH  17  20
ENDBRANCH   1  12
BRANCH   2  22
ATOM     22  O   UNL     1       1.677 -11.283 -41.936  1.00  0.00    -0.502 OA
ATOM     23  H   UNL     1       1.290 -10.352 -42.047  1.00  0.00     0.293 HD
ENDBRANCH   2  22
BRANCH   6  24
ATOM     24  O   UNL     1       6.383 -11.317 -44.156  1.00  0.00    -0.507 OA
ATOM     25  H   UNL     1       7.151 -11.438 -44.807  1.00  0.00     0.293 HD
ENDBRANCH   6  24
BRANCH   8  26
ATOM     26  O   UNL     1       9.200 -12.567 -40.444  1.00  0.00    -0.508 OA
ATOM     27  H   UNL     1       9.929 -12.942 -41.039  1.00  0.00     0.293 HD
ENDBRANCH   8  26
TORSDOF 6
ENDMDL
MODEL 2
REMARK VINA RESULT:    -7.022      3.850      5.942
REMARK INTER + INTRA:          -8.872
REMARK INTER:                  -8.463
REMARK INTRA:                  -0.409
REMARK UNBOUND:                -0.413
REMARK SMILES O=c1c(O)c(-c2ccc(O)cc2O)oc2cc(O)cc(O)c12
REMARK SMILES IDX 5 1 3 2 2 3 1 4 22 5 20 6 19 7 17 8 16 9 15 10 14 11 6 12
REMARK SMILES IDX 8 13 7 14 9 15 11 16 12 17 10 18 13 20 4 22 21 24 18 26
REMARK H PARENT 10 19 13 21 4 23 21 25 18 27
REMARK Flexibility Score: inf
ROOT
ATOM      1  C   UNL     1       0.604 -10.159 -40.502  1.00  0.00     0.184 A 
ATOM      2  C   UNL     1      -0.420 -10.043 -41.459  1.00  0.00     0.208 A 
ATOM      3  C   UNL     1      -0.721  -8.776 -41.979  1.00  0.00     0.238 A 
ATOM      4  O   UNL     1      -1.645  -8.657 -42.830  1.00  0.00    -0.285 OA
ATOM      5  C   UNL     1       0.018  -7.654 -41.550  1.00  0.00     0.111 A 
ATOM      6  C   UNL     1      -0.218  -6.342 -42.028  1.00  0.00     0.134 A 
ATOM      7  C   UNL     1       0.567  -5.279 -41.559  1.00  0.00     0.093 A 
ATOM      8  C   UNL     1       1.581  -5.499 -40.625  1.00  0.00     0.123 A 
ATOM      9  C   UNL     1       1.820  -6.793 -40.149  1.00  0.00     0.094 A 
ATOM     10  C   UNL     1       1.048  -7.866 -40.603  1.00  0.00     0.146 A 
ATOM     11  O   UNL     1       1.292  -9.083 -40.131  1.00  0.00    -0.451 OA
ENDROOT
BRANCH   1  12
ATOM     12  C   UNL     1       0.964 -11.462 -39.905  1.00  0.00     0.063 A 
ATOM     13  C   UNL     1       0.570 -13.142 -38.192  1.00  0.00     0.047 A 
ATOM     14  C   UNL     1       0.259 -11.912 -38.779  1.00  0.00     0.020 A 
ATOM     15  C   UNL     1       1.579 -13.943 -38.732  1.00  0.00     0.119 A 
ATOM     16  C   UNL     1       2.274 -13.514 -39.871  1.00  0.00     0.093 A 
ATOM     17  C   UNL     1       1.963 -12.283 -40.468  1.00  0.00     0.130 A 
BRANCH  15  18
ATOM     18  O   UNL     1       1.882 -15.164 -38.134  1.00  0.00    -0.508 OA
ATOM     19  H   UNL     1       1.504 -15.419 -37.229  1.00  0.00     0.293 HD
ENDBRANCH  15  18
BRANCH  17  20
ATOM     20  O   UNL     1       2.628 -11.889 -41.630  1.00  0.00    -0.507 OA
ATOM     21  H   UNL     1       3.211 -12.531 -42.153  1.00  0.00     0.293 HD
ENDBRANCH  17  20
ENDBRANCH   1  12
BRANCH   2  22
ATOM     22  O   UNL     1      -1.102 -11.180 -41.896  1.00  0.00    -0.502 OA
ATOM     23  H   UNL     1      -2.089 -11.166 -42.127  1.00  0.00     0.293 HD
ENDBRANCH   2  22
BRANCH   6  24
ATOM     24  O   UNL     1      -1.224  -6.088 -42.961  1.00  0.00    -0.507 OA
ATOM     25  H   UNL     1      -1.470  -6.763 -43.677  1.00  0.00     0.293 HD
ENDBRANCH   6  24
BRANCH   8  26
ATOM     26  O   UNL     1       2.347  -4.426 -40.175  1.00  0.00    -0.508 OA
ATOM     27  H   UNL     1       3.347  -4.387 -40.329  1.00  0.00     0.293 HD
ENDBRANCH   8  26
TORSDOF 6
ENDMDL
MODEL 3
REMARK VINA RESULT:    -6.816      1.652      3.522
REMARK INTER + INTRA:          -8.624
REMARK INTER:                  -8.382
REMARK INTRA:                  -0.242
REMARK UNBOUND:                -0.413
REMARK SMILES O=c1c(O)c(-c2ccc(O)cc2O)oc2cc(O)cc(O)c12
REMARK SMILES IDX 5 1 3 2 2 3 1 4 22 5 20 6 19 7 17 8 16 9 15 10 14 11 6 12
REMARK SMILES IDX 8 13 7 14 9 15 11 16 12 17 10 18 13 20 4 22 21 24 18 26
REMARK H PARENT 10 19 13 21 4 23 21 25 18 27
REMARK Flexibility Score: inf
ROOT
ATOM      1  C   UNL     1       2.791 -11.468 -40.773  1.00  0.00     0.184 A 
ATOM      2  C   UNL     1       4.144 -11.846 -40.797  1.00  0.00     0.208 A 
ATOM      3  C   UNL     1       4.882 -11.650 -41.974  1.00  0.00     0.238 A 
ATOM      4  O   UNL     1       6.094 -11.995 -42.012  1.00  0.00    -0.285 OA
ATOM      5  C   UNL     1       4.259 -11.065 -43.096  1.00  0.00     0.111 A 
ATOM      6  C   UNL     1       4.932 -10.830 -44.320  1.00  0.00     0.134 A 
ATOM      7  C   UNL     1       4.245 -10.234 -45.388  1.00  0.00     0.093 A 
ATOM      8  C   UNL     1       2.904  -9.870 -45.258  1.00  0.00     0.123 A 
ATOM      9  C   UNL     1       2.233 -10.100 -44.052  1.00  0.00     0.094 A 
ATOM     10  C   UNL     1       2.899 -10.693 -42.976  1.00  0.00     0.146 A 
ATOM     11  O   UNL     1       2.238 -10.905 -41.843  1.00  0.00    -0.451 OA
ENDROOT
BRANCH   1  12
ATOM     12  C   UNL     1       1.953 -11.656 -39.569  1.00  0.00     0.063 A 
ATOM     13  C   UNL     1       0.563 -10.676 -37.832  1.00  0.00     0.047 A 
ATOM     14  C   UNL     1       1.365 -10.533 -38.968  1.00  0.00     0.020 A 
ATOM     15  C   UNL     1       0.328 -11.943 -37.292  1.00  0.00     0.119 A 
ATOM     16  C   UNL     1       0.892 -13.073 -37.899  1.00  0.00     0.093 A 
ATOM     17  C   UNL     1       1.693 -12.938 -39.042  1.00  0.00     0.130 A 
BRANCH  15  18
ATOM     18  O   UNL     1      -0.469 -12.070 -36.157  1.00  0.00    -0.508 OA
ATOM     19  H   UNL     1      -0.315 -12.808 -35.481  1.00  0.00     0.293 HD
ENDBRANCH  15  18
BRANCH  17  20
ATOM     20  O   UNL     1       2.209 -14.075 -39.666  1.00  0.00    -0.507 OA
ATOM     21  H   UNL     1       2.853 -14.696 -39.192  1.00  0.00     0.293 HD
ENDBRANCH  17  20
ENDBRANCH   1  12
BRANCH   2  22
ATOM     22  O   UNL     1       4.743 -12.381 -39.654  1.00  0.00    -0.502 OA
ATOM     23  H   UNL     1       4.581 -13.335 -39.353  1.00  0.00     0.293 HD
ENDBRANCH   2  22
BRANCH   6  24
ATOM     24  O   UNL     1       6.272 -11.183 -44.482  1.00  0.00    -0.507 OA
ATOM     25  H   UNL     1       7.011 -10.727 -43.958  1.00  0.00     0.293 HD
ENDBRANCH   6  24
BRANCH   8  26
ATOM     26  O   UNL     1       2.244  -9.279 -46.334  1.00  0.00    -0.508 OA
ATOM     27  H   UNL     1       2.460  -8.338 -46.636  1.00  0.00     0.293 HD
ENDBRANCH   8  26
TORSDOF 6
ENDMDL
MODEL 4
REMARK VINA RESULT:    -6.812      3.255      6.499
REMARK INTER + INTRA:          -8.619
REMARK INTER:                  -8.290
REMARK INTRA:                  -0.329
REMARK UNBOUND:                -0.413
REMARK SMILES O=c1c(O)c(-c2ccc(O)cc2O)oc2cc(O)cc(O)c12
REMARK SMILES IDX 5 1 3 2 2 3 1 4 22 5 20 6 19 7 17 8 16 9 15 10 14 11 6 12
REMARK SMILES IDX 8 13 7 14 9 15 11 16 12 17 10 18 13 20 4 22 21 24 18 26
REMARK H PARENT 10 19 13 21 4 23 21 25 18 27
REMARK Flexibility Score: inf
ROOT
ATOM      1  C   UNL     1       2.141  -9.375 -40.770  1.00  0.00     0.184 A 
ATOM      2  C   UNL     1       2.801 -10.480 -41.336  1.00  0.00     0.208 A 
ATOM      3  C   UNL     1       2.652 -11.739 -40.734  1.00  0.00     0.238 A 
ATOM      4  O   UNL     1       3.248 -12.736 -41.226  1.00  0.00    -0.285 OA
ATOM      5  C   UNL     1       1.834 -11.873 -39.593  1.00  0.00     0.111 A 
ATOM      6  C   UNL     1       1.628 -13.106 -38.929  1.00  0.00     0.134 A 
ATOM      7  C   UNL     1       0.791 -13.159 -37.804  1.00  0.00     0.093 A 
ATOM      8  C   UNL     1       0.158 -12.008 -37.333  1.00  0.00     0.123 A 
ATOM      9  C   UNL     1       0.357 -10.786 -37.984  1.00  0.00     0.094 A 
ATOM     10  C   UNL     1       1.189 -10.712 -39.106  1.00  0.00     0.146 A 
ATOM     11  O   UNL     1       1.365  -9.539 -39.703  1.00  0.00    -0.451 OA
ENDROOT
BRANCH   1  12
ATOM     12  C   UNL     1       2.264  -8.020 -41.347  1.00  0.00     0.063 A 
ATOM     13  C   UNL     1       3.167  -5.767 -41.185  1.00  0.00     0.047 A 
ATOM     14  C   UNL     1       3.025  -7.058 -40.666  1.00  0.00     0.020 A 
ATOM     15  C   UNL     1       2.562  -5.428 -42.398  1.00  0.00     0.119 A 
ATOM     16  C   UNL     1       1.820  -6.389 -43.098  1.00  0.00     0.093 A 
ATOM     17  C   UNL     1       1.678  -7.687 -42.586  1.00  0.00     0.130 A 
BRANCH  15  18
ATOM     18  O   UNL     1       2.707  -4.138 -42.902  1.00  0.00    -0.508 OA
ATOM     19  H   UNL     1       2.450  -3.324 -42.356  1.00  0.00     0.293 HD
ENDBRANCH  15  18
BRANCH  17  20
ATOM     20  O   UNL     1       0.978  -8.648 -43.315  1.00  0.00    -0.507 OA
ATOM     21  H   UNL     1      -0.032  -8.625 -43.394  1.00  0.00     0.293 HD
ENDBRANCH  17  20
ENDBRANCH   1  12
BRANCH   2  22
ATOM     22  O   UNL     1       3.567 -10.323 -42.493  1.00  0.00    -0.502 OA
ATOM     23  H   UNL     1       3.405  -9.571 -43.153  1.00  0.00     0.293 HD
ENDBRANCH   2  22
BRANCH   6  24
ATOM     24  O   UNL     1       2.246 -14.275 -39.375  1.00  0.00    -0.507 OA
ATOM     25  H   UNL     1       2.003 -14.701 -40.262  1.00  0.00     0.293 HD
ENDBRANCH   6  24
BRANCH   8  26
ATOM     26  O   UNL     1      -0.669 -12.087 -36.214  1.00  0.00    -0.508 OA
ATOM     27  H   UNL     1      -1.267 -11.317 -35.941  1.00  0.00     0.293 HD
ENDBRANCH   8  26
TORSDOF 6
ENDMDL
MODEL 5
REMARK VINA RESULT:    -6.738      5.025      8.606
REMARK INTER + INTRA:          -8.530
REMARK INTER:                  -8.192
REMARK INTRA:                  -0.338
REMARK UNBOUND:                -0.413
REMARK SMILES O=c1c(O)c(-c2ccc(O)cc2O)oc2cc(O)cc(O)c12
REMARK SMILES IDX 5 1 3 2 2 3 1 4 22 5 20 6 19 7 17 8 16 9 15 10 14 11 6 12
REMARK SMILES IDX 8 13 7 14 9 15 11 16 12 17 10 18 13 20 4 22 21 24 18 26
REMARK H PARENT 10 19 13 21 4 23 21 25 18 27
REMARK Flexibility Score: inf
ROOT
ATOM      1  C   UNL     1       2.000  -8.020 -43.598  1.00  0.00     0.184 A 
ATOM      2  C   UNL     1       1.801  -6.702 -43.152  1.00  0.00     0.208 A 
ATOM      3  C   UNL     1       0.615  -6.389 -42.472  1.00  0.00     0.238 A 
ATOM      4  O   UNL     1       0.420  -5.207 -42.076  1.00  0.00    -0.285 OA
ATOM      5  C   UNL     1      -0.338  -7.400 -42.233  1.00  0.00     0.111 A 
ATOM      6  C   UNL     1      -1.558  -7.170 -41.552  1.00  0.00     0.134 A 
ATOM      7  C   UNL     1      -2.451  -8.231 -41.345  1.00  0.00     0.093 A 
ATOM      8  C   UNL     1      -2.151  -9.515 -41.805  1.00  0.00     0.123 A 
ATOM      9  C   UNL     1      -0.948  -9.750 -42.479  1.00  0.00     0.094 A 
ATOM     10  C   UNL     1      -0.045  -8.705 -42.696  1.00  0.00     0.146 A 
ATOM     11  O   UNL     1       1.088  -8.954 -43.343  1.00  0.00    -0.451 OA
ENDROOT
BRANCH   1  12
ATOM     12  C   UNL     1       3.222  -8.415 -44.331  1.00  0.00     0.063 A 
ATOM     13  C   UNL     1       5.640  -8.667 -44.354  1.00  0.00     0.047 A 
ATOM     14  C   UNL     1       4.466  -8.297 -43.692  1.00  0.00     0.020 A 
ATOM     15  C   UNL     1       5.584  -9.172 -45.655  1.00  0.00     0.119 A 
ATOM     16  C   UNL     1       4.345  -9.317 -46.293  1.00  0.00     0.093 A 
ATOM     17  C   UNL     1       3.162  -8.953 -45.633  1.00  0.00     0.130 A 
BRANCH  15  18
ATOM     18  O   UNL     1       6.763  -9.533 -46.304  1.00  0.00    -0.508 OA
ATOM     19  H   UNL     1       7.601  -8.968 -46.232  1.00  0.00     0.293 HD
ENDBRANCH  15  18
BRANCH  17  20
ATOM     20  O   UNL     1       1.930  -9.147 -46.260  1.00  0.00    -0.507 OA
ATOM     21  H   UNL     1       1.835  -9.744 -47.073  1.00  0.00     0.293 HD
ENDBRANCH  17  20
ENDBRANCH   1  12
BRANCH   2  22
ATOM     22  O   UNL     1       2.785  -5.734 -43.365  1.00  0.00    -0.502 OA
ATOM     23  H   UNL     1       3.561  -5.599 -42.726  1.00  0.00     0.293 HD
ENDBRANCH   2  22
BRANCH   6  24
ATOM     24  O   UNL     1      -1.888  -5.898 -41.080  1.00  0.00    -0.507 OA
ATOM     25  H   UNL     1      -1.637  -5.058 -41.590  1.00  0.00     0.293 HD
ENDBRANCH   6  24
BRANCH   8  26
ATOM     26  O   UNL     1      -3.055 -10.552 -41.587  1.00  0.00    -0.508 OA
ATOM     27  H   UNL     1      -2.745 -11.480 -41.328  1.00  0.00     0.293 HD
ENDBRANCH   8  26
TORSDOF 6
ENDMDL
MODEL 6
REMARK VINA RESULT:    -6.680      5.385      8.072
REMARK INTER + INTRA:          -8.460
REMARK INTER:                  -8.032
REMARK INTRA:                  -0.427
REMARK UNBOUND:                -0.413
REMARK SMILES O=c1c(O)c(-c2ccc(O)cc2O)oc2cc(O)cc(O)c12
REMARK SMILES IDX 5 1 3 2 2 3 1 4 22 5 20 6 19 7 17 8 16 9 15 10 14 11 6 12
REMARK SMILES IDX 8 13 7 14 9 15 11 16 12 17 10 18 13 20 4 22 21 24 18 26
REMARK H PARENT 10 19 13 21 4 23 21 25 18 27
REMARK Flexibility Score: inf
ROOT
ATOM      1  C   UNL     1       8.924  -8.797 -40.869  1.00  0.00     0.184 A 
ATOM      2  C   UNL     1      10.312  -8.651 -40.700  1.00  0.00     0.208 A 
ATOM      3  C   UNL     1      10.832  -7.374 -40.438  1.00  0.00     0.238 A 
ATOM      4  O   UNL     1      12.076  -7.228 -40.295  1.00  0.00    -0.285 OA
ATOM      5  C   UNL     1       9.955  -6.275 -40.333  1.00  0.00     0.111 A 
ATOM      6  C   UNL     1      10.396  -4.955 -40.067  1.00  0.00     0.134 A 
ATOM      7  C   UNL     1       9.460  -3.915 -39.967  1.00  0.00     0.093 A 
ATOM      8  C   UNL     1       8.097  -4.167 -40.126  1.00  0.00     0.123 A 
ATOM      9  C   UNL     1       7.654  -5.468 -40.389  1.00  0.00     0.094 A 
ATOM     10  C   UNL     1       8.571  -6.517 -40.493  1.00  0.00     0.146 A 
ATOM     11  O   UNL     1       8.124  -7.742 -40.748  1.00  0.00    -0.451 OA
ENDROOT
BRANCH   1  12
ATOM     12  C   UNL     1       8.312 -10.112 -41.158  1.00  0.00     0.063 A 
ATOM     13  C   UNL     1       7.606 -12.296 -40.355  1.00  0.00     0.047 A 
ATOM     14  C   UNL     1       8.185 -11.046 -40.118  1.00  0.00     0.020 A 
ATOM     15  C   UNL     1       7.135 -12.622 -41.629  1.00  0.00     0.119 A 
ATOM     16  C   UNL     1       7.235 -11.688 -42.669  1.00  0.00     0.093 A 
ATOM     17  C   UNL     1       7.810 -10.429 -42.437  1.00  0.00     0.130 A 
BRANCH  15  18
ATOM     18  O   UNL     1       6.564 -13.873 -41.852  1.00  0.00    -0.508 OA
ATOM     19  H   UNL     1       6.282 -14.169 -42.779  1.00  0.00     0.293 HD
ENDBRANCH  15  18
BRANCH  17  20
ATOM     20  O   UNL     1       7.860  -9.489 -43.467  1.00  0.00    -0.507 OA
ATOM     21  H   UNL     1       8.335  -9.683 -44.341  1.00  0.00     0.293 HD
ENDBRANCH  17  20
ENDBRANCH   1  12
BRANCH   2  22
ATOM     22  O   UNL     1      11.148  -9.768 -40.766  1.00  0.00    -0.502 OA
ATOM     23  H   UNL     1      11.668 -10.104 -39.964  1.00  0.00     0.293 HD
ENDBRANCH   2  22
BRANCH   6  24
ATOM     24  O   UNL     1      11.753  -4.671 -39.903  1.00  0.00    -0.507 OA
ATOM     25  H   UNL     1      12.471  -5.199 -40.388  1.00  0.00     0.293 HD
ENDBRANCH   6  24
BRANCH   8  26
ATOM     26  O   UNL     1       7.187  -3.116 -40.022  1.00  0.00    -0.508 OA
ATOM     27  H   UNL     1       6.726  -2.732 -40.837  1.00  0.00     0.293 HD
ENDBRANCH   8  26
TORSDOF 6
ENDMDL
MODEL 7
REMARK VINA RESULT:    -6.656      6.024      7.490
REMARK INTER + INTRA:          -8.431
REMARK INTER:                  -8.037
REMARK INTRA:                  -0.394
REMARK UNBOUND:                -0.413
REMARK SMILES O=c1c(O)c(-c2ccc(O)cc2O)oc2cc(O)cc(O)c12
REMARK SMILES IDX 5 1 3 2 2 3 1 4 22 5 20 6 19 7 17 8 16 9 15 10 14 11 6 12
REMARK SMILES IDX 8 13 7 14 9 15 11 16 12 17 10 18 13 20 4 22 21 24 18 26
REMARK H PARENT 10 19 13 21 4 23 21 25 18 27
REMARK Flexibility Score: inf
ROOT
ATOM      1  C   UNL     1       6.045  -6.276 -41.759  1.00  0.00     0.184 A 
ATOM      2  C   UNL     1       4.733  -5.857 -42.038  1.00  0.00     0.208 A 
ATOM      3  C   UNL     1       4.018  -6.504 -43.058  1.00  0.00     0.238 A 
ATOM      4  O   UNL     1       2.844  -6.129 -43.326  1.00  0.00    -0.285 OA
ATOM      5  C   UNL     1       4.619  -7.567 -43.762  1.00  0.00     0.111 A 
ATOM      6  C   UNL     1       3.966  -8.275 -44.801  1.00  0.00     0.134 A 
ATOM      7  C   UNL     1       4.628  -9.329 -45.448  1.00  0.00     0.093 A 
ATOM      8  C   UNL     1       5.925  -9.688 -45.079  1.00  0.00     0.123 A 
ATOM      9  C   UNL     1       6.576  -8.993 -44.054  1.00  0.00     0.094 A 
ATOM     10  C   UNL     1       5.934  -7.940 -43.398  1.00  0.00     0.146 A 
ATOM     11  O   UNL     1       6.576  -7.293 -42.431  1.00  0.00    -0.451 OA
ENDROOT
BRANCH   1  12
ATOM     12  C   UNL     1       6.858  -5.631 -40.706  1.00  0.00     0.063 A 
ATOM     13  C   UNL     1       8.032  -3.657 -39.905  1.00  0.00     0.047 A 
ATOM     14  C   UNL     1       7.266  -4.300 -40.883  1.00  0.00     0.020 A 
ATOM     15  C   UNL     1       8.385  -4.332 -38.734  1.00  0.00     0.119 A 
ATOM     16  C   UNL     1       7.962  -5.653 -38.537  1.00  0.00     0.093 A 
ATOM     17  C   UNL     1       7.190  -6.303 -39.511  1.00  0.00     0.130 A 
BRANCH  15  18
ATOM     18  O   UNL     1       9.152  -3.681 -37.770  1.00  0.00    -0.508 OA
ATOM     19  H   UNL     1       9.495  -4.166 -36.950  1.00  0.00     0.293 HD
ENDBRANCH  15  18
BRANCH  17  20
ATOM     20  O   UNL     1       6.733  -7.601 -39.282  1.00  0.00    -0.507 OA
ATOM     21  H   UNL     1       7.311  -8.410 -39.476  1.00  0.00     0.293 HD
ENDBRANCH  17  20
ENDBRANCH   1  12
BRANCH   2  22
ATOM     22  O   UNL     1       4.151  -4.830 -41.292  1.00  0.00    -0.502 OA
ATOM     23  H   UNL     1       3.941  -3.922 -41.690  1.00  0.00     0.293 HD
ENDBRANCH   2  22
BRANCH   6  24
ATOM     24  O   UNL     1       2.669  -7.940 -45.193  1.00  0.00    -0.507 OA
ATOM     25  H   UNL     1       2.435  -7.755 -46.162  1.00  0.00     0.293 HD
ENDBRANCH   6  24
BRANCH   8  26
ATOM     26  O   UNL     1       6.561 -10.739 -45.738  1.00  0.00    -0.508 OA
ATOM     27  H   UNL     1       7.560 -10.885 -45.662  1.00  0.00     0.293 HD
ENDBRANCH   8  26
TORSDOF 6
ENDMDL
MODEL 8
REMARK VINA RESULT:    -6.620      5.982      9.047
REMARK INTER + INTRA:          -8.387
REMARK INTER:                  -7.992
REMARK INTRA:                  -0.395
REMARK UNBOUND:                -0.413
REMARK SMILES O=c1c(O)c(-c2ccc(O)cc2O)oc2cc(O)cc(O)c12
REMARK SMILES IDX 5 1 3 2 2 3 1 4 22 5 20 6 19 7 17 8 16 9 15 10 14 11 6 12
REMARK SMILES IDX 8 13 7 14 9 15 11 16 12 17 10 18 13 20 4 22 21 24 18 26
REMARK H PARENT 10 19 13 21 4 23 21 25 18 27
REMARK Flexibility Score: inf
ROOT
ATOM      1  C   UNL     1       9.286  -7.995 -41.479  1.00  0.00     0.184 A 
ATOM      2  C   UNL     1      10.440  -8.517 -40.869  1.00  0.00     0.208 A 
ATOM      3  C   UNL     1      11.064  -7.776 -39.855  1.00  0.00     0.238 A 
ATOM      4  O   UNL     1      12.107  -8.228 -39.308  1.00  0.00    -0.285 OA
ATOM      5  C   UNL     1      10.514  -6.539 -39.458  1.00  0.00     0.111 A 
ATOM      6  C   UNL     1      11.079  -5.731 -38.441  1.00  0.00     0.134 A 
ATOM      7  C   UNL     1      10.467  -4.518 -38.096  1.00  0.00     0.093 A 
ATOM      8  C   UNL     1       9.305  -4.097 -38.744  1.00  0.00     0.123 A 
ATOM      9  C   UNL     1       8.741  -4.890 -39.749  1.00  0.00     0.094 A 
ATOM     10  C   UNL     1       9.337  -6.102 -40.109  1.00  0.00     0.146 A 
ATOM     11  O   UNL     1       8.784  -6.834 -41.070  1.00  0.00    -0.451 OA
ENDROOT
BRANCH   1  12
ATOM     12  C   UNL     1       8.585  -8.719 -42.561  1.00  0.00     0.063 A 
ATOM     13  C   UNL     1       6.744 -10.151 -43.249  1.00  0.00     0.047 A 
ATOM     14  C   UNL     1       7.434  -9.459 -42.250  1.00  0.00     0.020 A 
ATOM     15  C   UNL     1       7.187 -10.100 -44.573  1.00  0.00     0.119 A 
ATOM     16  C   UNL     1       8.321  -9.344 -44.899  1.00  0.00     0.093 A 
ATOM     17  C   UNL     1       9.016  -8.643 -43.902  1.00  0.00     0.130 A 
BRANCH  15  18
ATOM     18  O   UNL     1       6.492 -10.798 -45.558  1.00  0.00    -0.508 OA
ATOM     19  H   UNL     1       5.494 -10.682 -45.685  1.00  0.00     0.293 HD
ENDBRANCH  15  18
BRANCH  17  20
ATOM     20  O   UNL     1      10.114  -7.854 -44.246  1.00  0.00    -0.507 OA
ATOM     21  H   UNL     1      10.601  -7.975 -45.126  1.00  0.00     0.293 HD
ENDBRANCH  17  20
ENDBRANCH   1  12
BRANCH   2  22
ATOM     22  O   UNL     1      10.933  -9.765 -41.255  1.00  0.00    -0.502 OA
ATOM     23  H   UNL     1      10.530 -10.634 -40.923  1.00  0.00     0.293 HD
ENDBRANCH   2  22
BRANCH   6  24
ATOM     24  O   UNL     1      12.241  -6.124 -37.774  1.00  0.00    -0.507 OA
ATOM     25  H   UNL     1      13.062  -6.445 -38.276  1.00  0.00     0.293 HD
ENDBRANCH   6  24
BRANCH   8  26
ATOM     26  O   UNL     1       8.716  -2.887 -38.382  1.00  0.00    -0.508 OA
ATOM     27  H   UNL     1       9.265  -2.045 -38.262  1.00  0.00     0.293 HD
ENDBRANCH   8  26
TORSDOF 6
ENDMDL
MODEL 9
REMARK VINA RESULT:    -6.617      6.172      7.852
REMARK INTER + INTRA:          -8.384
REMARK INTER:                  -7.975
REMARK INTRA:                  -0.409
REMARK UNBOUND:                -0.413
REMARK SMILES O=c1c(O)c(-c2ccc(O)cc2O)oc2cc(O)cc(O)c12
REMARK SMILES IDX 5 1 3 2 2 3 1 4 22 5 20 6 19 7 17 8 16 9 15 10 14 11 6 12
REMARK SMILES IDX 8 13 7 14 9 15 11 16 12 17 10 18 13 20 4 22 21 24 18 26
REMARK H PARENT 10 19 13 21 4 23 21 25 18 27
REMARK Flexibility Score: inf
ROOT
ATOM      1  C   UNL     1       8.008  -9.041 -44.021  1.00  0.00     0.184 A 
ATOM      2  C   UNL     1       7.930  -8.493 -42.729  1.00  0.00     0.208 A 
ATOM      3  C   UNL     1       9.117  -8.263 -42.017  1.00  0.00     0.238 A 
ATOM      4  O   UNL     1       9.059  -7.782 -40.853  1.00  0.00    -0.285 OA
ATOM      5  C   UNL     1      10.357  -8.566 -42.617  1.00  0.00     0.111 A 
ATOM      6  C   UNL     1      11.600  -8.361 -41.970  1.00  0.00     0.134 A 
ATOM      7  C   UNL     1      12.792  -8.679 -42.637  1.00  0.00     0.093 A 
ATOM      8  C   UNL     1      12.767  -9.196 -43.933  1.00  0.00     0.123 A 
ATOM      9  C   UNL     1      11.543  -9.401 -44.578  1.00  0.00     0.094 A 
ATOM     10  C   UNL     1      10.344  -9.092 -43.930  1.00  0.00     0.146 A 
ATOM     11  O   UNL     1       9.194  -9.301 -44.563  1.00  0.00    -0.451 OA
ENDROOT
BRANCH   1  12
ATOM     12  C   UNL     1       6.796  -9.319 -44.820  1.00  0.00     0.063 A 
ATOM     13  C   UNL     1       4.987 -10.841 -45.390  1.00  0.00     0.047 A 
ATOM     14  C   UNL     1       6.139 -10.548 -44.653  1.00  0.00     0.020 A 
ATOM     15  C   UNL     1       4.471  -9.905 -46.290  1.00  0.00     0.119 A 
ATOM     16  C   UNL     1       5.107  -8.667 -46.446  1.00  0.00     0.093 A 
ATOM     17  C   UNL     1       6.259  -8.363 -45.707  1.00  0.00     0.130 A 
BRANCH  15  18
ATOM     18  O   UNL     1       3.326 -10.213 -47.020  1.00  0.00    -0.508 OA
ATOM     19  H   UNL     1       2.766  -9.491 -47.458  1.00  0.00     0.293 HD
ENDBRANCH  15  18
BRANCH  17  20
ATOM     20  O   UNL     1       6.855  -7.108 -45.835  1.00  0.00    -0.507 OA
ATOM     21  H   UNL     1       7.663  -6.844 -45.284  1.00  0.00     0.293 HD
ENDBRANCH  17  20
ENDBRANCH   1  12
BRANCH   2  22
ATOM     22  O   UNL     1       6.689  -8.162 -42.182  1.00  0.00    -0.502 OA
ATOM     23  H   UNL     1       6.537  -8.095 -41.181  1.00  0.00     0.293 HD
ENDBRANCH   2  22
BRANCH   6  24
ATOM     24  O   UNL     1      11.659  -7.846 -40.674  1.00  0.00    -0.507 OA
ATOM     25  H   UNL     1      10.982  -8.106 -39.965  1.00  0.00     0.293 HD
ENDBRANCH   6  24
BRANCH   8  26
ATOM     26  O   UNL     1      13.966  -9.504 -44.574  1.00  0.00    -0.508 OA
ATOM     27  H   UNL     1      14.525 -10.301 -44.298  1.00  0.00     0.293 HD
ENDBRANCH   8  26
TORSDOF 6
ENDMDL
