MODEL 1
REMARK VINA RESULT:    -6.690      0.000      0.000
REMARK INTER + INTRA:          -8.386
REMARK INTER:                  -8.059
REMARK INTRA:                  -0.328
REMARK UNBOUND:                -0.328
REMARK SMILES O=c1c(O)c(-c2ccc(O)c(O)c2)oc2cc(O)cc(O)c12
REMARK SMILES IDX 5 1 3 2 2 3 1 4 22 5 20 6 19 7 17 8 16 9 15 10 14 11 6 12
REMARK SMILES IDX 7 13 8 14 9 15 13 16 11 17 10 18 12 20 4 22 21 24 18 26
REMARK H PARENT 10 19 12 21 4 23 21 25 18 27
REMARK Flexibility Score: inf
ROOT
ATOM      1  C   UNL     1      10.030  12.550 -16.873  1.00  0.00     0.180 A 
ATOM      2  C   UNL     1      10.824  13.618 -16.421  1.00  0.00     0.208 A 
ATOM      3  C   UNL     1      10.866  14.802 -17.174  1.00  0.00     0.238 A 
ATOM      4  O   UNL     1      11.621  15.735 -16.792  1.00  0.00    -0.285 OA
ATOM      5  C   UNL     1      10.102  14.910 -18.360  1.00  0.00     0.111 A 
ATOM      6  C   UNL     1      10.038  16.076 -19.180  1.00  0.00     0.134 A 
ATOM      7  C   UNL     1       9.353  16.027 -20.400  1.00  0.00     0.093 A 
ATOM      8  C   UNL     1       8.677  14.875 -20.801  1.00  0.00     0.123 A 
ATOM      9  C   UNL     1       8.683  13.747 -19.978  1.00  0.00     0.094 A 
ATOM     10  C   UNL     1       9.387  13.755 -18.772  1.00  0.00     0.146 A 
ATOM     11  O   UNL     1       9.377  12.658 -18.024  1.00  0.00    -0.452 OA
ENDROOT
BRANCH   1  12
ATOM     12  C   UNL     1       9.916  11.280 -16.120  1.00  0.00     0.025 A 
ATOM     13  C   UNL     1      10.809  10.232 -16.395  1.00  0.00     0.016 A 
ATOM     14  C   UNL     1      10.707   9.017 -15.713  1.00  0.00     0.051 A 
ATOM     15  C   UNL     1       9.700   8.827 -14.757  1.00  0.00     0.157 A 
ATOM     16  C   UNL     1       8.894  11.077 -15.176  1.00  0.00     0.062 A 
ATOM     17  C   UNL     1       8.790   9.858 -14.491  1.00  0.00     0.158 A 
BRANCH  15  18
ATOM     18  O   UNL     1       9.595   7.618 -14.072  1.00  0.00    -0.504 OA
ATOM     19  H   UNL     1       9.541   7.586 -13.061  1.00  0.00     0.293 HD
ENDBRANCH  15  18
BRANCH  17  20
ATOM     20  O   UNL     1       7.780   9.661 -13.550  1.00  0.00    -0.504 OA
ATOM     21  H   UNL     1       7.144  10.407 -13.291  1.00  0.00     0.293 HD
ENDBRANCH  17  20
ENDBRANCH   1  12
BRANCH   2  22
ATOM     22  O   UNL     1      11.588  13.483 -15.257  1.00  0.00    -0.502 OA
ATOM     23  H   UNL     1      11.639  12.615 -14.738  1.00  0.00     0.293 HD
ENDBRANCH   2  22
BRANCH   6  24
ATOM     24  O   UNL     1      10.601  17.308 -18.831  1.00  0.00    -0.507 OA
ATOM     25  H   UNL     1      10.445  18.172 -19.327  1.00  0.00     0.293 HD
ENDBRANCH   6  24
BRANCH   8  26
ATOM     26  O   UNL     1       7.992  14.865 -22.014  1.00  0.00    -0.508 OA
ATOM     27  H   UNL     1       7.029  15.171 -22.081  1.00  0.00     0.293 HD
ENDBRANCH   8  26
TORSDOF 6
ENDMDL
MODEL 2
REMARK VINA RESULT:    -6.403      0.625      1.419
REMARK INTER + INTRA:          -8.041
REMARK INTER:                  -7.812
REMARK INTRA:                  -0.229
REMARK UNBOUND:                -0.328
REMARK SMILES O=c1c(O)c(-c2ccc(O)c(O)c2)oc2cc(O)cc(O)c12
REMARK SMILES IDX 5 1 3 2 2 3 1 4 22 5 20 6 19 7 17 8 16 9 15 10 14 11 6 12
REMARK SMILES IDX 7 13 8 14 9 15 13 16 11 17 10 18 12 20 4 22 21 24 18 26
REMARK H PARENT 10 19 12 21 4 23 21 25 18 27
REMARK Flexibility Score: inf
ROOT
ATOM      1  C   UNL     1       9.883  12.671 -17.039  1.00  0.00     0.180 A 
ATOM      2  C   UNL     1      10.697  13.699 -16.536  1.00  0.00     0.208 A 
ATOM      3  C   UNL     1      10.820  14.891 -17.269  1.00  0.00     0.238 A 
ATOM      4  O   UNL     1      11.594  15.787 -16.841  1.00  0.00    -0.285 OA
ATOM      5  C   UNL     1      10.114  15.045 -18.486  1.00  0.00     0.111 A 
ATOM      6  C   UNL     1      10.133  16.223 -19.291  1.00  0.00     0.134 A 
ATOM      7  C   UNL     1       9.501  16.218 -20.540  1.00  0.00     0.093 A 
ATOM      8  C   UNL     1       8.798  15.099 -20.986  1.00  0.00     0.123 A 
ATOM      9  C   UNL     1       8.722  13.961 -20.182  1.00  0.00     0.094 A 
ATOM     10  C   UNL     1       9.373  13.925 -18.946  1.00  0.00     0.146 A 
ATOM     11  O   UNL     1       9.285  12.820 -18.215  1.00  0.00    -0.452 OA
ENDROOT
BRANCH   1  12
ATOM     12  C   UNL     1       9.684  11.396 -16.311  1.00  0.00     0.025 A 
ATOM     13  C   UNL     1       8.466  11.158 -15.655  1.00  0.00     0.016 A 
ATOM     14  C   UNL     1       8.264   9.973 -14.943  1.00  0.00     0.051 A 
ATOM     15  C   UNL     1       9.283   9.015 -14.865  1.00  0.00     0.157 A 
ATOM     16  C   UNL     1      10.712  10.441 -16.211  1.00  0.00     0.062 A 
ATOM     17  C   UNL     1      10.511   9.252 -15.496  1.00  0.00     0.158 A 
BRANCH  15  18
ATOM     18  O   UNL     1       9.087   7.830 -14.158  1.00  0.00    -0.504 OA
ATOM     19  H   UNL     1       8.418   7.134 -14.467  1.00  0.00     0.293 HD
ENDBRANCH  15  18
BRANCH  17  20
ATOM     20  O   UNL     1      11.528   8.304 -15.404  1.00  0.00    -0.504 OA
ATOM     21  H   UNL     1      11.333   7.310 -15.443  1.00  0.00     0.293 HD
ENDBRANCH  17  20
ENDBRANCH   1  12
BRANCH   2  22
ATOM     22  O   UNL     1      11.403  13.518 -15.343  1.00  0.00    -0.502 OA
ATOM     23  H   UNL     1      11.624  14.285 -14.719  1.00  0.00     0.293 HD
ENDBRANCH   2  22
BRANCH   6  24
ATOM     24  O   UNL     1      10.729  17.426 -18.899  1.00  0.00    -0.507 OA
ATOM     25  H   UNL     1      11.679  17.692 -19.110  1.00  0.00     0.293 HD
ENDBRANCH   6  24
BRANCH   8  26
ATOM     26  O   UNL     1       8.168  15.133 -22.229  1.00  0.00    -0.508 OA
ATOM     27  H   UNL     1       8.192  14.339 -22.857  1.00  0.00     0.293 HD
ENDBRANCH   8  26
TORSDOF 6
ENDMDL
MODEL 3
REMARK VINA RESULT:    -6.203      1.268      2.991
REMARK INTER + INTRA:          -7.800
REMARK INTER:                  -7.491
REMARK INTRA:                  -0.310
REMARK UNBOUND:                -0.328
REMARK SMILES O=c1c(O)c(-c2ccc(O)c(O)c2)oc2cc(O)cc(O)c12
REMARK SMILES IDX 5 1 3 2 2 3 1 4 22 5 20 6 19 7 17 8 16 9 15 10 14 11 6 12
REMARK SMILES IDX 7 13 8 14 9 15 13 16 11 17 10 18 12 20 4 22 21 24 18 26
REMARK H PARENT 10 19 12 21 4 23 21 25 18 27
REMARK Flexibility Score: inf
ROOT
ATOM      1  C   UNL     1       9.145  11.994 -17.889  1.00  0.00     0.180 A 
ATOM      2  C   UNL     1       8.292  11.746 -18.978  1.00  0.00     0.208 A 
ATOM      3  C   UNL     1       8.085  12.761 -19.926  1.00  0.00     0.238 A 
ATOM      4  O   UNL     1       7.277  12.551 -20.869  1.00  0.00    -0.285 OA
ATOM      5  C   UNL     1       8.746  14.004 -19.782  1.00  0.00     0.111 A 
ATOM      6  C   UNL     1       8.641  15.089 -20.703  1.00  0.00     0.134 A 
ATOM      7  C   UNL     1       9.235  16.319 -20.394  1.00  0.00     0.093 A 
ATOM      8  C   UNL     1       9.983  16.484 -19.228  1.00  0.00     0.123 A 
ATOM      9  C   UNL     1      10.142  15.412 -18.349  1.00  0.00     0.094 A 
ATOM     10  C   UNL     1       9.531  14.184 -18.614  1.00  0.00     0.146 A 
ATOM     11  O   UNL     1       9.699  13.192 -17.747  1.00  0.00    -0.452 OA
ENDROOT
BRANCH   1  12
ATOM     12  C   UNL     1       9.432  10.964 -16.863  1.00  0.00     0.025 A 
ATOM     13  C   UNL     1      10.562  10.142 -17.007  1.00  0.00     0.016 A 
ATOM     14  C   UNL     1      10.840   9.150 -16.063  1.00  0.00     0.051 A 
ATOM     15  C   UNL     1       9.985   8.956 -14.971  1.00  0.00     0.157 A 
ATOM     16  C   UNL     1       8.565  10.751 -15.776  1.00  0.00     0.062 A 
ATOM     17  C   UNL     1       8.844   9.755 -14.829  1.00  0.00     0.158 A 
BRANCH  15  18
ATOM     18  O   UNL     1      10.260   7.970 -14.026  1.00  0.00    -0.504 OA
ATOM     19  H   UNL     1      10.709   7.099 -14.284  1.00  0.00     0.293 HD
ENDBRANCH  15  18
BRANCH  17  20
ATOM     20  O   UNL     1       7.987   9.550 -13.750  1.00  0.00    -0.504 OA
ATOM     21  H   UNL     1       7.755  10.298 -13.106  1.00  0.00     0.293 HD
ENDBRANCH  17  20
ENDBRANCH   1  12
BRANCH   2  22
ATOM     22  O   UNL     1       7.632  10.517 -19.089  1.00  0.00    -0.502 OA
ATOM     23  H   UNL     1       6.644  10.412 -18.897  1.00  0.00     0.293 HD
ENDBRANCH   2  22
BRANCH   6  24
ATOM     24  O   UNL     1       7.993  15.003 -21.940  1.00  0.00    -0.507 OA
ATOM     25  H   UNL     1       8.250  15.531 -22.761  1.00  0.00     0.293 HD
ENDBRANCH   6  24
BRANCH   8  26
ATOM     26  O   UNL     1      10.573  17.717 -18.959  1.00  0.00    -0.508 OA
ATOM     27  H   UNL     1      11.391  18.034 -19.466  1.00  0.00     0.293 HD
ENDBRANCH   8  26
TORSDOF 6
ENDMDL
MODEL 4
REMARK VINA RESULT:    -6.172      1.761      7.126
REMARK INTER + INTRA:          -7.763
REMARK INTER:                  -7.808
REMARK INTRA:                   0.046
REMARK UNBOUND:                -0.328
REMARK SMILES O=c1c(O)c(-c2ccc(O)c(O)c2)oc2cc(O)cc(O)c12
REMARK SMILES IDX 5 1 3 2 2 3 1 4 22 5 20 6 19 7 17 8 16 9 15 10 14 11 6 12
REMARK SMILES IDX 7 13 8 14 9 15 13 16 11 17 10 18 12 20 4 22 21 24 18 26
REMARK H PARENT 10 19 12 21 4 23 21 25 18 27
REMARK Flexibility Score: inf
ROOT
ATOM      1  C   UNL     1       9.208  12.814 -18.236  1.00  0.00     0.180 A 
ATOM      2  C   UNL     1       9.662  11.517 -18.530  1.00  0.00     0.208 A 
ATOM      3  C   UNL     1       9.638  10.542 -17.521  1.00  0.00     0.238 A 
ATOM      4  O   UNL     1      10.097   9.397 -17.775  1.00  0.00    -0.285 OA
ATOM      5  C   UNL     1       9.144  10.871 -16.236  1.00  0.00     0.111 A 
ATOM      6  C   UNL     1       9.035   9.952 -15.149  1.00  0.00     0.134 A 
ATOM      7  C   UNL     1       8.655  10.417 -13.885  1.00  0.00     0.093 A 
ATOM      8  C   UNL     1       8.318  11.755 -13.682  1.00  0.00     0.123 A 
ATOM      9  C   UNL     1       8.363  12.651 -14.751  1.00  0.00     0.094 A 
ATOM     10  C   UNL     1       8.773  12.223 -16.016  1.00  0.00     0.146 A 
ATOM     11  O   UNL     1       8.812  13.109 -17.004  1.00  0.00    -0.452 OA
ENDROOT
BRANCH   1  12
ATOM     12  C   UNL     1       9.180  13.889 -19.256  1.00  0.00     0.025 A 
ATOM     13  C   UNL     1       8.631  13.626 -20.521  1.00  0.00     0.016 A 
ATOM     14  C   UNL     1       8.613  14.617 -21.506  1.00  0.00     0.051 A 
ATOM     15  C   UNL     1       9.158  15.880 -21.244  1.00  0.00     0.157 A 
ATOM     16  C   UNL     1       9.745  15.152 -19.004  1.00  0.00     0.062 A 
ATOM     17  C   UNL     1       9.728  16.147 -19.993  1.00  0.00     0.158 A 
BRANCH  15  18
ATOM     18  O   UNL     1       9.141  16.873 -22.221  1.00  0.00    -0.504 OA
ATOM     19  H   UNL     1       9.852  17.595 -22.255  1.00  0.00     0.293 HD
ENDBRANCH  15  18
BRANCH  17  20
ATOM     20  O   UNL     1      10.283  17.400 -19.740  1.00  0.00    -0.504 OA
ATOM     21  H   UNL     1       9.948  18.233 -20.211  1.00  0.00     0.293 HD
ENDBRANCH  17  20
ENDBRANCH   1  12
BRANCH   2  22
ATOM     22  O   UNL     1      10.166  11.219 -19.800  1.00  0.00    -0.502 OA
ATOM     23  H   UNL     1      10.094  10.297 -20.212  1.00  0.00     0.293 HD
ENDBRANCH   2  22
BRANCH   6  24
ATOM     24  O   UNL     1       9.261   8.576 -15.265  1.00  0.00    -0.507 OA
ATOM     25  H   UNL     1       9.463   8.097 -16.129  1.00  0.00     0.293 HD
ENDBRANCH   6  24
BRANCH   8  26
ATOM     26  O   UNL     1       7.929  12.182 -12.414  1.00  0.00    -0.508 OA
ATOM     27  H   UNL     1       7.143  12.807 -12.284  1.00  0.00     0.293 HD
ENDBRANCH   8  26
TORSDOF 6
ENDMDL
MODEL 5
REMARK VINA RESULT:    -5.893      1.708      2.089
REMARK INTER + INTRA:          -7.427
REMARK INTER:                  -7.127
REMARK INTRA:                  -0.300
REMARK UNBOUND:                -0.328
REMARK SMILES O=c1c(O)c(-c2ccc(O)c(O)c2)oc2cc(O)cc(O)c12
REMARK SMILES IDX 5 1 3 2 2 3 1 4 22 5 20 6 19 7 17 8 16 9 15 10 14 11 6 12
REMARK SMILES IDX 7 13 8 14 9 15 13 16 11 17 10 18 12 20 4 22 21 24 18 26
REMARK H PARENT 10 19 12 21 4 23 21 25 18 27
REMARK Flexibility Score: inf
ROOT
ATOM      1  C   UNL     1       9.131  13.752 -17.799  1.00  0.00     0.180 A 
ATOM      2  C   UNL     1       8.891  14.956 -17.115  1.00  0.00     0.208 A 
ATOM      3  C   UNL     1       8.674  16.129 -17.856  1.00  0.00     0.238 A 
ATOM      4  O   UNL     1       8.515  17.214 -17.237  1.00  0.00    -0.285 OA
ATOM      5  C   UNL     1       8.683  16.080 -19.270  1.00  0.00     0.111 A 
ATOM      6  C   UNL     1       8.435  17.198 -20.122  1.00  0.00     0.134 A 
ATOM      7  C   UNL     1       8.597  17.063 -21.506  1.00  0.00     0.093 A 
ATOM      8  C   UNL     1       8.936  15.835 -22.074  1.00  0.00     0.123 A 
ATOM      9  C   UNL     1       9.122  14.720 -21.256  1.00  0.00     0.094 A 
ATOM     10  C   UNL     1       9.002  14.833 -19.869  1.00  0.00     0.146 A 
ATOM     11  O   UNL     1       9.197  13.751 -19.124  1.00  0.00    -0.452 OA
ENDROOT
BRANCH   1  12
ATOM     12  C   UNL     1       9.343  12.471 -17.086  1.00  0.00     0.025 A 
ATOM     13  C   UNL     1      10.641  11.943 -16.987  1.00  0.00     0.016 A 
ATOM     14  C   UNL     1      10.862  10.726 -16.339  1.00  0.00     0.051 A 
ATOM     15  C   UNL     1       9.788  10.011 -15.794  1.00  0.00     0.157 A 
ATOM     16  C   UNL     1       8.265  11.739 -16.557  1.00  0.00     0.062 A 
ATOM     17  C   UNL     1       8.487  10.516 -15.907  1.00  0.00     0.158 A 
BRANCH  15  18
ATOM     18  O   UNL     1      10.004   8.797 -15.145  1.00  0.00    -0.504 OA
ATOM     19  H   UNL     1       9.687   8.641 -14.195  1.00  0.00     0.293 HD
ENDBRANCH  15  18
BRANCH  17  20
ATOM     20  O   UNL     1       7.418   9.796 -15.377  1.00  0.00    -0.504 OA
ATOM     21  H   UNL     1       7.561   8.927 -14.874  1.00  0.00     0.293 HD
ENDBRANCH  17  20
ENDBRANCH   1  12
BRANCH   2  22
ATOM     22  O   UNL     1       8.909  14.987 -15.717  1.00  0.00    -0.502 OA
ATOM     23  H   UNL     1       8.750  15.837 -15.189  1.00  0.00     0.293 HD
ENDBRANCH   2  22
BRANCH   6  24
ATOM     24  O   UNL     1       8.003  18.447 -19.664  1.00  0.00    -0.507 OA
ATOM     25  H   UNL     1       8.323  18.891 -18.817  1.00  0.00     0.293 HD
ENDBRANCH   6  24
BRANCH   8  26
ATOM     26  O   UNL     1       9.074  15.732 -23.457  1.00  0.00    -0.508 OA
ATOM     27  H   UNL     1       9.761  16.278 -23.962  1.00  0.00     0.293 HD
ENDBRANCH   8  26
TORSDOF 6
ENDMDL
MODEL 6
REMARK VINA RESULT:    -5.873      1.843      3.148
REMARK INTER + INTRA:          -7.403
REMARK INTER:                  -7.090
REMARK INTRA:                  -0.313
REMARK UNBOUND:                -0.328
REMARK SMILES O=c1c(O)c(-c2ccc(O)c(O)c2)oc2cc(O)cc(O)c12
REMARK SMILES IDX 5 1 3 2 2 3 1 4 22 5 20 6 19 7 17 8 16 9 15 10 14 11 6 12
REMARK SMILES IDX 7 13 8 14 9 15 13 16 11 17 10 18 12 20 4 22 21 24 18 26
REMARK H PARENT 10 19 12 21 4 23 21 25 18 27
REMARK Flexibility Score: inf
ROOT
ATOM      1  C   UNL     1       9.225  13.249 -18.225  1.00  0.00     0.180 A 
ATOM      2  C   UNL     1       9.258  13.195 -19.629  1.00  0.00     0.208 A 
ATOM      3  C   UNL     1       9.044  14.373 -20.362  1.00  0.00     0.238 A 
ATOM      4  O   UNL     1       9.021  14.306 -21.620  1.00  0.00    -0.285 OA
ATOM      5  C   UNL     1       8.817  15.593 -19.683  1.00  0.00     0.111 A 
ATOM      6  C   UNL     1       8.628  16.855 -20.323  1.00  0.00     0.134 A 
ATOM      7  C   UNL     1       8.281  17.974 -19.557  1.00  0.00     0.093 A 
ATOM      8  C   UNL     1       8.178  17.893 -18.169  1.00  0.00     0.123 A 
ATOM      9  C   UNL     1       8.419  16.677 -17.526  1.00  0.00     0.094 A 
ATOM     10  C   UNL     1       8.732  15.535 -18.267  1.00  0.00     0.146 A 
ATOM     11  O   UNL     1       8.944  14.396 -17.619  1.00  0.00    -0.452 OA
ENDROOT
BRANCH   1  12
ATOM     12  C   UNL     1       9.465  12.054 -17.385  1.00  0.00     0.025 A 
ATOM     13  C   UNL     1      10.784  11.664 -17.100  1.00  0.00     0.016 A 
ATOM     14  C   UNL     1      11.036  10.528 -16.327  1.00  0.00     0.051 A 
ATOM     15  C   UNL     1       9.973   9.756 -15.841  1.00  0.00     0.157 A 
ATOM     16  C   UNL     1       8.402  11.264 -16.912  1.00  0.00     0.062 A 
ATOM     17  C   UNL     1       8.654  10.122 -16.137  1.00  0.00     0.158 A 
BRANCH  15  18
ATOM     18  O   UNL     1      10.218   8.623 -15.068  1.00  0.00    -0.504 OA
ATOM     19  H   UNL     1      10.022   7.692 -15.416  1.00  0.00     0.293 HD
ENDBRANCH  15  18
BRANCH  17  20
ATOM     20  O   UNL     1       7.599   9.344 -15.665  1.00  0.00    -0.504 OA
ATOM     21  H   UNL     1       6.656   9.458 -16.019  1.00  0.00     0.293 HD
ENDBRANCH  17  20
ENDBRANCH   1  12
BRANCH   2  22
ATOM     22  O   UNL     1       9.462  11.974 -20.281  1.00  0.00    -0.502 OA
ATOM     23  H   UNL     1       9.907  11.184 -19.829  1.00  0.00     0.293 HD
ENDBRANCH   2  22
BRANCH   6  24
ATOM     24  O   UNL     1       8.796  17.067 -21.696  1.00  0.00    -0.507 OA
ATOM     25  H   UNL     1       8.047  17.081 -22.371  1.00  0.00     0.293 HD
ENDBRANCH   6  24
BRANCH   8  26
ATOM     26  O   UNL     1       7.846  19.030 -17.436  1.00  0.00    -0.508 OA
ATOM     27  H   UNL     1       8.552  19.578 -16.959  1.00  0.00     0.293 HD
ENDBRANCH   8  26
TORSDOF 6
ENDMDL
MODEL 7
REMARK VINA RESULT:    -5.796      2.421      3.248
REMARK INTER + INTRA:          -7.310
REMARK INTER:                  -7.438
REMARK INTRA:                   0.128
REMARK UNBOUND:                -0.328
REMARK SMILES O=c1c(O)c(-c2ccc(O)c(O)c2)oc2cc(O)cc(O)c12
REMARK SMILES IDX 5 1 3 2 2 3 1 4 22 5 20 6 19 7 17 8 16 9 15 10 14 11 6 12
REMARK SMILES IDX 7 13 8 14 9 15 13 16 11 17 10 18 12 20 4 22 21 24 18 26
REMARK H PARENT 10 19 12 21 4 23 21 25 18 27
REMARK Flexibility Score: inf
ROOT
ATOM      1  C   UNL     1       8.439  13.183 -17.446  1.00  0.00     0.180 A 
ATOM      2  C   UNL     1       8.798  12.543 -18.644  1.00  0.00     0.208 A 
ATOM      3  C   UNL     1       8.965  13.315 -19.805  1.00  0.00     0.238 A 
ATOM      4  O   UNL     1       9.233  12.728 -20.887  1.00  0.00    -0.285 OA
ATOM      5  C   UNL     1       8.789  14.718 -19.749  1.00  0.00     0.111 A 
ATOM      6  C   UNL     1       8.973  15.603 -20.854  1.00  0.00     0.134 A 
ATOM      7  C   UNL     1       8.644  16.957 -20.717  1.00  0.00     0.093 A 
ATOM      8  C   UNL     1       8.200  17.471 -19.499  1.00  0.00     0.123 A 
ATOM      9  C   UNL     1       8.074  16.626 -18.395  1.00  0.00     0.094 A 
ATOM     10  C   UNL     1       8.360  15.263 -18.511  1.00  0.00     0.146 A 
ATOM     11  O   UNL     1       8.217  14.491 -17.440  1.00  0.00    -0.452 OA
ENDROOT
BRANCH   1  12
ATOM     12  C   UNL     1       8.269  12.439 -16.176  1.00  0.00     0.025 A 
ATOM     13  C   UNL     1       7.549  11.233 -16.173  1.00  0.00     0.016 A 
ATOM     14  C   UNL     1       7.357  10.526 -14.984  1.00  0.00     0.051 A 
ATOM     15  C   UNL     1       7.869  11.021 -13.778  1.00  0.00     0.157 A 
ATOM     16  C   UNL     1       8.763  12.943 -14.959  1.00  0.00     0.062 A 
ATOM     17  C   UNL     1       8.570  12.233 -13.765  1.00  0.00     0.158 A 
BRANCH  15  18
ATOM     18  O   UNL     1       7.682  10.318 -12.590  1.00  0.00    -0.504 OA
ATOM     19  H   UNL     1       6.885  10.493 -11.990  1.00  0.00     0.293 HD
ENDBRANCH  15  18
BRANCH  17  20
ATOM     20  O   UNL     1       9.066  12.731 -12.562  1.00  0.00    -0.504 OA
ATOM     21  H   UNL     1       9.095  13.726 -12.370  1.00  0.00     0.293 HD
ENDBRANCH  17  20
ENDBRANCH   1  12
BRANCH   2  22
ATOM     22  O   UNL     1       8.945  11.152 -18.682  1.00  0.00    -0.502 OA
ATOM     23  H   UNL     1       8.197  10.534 -18.970  1.00  0.00     0.293 HD
ENDBRANCH   2  22
BRANCH   6  24
ATOM     24  O   UNL     1       9.497  15.210 -22.089  1.00  0.00    -0.507 OA
ATOM     25  H   UNL     1       9.067  15.399 -22.982  1.00  0.00     0.293 HD
ENDBRANCH   6  24
BRANCH   8  26
ATOM     26  O   UNL     1       7.897  18.826 -19.394  1.00  0.00    -0.508 OA
ATOM     27  H   UNL     1       6.990  19.143 -19.074  1.00  0.00     0.293 HD
ENDBRANCH   8  26
TORSDOF 6
ENDMDL
MODEL 8
REMARK VINA RESULT:    -5.703      1.652      2.360
REMARK INTER + INTRA:          -7.198
REMARK INTER:                  -6.937
REMARK INTRA:                  -0.261
REMARK UNBOUND:                -0.328
REMARK SMILES O=c1c(O)c(-c2ccc(O)c(O)c2)oc2cc(O)cc(O)c12
REMARK SMILES IDX 5 1 3 2 2 3 1 4 22 5 20 6 19 7 17 8 16 9 15 10 14 11 6 12
REMARK SMILES IDX 7 13 8 14 9 15 13 16 11 17 10 18 12 20 4 22 21 24 18 26
REMARK H PARENT 10 19 12 21 4 23 21 25 18 27
REMARK Flexibility Score: inf
ROOT
ATOM      1  C   UNL     1       8.791  11.942 -15.465  1.00  0.00     0.180 A 
ATOM      2  C   UNL     1       9.285  13.106 -14.851  1.00  0.00     0.208 A 
ATOM      3  C   UNL     1       9.593  14.219 -15.650  1.00  0.00     0.238 A 
ATOM      4  O   UNL     1      10.086  15.239 -15.100  1.00  0.00    -0.285 OA
ATOM      5  C   UNL     1       9.387  14.160 -17.049  1.00  0.00     0.111 A 
ATOM      6  C   UNL     1       9.626  15.241 -17.949  1.00  0.00     0.134 A 
ATOM      7  C   UNL     1       9.512  15.030 -19.329  1.00  0.00     0.093 A 
ATOM      8  C   UNL     1       9.106  13.797 -19.837  1.00  0.00     0.123 A 
ATOM      9  C   UNL     1       8.811  12.749 -18.963  1.00  0.00     0.094 A 
ATOM     10  C   UNL     1       8.951  12.919 -17.583  1.00  0.00     0.146 A 
ATOM     11  O   UNL     1       8.671  11.895 -16.786  1.00  0.00    -0.452 OA
ENDROOT
BRANCH   1  12
ATOM     12  C   UNL     1       8.422  10.737 -14.686  1.00  0.00     0.025 A 
ATOM     13  C   UNL     1       7.239  10.741 -13.928  1.00  0.00     0.016 A 
ATOM     14  C   UNL     1       6.881   9.624 -13.168  1.00  0.00     0.051 A 
ATOM     15  C   UNL     1       7.708   8.494 -13.144  1.00  0.00     0.157 A 
ATOM     16  C   UNL     1       9.259   9.608 -14.641  1.00  0.00     0.062 A 
ATOM     17  C   UNL     1       8.901   8.487 -13.877  1.00  0.00     0.158 A 
BRANCH  15  18
ATOM     18  O   UNL     1       7.355   7.377 -12.390  1.00  0.00    -0.504 OA
ATOM     19  H   UNL     1       6.987   7.467 -11.450  1.00  0.00     0.293 HD
ENDBRANCH  15  18
BRANCH  17  20
ATOM     20  O   UNL     1       9.729   7.367 -13.839  1.00  0.00    -0.504 OA
ATOM     21  H   UNL     1       9.401   6.455 -14.135  1.00  0.00     0.293 HD
ENDBRANCH  17  20
ENDBRANCH   1  12
BRANCH   2  22
ATOM     22  O   UNL     1       9.502  13.135 -13.469  1.00  0.00    -0.502 OA
ATOM     23  H   UNL     1       9.041  12.495 -12.833  1.00  0.00     0.293 HD
ENDBRANCH   2  22
BRANCH   6  24
ATOM     24  O   UNL     1       9.948  16.540 -17.542  1.00  0.00    -0.507 OA
ATOM     25  H   UNL     1       9.276  17.277 -17.388  1.00  0.00     0.293 HD
ENDBRANCH   6  24
BRANCH   8  26
ATOM     26  O   UNL     1       8.987  13.626 -21.215  1.00  0.00    -0.508 OA
ATOM     27  H   UNL     1       9.234  12.751 -21.663  1.00  0.00     0.293 HD
ENDBRANCH   8  26
TORSDOF 6
ENDMDL
MODEL 9
REMARK VINA RESULT:    -5.560      1.849      7.202
REMARK INTER + INTRA:          -7.025
REMARK INTER:                  -6.727
REMARK INTRA:                  -0.298
REMARK UNBOUND:                -0.328
REMARK SMILES O=c1c(O)c(-c2ccc(O)c(O)c2)oc2cc(O)cc(O)c12
REMARK SMILES IDX 5 1 3 2 2 3 1 4 22 5 20 6 19 7 17 8 16 9 15 10 14 11 6 12
REMARK SMILES IDX 7 13 8 14 9 15 13 16 11 17 10 18 12 20 4 22 21 24 18 26
REMARK H PARENT 10 19 12 21 4 23 21 25 18 27
REMARK Flexibility Score: inf
ROOT
ATOM      1  C   UNL     1       9.122  12.467 -17.011  1.00  0.00     0.180 A 
ATOM      2  C   UNL     1       9.185  11.287 -17.772  1.00  0.00     0.208 A 
ATOM      3  C   UNL     1       8.823  10.070 -17.173  1.00  0.00     0.238 A 
ATOM      4  O   UNL     1       8.934   9.009 -17.844  1.00  0.00    -0.285 OA
ATOM      5  C   UNL     1       8.385  10.050 -15.827  1.00  0.00     0.111 A 
ATOM      6  C   UNL     1       7.956   8.880 -15.132  1.00  0.00     0.134 A 
ATOM      7  C   UNL     1       7.669   8.956 -13.764  1.00  0.00     0.093 A 
ATOM      8  C   UNL     1       7.733  10.170 -13.080  1.00  0.00     0.123 A 
ATOM      9  C   UNL     1       8.095  11.332 -13.764  1.00  0.00     0.094 A 
ATOM     10  C   UNL     1       8.422  11.281 -15.121  1.00  0.00     0.146 A 
ATOM     11  O   UNL     1       8.771  12.406 -15.733  1.00  0.00    -0.452 OA
ENDROOT
BRANCH   1  12
ATOM     12  C   UNL     1       9.465  13.790 -17.581  1.00  0.00     0.025 A 
ATOM     13  C   UNL     1      10.689  14.390 -17.246  1.00  0.00     0.016 A 
ATOM     14  C   UNL     1      11.024  15.648 -17.754  1.00  0.00     0.051 A 
ATOM     15  C   UNL     1      10.133  16.330 -18.592  1.00  0.00     0.157 A 
ATOM     16  C   UNL     1       8.564  14.489 -18.406  1.00  0.00     0.062 A 
ATOM     17  C   UNL     1       8.900  15.751 -18.915  1.00  0.00     0.158 A 
BRANCH  15  18
ATOM     18  O   UNL     1      10.464  17.584 -19.103  1.00  0.00    -0.504 OA
ATOM     19  H   UNL     1      10.717  17.709 -20.076  1.00  0.00     0.293 HD
ENDBRANCH  15  18
BRANCH  17  20
ATOM     20  O   UNL     1       8.009  16.439 -19.738  1.00  0.00    -0.504 OA
ATOM     21  H   UNL     1       8.126  16.462 -20.744  1.00  0.00     0.293 HD
ENDBRANCH  17  20
ENDBRANCH   1  12
BRANCH   2  22
ATOM     22  O   UNL     1       9.641  11.326 -19.094  1.00  0.00    -0.502 OA
ATOM     23  H   UNL     1      10.561  11.670 -19.342  1.00  0.00     0.293 HD
ENDBRANCH   2  22
BRANCH   6  24
ATOM     24  O   UNL     1       7.768   7.635 -15.740  1.00  0.00    -0.507 OA
ATOM     25  H   UNL     1       8.093   7.392 -16.664  1.00  0.00     0.293 HD
ENDBRANCH   6  24
BRANCH   8  26
ATOM     26  O   UNL     1       7.426  10.212 -11.722  1.00  0.00    -0.508 OA
ATOM     27  H   UNL     1       6.695   9.633 -11.326  1.00  0.00     0.293 HD
ENDBRANCH   8  26
TORSDOF 6
ENDMDL
