MODEL 1
REMARK VINA RESULT:    -3.578      0.000      0.000
REMARK INTER + INTRA:          -5.020
REMARK INTER:                  -4.415
REMARK INTRA:                  -0.606
REMARK UNBOUND:                -0.606
REMARK SMILES CCCCC=CC(C)=O
REMARK SMILES IDX 4 1 3 2 2 3 1 4 5 5 6 6 7 7 9 8 8 9
REMARK H PARENT
REMARK Flexibility Score: inf
ROOT
ATOM      1  C   UNL     1     214.327 203.717 217.556  1.00  0.00     0.027 C 
ENDROOT
BRANCH   1   2
ATOM      2  C   UNL     1     213.865 205.026 216.909  1.00  0.00     0.004 C 
BRANCH   2   3
ATOM      3  C   UNL     1     212.378 205.280 217.184  1.00  0.00    -0.003 C 
ATOM      4  C   UNL     1     211.861 204.375 218.299  1.00  0.00     0.004 C 
ENDBRANCH   2   3
ENDBRANCH   1   2
BRANCH   1   5
ATOM      5  C   UNL     1     214.905 202.790 216.521  1.00  0.00    -0.023 C 
ATOM      6  C   UNL     1     214.230 201.828 215.871  1.00  0.00     0.042 C 
BRANCH   6   7
ATOM      7  C   UNL     1     212.782 201.563 215.984  1.00  0.00     0.152 C 
ATOM      8  O   UNL     1     211.988 202.241 215.282  1.00  0.00    -0.295 OA
ATOM      9  C   UNL     1     212.219 200.585 216.970  1.00  0.00     0.093 C 
ENDBRANCH   6   7
ENDBRANCH   1   5
TORSDOF 4
ENDMDL
MODEL 2
REMARK VINA RESULT:    -3.540     14.016     15.871
REMARK INTER + INTRA:          -4.974
REMARK INTER:                  -4.363
REMARK INTRA:                  -0.612
REMARK UNBOUND:                -0.606
REMARK SMILES CCCCC=CC(C)=O
REMARK SMILES IDX 4 1 3 2 2 3 1 4 5 5 6 6 7 7 9 8 8 9
REMARK H PARENT
REMARK Flexibility Score: inf
ROOT
ATOM      1  C   UNL     1     197.907 208.632 217.503  1.00  0.00     0.027 C 
ENDROOT
BRANCH   1   2
ATOM      2  C   UNL     1     198.372 207.308 216.888  1.00  0.00     0.004 C 
BRANCH   2   3
ATOM      3  C   UNL     1     199.882 207.116 217.076  1.00  0.00    -0.003 C 
ATOM      4  C   UNL     1     200.400 207.934 218.256  1.00  0.00     0.004 C 
ENDBRANCH   2   3
ENDBRANCH   1   2
BRANCH   1   5
ATOM      5  C   UNL     1     197.381 209.555 216.437  1.00  0.00    -0.023 C 
ATOM      6  C   UNL     1     198.077 210.533 215.838  1.00  0.00     0.042 C 
BRANCH   6   7
ATOM      7  C   UNL     1     199.510 210.824 216.046  1.00  0.00     0.152 C 
ATOM      8  O   UNL     1     200.359 210.206 215.352  1.00  0.00    -0.295 OA
ATOM      9  C   UNL     1     199.993 211.757 217.115  1.00  0.00     0.093 C 
ENDBRANCH   6   7
ENDBRANCH   1   5
TORSDOF 4
ENDMDL
MODEL 3
REMARK VINA RESULT:    -3.416     14.202     15.617
REMARK INTER + INTRA:          -4.820
REMARK INTER:                  -4.277
REMARK INTRA:                  -0.543
REMARK UNBOUND:                -0.606
REMARK SMILES CCCCC=CC(C)=O
REMARK SMILES IDX 4 1 3 2 2 3 1 4 5 5 6 6 7 7 9 8 8 9
REMARK H PARENT
REMARK Flexibility Score: inf
ROOT
ATOM      1  C   UNL     1     200.015 206.854 216.554  1.00  0.00     0.027 C 
ENDROOT
BRANCH   1   2
ATOM      2  C   UNL     1     199.274 205.545 216.841  1.00  0.00     0.004 C 
BRANCH   2   3
ATOM      3  C   UNL     1     198.445 205.106 215.628  1.00  0.00    -0.003 C 
ATOM      4  C   UNL     1     197.933 206.311 214.844  1.00  0.00     0.004 C 
ENDBRANCH   2   3
ENDBRANCH   1   2
BRANCH   1   5
ATOM      5  C   UNL     1     200.081 207.707 217.792  1.00  0.00    -0.023 C 
ATOM      6  C   UNL     1     199.200 208.662 218.130  1.00  0.00     0.042 C 
BRANCH   6   7
ATOM      7  C   UNL     1     197.959 208.987 217.401  1.00  0.00     0.152 C 
ATOM      8  O   UNL     1     198.020 209.789 216.432  1.00  0.00    -0.295 OA
ATOM      9  C   UNL     1     196.618 208.472 217.828  1.00  0.00     0.093 C 
ENDBRANCH   6   7
ENDBRANCH   1   5
TORSDOF 4
ENDMDL
MODEL 4
REMARK VINA RESULT:    -3.411      1.425      1.820
REMARK INTER + INTRA:          -4.814
REMARK INTER:                  -4.373
REMARK INTRA:                  -0.441
REMARK UNBOUND:                -0.606
REMARK SMILES CCCCC=CC(C)=O
REMARK SMILES IDX 4 1 3 2 2 3 1 4 5 5 6 6 7 7 9 8 8 9
REMARK H PARENT
REMARK Flexibility Score: inf
ROOT
ATOM      1  C   UNL     1     214.251 202.999 216.223  1.00  0.00     0.027 C 
ENDROOT
BRANCH   1   2
ATOM      2  C   UNL     1     213.893 204.164 217.152  1.00  0.00     0.004 C 
BRANCH   2   3
ATOM      3  C   UNL     1     213.001 203.692 218.306  1.00  0.00    -0.003 C 
ATOM      4  C   UNL     1     211.689 204.471 218.344  1.00  0.00     0.004 C 
ENDBRANCH   2   3
ENDBRANCH   1   2
BRANCH   1   5
ATOM      5  C   UNL     1     213.081 202.642 215.346  1.00  0.00    -0.023 C 
ATOM      6  C   UNL     1     212.412 201.479 215.371  1.00  0.00     0.042 C 
BRANCH   6   7
ATOM      7  C   UNL     1     212.640 200.374 216.323  1.00  0.00     0.152 C 
ATOM      8  O   UNL     1     212.041 200.397 217.431  1.00  0.00    -0.295 OA
ATOM      9  C   UNL     1     213.626 199.277 216.059  1.00  0.00     0.093 C 
ENDBRANCH   6   7
ENDBRANCH   1   5
TORSDOF 4
ENDMDL
MODEL 5
REMARK VINA RESULT:    -3.409      1.925      3.306
REMARK INTER + INTRA:          -4.813
REMARK INTER:                  -4.261
REMARK INTRA:                  -0.552
REMARK UNBOUND:                -0.606
REMARK SMILES CCCCC=CC(C)=O
REMARK SMILES IDX 4 1 3 2 2 3 1 4 5 5 6 6 7 7 9 8 8 9
REMARK H PARENT
REMARK Flexibility Score: inf
ROOT
ATOM      1  C   UNL     1     212.248 205.468 216.467  1.00  0.00     0.027 C 
ENDROOT
BRANCH   1   2
ATOM      2  C   UNL     1     212.961 206.783 216.797  1.00  0.00     0.004 C 
BRANCH   2   3
ATOM      3  C   UNL     1     213.860 207.228 215.636  1.00  0.00    -0.003 C 
ATOM      4  C   UNL     1     214.304 206.035 214.795  1.00  0.00     0.004 C 
ENDBRANCH   2   3
ENDBRANCH   1   2
BRANCH   1   5
ATOM      5  C   UNL     1     212.111 204.616 217.700  1.00  0.00    -0.023 C 
ATOM      6  C   UNL     1     212.934 203.616 218.053  1.00  0.00     0.042 C 
BRANCH   6   7
ATOM      7  C   UNL     1     214.173 203.229 217.349  1.00  0.00     0.152 C 
ATOM      8  O   UNL     1     214.115 202.321 216.480  1.00  0.00    -0.295 OA
ATOM      9  C   UNL     1     215.510 203.811 217.697  1.00  0.00     0.093 C 
ENDBRANCH   6   7
ENDBRANCH   1   5
TORSDOF 4
ENDMDL
MODEL 6
REMARK VINA RESULT:    -3.306      1.166      3.335
REMARK INTER + INTRA:          -4.686
REMARK INTER:                  -4.233
REMARK INTRA:                  -0.452
REMARK UNBOUND:                -0.606
REMARK SMILES CCCCC=CC(C)=O
REMARK SMILES IDX 4 1 3 2 2 3 1 4 5 5 6 6 7 7 9 8 8 9
REMARK H PARENT
REMARK Flexibility Score: inf
ROOT
ATOM      1  C   UNL     1     214.830 203.388 217.059  1.00  0.00     0.027 C 
ENDROOT
BRANCH   1   2
ATOM      2  C   UNL     1     214.480 202.512 215.851  1.00  0.00     0.004 C 
BRANCH   2   3
ATOM      3  C   UNL     1     213.478 201.417 216.238  1.00  0.00    -0.003 C 
ATOM      4  C   UNL     1     212.403 201.251 215.168  1.00  0.00     0.004 C 
ENDBRANCH   2   3
ENDBRANCH   1   2
BRANCH   1   5
ATOM      5  C   UNL     1     214.545 204.836 216.763  1.00  0.00    -0.023 C 
ATOM      6  C   UNL     1     213.329 205.404 216.744  1.00  0.00     0.042 C 
BRANCH   6   7
ATOM      7  C   UNL     1     212.060 204.738 217.098  1.00  0.00     0.152 C 
ATOM      8  O   UNL     1     211.264 204.425 216.174  1.00  0.00    -0.295 OA
ATOM      9  C   UNL     1     211.644 204.506 218.518  1.00  0.00     0.093 C 
ENDBRANCH   6   7
ENDBRANCH   1   5
TORSDOF 4
ENDMDL
MODEL 7
REMARK VINA RESULT:    -3.275      1.632      2.082
REMARK INTER + INTRA:          -4.647
REMARK INTER:                  -4.029
REMARK INTRA:                  -0.618
REMARK UNBOUND:                -0.606
REMARK SMILES CCCCC=CC(C)=O
REMARK SMILES IDX 4 1 3 2 2 3 1 4 5 5 6 6 7 7 9 8 8 9
REMARK H PARENT
REMARK Flexibility Score: inf
ROOT
ATOM      1  C   UNL     1     214.029 205.250 216.664  1.00  0.00     0.027 C 
ENDROOT
BRANCH   1   2
ATOM      2  C   UNL     1     212.627 205.715 217.073  1.00  0.00     0.004 C 
BRANCH   2   3
ATOM      3  C   UNL     1     211.895 204.625 217.864  1.00  0.00    -0.003 C 
ATOM      4  C   UNL     1     212.878 203.625 218.464  1.00  0.00     0.004 C 
ENDBRANCH   2   3
ENDBRANCH   1   2
BRANCH   1   5
ATOM      5  C   UNL     1     214.134 205.137 215.167  1.00  0.00    -0.023 C 
ATOM      6  C   UNL     1     214.021 204.003 214.459  1.00  0.00     0.042 C 
BRANCH   6   7
ATOM      7  C   UNL     1     213.684 202.674 215.008  1.00  0.00     0.152 C 
ATOM      8  O   UNL     1     214.616 201.937 215.424  1.00  0.00    -0.295 OA
ATOM      9  C   UNL     1     212.285 202.134 215.001  1.00  0.00     0.093 C 
ENDBRANCH   6   7
ENDBRANCH   1   5
TORSDOF 4
ENDMDL
MODEL 8
REMARK VINA RESULT:    -3.255     13.808     15.408
REMARK INTER + INTRA:          -4.622
REMARK INTER:                  -4.142
REMARK INTRA:                  -0.480
REMARK UNBOUND:                -0.606
REMARK SMILES CCCCC=CC(C)=O
REMARK SMILES IDX 4 1 3 2 2 3 1 4 5 5 6 6 7 7 9 8 8 9
REMARK H PARENT
REMARK Flexibility Score: inf
ROOT
ATOM      1  C   UNL     1     197.616 209.186 216.986  1.00  0.00     0.027 C 
ENDROOT
BRANCH   1   2
ATOM      2  C   UNL     1     197.815 209.996 215.701  1.00  0.00     0.004 C 
BRANCH   2   3
ATOM      3  C   UNL     1     198.367 211.392 216.010  1.00  0.00    -0.003 C 
ATOM      4  C   UNL     1     199.779 211.313 216.582  1.00  0.00     0.004 C 
ENDBRANCH   2   3
ENDBRANCH   1   2
BRANCH   1   5
ATOM      5  C   UNL     1     197.792 207.716 216.719  1.00  0.00    -0.023 C 
ATOM      6  C   UNL     1     198.961 207.056 216.724  1.00  0.00     0.042 C 
BRANCH   6   7
ATOM      7  C   UNL     1     200.274 207.629 217.083  1.00  0.00     0.152 C 
ATOM      8  O   UNL     1     201.067 207.947 216.159  1.00  0.00    -0.295 OA
ATOM      9  C   UNL     1     200.732 207.759 218.504  1.00  0.00     0.093 C 
ENDBRANCH   6   7
ENDBRANCH   1   5
TORSDOF 4
ENDMDL
MODEL 9
REMARK VINA RESULT:    -3.238      1.542      2.436
REMARK INTER + INTRA:          -4.600
REMARK INTER:                  -4.060
REMARK INTRA:                  -0.540
REMARK UNBOUND:                -0.606
REMARK SMILES CCCCC=CC(C)=O
REMARK SMILES IDX 4 1 3 2 2 3 1 4 5 5 6 6 7 7 9 8 8 9
REMARK H PARENT
REMARK Flexibility Score: inf
ROOT
ATOM      1  C   UNL     1     212.990 203.554 217.980  1.00  0.00     0.027 C 
ENDROOT
BRANCH   1   2
ATOM      2  C   UNL     1     212.020 204.687 217.631  1.00  0.00     0.004 C 
BRANCH   2   3
ATOM      3  C   UNL     1     212.748 205.837 216.925  1.00  0.00    -0.003 C 
ATOM      4  C   UNL     1     214.233 205.527 216.755  1.00  0.00     0.004 C 
ENDBRANCH   2   3
ENDBRANCH   1   2
BRANCH   1   5
ATOM      5  C   UNL     1     212.464 202.234 217.483  1.00  0.00    -0.023 C 
ATOM      6  C   UNL     1     212.933 201.555 216.425  1.00  0.00     0.042 C 
BRANCH   6   7
ATOM      7  C   UNL     1     214.108 201.928 215.613  1.00  0.00     0.152 C 
ATOM      8  O   UNL     1     215.255 201.624 216.033  1.00  0.00    -0.295 OA
ATOM      9  C   UNL     1     213.990 202.737 214.356  1.00  0.00     0.093 C 
ENDBRANCH   6   7
ENDBRANCH   1   5
TORSDOF 4
ENDMDL
