MODEL 1
REMARK VINA RESULT:    -5.998      0.000      0.000
REMARK INTER + INTRA:          -9.475
REMARK INTER:                  -9.153
REMARK INTRA:                  -0.322
REMARK UNBOUND:                -0.322
REMARK SMILES CCCCCCCCCC=CC(=O)[O-]
REMARK SMILES IDX 7 1 8 2 9 3 10 4 11 5 12 6 13 7 14 8 6 9 5 10 4 11 3 12 2 13
REMARK SMILES IDX 1 14
REMARK H PARENT
REMARK Flexibility Score: inf
ROOT
ATOM      1  C   UNL     1      17.944 122.847  16.603  1.00  0.00     0.000 C 
ENDROOT
BRANCH   1   2
ATOM      2  C   UNL     1      18.030 122.356  15.148  1.00  0.00     0.004 C 
BRANCH   2   3
ATOM      3  C   UNL     1      17.005 121.256  14.832  1.00  0.00     0.027 C 
BRANCH   3   4
ATOM      4  C   UNL     1      16.194 120.908  16.047  1.00  0.00    -0.025 C 
ATOM      5  C   UNL     1      16.482 119.839  16.797  1.00  0.00     0.020 C 
BRANCH   5   6
ATOM      6  C   UNL     1      15.710 119.487  17.999  1.00  0.00     0.064 C 
ATOM      7  O   UNL     1      14.485 119.199  17.925  1.00  0.00    -0.545 OA
ATOM      8  O   UNL     1      16.340 119.473  19.236  1.00  0.00    -0.545 OA
ENDBRANCH   5   6
ENDBRANCH   3   4
ENDBRANCH   2   3
ENDBRANCH   1   2
BRANCH   1   9
ATOM      9  C   UNL     1      18.067 124.377  16.717  1.00  0.00     0.000 C 
BRANCH   9  10
ATOM     10  C   UNL     1      18.777 125.003  15.505  1.00  0.00     0.000 C 
BRANCH  10  11
ATOM     11  C   UNL     1      19.874 126.002  15.915  1.00  0.00    -0.000 C 
BRANCH  11  12
ATOM     12  C   UNL     1      19.569 127.435  15.451  1.00  0.00    -0.000 C 
BRANCH  12  13
ATOM     13  C   UNL     1      19.267 128.386  16.618  1.00  0.00    -0.003 C 
ATOM     14  C   UNL     1      18.969 127.610  17.897  1.00  0.00     0.004 C 
ENDBRANCH  12  13
ENDBRANCH  11  12
ENDBRANCH  10  11
ENDBRANCH   9  10
ENDBRANCH   1   9
TORSDOF 9
ENDMDL
MODEL 2
REMARK VINA RESULT:    -5.994      1.623      2.680
REMARK INTER + INTRA:          -9.470
REMARK INTER:                  -9.174
REMARK INTRA:                  -0.295
REMARK UNBOUND:                -0.322
REMARK SMILES CCCCCCCCCC=CC(=O)[O-]
REMARK SMILES IDX 7 1 8 2 9 3 10 4 11 5 12 6 13 7 14 8 6 9 5 10 4 11 3 12 2 13
REMARK SMILES IDX 1 14
REMARK H PARENT
REMARK Flexibility Score: inf
ROOT
ATOM      1  C   UNL     1      17.902 125.328  16.388  1.00  0.00     0.000 C 
ENDROOT
BRANCH   1   2
ATOM      2  C   UNL     1      18.488 123.953  16.752  1.00  0.00     0.004 C 
BRANCH   2   3
ATOM      3  C   UNL     1      18.042 122.844  15.788  1.00  0.00     0.027 C 
BRANCH   3   4
ATOM      4  C   UNL     1      17.275 121.775  16.512  1.00  0.00    -0.025 C 
ATOM      5  C   UNL     1      16.554 120.863  15.850  1.00  0.00     0.020 C 
BRANCH   5   6
ATOM      6  C   UNL     1      15.805 119.799  16.537  1.00  0.00     0.064 C 
ATOM      7  O   UNL     1      16.345 118.693  16.809  1.00  0.00    -0.545 OA
ATOM      8  O   UNL     1      14.481 120.017  16.894  1.00  0.00    -0.545 OA
ENDBRANCH   5   6
ENDBRANCH   3   4
ENDBRANCH   2   3
ENDBRANCH   1   2
BRANCH   1   9
ATOM      9  C   UNL     1      18.245 126.408  17.429  1.00  0.00     0.000 C 
BRANCH   9  10
ATOM     10  C   UNL     1      19.261 127.435  16.900  1.00  0.00     0.000 C 
BRANCH  10  11
ATOM     11  C   UNL     1      20.061 126.906  15.696  1.00  0.00    -0.000 C 
BRANCH  11  12
ATOM     12  C   UNL     1      20.285 127.981  14.620  1.00  0.00    -0.000 C 
BRANCH  12  13
ATOM     13  C   UNL     1      21.731 128.012  14.103  1.00  0.00    -0.003 C 
ATOM     14  C   UNL     1      21.777 128.355  12.617  1.00  0.00     0.004 C 
ENDBRANCH  12  13
ENDBRANCH  11  12
ENDBRANCH  10  11
ENDBRANCH   9  10
ENDBRANCH   1   9
TORSDOF 9
ENDMDL
MODEL 3
REMARK VINA RESULT:    -5.986      1.281      2.066
REMARK INTER + INTRA:          -9.458
REMARK INTER:                  -9.102
REMARK INTRA:                  -0.356
REMARK UNBOUND:                -0.322
REMARK SMILES CCCCCCCCCC=CC(=O)[O-]
REMARK SMILES IDX 7 1 8 2 9 3 10 4 11 5 12 6 13 7 14 8 6 9 5 10 4 11 3 12 2 13
REMARK SMILES IDX 1 14
REMARK H PARENT
REMARK Flexibility Score: inf
ROOT
ATOM      1  C   UNL     1      17.618 122.003  16.708  1.00  0.00     0.000 C 
ENDROOT
BRANCH   1   2
ATOM      2  C   UNL     1      16.563 121.124  16.014  1.00  0.00     0.004 C 
BRANCH   2   3
ATOM      3  C   UNL     1      16.506 119.700  16.589  1.00  0.00     0.027 C 
BRANCH   3   4
ATOM      4  C   UNL     1      16.500 119.724  18.091  1.00  0.00    -0.025 C 
ATOM      5  C   UNL     1      15.416 119.372  18.791  1.00  0.00     0.020 C 
BRANCH   5   6
ATOM      6  C   UNL     1      15.392 119.375  20.262  1.00  0.00     0.064 C 
ATOM      7  O   UNL     1      14.354 119.051  20.898  1.00  0.00    -0.545 OA
ATOM      8  O   UNL     1      16.533 119.743  20.964  1.00  0.00    -0.545 OA
ENDBRANCH   5   6
ENDBRANCH   3   4
ENDBRANCH   2   3
ENDBRANCH   1   2
BRANCH   1   9
ATOM      9  C   UNL     1      17.996 123.238  15.872  1.00  0.00     0.000 C 
BRANCH   9  10
ATOM     10  C   UNL     1      18.715 124.314  16.703  1.00  0.00     0.000 C 
BRANCH  10  11
ATOM     11  C   UNL     1      18.013 125.683  16.630  1.00  0.00    -0.000 C 
BRANCH  11  12
ATOM     12  C   UNL     1      18.602 126.701  17.619  1.00  0.00    -0.000 C 
BRANCH  12  13
ATOM     13  C   UNL     1      19.154 127.954  16.924  1.00  0.00    -0.003 C 
ATOM     14  C   UNL     1      19.750 127.611  15.562  1.00  0.00     0.004 C 
ENDBRANCH  12  13
ENDBRANCH  11  12
ENDBRANCH  10  11
ENDBRANCH   9  10
ENDBRANCH   1   9
TORSDOF 9
ENDMDL
MODEL 4
REMARK VINA RESULT:    -5.953      1.350      2.183
REMARK INTER + INTRA:          -9.407
REMARK INTER:                  -8.940
REMARK INTRA:                  -0.467
REMARK UNBOUND:                -0.322
REMARK SMILES CCCCCCCCCC=CC(=O)[O-]
REMARK SMILES IDX 7 1 8 2 9 3 10 4 11 5 12 6 13 7 14 8 6 9 5 10 4 11 3 12 2 13
REMARK SMILES IDX 1 14
REMARK H PARENT
REMARK Flexibility Score: inf
ROOT
ATOM      1  C   UNL     1      17.329 122.333  15.520  1.00  0.00     0.000 C 
ENDROOT
BRANCH   1   2
ATOM      2  C   UNL     1      16.459 121.086  15.751  1.00  0.00     0.004 C 
BRANCH   2   3
ATOM      3  C   UNL     1      16.916 120.260  16.963  1.00  0.00     0.027 C 
BRANCH   3   4
ATOM      4  C   UNL     1      15.770 119.488  17.554  1.00  0.00    -0.025 C 
ATOM      5  C   UNL     1      14.656 119.248  16.853  1.00  0.00     0.020 C 
BRANCH   5   6
ATOM      6  C   UNL     1      13.527 118.483  17.406  1.00  0.00     0.064 C 
ATOM      7  O   UNL     1      12.875 117.675  16.693  1.00  0.00    -0.545 OA
ATOM      8  O   UNL     1      13.173 118.654  18.738  1.00  0.00    -0.545 OA
ENDBRANCH   5   6
ENDBRANCH   3   4
ENDBRANCH   2   3
ENDBRANCH   1   2
BRANCH   1   9
ATOM      9  C   UNL     1      18.052 122.791  16.799  1.00  0.00     0.000 C 
BRANCH   9  10
ATOM     10  C   UNL     1      18.799 124.122  16.610  1.00  0.00     0.000 C 
BRANCH  10  11
ATOM     11  C   UNL     1      18.007 125.326  17.153  1.00  0.00    -0.000 C 
BRANCH  11  12
ATOM     12  C   UNL     1      17.977 126.505  16.168  1.00  0.00    -0.000 C 
BRANCH  12  13
ATOM     13  C   UNL     1      19.139 127.486  16.380  1.00  0.00    -0.003 C 
ATOM     14  C   UNL     1      20.175 127.362  15.267  1.00  0.00     0.004 C 
ENDBRANCH  12  13
ENDBRANCH  11  12
ENDBRANCH  10  11
ENDBRANCH   9  10
ENDBRANCH   1   9
TORSDOF 9
ENDMDL
MODEL 5
REMARK VINA RESULT:    -5.936      1.378      2.111
REMARK INTER + INTRA:          -9.381
REMARK INTER:                  -8.965
REMARK INTRA:                  -0.416
REMARK UNBOUND:                -0.322
REMARK SMILES CCCCCCCCCC=CC(=O)[O-]
REMARK SMILES IDX 7 1 8 2 9 3 10 4 11 5 12 6 13 7 14 8 6 9 5 10 4 11 3 12 2 13
REMARK SMILES IDX 1 14
REMARK H PARENT
REMARK Flexibility Score: inf
ROOT
ATOM      1  C   UNL     1      18.036 122.846  16.580  1.00  0.00     0.000 C 
ENDROOT
BRANCH   1   2
ATOM      2  C   UNL     1      17.469 121.897  15.512  1.00  0.00     0.004 C 
BRANCH   2   3
ATOM      3  C   UNL     1      16.724 120.698  16.119  1.00  0.00     0.027 C 
BRANCH   3   4
ATOM      4  C   UNL     1      16.910 120.645  17.609  1.00  0.00    -0.025 C 
ATOM      5  C   UNL     1      16.541 119.574  18.321  1.00  0.00     0.020 C 
BRANCH   5   6
ATOM      6  C   UNL     1      16.726 119.495  19.778  1.00  0.00     0.064 C 
ATOM      7  O   UNL     1      17.849 119.219  20.279  1.00  0.00    -0.545 OA
ATOM      8  O   UNL     1      15.645 119.728  20.618  1.00  0.00    -0.545 OA
ENDBRANCH   5   6
ENDBRANCH   3   4
ENDBRANCH   2   3
ENDBRANCH   1   2
BRANCH   1   9
ATOM      9  C   UNL     1      18.403 124.226  16.006  1.00  0.00     0.000 C 
BRANCH   9  10
ATOM     10  C   UNL     1      18.150 125.367  17.006  1.00  0.00     0.000 C 
BRANCH  10  11
ATOM     11  C   UNL     1      18.157 126.753  16.336  1.00  0.00    -0.000 C 
BRANCH  11  12
ATOM     12  C   UNL     1      19.074 126.806  15.104  1.00  0.00    -0.000 C 
BRANCH  12  13
ATOM     13  C   UNL     1      20.219 127.817  15.258  1.00  0.00    -0.003 C 
ATOM     14  C   UNL     1      20.968 128.006  13.942  1.00  0.00     0.004 C 
ENDBRANCH  12  13
ENDBRANCH  11  12
ENDBRANCH  10  11
ENDBRANCH   9  10
ENDBRANCH   1   9
TORSDOF 9
ENDMDL
MODEL 6
REMARK VINA RESULT:    -5.899      3.558      7.053
REMARK INTER + INTRA:          -9.325
REMARK INTER:                  -8.745
REMARK INTRA:                  -0.580
REMARK UNBOUND:                -0.322
REMARK SMILES CCCCCCCCCC=CC(=O)[O-]
REMARK SMILES IDX 7 1 8 2 9 3 10 4 11 5 12 6 13 7 14 8 6 9 5 10 4 11 3 12 2 13
REMARK SMILES IDX 1 14
REMARK H PARENT
REMARK Flexibility Score: inf
ROOT
ATOM      1  C   UNL     1      17.366 120.954  15.207  1.00  0.00     0.000 C 
ENDROOT
BRANCH   1   2
ATOM      2  C   UNL     1      17.958 122.368  15.337  1.00  0.00     0.004 C 
BRANCH   2   3
ATOM      3  C   UNL     1      18.051 122.839  16.797  1.00  0.00     0.027 C 
BRANCH   3   4
ATOM      4  C   UNL     1      18.213 124.330  16.873  1.00  0.00    -0.025 C 
ATOM      5  C   UNL     1      19.064 124.983  16.074  1.00  0.00     0.020 C 
BRANCH   5   6
ATOM      6  C   UNL     1      19.228 126.444  16.122  1.00  0.00     0.064 C 
ATOM      7  O   UNL     1      20.259 127.000  15.657  1.00  0.00    -0.545 OA
ATOM      8  O   UNL     1      18.230 127.225  16.691  1.00  0.00    -0.545 OA
ENDBRANCH   5   6
ENDBRANCH   3   4
ENDBRANCH   2   3
ENDBRANCH   1   2
BRANCH   1   9
ATOM      9  C   UNL     1      16.157 120.734  16.133  1.00  0.00     0.000 C 
BRANCH   9  10
ATOM     10  C   UNL     1      16.187 119.360  16.824  1.00  0.00     0.000 C 
BRANCH  10  11
ATOM     11  C   UNL     1      15.744 119.430  18.297  1.00  0.00    -0.000 C 
BRANCH  11  12
ATOM     12  C   UNL     1      16.904 119.771  19.245  1.00  0.00    -0.000 C 
BRANCH  12  13
ATOM     13  C   UNL     1      16.580 119.466  20.715  1.00  0.00    -0.003 C 
ATOM     14  C   UNL     1      15.072 119.400  20.944  1.00  0.00     0.004 C 
ENDBRANCH  12  13
ENDBRANCH  11  12
ENDBRANCH  10  11
ENDBRANCH   9  10
ENDBRANCH   1   9
TORSDOF 9
ENDMDL
MODEL 7
REMARK VINA RESULT:    -5.892      3.849      7.738
REMARK INTER + INTRA:          -9.313
REMARK INTER:                  -8.871
REMARK INTRA:                  -0.442
REMARK UNBOUND:                -0.322
REMARK SMILES CCCCCCCCCC=CC(=O)[O-]
REMARK SMILES IDX 7 1 8 2 9 3 10 4 11 5 12 6 13 7 14 8 6 9 5 10 4 11 3 12 2 13
REMARK SMILES IDX 1 14
REMARK H PARENT
REMARK Flexibility Score: inf
ROOT
ATOM      1  C   UNL     1      17.179 121.025  15.907  1.00  0.00     0.000 C 
ENDROOT
BRANCH   1   2
ATOM      2  C   UNL     1      17.658 122.431  15.507  1.00  0.00     0.004 C 
BRANCH   2   3
ATOM      3  C   UNL     1      18.158 123.251  16.706  1.00  0.00     0.027 C 
BRANCH   3   4
ATOM      4  C   UNL     1      18.181 124.718  16.386  1.00  0.00    -0.025 C 
ATOM      5  C   UNL     1      19.298 125.443  16.511  1.00  0.00     0.020 C 
BRANCH   5   6
ATOM      6  C   UNL     1      19.348 126.878  16.189  1.00  0.00     0.064 C 
ATOM      7  O   UNL     1      19.570 127.275  15.015  1.00  0.00    -0.545 OA
ATOM      8  O   UNL     1      19.147 127.811  17.198  1.00  0.00    -0.545 OA
ENDBRANCH   5   6
ENDBRANCH   3   4
ENDBRANCH   2   3
ENDBRANCH   1   2
BRANCH   1   9
ATOM      9  C   UNL     1      17.185 120.812  17.431  1.00  0.00     0.000 C 
BRANCH   9  10
ATOM     10  C   UNL     1      16.271 119.655  17.868  1.00  0.00     0.000 C 
BRANCH  10  11
ATOM     11  C   UNL     1      15.214 119.304  16.806  1.00  0.00    -0.000 C 
BRANCH  11  12
ATOM     12  C   UNL     1      13.807 119.149  17.404  1.00  0.00    -0.000 C 
BRANCH  12  13
ATOM     13  C   UNL     1      13.110 117.856  16.956  1.00  0.00    -0.003 C 
ATOM     14  C   UNL     1      13.598 117.416  15.578  1.00  0.00     0.004 C 
ENDBRANCH  12  13
ENDBRANCH  11  12
ENDBRANCH  10  11
ENDBRANCH   9  10
ENDBRANCH   1   9
TORSDOF 9
ENDMDL
MODEL 8
REMARK VINA RESULT:    -5.765      3.724      7.456
REMARK INTER + INTRA:          -9.121
REMARK INTER:                  -8.760
REMARK INTRA:                  -0.361
REMARK UNBOUND:                -0.322
REMARK SMILES CCCCCCCCCC=CC(=O)[O-]
REMARK SMILES IDX 7 1 8 2 9 3 10 4 11 5 12 6 13 7 14 8 6 9 5 10 4 11 3 12 2 13
REMARK SMILES IDX 1 14
REMARK H PARENT
REMARK Flexibility Score: inf
ROOT
ATOM      1  C   UNL     1      16.476 120.253  16.765  1.00  0.00     0.000 C 
ENDROOT
BRANCH   1   2
ATOM      2  C   UNL     1      17.086 121.392  15.931  1.00  0.00     0.004 C 
BRANCH   2   3
ATOM      3  C   UNL     1      17.909 122.374  16.779  1.00  0.00     0.027 C 
BRANCH   3   4
ATOM      4  C   UNL     1      18.094 123.682  16.064  1.00  0.00    -0.025 C 
ATOM      5  C   UNL     1      17.997 124.850  16.708  1.00  0.00     0.020 C 
BRANCH   5   6
ATOM      6  C   UNL     1      18.188 126.142  16.031  1.00  0.00     0.064 C 
ATOM      7  O   UNL     1      18.369 126.206  14.786  1.00  0.00    -0.545 OA
ATOM      8  O   UNL     1      18.168 127.314  16.777  1.00  0.00    -0.545 OA
ENDBRANCH   5   6
ENDBRANCH   3   4
ENDBRANCH   2   3
ENDBRANCH   1   2
BRANCH   1   9
ATOM      9  C   UNL     1      17.015 120.226  18.206  1.00  0.00     0.000 C 
BRANCH   9  10
ATOM     10  C   UNL     1      16.158 119.353  19.139  1.00  0.00     0.000 C 
BRANCH  10  11
ATOM     11  C   UNL     1      16.369 119.695  20.625  1.00  0.00    -0.000 C 
BRANCH  11  12
ATOM     12  C   UNL     1      15.061 119.647  21.432  1.00  0.00    -0.000 C 
BRANCH  12  13
ATOM     13  C   UNL     1      14.135 118.503  20.993  1.00  0.00    -0.003 C 
ATOM     14  C   UNL     1      12.870 119.042  20.332  1.00  0.00     0.004 C 
ENDBRANCH  12  13
ENDBRANCH  11  12
ENDBRANCH  10  11
ENDBRANCH   9  10
ENDBRANCH   1   9
TORSDOF 9
ENDMDL
MODEL 9
REMARK VINA RESULT:    -5.666      3.980      4.605
REMARK INTER + INTRA:          -8.969
REMARK INTER:                  -8.513
REMARK INTRA:                  -0.456
REMARK UNBOUND:                -0.322
REMARK SMILES CCCCCCCCCC=CC(=O)[O-]
REMARK SMILES IDX 7 1 8 2 9 3 10 4 11 5 12 6 13 7 14 8 6 9 5 10 4 11 3 12 2 13
REMARK SMILES IDX 1 14
REMARK H PARENT
REMARK Flexibility Score: inf
ROOT
ATOM      1  C   UNL     1      17.917 122.454  16.159  1.00  0.00     0.000 C 
ENDROOT
BRANCH   1   2
ATOM      2  C   UNL     1      18.203 122.486  14.649  1.00  0.00     0.004 C 
BRANCH   2   3
ATOM      3  C   UNL     1      17.742 121.208  13.931  1.00  0.00     0.027 C 
BRANCH   3   4
ATOM      4  C   UNL     1      18.653 120.875  12.784  1.00  0.00    -0.025 C 
ATOM      5  C   UNL     1      19.154 119.645  12.623  1.00  0.00     0.020 C 
BRANCH   5   6
ATOM      6  C   UNL     1      20.037 119.293  11.500  1.00  0.00     0.064 C 
ATOM      7  O   UNL     1      19.854 118.241  10.832  1.00  0.00    -0.545 OA
ATOM      8  O   UNL     1      21.091 120.135  11.170  1.00  0.00    -0.545 OA
ENDBRANCH   5   6
ENDBRANCH   3   4
ENDBRANCH   2   3
ENDBRANCH   1   2
BRANCH   1   9
ATOM      9  C   UNL     1      18.286 123.775  16.857  1.00  0.00     0.000 C 
BRANCH   9  10
ATOM     10  C   UNL     1      18.235 124.980  15.902  1.00  0.00     0.000 C 
BRANCH  10  11
ATOM     11  C   UNL     1      17.908 126.296  16.630  1.00  0.00    -0.000 C 
BRANCH  11  12
ATOM     12  C   UNL     1      19.091 127.277  16.635  1.00  0.00    -0.000 C 
BRANCH  12  13
ATOM     13  C   UNL     1      20.256 126.808  15.751  1.00  0.00    -0.003 C 
ATOM     14  C   UNL     1      20.484 127.766  14.586  1.00  0.00     0.004 C 
ENDBRANCH  12  13
ENDBRANCH  11  12
ENDBRANCH  10  11
ENDBRANCH   9  10
ENDBRANCH   1   9
TORSDOF 9
ENDMDL
