MODEL 1
REMARK VINA RESULT:    13.622      0.000      0.000
REMARK INTER + INTRA:          25.183
REMARK INTER:                  25.567
REMARK INTRA:                  -0.384
REMARK UNBOUND:                -0.384
REMARK SMILES O=C([O-])CCCCCCCCCCCCCCC(=O)[O-]
REMARK SMILES IDX 10 1 9 2 8 3 7 4 6 5 5 6 4 7 2 8 1 9 3 10 11 11 12 12 13 13
REMARK SMILES IDX 14 14 15 15 16 16 17 17 18 18 19 19 20 20
REMARK H PARENT
REMARK Flexibility Score: inf
ROOT
ATOM      1  C   UNL     1     -16.663  26.848  -3.802  1.00  0.00     0.000 C 
ENDROOT
BRANCH   1   2
ATOM      2  C   UNL     1     -16.915  25.504  -3.103  1.00  0.00     0.000 C 
BRANCH   2   3
ATOM      3  C   UNL     1     -18.417  25.276  -2.877  1.00  0.00     0.000 C 
BRANCH   3   4
ATOM      4  C   UNL     1     -19.277  26.488  -3.280  1.00  0.00     0.000 C 
BRANCH   4   5
ATOM      5  C   UNL     1     -20.332  26.204  -4.365  1.00  0.00     0.000 C 
BRANCH   5   6
ATOM      6  C   UNL     1     -20.247  27.175  -5.552  1.00  0.00     0.006 C 
BRANCH   6   7
ATOM      7  C   UNL     1     -21.125  28.407  -5.316  1.00  0.00     0.053 C 
BRANCH   7   8
ATOM      8  C   UNL     1     -20.373  29.446  -4.545  1.00  0.00     0.041 C 
ATOM      9  O   UNL     1     -19.609  30.249  -5.141  1.00  0.00    -0.550 OA
ATOM     10  O   UNL     1     -20.557  29.560  -3.173  1.00  0.00    -0.550 OA
ENDBRANCH   7   8
ENDBRANCH   6   7
ENDBRANCH   5   6
ENDBRANCH   4   5
ENDBRANCH   3   4
ENDBRANCH   2   3
ENDBRANCH   1   2
BRANCH   1  11
ATOM     11  C   UNL     1     -15.995  27.885  -2.882  1.00  0.00     0.000 C 
BRANCH  11  12
ATOM     12  C   UNL     1     -14.454  27.884  -2.908  1.00  0.00     0.000 C 
BRANCH  12  13
ATOM     13  C   UNL     1     -13.807  29.222  -3.306  1.00  0.00     0.000 C 
BRANCH  13  14
ATOM     14  C   UNL     1     -12.343  29.070  -3.747  1.00  0.00     0.000 C 
BRANCH  14  15
ATOM     15  C   UNL     1     -12.193  29.344  -5.251  1.00  0.00     0.000 C 
BRANCH  15  16
ATOM     16  C   UNL     1     -10.918  30.133  -5.586  1.00  0.00     0.006 C 
BRANCH  16  17
ATOM     17  C   UNL     1     -10.348  29.777  -6.965  1.00  0.00     0.053 C 
BRANCH  17  18
ATOM     18  C   UNL     1     -11.449  29.665  -7.971  1.00  0.00     0.041 C 
ATOM     19  O   UNL     1     -11.530  28.650  -8.713  1.00  0.00    -0.550 OA
ATOM     20  O   UNL     1     -12.416  30.659  -8.058  1.00  0.00    -0.550 OA
ENDBRANCH  17  18
ENDBRANCH  16  17
ENDBRANCH  15  16
ENDBRANCH  14  15
ENDBRANCH  13  14
ENDBRANCH  12  13
ENDBRANCH  11  12
ENDBRANCH   1  11
TORSDOF 15
ENDMDL
MODEL 2
REMARK VINA RESULT:    14.213      2.075      2.564
REMARK INTER + INTRA:          26.293
REMARK INTER:                  25.949
REMARK INTRA:                   0.344
REMARK UNBOUND:                -0.384
REMARK SMILES O=C([O-])CCCCCCCCCCCCCCC(=O)[O-]
REMARK SMILES IDX 10 1 9 2 8 3 7 4 6 5 5 6 4 7 2 8 1 9 3 10 11 11 12 12 13 13
REMARK SMILES IDX 14 14 15 15 16 16 17 17 18 18 19 19 20 20
REMARK H PARENT
REMARK Flexibility Score: inf
ROOT
ATOM      1  C   UNL     1     -17.722  28.141  -3.222  1.00  0.00     0.000 C 
ENDROOT
BRANCH   1   2
ATOM      2  C   UNL     1     -18.821  27.200  -3.737  1.00  0.00     0.000 C 
BRANCH   2   3
ATOM      3  C   UNL     1     -18.436  25.731  -3.512  1.00  0.00     0.000 C 
BRANCH   3   4
ATOM      4  C   UNL     1     -19.568  24.903  -2.876  1.00  0.00     0.000 C 
BRANCH   4   5
ATOM      5  C   UNL     1     -20.972  25.179  -3.443  1.00  0.00     0.000 C 
BRANCH   5   6
ATOM      6  C   UNL     1     -20.942  25.981  -4.752  1.00  0.00     0.006 C 
BRANCH   6   7
ATOM      7  C   UNL     1     -20.879  25.049  -5.965  1.00  0.00     0.053 C 
BRANCH   7   8
ATOM      8  C   UNL     1     -20.572  25.823  -7.208  1.00  0.00     0.041 C 
ATOM      9  O   UNL     1     -21.030  25.448  -8.319  1.00  0.00    -0.550 OA
ATOM     10  O   UNL     1     -19.820  26.989  -7.131  1.00  0.00    -0.550 OA
ENDBRANCH   7   8
ENDBRANCH   6   7
ENDBRANCH   5   6
ENDBRANCH   4   5
ENDBRANCH   3   4
ENDBRANCH   2   3
ENDBRANCH   1   2
BRANCH   1  11
ATOM     11  C   UNL     1     -16.322  27.502  -3.257  1.00  0.00     0.000 C 
BRANCH  11  12
ATOM     12  C   UNL     1     -15.282  28.256  -4.109  1.00  0.00     0.000 C 
BRANCH  12  13
ATOM     13  C   UNL     1     -13.887  28.387  -3.470  1.00  0.00     0.000 C 
BRANCH  13  14
ATOM     14  C   UNL     1     -12.808  28.814  -4.476  1.00  0.00     0.000 C 
BRANCH  14  15
ATOM     15  C   UNL     1     -12.079  30.077  -3.995  1.00  0.00     0.000 C 
BRANCH  15  16
ATOM     16  C   UNL     1     -11.409  30.849  -5.142  1.00  0.00     0.006 C 
BRANCH  16  17
ATOM     17  C   UNL     1     -11.848  30.349  -6.525  1.00  0.00     0.053 C 
BRANCH  17  18
ATOM     18  C   UNL     1     -10.726  29.623  -7.197  1.00  0.00     0.041 C 
ATOM     19  O   UNL     1     -10.956  28.878  -8.187  1.00  0.00    -0.550 OA
ATOM     20  O   UNL     1      -9.419  29.806  -6.762  1.00  0.00    -0.550 OA
ENDBRANCH  17  18
ENDBRANCH  16  17
ENDBRANCH  15  16
ENDBRANCH  14  15
ENDBRANCH  13  14
ENDBRANCH  12  13
ENDBRANCH  11  12
ENDBRANCH   1  11
TORSDOF 15
ENDMDL
MODEL 3
REMARK VINA RESULT:    14.963      1.720      8.387
REMARK INTER + INTRA:          27.701
REMARK INTER:                  27.720
REMARK INTRA:                  -0.020
REMARK UNBOUND:                -0.384
REMARK SMILES O=C([O-])CCCCCCCCCCCCCCC(=O)[O-]
REMARK SMILES IDX 10 1 9 2 8 3 7 4 6 5 5 6 4 7 2 8 1 9 3 10 11 11 12 12 13 13
REMARK SMILES IDX 14 14 15 15 16 16 17 17 18 18 19 19 20 20
REMARK H PARENT
REMARK Flexibility Score: inf
ROOT
ATOM      1  C   UNL     1     -15.825  27.949  -3.057  1.00  0.00     0.000 C 
ENDROOT
BRANCH   1   2
ATOM      2  C   UNL     1     -14.407  27.926  -3.646  1.00  0.00     0.000 C 
BRANCH   2   3
ATOM      3  C   UNL     1     -13.605  29.155  -3.194  1.00  0.00     0.000 C 
BRANCH   3   4
ATOM      4  C   UNL     1     -12.310  29.360  -4.001  1.00  0.00     0.000 C 
BRANCH   4   5
ATOM      5  C   UNL     1     -12.465  30.219  -5.270  1.00  0.00     0.000 C 
BRANCH   5   6
ATOM      6  C   UNL     1     -11.118  30.628  -5.884  1.00  0.00     0.006 C 
BRANCH   6   7
ATOM      7  C   UNL     1     -10.507  29.475  -6.684  1.00  0.00     0.053 C 
BRANCH   7   8
ATOM      8  C   UNL     1     -10.214  29.906  -8.086  1.00  0.00     0.041 C 
ATOM      9  O   UNL     1      -9.026  30.108  -8.453  1.00  0.00    -0.550 OA
ATOM     10  O   UNL     1     -11.249  30.036  -9.003  1.00  0.00    -0.550 OA
ENDBRANCH   7   8
ENDBRANCH   6   7
ENDBRANCH   5   6
ENDBRANCH   4   5
ENDBRANCH   3   4
ENDBRANCH   2   3
ENDBRANCH   1   2
BRANCH   1  11
ATOM     11  C   UNL     1     -16.790  26.994  -3.784  1.00  0.00     0.000 C 
BRANCH  11  12
ATOM     12  C   UNL     1     -17.858  26.339  -2.887  1.00  0.00     0.000 C 
BRANCH  12  13
ATOM     13  C   UNL     1     -19.287  26.351  -3.458  1.00  0.00     0.000 C 
BRANCH  13  14
ATOM     14  C   UNL     1     -20.150  27.485  -2.886  1.00  0.00     0.000 C 
BRANCH  14  15
ATOM     15  C   UNL     1     -19.825  28.820  -3.573  1.00  0.00     0.000 C 
BRANCH  15  16
ATOM     16  C   UNL     1     -20.340  28.883  -5.019  1.00  0.00     0.006 C 
BRANCH  16  17
ATOM     17  C   UNL     1     -21.124  27.627  -5.422  1.00  0.00     0.053 C 
BRANCH  17  18
ATOM     18  C   UNL     1     -20.407  26.893  -6.510  1.00  0.00     0.041 C 
ATOM     19  O   UNL     1     -19.176  27.082  -6.698  1.00  0.00    -0.550 OA
ATOM     20  O   UNL     1     -21.087  25.962  -7.286  1.00  0.00    -0.550 OA
ENDBRANCH  17  18
ENDBRANCH  16  17
ENDBRANCH  15  16
ENDBRANCH  14  15
ENDBRANCH  13  14
ENDBRANCH  12  13
ENDBRANCH  11  12
ENDBRANCH   1  11
TORSDOF 15
ENDMDL
MODEL 4
REMARK VINA RESULT:    15.021      1.677      2.276
REMARK INTER + INTRA:          27.809
REMARK INTER:                  27.106
REMARK INTRA:                   0.704
REMARK UNBOUND:                -0.384
REMARK SMILES O=C([O-])CCCCCCCCCCCCCCC(=O)[O-]
REMARK SMILES IDX 10 1 9 2 8 3 7 4 6 5 5 6 4 7 2 8 1 9 3 10 11 11 12 12 13 13
REMARK SMILES IDX 14 14 15 15 16 16 17 17 18 18 19 19 20 20
REMARK H PARENT
REMARK Flexibility Score: inf
ROOT
ATOM      1  C   UNL     1     -16.200  27.960  -3.751  1.00  0.00     0.000 C 
ENDROOT
BRANCH   1   2
ATOM      2  C   UNL     1     -16.764  26.708  -3.063  1.00  0.00     0.000 C 
BRANCH   2   3
ATOM      3  C   UNL     1     -18.284  26.822  -2.878  1.00  0.00     0.000 C 
BRANCH   3   4
ATOM      4  C   UNL     1     -18.903  27.982  -3.680  1.00  0.00     0.000 C 
BRANCH   4   5
ATOM      5  C   UNL     1     -20.442  28.039  -3.657  1.00  0.00     0.000 C 
BRANCH   5   6
ATOM      6  C   UNL     1     -21.094  26.649  -3.688  1.00  0.00     0.006 C 
BRANCH   6   7
ATOM      7  C   UNL     1     -20.433  25.756  -4.743  1.00  0.00     0.053 C 
BRANCH   7   8
ATOM      8  C   UNL     1     -20.758  26.242  -6.120  1.00  0.00     0.041 C 
ATOM      9  O   UNL     1     -20.895  25.423  -7.066  1.00  0.00    -0.550 OA
ATOM     10  O   UNL     1     -20.959  27.598  -6.348  1.00  0.00    -0.550 OA
ENDBRANCH   7   8
ENDBRANCH   6   7
ENDBRANCH   5   6
ENDBRANCH   4   5
ENDBRANCH   3   4
ENDBRANCH   2   3
ENDBRANCH   1   2
BRANCH   1  11
ATOM     11  C   UNL     1     -14.941  28.508  -3.056  1.00  0.00     0.000 C 
BRANCH  11  12
ATOM     12  C   UNL     1     -13.611  28.184  -3.766  1.00  0.00     0.000 C 
BRANCH  12  13
ATOM     13  C   UNL     1     -12.706  29.398  -4.042  1.00  0.00     0.000 C 
BRANCH  13  14
ATOM     14  C   UNL     1     -12.558  29.705  -5.539  1.00  0.00     0.000 C 
BRANCH  14  15
ATOM     15  C   UNL     1     -11.343  30.609  -5.796  1.00  0.00     0.000 C 
BRANCH  15  16
ATOM     16  C   UNL     1     -10.092  29.819  -6.209  1.00  0.00     0.006 C 
BRANCH  16  17
ATOM     17  C   UNL     1      -9.841  29.859  -7.722  1.00  0.00     0.053 C 
BRANCH  17  18
ATOM     18  C   UNL     1     -11.115  29.625  -8.469  1.00  0.00     0.041 C 
ATOM     19  O   UNL     1     -11.755  30.598  -8.950  1.00  0.00    -0.550 OA
ATOM     20  O   UNL     1     -11.573  28.330  -8.676  1.00  0.00    -0.550 OA
ENDBRANCH  17  18
ENDBRANCH  16  17
ENDBRANCH  15  16
ENDBRANCH  14  15
ENDBRANCH  13  14
ENDBRANCH  12  13
ENDBRANCH  11  12
ENDBRANCH   1  11
TORSDOF 15
ENDMDL
MODEL 5
REMARK VINA RESULT:    15.169      1.711      2.171
REMARK INTER + INTRA:          28.086
REMARK INTER:                  27.439
REMARK INTRA:                   0.648
REMARK UNBOUND:                -0.384
REMARK SMILES O=C([O-])CCCCCCCCCCCCCCC(=O)[O-]
REMARK SMILES IDX 10 1 9 2 8 3 7 4 6 5 5 6 4 7 2 8 1 9 3 10 11 11 12 12 13 13
REMARK SMILES IDX 14 14 15 15 16 16 17 17 18 18 19 19 20 20
REMARK H PARENT
REMARK Flexibility Score: inf
ROOT
ATOM      1  C   UNL     1     -15.524  28.143  -3.736  1.00  0.00     0.000 C 
ENDROOT
BRANCH   1   2
ATOM      2  C   UNL     1     -16.295  27.131  -2.875  1.00  0.00     0.000 C 
BRANCH   2   3
ATOM      3  C   UNL     1     -17.810  27.321  -3.030  1.00  0.00     0.000 C 
BRANCH   3   4
ATOM      4  C   UNL     1     -18.593  25.997  -2.962  1.00  0.00     0.000 C 
BRANCH   4   5
ATOM      5  C   UNL     1     -19.988  26.032  -3.614  1.00  0.00     0.000 C 
BRANCH   5   6
ATOM      6  C   UNL     1     -20.971  26.952  -2.875  1.00  0.00     0.006 C 
BRANCH   6   7
ATOM      7  C   UNL     1     -20.748  28.417  -3.262  1.00  0.00     0.053 C 
BRANCH   7   8
ATOM      8  C   UNL     1     -20.666  28.561  -4.748  1.00  0.00     0.041 C 
ATOM      9  O   UNL     1     -20.159  29.594  -5.259  1.00  0.00    -0.550 OA
ATOM     10  O   UNL     1     -21.103  27.530  -5.571  1.00  0.00    -0.550 OA
ENDBRANCH   7   8
ENDBRANCH   6   7
ENDBRANCH   5   6
ENDBRANCH   4   5
ENDBRANCH   3   4
ENDBRANCH   2   3
ENDBRANCH   1   2
BRANCH   1  11
ATOM     11  C   UNL     1     -14.314  28.752  -3.004  1.00  0.00     0.000 C 
BRANCH  11  12
ATOM     12  C   UNL     1     -13.000  28.758  -3.810  1.00  0.00     0.000 C 
BRANCH  12  13
ATOM     13  C   UNL     1     -12.411  30.153  -4.088  1.00  0.00     0.000 C 
BRANCH  13  14
ATOM     14  C   UNL     1     -11.883  30.303  -5.522  1.00  0.00     0.000 C 
BRANCH  14  15
ATOM     15  C   UNL     1     -12.068  28.999  -6.314  1.00  0.00     0.000 C 
BRANCH  15  16
ATOM     16  C   UNL     1     -11.408  29.048  -7.700  1.00  0.00     0.006 C 
BRANCH  16  17
ATOM     17  C   UNL     1      -9.884  28.882  -7.634  1.00  0.00     0.053 C 
BRANCH  17  18
ATOM     18  C   UNL     1      -9.226  30.199  -7.371  1.00  0.00     0.041 C 
ATOM     19  O   UNL     1      -8.727  30.444  -6.241  1.00  0.00    -0.550 OA
ATOM     20  O   UNL     1      -9.121  31.139  -8.388  1.00  0.00    -0.550 OA
ENDBRANCH  17  18
ENDBRANCH  16  17
ENDBRANCH  15  16
ENDBRANCH  14  15
ENDBRANCH  13  14
ENDBRANCH  12  13
ENDBRANCH  11  12
ENDBRANCH   1  11
TORSDOF 15
ENDMDL
MODEL 6
REMARK VINA RESULT:    16.384      2.213      8.958
REMARK INTER + INTRA:          30.366
REMARK INTER:                  30.961
REMARK INTRA:                  -0.595
REMARK UNBOUND:                -0.384
REMARK SMILES O=C([O-])CCCCCCCCCCCCCCC(=O)[O-]
REMARK SMILES IDX 10 1 9 2 8 3 7 4 6 5 5 6 4 7 2 8 1 9 3 10 11 11 12 12 13 13
REMARK SMILES IDX 14 14 15 15 16 16 17 17 18 18 19 19 20 20
REMARK H PARENT
REMARK Flexibility Score: inf
ROOT
ATOM      1  C   UNL     1     -14.171  28.745  -3.818  1.00  0.00     0.000 C 
ENDROOT
BRANCH   1   2
ATOM      2  C   UNL     1     -13.038  29.538  -3.149  1.00  0.00     0.000 C 
BRANCH   2   3
ATOM      3  C   UNL     1     -11.887  29.786  -4.134  1.00  0.00     0.000 C 
BRANCH   3   4
ATOM      4  C   UNL     1     -11.965  28.895  -5.388  1.00  0.00     0.000 C 
BRANCH   4   5
ATOM      5  C   UNL     1     -11.827  29.644  -6.726  1.00  0.00     0.000 C 
BRANCH   5   6
ATOM      6  C   UNL     1     -10.586  29.220  -7.525  1.00  0.00     0.006 C 
BRANCH   6   7
ATOM      7  C   UNL     1      -9.920  30.429  -8.188  1.00  0.00     0.053 C 
BRANCH   7   8
ATOM      8  C   UNL     1      -8.699  30.838  -7.428  1.00  0.00     0.041 C 
ATOM      9  O   UNL     1      -8.775  31.103  -6.200  1.00  0.00    -0.550 OA
ATOM     10  O   UNL     1      -7.465  30.877  -8.066  1.00  0.00    -0.550 OA
ENDBRANCH   7   8
ENDBRANCH   6   7
ENDBRANCH   5   6
ENDBRANCH   4   5
ENDBRANCH   3   4
ENDBRANCH   2   3
ENDBRANCH   1   2
BRANCH   1  11
ATOM     11  C   UNL     1     -15.502  28.840  -3.050  1.00  0.00     0.000 C 
BRANCH  11  12
ATOM     12  C   UNL     1     -16.603  27.873  -3.530  1.00  0.00     0.000 C 
BRANCH  12  13
ATOM     13  C   UNL     1     -17.981  28.077  -2.876  1.00  0.00     0.000 C 
BRANCH  13  14
ATOM     14  C   UNL     1     -18.723  29.308  -3.419  1.00  0.00     0.000 C 
BRANCH  14  15
ATOM     15  C   UNL     1     -20.192  29.305  -2.968  1.00  0.00     0.000 C 
BRANCH  15  16
ATOM     16  C   UNL     1     -21.122  28.625  -3.984  1.00  0.00     0.006 C 
BRANCH  16  17
ATOM     17  C   UNL     1     -21.074  27.093  -3.896  1.00  0.00     0.053 C 
BRANCH  17  18
ATOM     18  C   UNL     1     -20.370  26.524  -5.085  1.00  0.00     0.041 C 
ATOM     19  O   UNL     1     -20.284  25.276  -5.234  1.00  0.00    -0.550 OA
ATOM     20  O   UNL     1     -19.849  27.370  -6.056  1.00  0.00    -0.550 OA
ENDBRANCH  17  18
ENDBRANCH  16  17
ENDBRANCH  15  16
ENDBRANCH  14  15
ENDBRANCH  13  14
ENDBRANCH  12  13
ENDBRANCH  11  12
ENDBRANCH   1  11
TORSDOF 15
ENDMDL
