MODEL 1
REMARK VINA RESULT:    -4.566      0.000      0.000
REMARK INTER + INTRA:         -10.358
REMARK INTER:                  -8.303
REMARK INTRA:                  -2.055
REMARK UNBOUND:                -2.055
REMARK SMILES CCCCCCCCCCCCCC[C@H](C)C(=O)[O-]
REMARK SMILES IDX 9 1 10 2 11 3 12 4 13 5 14 6 15 7 16 8 17 9 18 10 19 11 8 12
REMARK SMILES IDX 7 13 6 14 5 15 4 16 3 17 2 18 1 19
REMARK H PARENT
REMARK Flexibility Score: inf
ROOT
ATOM      1  C   UNL     1       9.725   5.642  16.416  1.00  0.00     0.000 C 
ENDROOT
BRANCH   1   2
ATOM      2  C   UNL     1       9.674   6.725  15.331  1.00  0.00     0.000 C 
BRANCH   2   3
ATOM      3  C   UNL     1      10.862   6.595  14.367  1.00  0.00     0.000 C 
BRANCH   3   4
ATOM      4  C   UNL     1      10.462   6.832  12.902  1.00  0.00     0.000 C 
BRANCH   4   5
ATOM      5  C   UNL     1      10.308   5.520  12.112  1.00  0.00     0.001 C 
BRANCH   5   6
ATOM      6  C   UNL     1       8.853   5.016  12.049  1.00  0.00     0.009 C 
BRANCH   6   7
ATOM      7  C   UNL     1       8.710   3.485  12.236  1.00  0.00     0.032 C 
ATOM      8  C   UNL     1       9.784   2.955  13.195  1.00  0.00     0.014 C 
BRANCH   7   9
ATOM      9  C   UNL     1       8.805   2.744  10.929  1.00  0.00     0.044 C 
ATOM     10  O   UNL     1       7.809   2.670  10.160  1.00  0.00    -0.550 OA
ATOM     11  O   UNL     1      10.009   2.167  10.547  1.00  0.00    -0.550 OA
ENDBRANCH   7   9
ENDBRANCH   6   7
ENDBRANCH   5   6
ENDBRANCH   4   5
ENDBRANCH   3   4
ENDBRANCH   2   3
ENDBRANCH   1   2
BRANCH   1  12
ATOM     12  C   UNL     1       8.597   4.618  16.224  1.00  0.00     0.000 C 
BRANCH  12  13
ATOM     13  C   UNL     1       7.470   5.139  15.317  1.00  0.00    -0.000 C 
BRANCH  13  14
ATOM     14  C   UNL     1       6.150   5.351  16.079  1.00  0.00    -0.000 C 
BRANCH  14  15
ATOM     15  C   UNL     1       6.000   6.783  16.626  1.00  0.00    -0.000 C 
BRANCH  15  16
ATOM     16  C   UNL     1       6.514   6.990  18.062  1.00  0.00    -0.000 C 
BRANCH  16  17
ATOM     17  C   UNL     1       6.351   5.739  18.943  1.00  0.00    -0.000 C 
BRANCH  17  18
ATOM     18  C   UNL     1       5.896   6.079  20.370  1.00  0.00    -0.003 C 
ATOM     19  C   UNL     1       6.146   7.541  20.736  1.00  0.00     0.004 C 
ENDBRANCH  17  18
ENDBRANCH  16  17
ENDBRANCH  15  16
ENDBRANCH  14  15
ENDBRANCH  13  14
ENDBRANCH  12  13
ENDBRANCH   1  12
TORSDOF 14
ENDMDL
MODEL 2
REMARK VINA RESULT:    -4.481      3.011      5.154
REMARK INTER + INTRA:         -10.204
REMARK INTER:                  -7.912
REMARK INTRA:                  -2.292
REMARK UNBOUND:                -2.055
REMARK SMILES CCCCCCCCCCCCCC[C@H](C)C(=O)[O-]
REMARK SMILES IDX 9 1 10 2 11 3 12 4 13 5 14 6 15 7 16 8 17 9 18 10 19 11 8 12
REMARK SMILES IDX 7 13 6 14 5 15 4 16 3 17 2 18 1 19
REMARK H PARENT
REMARK Flexibility Score: inf
ROOT
ATOM      1  C   UNL     1       7.504   4.306  19.315  1.00  0.00     0.000 C 
ENDROOT
BRANCH   1   2
ATOM      2  C   UNL     1       6.301   4.799  18.501  1.00  0.00     0.000 C 
BRANCH   2   3
ATOM      3  C   UNL     1       6.367   6.319  18.287  1.00  0.00     0.000 C 
BRANCH   3   4
ATOM      4  C   UNL     1       6.503   6.700  16.803  1.00  0.00     0.000 C 
BRANCH   4   5
ATOM      5  C   UNL     1       6.569   5.470  15.881  1.00  0.00     0.001 C 
BRANCH   5   6
ATOM      6  C   UNL     1       7.936   5.301  15.192  1.00  0.00     0.009 C 
BRANCH   6   7
ATOM      7  C   UNL     1       9.087   6.074  15.881  1.00  0.00     0.032 C 
ATOM      8  C   UNL     1       9.994   6.738  14.837  1.00  0.00     0.014 C 
BRANCH   7   9
ATOM      9  C   UNL     1       9.920   5.182  16.763  1.00  0.00     0.044 C 
ATOM     10  O   UNL     1      10.672   5.674  17.646  1.00  0.00    -0.550 OA
ATOM     11  O   UNL     1       9.832   3.802  16.630  1.00  0.00    -0.550 OA
ENDBRANCH   7   9
ENDBRANCH   6   7
ENDBRANCH   5   6
ENDBRANCH   4   5
ENDBRANCH   3   4
ENDBRANCH   2   3
ENDBRANCH   1   2
BRANCH   1  12
ATOM     12  C   UNL     1       7.352   2.820  19.675  1.00  0.00     0.000 C 
BRANCH  12  13
ATOM     13  C   UNL     1       5.903   2.439  20.021  1.00  0.00    -0.000 C 
BRANCH  13  14
ATOM     14  C   UNL     1       5.618   2.518  21.531  1.00  0.00    -0.000 C 
BRANCH  14  15
ATOM     15  C   UNL     1       4.403   3.404  21.866  1.00  0.00    -0.000 C 
BRANCH  15  16
ATOM     16  C   UNL     1       4.664   4.920  21.803  1.00  0.00    -0.000 C 
BRANCH  16  17
ATOM     17  C   UNL     1       5.958   5.335  22.525  1.00  0.00    -0.000 C 
BRANCH  17  18
ATOM     18  C   UNL     1       6.471   6.709  22.069  1.00  0.00    -0.003 C 
ATOM     19  C   UNL     1       5.369   7.583  21.474  1.00  0.00     0.004 C 
ENDBRANCH  17  18
ENDBRANCH  16  17
ENDBRANCH  15  16
ENDBRANCH  14  15
ENDBRANCH  13  14
ENDBRANCH  12  13
ENDBRANCH   1  12
TORSDOF 14
ENDMDL
MODEL 3
REMARK VINA RESULT:    -4.475      5.156      9.090
REMARK INTER + INTRA:         -10.193
REMARK INTER:                  -8.417
REMARK INTRA:                  -1.776
REMARK UNBOUND:                -2.055
REMARK SMILES CCCCCCCCCCCCCC[C@H](C)C(=O)[O-]
REMARK SMILES IDX 9 1 10 2 11 3 12 4 13 5 14 6 15 7 16 8 17 9 18 10 19 11 8 12
REMARK SMILES IDX 7 13 6 14 5 15 4 16 3 17 2 18 1 19
REMARK H PARENT
REMARK Flexibility Score: inf
ROOT
ATOM      1  C   UNL     1       5.719   2.590  21.721  1.00  0.00     0.000 C 
ENDROOT
BRANCH   1   2
ATOM      2  C   UNL     1       4.482   3.354  22.210  1.00  0.00     0.000 C 
BRANCH   2   3
ATOM      3  C   UNL     1       4.373   4.723  21.522  1.00  0.00     0.000 C 
BRANCH   3   4
ATOM      4  C   UNL     1       5.429   5.721  22.024  1.00  0.00     0.000 C 
BRANCH   4   5
ATOM      5  C   UNL     1       5.227   7.134  21.450  1.00  0.00     0.001 C 
BRANCH   5   6
ATOM      6  C   UNL     1       6.543   7.919  21.289  1.00  0.00     0.009 C 
BRANCH   6   7
ATOM      7  C   UNL     1       6.826   8.913  22.442  1.00  0.00     0.032 C 
ATOM      8  C   UNL     1       5.529   9.588  22.906  1.00  0.00     0.014 C 
BRANCH   7   9
ATOM      9  C   UNL     1       7.821   9.971  22.046  1.00  0.00     0.044 C 
ATOM     10  O   UNL     1       7.431  11.106  21.663  1.00  0.00    -0.550 OA
ATOM     11  O   UNL     1       9.182   9.710  22.138  1.00  0.00    -0.550 OA
ENDBRANCH   7   9
ENDBRANCH   6   7
ENDBRANCH   5   6
ENDBRANCH   4   5
ENDBRANCH   3   4
ENDBRANCH   2   3
ENDBRANCH   1   2
BRANCH   1  12
ATOM     12  C   UNL     1       5.796   2.592  20.187  1.00  0.00     0.000 C 
BRANCH  12  13
ATOM     13  C   UNL     1       7.226   2.813  19.665  1.00  0.00    -0.000 C 
BRANCH  13  14
ATOM     14  C   UNL     1       7.467   4.260  19.200  1.00  0.00    -0.000 C 
BRANCH  14  15
ATOM     15  C   UNL     1       6.282   4.837  18.403  1.00  0.00    -0.000 C 
BRANCH  15  16
ATOM     16  C   UNL     1       6.420   6.319  18.012  1.00  0.00    -0.000 C 
BRANCH  16  17
ATOM     17  C   UNL     1       6.431   6.539  16.489  1.00  0.00    -0.000 C 
BRANCH  17  18
ATOM     18  C   UNL     1       6.463   5.219  15.704  1.00  0.00    -0.003 C 
ATOM     19  C   UNL     1       7.820   4.949  15.058  1.00  0.00     0.004 C 
ENDBRANCH  17  18
ENDBRANCH  16  17
ENDBRANCH  15  16
ENDBRANCH  14  15
ENDBRANCH  13  14
ENDBRANCH  12  13
ENDBRANCH   1  12
TORSDOF 14
ENDMDL
MODEL 4
REMARK VINA RESULT:    -4.474      4.631      8.366
REMARK INTER + INTRA:         -10.191
REMARK INTER:                  -8.678
REMARK INTRA:                  -1.513
REMARK UNBOUND:                -2.055
REMARK SMILES CCCCCCCCCCCCCC[C@H](C)C(=O)[O-]
REMARK SMILES IDX 9 1 10 2 11 3 12 4 13 5 14 6 15 7 16 8 17 9 18 10 19 11 8 12
REMARK SMILES IDX 7 13 6 14 5 15 4 16 3 17 2 18 1 19
REMARK H PARENT
REMARK Flexibility Score: inf
ROOT
ATOM      1  C   UNL     1       6.014   5.589  17.510  1.00  0.00     0.000 C 
ENDROOT
BRANCH   1   2
ATOM      2  C   UNL     1       6.977   5.848  18.675  1.00  0.00     0.000 C 
BRANCH   2   3
ATOM      3  C   UNL     1       6.360   6.816  19.695  1.00  0.00     0.000 C 
BRANCH   3   4
ATOM      4  C   UNL     1       6.255   6.202  21.101  1.00  0.00     0.000 C 
BRANCH   4   5
ATOM      5  C   UNL     1       4.830   5.724  21.432  1.00  0.00     0.001 C 
BRANCH   5   6
ATOM      6  C   UNL     1       4.581   4.251  21.056  1.00  0.00     0.009 C 
BRANCH   6   7
ATOM      7  C   UNL     1       5.811   3.333  21.262  1.00  0.00     0.032 C 
ATOM      8  C   UNL     1       5.896   2.284  20.147  1.00  0.00     0.014 C 
BRANCH   7   9
ATOM      9  C   UNL     1       5.781   2.637  22.596  1.00  0.00     0.044 C 
ATOM     10  O   UNL     1       6.785   2.666  23.358  1.00  0.00    -0.550 OA
ATOM     11  O   UNL     1       4.626   1.986  23.010  1.00  0.00    -0.550 OA
ENDBRANCH   7   9
ENDBRANCH   6   7
ENDBRANCH   5   6
ENDBRANCH   4   5
ENDBRANCH   3   4
ENDBRANCH   2   3
ENDBRANCH   1   2
BRANCH   1  12
ATOM     12  C   UNL     1       6.492   6.297  16.233  1.00  0.00     0.000 C 
BRANCH  12  13
ATOM     13  C   UNL     1       8.015   6.208  16.040  1.00  0.00    -0.000 C 
BRANCH  13  14
ATOM     14  C   UNL     1       8.461   4.841  15.492  1.00  0.00    -0.000 C 
BRANCH  14  15
ATOM     15  C   UNL     1       7.620   4.377  14.288  1.00  0.00    -0.000 C 
BRANCH  15  16
ATOM     16  C   UNL     1       8.433   3.909  13.067  1.00  0.00    -0.000 C 
BRANCH  16  17
ATOM     17  C   UNL     1       8.847   5.068  12.144  1.00  0.00    -0.000 C 
BRANCH  17  18
ATOM     18  C   UNL     1      10.322   5.460  12.317  1.00  0.00    -0.003 C 
ATOM     19  C   UNL     1      10.495   6.873  12.872  1.00  0.00     0.004 C 
ENDBRANCH  17  18
ENDBRANCH  16  17
ENDBRANCH  15  16
ENDBRANCH  14  15
ENDBRANCH  13  14
ENDBRANCH  12  13
ENDBRANCH   1  12
TORSDOF 14
ENDMDL
MODEL 5
REMARK VINA RESULT:    -4.462      3.297      6.097
REMARK INTER + INTRA:         -10.169
REMARK INTER:                  -7.914
REMARK INTRA:                  -2.255
REMARK UNBOUND:                -2.055
REMARK SMILES CCCCCCCCCCCCCC[C@H](C)C(=O)[O-]
REMARK SMILES IDX 9 1 10 2 11 3 12 4 13 5 14 6 15 7 16 8 17 9 18 10 19 11 8 12
REMARK SMILES IDX 7 13 6 14 5 15 4 16 3 17 2 18 1 19
REMARK H PARENT
REMARK Flexibility Score: inf
ROOT
ATOM      1  C   UNL     1       5.446   2.708  21.514  1.00  0.00     0.000 C 
ENDROOT
BRANCH   1   2
ATOM      2  C   UNL     1       6.058   2.673  20.109  1.00  0.00     0.000 C 
BRANCH   2   3
ATOM      3  C   UNL     1       7.476   3.265  20.111  1.00  0.00     0.000 C 
BRANCH   3   4
ATOM      4  C   UNL     1       7.618   4.458  19.151  1.00  0.00     0.000 C 
BRANCH   4   5
ATOM      5  C   UNL     1       6.274   4.882  18.533  1.00  0.00     0.001 C 
BRANCH   5   6
ATOM      6  C   UNL     1       6.351   6.217  17.768  1.00  0.00     0.009 C 
BRANCH   6   7
ATOM      7  C   UNL     1       6.299   6.064  16.229  1.00  0.00     0.032 C 
ATOM      8  C   UNL     1       5.302   4.970  15.828  1.00  0.00     0.014 C 
BRANCH   7   9
ATOM      9  C   UNL     1       7.648   5.741  15.645  1.00  0.00     0.044 C 
ATOM     10  O   UNL     1       8.651   6.455  15.916  1.00  0.00    -0.550 OA
ATOM     11  O   UNL     1       7.800   4.627  14.830  1.00  0.00    -0.550 OA
ENDBRANCH   7   9
ENDBRANCH   6   7
ENDBRANCH   5   6
ENDBRANCH   4   5
ENDBRANCH   3   4
ENDBRANCH   2   3
ENDBRANCH   1   2
BRANCH   1  12
ATOM     12  C   UNL     1       4.188   3.590  21.544  1.00  0.00     0.000 C 
BRANCH  12  13
ATOM     13  C   UNL     1       4.512   5.077  21.767  1.00  0.00    -0.000 C 
BRANCH  13  14
ATOM     14  C   UNL     1       5.671   5.285  22.758  1.00  0.00    -0.000 C 
BRANCH  14  15
ATOM     15  C   UNL     1       6.630   6.411  22.328  1.00  0.00    -0.000 C 
BRANCH  15  16
ATOM     16  C   UNL     1       6.048   7.412  21.315  1.00  0.00    -0.000 C 
BRANCH  16  17
ATOM     17  C   UNL     1       7.109   8.365  20.737  1.00  0.00    -0.000 C 
BRANCH  17  18
ATOM     18  C   UNL     1       7.794   9.211  21.820  1.00  0.00    -0.003 C 
ATOM     19  C   UNL     1       6.849  10.226  22.461  1.00  0.00     0.004 C 
ENDBRANCH  17  18
ENDBRANCH  16  17
ENDBRANCH  15  16
ENDBRANCH  14  15
ENDBRANCH  13  14
ENDBRANCH  12  13
ENDBRANCH   1  12
TORSDOF 14
ENDMDL
MODEL 6
REMARK VINA RESULT:    -4.435      5.384      8.474
REMARK INTER + INTRA:         -10.121
REMARK INTER:                  -7.943
REMARK INTRA:                  -2.177
REMARK UNBOUND:                -2.055
REMARK SMILES CCCCCCCCCCCCCC[C@H](C)C(=O)[O-]
REMARK SMILES IDX 9 1 10 2 11 3 12 4 13 5 14 6 15 7 16 8 17 9 18 10 19 11 8 12
REMARK SMILES IDX 7 13 6 14 5 15 4 16 3 17 2 18 1 19
REMARK H PARENT
REMARK Flexibility Score: inf
ROOT
ATOM      1  C   UNL     1       9.011   5.487  19.548  1.00  0.00     0.000 C 
ENDROOT
BRANCH   1   2
ATOM      2  C   UNL     1       9.231   3.973  19.443  1.00  0.00     0.000 C 
BRANCH   2   3
ATOM      3  C   UNL     1       8.329   3.215  20.429  1.00  0.00     0.000 C 
BRANCH   3   4
ATOM      4  C   UNL     1       7.415   2.198  19.728  1.00  0.00     0.000 C 
BRANCH   4   5
ATOM      5  C   UNL     1       5.952   2.296  20.196  1.00  0.00     0.001 C 
BRANCH   5   6
ATOM      6  C   UNL     1       5.816   2.619  21.697  1.00  0.00     0.009 C 
BRANCH   6   7
ATOM      7  C   UNL     1       4.459   3.258  22.081  1.00  0.00     0.032 C 
ATOM      8  C   UNL     1       4.382   4.705  21.578  1.00  0.00     0.014 C 
BRANCH   7   9
ATOM      9  C   UNL     1       4.224   3.237  23.568  1.00  0.00     0.044 C 
ATOM     10  O   UNL     1       4.854   4.019  24.328  1.00  0.00    -0.550 OA
ATOM     11  O   UNL     1       3.278   2.374  24.105  1.00  0.00    -0.550 OA
ENDBRANCH   7   9
ENDBRANCH   6   7
ENDBRANCH   5   6
ENDBRANCH   4   5
ENDBRANCH   3   4
ENDBRANCH   2   3
ENDBRANCH   1   2
BRANCH   1  12
ATOM     12  C   UNL     1       7.643   5.801  20.173  1.00  0.00     0.000 C 
BRANCH  12  13
ATOM     13  C   UNL     1       6.658   6.419  19.166  1.00  0.00    -0.000 C 
BRANCH  13  14
ATOM     14  C   UNL     1       6.058   5.372  18.211  1.00  0.00    -0.000 C 
BRANCH  14  15
ATOM     15  C   UNL     1       5.984   5.864  16.753  1.00  0.00    -0.000 C 
BRANCH  15  16
ATOM     16  C   UNL     1       7.136   6.787  16.317  1.00  0.00    -0.000 C 
BRANCH  16  17
ATOM     17  C   UNL     1       8.387   6.012  15.867  1.00  0.00    -0.000 C 
BRANCH  17  18
ATOM     18  C   UNL     1       8.040   4.731  15.094  1.00  0.00    -0.003 C 
ATOM     19  C   UNL     1       8.657   4.700  13.697  1.00  0.00     0.004 C 
ENDBRANCH  17  18
ENDBRANCH  16  17
ENDBRANCH  15  16
ENDBRANCH  14  15
ENDBRANCH  13  14
ENDBRANCH  12  13
ENDBRANCH   1  12
TORSDOF 14
ENDMDL
MODEL 7
REMARK VINA RESULT:    -4.418      4.826      8.803
REMARK INTER + INTRA:         -10.090
REMARK INTER:                  -8.032
REMARK INTRA:                  -2.058
REMARK UNBOUND:                -2.055
REMARK SMILES CCCCCCCCCCCCCC[C@H](C)C(=O)[O-]
REMARK SMILES IDX 9 1 10 2 11 3 12 4 13 5 14 6 15 7 16 8 17 9 18 10 19 11 8 12
REMARK SMILES IDX 7 13 6 14 5 15 4 16 3 17 2 18 1 19
REMARK H PARENT
REMARK Flexibility Score: inf
ROOT
ATOM      1  C   UNL     1       6.099   3.777  19.243  1.00  0.00     0.000 C 
ENDROOT
BRANCH   1   2
ATOM      2  C   UNL     1       5.971   2.418  19.943  1.00  0.00     0.000 C 
BRANCH   2   3
ATOM      3  C   UNL     1       5.423   2.582  21.368  1.00  0.00     0.000 C 
BRANCH   3   4
ATOM      4  C   UNL     1       4.404   3.728  21.480  1.00  0.00     0.000 C 
BRANCH   4   5
ATOM      5  C   UNL     1       4.834   4.805  22.492  1.00  0.00     0.001 C 
BRANCH   5   6
ATOM      6  C   UNL     1       5.068   6.185  21.848  1.00  0.00     0.009 C 
BRANCH   6   7
ATOM      7  C   UNL     1       6.338   6.908  22.358  1.00  0.00     0.032 C 
ATOM      8  C   UNL     1       6.522   6.681  23.864  1.00  0.00     0.014 C 
BRANCH   7   9
ATOM      9  C   UNL     1       6.296   8.388  22.082  1.00  0.00     0.044 C 
ATOM     10  O   UNL     1       5.417   9.115  22.616  1.00  0.00    -0.550 OA
ATOM     11  O   UNL     1       7.256   8.965  21.261  1.00  0.00    -0.550 OA
ENDBRANCH   7   9
ENDBRANCH   6   7
ENDBRANCH   5   6
ENDBRANCH   4   5
ENDBRANCH   3   4
ENDBRANCH   2   3
ENDBRANCH   1   2
BRANCH   1  12
ATOM     12  C   UNL     1       7.561   4.246  19.216  1.00  0.00     0.000 C 
BRANCH  12  13
ATOM     13  C   UNL     1       7.692   5.776  19.118  1.00  0.00    -0.000 C 
BRANCH  13  14
ATOM     14  C   UNL     1       6.401   6.446  18.616  1.00  0.00    -0.000 C 
BRANCH  14  15
ATOM     15  C   UNL     1       6.498   6.908  17.150  1.00  0.00    -0.000 C 
BRANCH  15  16
ATOM     16  C   UNL     1       5.929   5.920  16.116  1.00  0.00    -0.000 C 
BRANCH  16  17
ATOM     17  C   UNL     1       7.004   4.998  15.513  1.00  0.00    -0.000 C 
BRANCH  17  18
ATOM     18  C   UNL     1       8.393   5.653  15.485  1.00  0.00    -0.003 C 
ATOM     19  C   UNL     1       9.110   5.457  14.150  1.00  0.00     0.004 C 
ENDBRANCH  17  18
ENDBRANCH  16  17
ENDBRANCH  15  16
ENDBRANCH  14  15
ENDBRANCH  13  14
ENDBRANCH  12  13
ENDBRANCH   1  12
TORSDOF 14
ENDMDL
MODEL 8
REMARK VINA RESULT:    -4.405      3.317      6.373
REMARK INTER + INTRA:         -10.065
REMARK INTER:                  -7.762
REMARK INTRA:                  -2.304
REMARK UNBOUND:                -2.055
REMARK SMILES CCCCCCCCCCCCCC[C@H](C)C(=O)[O-]
REMARK SMILES IDX 9 1 10 2 11 3 12 4 13 5 14 6 15 7 16 8 17 9 18 10 19 11 8 12
REMARK SMILES IDX 7 13 6 14 5 15 4 16 3 17 2 18 1 19
REMARK H PARENT
REMARK Flexibility Score: inf
ROOT
ATOM      1  C   UNL     1       4.456   4.684  21.494  1.00  0.00     0.000 C 
ENDROOT
BRANCH   1   2
ATOM      2  C   UNL     1       5.458   5.729  22.001  1.00  0.00     0.000 C 
BRANCH   2   3
ATOM      3  C   UNL     1       5.487   6.957  21.079  1.00  0.00     0.000 C 
BRANCH   3   4
ATOM      4  C   UNL     1       6.747   7.004  20.199  1.00  0.00     0.000 C 
BRANCH   4   5
ATOM      5  C   UNL     1       6.417   7.146  18.702  1.00  0.00     0.001 C 
BRANCH   5   6
ATOM      6  C   UNL     1       6.389   5.798  17.956  1.00  0.00     0.009 C 
BRANCH   6   7
ATOM      7  C   UNL     1       6.413   5.934  16.414  1.00  0.00     0.032 C 
ATOM      8  C   UNL     1       5.327   5.059  15.777  1.00  0.00     0.014 C 
BRANCH   7   9
ATOM      9  C   UNL     1       7.752   5.562  15.834  1.00  0.00     0.044 C 
ATOM     10  O   UNL     1       7.826   4.923  14.751  1.00  0.00    -0.550 OA
ATOM     11  O   UNL     1       8.917   5.957  16.478  1.00  0.00    -0.550 OA
ENDBRANCH   7   9
ENDBRANCH   6   7
ENDBRANCH   5   6
ENDBRANCH   4   5
ENDBRANCH   3   4
ENDBRANCH   2   3
ENDBRANCH   1   2
BRANCH   1  12
ATOM     12  C   UNL     1       4.570   3.379  22.295  1.00  0.00     0.000 C 
BRANCH  12  13
ATOM     13  C   UNL     1       5.479   2.342  21.613  1.00  0.00    -0.000 C 
BRANCH  13  14
ATOM     14  C   UNL     1       5.677   2.628  20.114  1.00  0.00    -0.000 C 
BRANCH  14  15
ATOM     15  C   UNL     1       7.147   2.907  19.748  1.00  0.00    -0.000 C 
BRANCH  15  16
ATOM     16  C   UNL     1       8.129   2.889  20.933  1.00  0.00    -0.000 C 
BRANCH  16  17
ATOM     17  C   UNL     1       8.882   4.219  21.108  1.00  0.00    -0.000 C 
BRANCH  17  18
ATOM     18  C   UNL     1       9.275   4.487  22.568  1.00  0.00    -0.003 C 
ATOM     19  C   UNL     1       8.205   4.031  23.559  1.00  0.00     0.004 C 
ENDBRANCH  17  18
ENDBRANCH  16  17
ENDBRANCH  15  16
ENDBRANCH  14  15
ENDBRANCH  13  14
ENDBRANCH  12  13
ENDBRANCH   1  12
TORSDOF 14
ENDMDL
MODEL 9
REMARK VINA RESULT:    -4.380      2.324      4.358
REMARK INTER + INTRA:         -10.021
REMARK INTER:                  -7.913
REMARK INTRA:                  -2.108
REMARK UNBOUND:                -2.055
REMARK SMILES CCCCCCCCCCCCCC[C@H](C)C(=O)[O-]
REMARK SMILES IDX 9 1 10 2 11 3 12 4 13 5 14 6 15 7 16 8 17 9 18 10 19 11 8 12
REMARK SMILES IDX 7 13 6 14 5 15 4 16 3 17 2 18 1 19
REMARK H PARENT
REMARK Flexibility Score: inf
ROOT
ATOM      1  C   UNL     1       7.623   5.586  19.146  1.00  0.00     0.000 C 
ENDROOT
BRANCH   1   2
ATOM      2  C   UNL     1       6.316   6.307  18.791  1.00  0.00     0.000 C 
BRANCH   2   3
ATOM      3  C   UNL     1       6.390   6.920  17.385  1.00  0.00     0.000 C 
BRANCH   3   4
ATOM      4  C   UNL     1       6.023   5.914  16.282  1.00  0.00     0.000 C 
BRANCH   4   5
ATOM      5  C   UNL     1       7.254   5.412  15.507  1.00  0.00     0.001 C 
BRANCH   5   6
ATOM      6  C   UNL     1       8.436   6.400  15.538  1.00  0.00     0.009 C 
BRANCH   6   7
ATOM      7  C   UNL     1       9.768   5.804  15.021  1.00  0.00     0.032 C 
ATOM      8  C   UNL     1      10.855   6.884  14.955  1.00  0.00     0.014 C 
BRANCH   7   9
ATOM      9  C   UNL     1       9.616   5.172  13.663  1.00  0.00     0.044 C 
ATOM     10  O   UNL     1       9.397   5.882  12.646  1.00  0.00    -0.550 OA
ATOM     11  O   UNL     1       9.752   3.797  13.522  1.00  0.00    -0.550 OA
ENDBRANCH   7   9
ENDBRANCH   6   7
ENDBRANCH   5   6
ENDBRANCH   4   5
ENDBRANCH   3   4
ENDBRANCH   2   3
ENDBRANCH   1   2
BRANCH   1  12
ATOM     12  C   UNL     1       7.445   4.062  19.077  1.00  0.00     0.000 C 
BRANCH  12  13
ATOM     13  C   UNL     1       5.974   3.629  19.200  1.00  0.00    -0.000 C 
BRANCH  13  14
ATOM     14  C   UNL     1       5.778   2.496  20.223  1.00  0.00    -0.000 C 
BRANCH  14  15
ATOM     15  C   UNL     1       5.009   2.950  21.478  1.00  0.00    -0.000 C 
BRANCH  15  16
ATOM     16  C   UNL     1       4.408   4.365  21.399  1.00  0.00    -0.000 C 
BRANCH  16  17
ATOM     17  C   UNL     1       5.190   5.395  22.232  1.00  0.00    -0.000 C 
BRANCH  17  18
ATOM     18  C   UNL     1       6.228   4.741  23.155  1.00  0.00    -0.003 C 
ATOM     19  C   UNL     1       7.656   5.186  22.847  1.00  0.00     0.004 C 
ENDBRANCH  17  18
ENDBRANCH  16  17
ENDBRANCH  15  16
ENDBRANCH  14  15
ENDBRANCH  13  14
ENDBRANCH  12  13
ENDBRANCH   1  12
TORSDOF 14
ENDMDL
