MODEL 1
REMARK VINA RESULT:    -3.813      0.000      0.000
REMARK INTER + INTRA:          -5.354
REMARK INTER:                  -4.928
REMARK INTRA:                  -0.426
REMARK UNBOUND:                -0.426
REMARK SMILES CCCCCCC(=O)[O-]
REMARK SMILES IDX 5 1 6 2 7 3 8 4 9 5 4 6 3 7 2 8 1 9
REMARK H PARENT
REMARK Flexibility Score: inf
ROOT
ATOM      1  C   UNL     1     -54.192 120.242 -11.288  1.00  0.00     0.006 C 
ENDROOT
BRANCH   1   2
ATOM      2  C   UNL     1     -55.698 120.459 -11.480  1.00  0.00     0.053 C 
BRANCH   2   3
ATOM      3  C   UNL     1     -56.146 121.777 -10.927  1.00  0.00     0.041 C 
ATOM      4  O   UNL     1     -55.976 122.833 -11.592  1.00  0.00    -0.550 OA
ATOM      5  O   UNL     1     -56.784 121.836  -9.694  1.00  0.00    -0.550 OA
ENDBRANCH   2   3
ENDBRANCH   1   2
BRANCH   1   6
ATOM      6  C   UNL     1     -53.834 119.908  -9.831  1.00  0.00     0.000 C 
BRANCH   6   7
ATOM      7  C   UNL     1     -52.559 120.640  -9.398  1.00  0.00    -0.000 C 
BRANCH   7   8
ATOM      8  C   UNL     1     -52.624 122.126  -9.770  1.00  0.00    -0.003 C 
ATOM      9  C   UNL     1     -53.351 122.932  -8.697  1.00  0.00     0.004 C 
ENDBRANCH   7   8
ENDBRANCH   6   7
ENDBRANCH   1   6
TORSDOF 5
ENDMDL
MODEL 2
REMARK VINA RESULT:    -3.801      1.880      2.343
REMARK INTER + INTRA:          -5.339
REMARK INTER:                  -4.928
REMARK INTRA:                  -0.411
REMARK UNBOUND:                -0.426
REMARK SMILES CCCCCCC(=O)[O-]
REMARK SMILES IDX 5 1 6 2 7 3 8 4 9 5 4 6 3 7 2 8 1 9
REMARK H PARENT
REMARK Flexibility Score: inf
ROOT
ATOM      1  C   UNL     1     -55.797 121.385  -9.187  1.00  0.00     0.006 C 
ENDROOT
BRANCH   1   2
ATOM      2  C   UNL     1     -56.210 121.228 -10.656  1.00  0.00     0.053 C 
BRANCH   2   3
ATOM      3  C   UNL     1     -55.930 119.850 -11.170  1.00  0.00     0.041 C 
ATOM      4  O   UNL     1     -54.986 119.657 -11.980  1.00  0.00    -0.550 OA
ATOM      5  O   UNL     1     -56.688 118.773 -10.728  1.00  0.00    -0.550 OA
ENDBRANCH   2   3
ENDBRANCH   1   2
BRANCH   1   6
ATOM      6  C   UNL     1     -54.383 121.970  -9.041  1.00  0.00     0.000 C 
BRANCH   6   7
ATOM      7  C   UNL     1     -53.345 120.857  -8.860  1.00  0.00    -0.000 C 
BRANCH   7   8
ATOM      8  C   UNL     1     -52.214 120.989  -9.887  1.00  0.00    -0.003 C 
ATOM      9  C   UNL     1     -52.544 122.045 -10.938  1.00  0.00     0.004 C 
ENDBRANCH   7   8
ENDBRANCH   6   7
ENDBRANCH   1   6
TORSDOF 5
ENDMDL
MODEL 3
REMARK VINA RESULT:    -3.772      0.081      1.082
REMARK INTER + INTRA:          -5.301
REMARK INTER:                  -4.896
REMARK INTRA:                  -0.404
REMARK UNBOUND:                -0.426
REMARK SMILES CCCCCCC(=O)[O-]
REMARK SMILES IDX 5 1 6 2 7 3 8 4 9 5 4 6 3 7 2 8 1 9
REMARK H PARENT
REMARK Flexibility Score: inf
ROOT
ATOM      1  C   UNL     1     -54.245 120.192 -11.275  1.00  0.00     0.006 C 
ENDROOT
BRANCH   1   2
ATOM      2  C   UNL     1     -55.755 120.411 -11.430  1.00  0.00     0.053 C 
BRANCH   2   3
ATOM      3  C   UNL     1     -56.187 121.734 -10.877  1.00  0.00     0.041 C 
ATOM      4  O   UNL     1     -56.736 121.798  -9.746  1.00  0.00    -0.550 OA
ATOM      5  O   UNL     1     -55.952 122.900 -11.596  1.00  0.00    -0.550 OA
ENDBRANCH   2   3
ENDBRANCH   1   2
BRANCH   1   6
ATOM      6  C   UNL     1     -53.838 119.962  -9.811  1.00  0.00     0.000 C 
BRANCH   6   7
ATOM      7  C   UNL     1     -52.498 120.638  -9.500  1.00  0.00    -0.000 C 
BRANCH   7   8
ATOM      8  C   UNL     1     -52.562 122.143  -9.787  1.00  0.00    -0.003 C 
ATOM      9  C   UNL     1     -53.390 122.871  -8.731  1.00  0.00     0.004 C 
ENDBRANCH   7   8
ENDBRANCH   6   7
ENDBRANCH   1   6
TORSDOF 5
ENDMDL
MODEL 4
REMARK VINA RESULT:    -3.717      1.738      2.473
REMARK INTER + INTRA:          -5.229
REMARK INTER:                  -4.900
REMARK INTRA:                  -0.329
REMARK UNBOUND:                -0.426
REMARK SMILES CCCCCCC(=O)[O-]
REMARK SMILES IDX 5 1 6 2 7 3 8 4 9 5 4 6 3 7 2 8 1 9
REMARK H PARENT
REMARK Flexibility Score: inf
ROOT
ATOM      1  C   UNL     1     -55.547 122.144 -11.678  1.00  0.00     0.006 C 
ENDROOT
BRANCH   1   2
ATOM      2  C   UNL     1     -55.778 120.693 -12.119  1.00  0.00     0.053 C 
BRANCH   2   3
ATOM      3  C   UNL     1     -56.900 120.052 -11.361  1.00  0.00     0.041 C 
ATOM      4  O   UNL     1     -58.039 120.587 -11.344  1.00  0.00    -0.550 OA
ATOM      5  O   UNL     1     -56.697 118.845 -10.703  1.00  0.00    -0.550 OA
ENDBRANCH   2   3
ENDBRANCH   1   2
BRANCH   1   6
ATOM      6  C   UNL     1     -54.261 122.303 -10.851  1.00  0.00     0.000 C 
BRANCH   6   7
ATOM      7  C   UNL     1     -54.514 121.975  -9.375  1.00  0.00    -0.000 C 
BRANCH   7   8
ATOM      8  C   UNL     1     -53.393 121.097  -8.808  1.00  0.00    -0.003 C 
ATOM      9  C   UNL     1     -53.309 119.764  -9.547  1.00  0.00     0.004 C 
ENDBRANCH   7   8
ENDBRANCH   6   7
ENDBRANCH   1   6
TORSDOF 5
ENDMDL
MODEL 5
REMARK VINA RESULT:    -3.687      1.184      1.969
REMARK INTER + INTRA:          -5.190
REMARK INTER:                  -4.926
REMARK INTRA:                  -0.265
REMARK UNBOUND:                -0.426
REMARK SMILES CCCCCCC(=O)[O-]
REMARK SMILES IDX 5 1 6 2 7 3 8 4 9 5 4 6 3 7 2 8 1 9
REMARK H PARENT
REMARK Flexibility Score: inf
ROOT
ATOM      1  C   UNL     1     -54.156 120.261 -10.060  1.00  0.00     0.006 C 
ENDROOT
BRANCH   1   2
ATOM      2  C   UNL     1     -55.688 120.290 -10.139  1.00  0.00     0.053 C 
BRANCH   2   3
ATOM      3  C   UNL     1     -56.224 121.687 -10.076  1.00  0.00     0.041 C 
ATOM      4  O   UNL     1     -56.885 122.066  -9.074  1.00  0.00    -0.550 OA
ATOM      5  O   UNL     1     -55.964 122.581 -11.107  1.00  0.00    -0.550 OA
ENDBRANCH   2   3
ENDBRANCH   1   2
BRANCH   1   6
ATOM      6  C   UNL     1     -53.618 121.114  -8.899  1.00  0.00     0.000 C 
BRANCH   6   7
ATOM      7  C   UNL     1     -52.625 122.166  -9.406  1.00  0.00    -0.000 C 
BRANCH   7   8
ATOM      8  C   UNL     1     -51.878 121.664 -10.648  1.00  0.00    -0.003 C 
ATOM      9  C   UNL     1     -50.384 121.518 -10.371  1.00  0.00     0.004 C 
ENDBRANCH   7   8
ENDBRANCH   6   7
ENDBRANCH   1   6
TORSDOF 5
ENDMDL
MODEL 6
REMARK VINA RESULT:    -3.638      1.816      2.322
REMARK INTER + INTRA:          -5.128
REMARK INTER:                  -4.816
REMARK INTRA:                  -0.312
REMARK UNBOUND:                -0.426
REMARK SMILES CCCCCCC(=O)[O-]
REMARK SMILES IDX 5 1 6 2 7 3 8 4 9 5 4 6 3 7 2 8 1 9
REMARK H PARENT
REMARK Flexibility Score: inf
ROOT
ATOM      1  C   UNL     1     -55.730 121.389  -9.148  1.00  0.00     0.006 C 
ENDROOT
BRANCH   1   2
ATOM      2  C   UNL     1     -55.975 121.242 -10.655  1.00  0.00     0.053 C 
BRANCH   2   3
ATOM      3  C   UNL     1     -56.954 120.149 -10.957  1.00  0.00     0.041 C 
ATOM      4  O   UNL     1     -58.097 120.429 -11.404  1.00  0.00    -0.550 OA
ATOM      5  O   UNL     1     -56.591 118.819 -10.779  1.00  0.00    -0.550 OA
ENDBRANCH   2   3
ENDBRANCH   1   2
BRANCH   1   6
ATOM      6  C   UNL     1     -54.235 121.492  -8.809  1.00  0.00     0.000 C 
BRANCH   6   7
ATOM      7  C   UNL     1     -53.417 120.482  -9.622  1.00  0.00    -0.000 C 
BRANCH   7   8
ATOM      8  C   UNL     1     -52.099 121.101 -10.102  1.00  0.00    -0.003 C 
ATOM      9  C   UNL     1     -52.315 121.964 -11.342  1.00  0.00     0.004 C 
ENDBRANCH   7   8
ENDBRANCH   6   7
ENDBRANCH   1   6
TORSDOF 5
ENDMDL
MODEL 7
REMARK VINA RESULT:    -3.633      1.571      3.465
REMARK INTER + INTRA:          -5.122
REMARK INTER:                  -4.739
REMARK INTRA:                  -0.383
REMARK UNBOUND:                -0.426
REMARK SMILES CCCCCCC(=O)[O-]
REMARK SMILES IDX 5 1 6 2 7 3 8 4 9 5 4 6 3 7 2 8 1 9
REMARK H PARENT
REMARK Flexibility Score: inf
ROOT
ATOM      1  C   UNL     1     -54.012 119.885  -9.909  1.00  0.00     0.006 C 
ENDROOT
BRANCH   1   2
ATOM      2  C   UNL     1     -53.423 120.961  -8.988  1.00  0.00     0.053 C 
BRANCH   2   3
ATOM      3  C   UNL     1     -54.325 122.151  -8.873  1.00  0.00     0.041 C 
ATOM      4  O   UNL     1     -53.845 123.314  -8.895  1.00  0.00    -0.550 OA
ATOM      5  O   UNL     1     -55.700 121.976  -8.775  1.00  0.00    -0.550 OA
ENDBRANCH   2   3
ENDBRANCH   1   2
BRANCH   1   6
ATOM      6  C   UNL     1     -53.910 120.271 -11.393  1.00  0.00     0.000 C 
BRANCH   6   7
ATOM      7  C   UNL     1     -55.286 120.222 -12.068  1.00  0.00    -0.000 C 
BRANCH   7   8
ATOM      8  C   UNL     1     -56.317 119.537 -11.164  1.00  0.00    -0.003 C 
ATOM      9  C   UNL     1     -57.688 120.197 -11.292  1.00  0.00     0.004 C 
ENDBRANCH   7   8
ENDBRANCH   6   7
ENDBRANCH   1   6
TORSDOF 5
ENDMDL
MODEL 8
REMARK VINA RESULT:    -3.562      2.331      3.869
REMARK INTER + INTRA:          -5.029
REMARK INTER:                  -4.607
REMARK INTRA:                  -0.422
REMARK UNBOUND:                -0.426
REMARK SMILES CCCCCCC(=O)[O-]
REMARK SMILES IDX 5 1 6 2 7 3 8 4 9 5 4 6 3 7 2 8 1 9
REMARK H PARENT
REMARK Flexibility Score: inf
ROOT
ATOM      1  C   UNL     1     -53.433 121.172  -8.722  1.00  0.00     0.006 C 
ENDROOT
BRANCH   1   2
ATOM      2  C   UNL     1     -53.279 119.887  -9.546  1.00  0.00     0.053 C 
BRANCH   2   3
ATOM      3  C   UNL     1     -53.012 120.180 -10.990  1.00  0.00     0.041 C 
ATOM      4  O   UNL     1     -53.717 119.645 -11.885  1.00  0.00    -0.550 OA
ATOM      5  O   UNL     1     -52.008 121.072 -11.347  1.00  0.00    -0.550 OA
ENDBRANCH   2   3
ENDBRANCH   1   2
BRANCH   1   6
ATOM      6  C   UNL     1     -54.627 122.021  -9.187  1.00  0.00     0.000 C 
BRANCH   6   7
ATOM      7  C   UNL     1     -55.949 121.278  -8.963  1.00  0.00    -0.000 C 
BRANCH   7   8
ATOM      8  C   UNL     1     -56.676 121.039 -10.292  1.00  0.00    -0.003 C 
ATOM      9  C   UNL     1     -56.906 119.549 -10.533  1.00  0.00     0.004 C 
ENDBRANCH   7   8
ENDBRANCH   6   7
ENDBRANCH   1   6
TORSDOF 5
ENDMDL
MODEL 9
REMARK VINA RESULT:    -3.103      1.858      2.725
REMARK INTER + INTRA:          -4.436
REMARK INTER:                  -4.095
REMARK INTRA:                  -0.341
REMARK UNBOUND:                -0.426
REMARK SMILES CCCCCCC(=O)[O-]
REMARK SMILES IDX 5 1 6 2 7 3 8 4 9 5 4 6 3 7 2 8 1 9
REMARK H PARENT
REMARK Flexibility Score: inf
ROOT
ATOM      1  C   UNL     1     -53.715 119.756  -9.839  1.00  0.00     0.006 C 
ENDROOT
BRANCH   1   2
ATOM      2  C   UNL     1     -53.377 120.892  -8.865  1.00  0.00     0.053 C 
BRANCH   2   3
ATOM      3  C   UNL     1     -54.342 122.032  -8.982  1.00  0.00     0.041 C 
ATOM      4  O   UNL     1     -53.937 123.168  -9.341  1.00  0.00    -0.550 OA
ATOM      5  O   UNL     1     -55.693 121.831  -8.727  1.00  0.00    -0.550 OA
ENDBRANCH   2   3
ENDBRANCH   1   2
BRANCH   1   6
ATOM      6  C   UNL     1     -53.960 120.268 -11.267  1.00  0.00     0.000 C 
BRANCH   6   7
ATOM      7  C   UNL     1     -52.676 120.200 -12.102  1.00  0.00    -0.000 C 
BRANCH   7   8
ATOM      8  C   UNL     1     -51.964 121.558 -12.125  1.00  0.00    -0.003 C 
ATOM      9  C   UNL     1     -50.598 121.475 -11.449  1.00  0.00     0.004 C 
ENDBRANCH   7   8
ENDBRANCH   6   7
ENDBRANCH   1   6
TORSDOF 5
ENDMDL
