MODEL 1
REMARK VINA RESULT:    -3.198      0.000      0.000
REMARK INTER + INTRA:          -8.905
REMARK INTER:                  -6.002
REMARK INTRA:                  -2.903
REMARK UNBOUND:                -2.903
REMARK SMILES CCCCCCCCC=CCCCCCCCC(=O)[O-]
REMARK SMILES IDX 10 1 9 2 11 3 12 4 13 5 14 6 15 7 16 8 17 9 18 10 19 11
REMARK SMILES IDX 20 12 8 13 7 14 6 15 5 16 4 17 3 18 2 19 1 20
REMARK H PARENT
REMARK Flexibility Score: inf
ROOT
ATOM      1  C   UNL     1      -1.385   5.027  38.508  1.00  0.00    -0.031 C 
ATOM      2  C   UNL     1      -1.163   6.281  38.944  1.00  0.00    -0.031 C 
ENDROOT
BRANCH   1   3
ATOM      3  C   UNL     1      -2.386   4.682  37.431  1.00  0.00     0.027 C 
BRANCH   3   4
ATOM      4  C   UNL     1      -1.714   4.443  36.072  1.00  0.00     0.004 C 
BRANCH   4   5
ATOM      5  C   UNL     1      -1.702   5.715  35.206  1.00  0.00     0.000 C 
BRANCH   5   6
ATOM      6  C   UNL     1      -0.300   6.330  35.077  1.00  0.00     0.000 C 
BRANCH   6   7
ATOM      7  C   UNL     1       0.812   5.378  35.551  1.00  0.00     0.000 C 
BRANCH   7   8
ATOM      8  C   UNL     1       1.654   5.978  36.690  1.00  0.00     0.006 C 
BRANCH   8   9
ATOM      9  C   UNL     1       2.371   4.905  37.520  1.00  0.00     0.053 C 
BRANCH   9  10
ATOM     10  C   UNL     1       2.705   5.434  38.880  1.00  0.00     0.041 C 
ATOM     11  O   UNL     1       2.345   6.592  39.216  1.00  0.00    -0.550 OA
ATOM     12  O   UNL     1       3.382   4.634  39.792  1.00  0.00    -0.550 OA
ENDBRANCH   9  10
ENDBRANCH   8   9
ENDBRANCH   7   8
ENDBRANCH   6   7
ENDBRANCH   5   6
ENDBRANCH   4   5
ENDBRANCH   3   4
ENDBRANCH   1   3
BRANCH   2  13
ATOM     13  C   UNL     1      -1.932   7.494  38.478  1.00  0.00     0.027 C 
BRANCH  13  14
ATOM     14  C   UNL     1      -2.385   8.375  39.656  1.00  0.00     0.004 C 
BRANCH  14  15
ATOM     15  C   UNL     1      -1.430   8.339  40.868  1.00  0.00     0.000 C 
BRANCH  15  16
ATOM     16  C   UNL     1      -2.107   7.962  42.198  1.00  0.00     0.000 C 
BRANCH  16  17
ATOM     17  C   UNL     1      -3.582   7.571  42.020  1.00  0.00    -0.000 C 
BRANCH  17  18
ATOM     18  C   UNL     1      -3.834   6.142  42.527  1.00  0.00    -0.000 C 
BRANCH  18  19
ATOM     19  C   UNL     1      -3.741   5.092  41.409  1.00  0.00    -0.003 C 
ATOM     20  C   UNL     1      -4.644   5.412  40.219  1.00  0.00     0.004 C 
ENDBRANCH  18  19
ENDBRANCH  17  18
ENDBRANCH  16  17
ENDBRANCH  15  16
ENDBRANCH  14  15
ENDBRANCH  13  14
ENDBRANCH   2  13
TORSDOF 15
ENDMDL
MODEL 2
REMARK VINA RESULT:    -3.157      2.315      3.867
REMARK INTER + INTRA:          -8.828
REMARK INTER:                  -6.009
REMARK INTRA:                  -2.819
REMARK UNBOUND:                -2.903
REMARK SMILES CCCCCCCCC=CCCCCCCCC(=O)[O-]
REMARK SMILES IDX 10 1 9 2 11 3 12 4 13 5 14 6 15 7 16 8 17 9 18 10 19 11
REMARK SMILES IDX 20 12 8 13 7 14 6 15 5 16 4 17 3 18 2 19 1 20
REMARK H PARENT
REMARK Flexibility Score: inf
ROOT
ATOM      1  C   UNL     1       1.206   7.854  38.670  1.00  0.00    -0.031 C 
ATOM      2  C   UNL     1       0.415   8.713  39.338  1.00  0.00    -0.031 C 
ENDROOT
BRANCH   1   3
ATOM      3  C   UNL     1       1.979   6.740  39.336  1.00  0.00     0.027 C 
BRANCH   3   4
ATOM      4  C   UNL     1       1.119   5.487  39.551  1.00  0.00     0.004 C 
BRANCH   4   5
ATOM      5  C   UNL     1       0.365   5.081  38.273  1.00  0.00     0.000 C 
BRANCH   5   6
ATOM      6  C   UNL     1      -0.942   4.329  38.571  1.00  0.00     0.000 C 
BRANCH   6   7
ATOM      7  C   UNL     1      -2.184   5.061  38.034  1.00  0.00     0.000 C 
BRANCH   7   8
ATOM      8  C   UNL     1      -1.820   6.261  37.143  1.00  0.00     0.006 C 
BRANCH   8   9
ATOM      9  C   UNL     1      -2.252   6.064  35.684  1.00  0.00     0.053 C 
BRANCH   9  10
ATOM     10  C   UNL     1      -1.184   5.349  34.916  1.00  0.00     0.041 C 
ATOM     11  O   UNL     1      -0.061   5.888  34.741  1.00  0.00    -0.550 OA
ATOM     12  O   UNL     1      -1.417   4.071  34.424  1.00  0.00    -0.550 OA
ENDBRANCH   9  10
ENDBRANCH   8   9
ENDBRANCH   7   8
ENDBRANCH   6   7
ENDBRANCH   5   6
ENDBRANCH   4   5
ENDBRANCH   3   4
ENDBRANCH   1   3
BRANCH   2  13
ATOM     13  C   UNL     1       0.253   8.733  40.839  1.00  0.00     0.027 C 
BRANCH  13  14
ATOM     14  C   UNL     1      -1.158   8.296  41.271  1.00  0.00     0.004 C 
BRANCH  14  15
ATOM     15  C   UNL     1      -2.185   8.271  40.120  1.00  0.00     0.000 C 
BRANCH  15  16
ATOM     16  C   UNL     1      -3.512   7.572  40.468  1.00  0.00     0.000 C 
BRANCH  16  17
ATOM     17  C   UNL     1      -3.811   7.588  41.975  1.00  0.00    -0.000 C 
BRANCH  17  18
ATOM     18  C   UNL     1      -3.914   6.159  42.527  1.00  0.00    -0.000 C 
BRANCH  18  19
ATOM     19  C   UNL     1      -3.299   5.113  41.585  1.00  0.00    -0.003 C 
ATOM     20  C   UNL     1      -1.977   4.550  42.106  1.00  0.00     0.004 C 
ENDBRANCH  18  19
ENDBRANCH  17  18
ENDBRANCH  16  17
ENDBRANCH  15  16
ENDBRANCH  14  15
ENDBRANCH  13  14
ENDBRANCH   2  13
TORSDOF 15
ENDMDL
MODEL 3
REMARK VINA RESULT:    -3.033      3.075      4.875
REMARK INTER + INTRA:          -8.595
REMARK INTER:                  -5.789
REMARK INTRA:                  -2.805
REMARK UNBOUND:                -2.903
REMARK SMILES CCCCCCCCC=CCCCCCCCC(=O)[O-]
REMARK SMILES IDX 10 1 9 2 11 3 12 4 13 5 14 6 15 7 16 8 17 9 18 10 19 11
REMARK SMILES IDX 20 12 8 13 7 14 6 15 5 16 4 17 3 18 2 19 1 20
REMARK H PARENT
REMARK Flexibility Score: inf
ROOT
ATOM      1  C   UNL     1       0.512   6.863  40.299  1.00  0.00    -0.031 C 
ATOM      2  C   UNL     1      -0.561   7.654  40.484  1.00  0.00    -0.031 C 
ENDROOT
BRANCH   1   3
ATOM      3  C   UNL     1       1.609   7.162  39.303  1.00  0.00     0.027 C 
BRANCH   3   4
ATOM      4  C   UNL     1       2.731   6.116  39.348  1.00  0.00     0.004 C 
BRANCH   4   5
ATOM      5  C   UNL     1       2.496   4.977  38.340  1.00  0.00     0.000 C 
BRANCH   5   6
ATOM      6  C   UNL     1       1.927   5.478  37.004  1.00  0.00     0.000 C 
BRANCH   6   7
ATOM      7  C   UNL     1       2.406   4.642  35.804  1.00  0.00     0.000 C 
BRANCH   7   8
ATOM      8  C   UNL     1       1.757   5.085  34.482  1.00  0.00     0.006 C 
BRANCH   8   9
ATOM      9  C   UNL     1       1.039   3.935  33.764  1.00  0.00     0.053 C 
BRANCH   9  10
ATOM     10  C   UNL     1      -0.320   4.370  33.310  1.00  0.00     0.041 C 
ATOM     11  O   UNL     1      -1.272   3.549  33.283  1.00  0.00    -0.550 OA
ATOM     12  O   UNL     1      -0.543   5.694  32.950  1.00  0.00    -0.550 OA
ENDBRANCH   9  10
ENDBRANCH   8   9
ENDBRANCH   7   8
ENDBRANCH   6   7
ENDBRANCH   5   6
ENDBRANCH   4   5
ENDBRANCH   3   4
ENDBRANCH   1   3
BRANCH   2  13
ATOM     13  C   UNL     1      -0.854   8.896  39.676  1.00  0.00     0.027 C 
BRANCH  13  14
ATOM     14  C   UNL     1      -2.245   8.839  39.020  1.00  0.00     0.004 C 
BRANCH  14  15
ATOM     15  C   UNL     1      -2.213   8.921  37.479  1.00  0.00     0.000 C 
BRANCH  15  16
ATOM     16  C   UNL     1      -0.810   8.766  36.864  1.00  0.00     0.000 C 
BRANCH  16  17
ATOM     17  C   UNL     1      -0.652   7.456  36.077  1.00  0.00    -0.000 C 
BRANCH  17  18
ATOM     18  C   UNL     1      -1.949   6.634  36.116  1.00  0.00    -0.000 C 
BRANCH  18  19
ATOM     19  C   UNL     1      -1.726   5.197  36.612  1.00  0.00    -0.003 C 
ATOM     20  C   UNL     1      -1.892   5.060  38.125  1.00  0.00     0.004 C 
ENDBRANCH  18  19
ENDBRANCH  17  18
ENDBRANCH  16  17
ENDBRANCH  15  16
ENDBRANCH  14  15
ENDBRANCH  13  14
ENDBRANCH   2  13
TORSDOF 15
ENDMDL
MODEL 4
REMARK VINA RESULT:    -2.980      2.008      3.769
REMARK INTER + INTRA:          -8.495
REMARK INTER:                  -5.385
REMARK INTRA:                  -3.110
REMARK UNBOUND:                -2.903
REMARK SMILES CCCCCCCCC=CCCCCCCCC(=O)[O-]
REMARK SMILES IDX 10 1 9 2 11 3 12 4 13 5 14 6 15 7 16 8 17 9 18 10 19 11
REMARK SMILES IDX 20 12 8 13 7 14 6 15 5 16 4 17 3 18 2 19 1 20
REMARK H PARENT
REMARK Flexibility Score: inf
ROOT
ATOM      1  C   UNL     1      -1.701   4.978  39.319  1.00  0.00    -0.031 C 
ATOM      2  C   UNL     1      -2.423   5.121  38.192  1.00  0.00    -0.031 C 
ENDROOT
BRANCH   1   3
ATOM      3  C   UNL     1      -0.212   4.722  39.330  1.00  0.00     0.027 C 
BRANCH   3   4
ATOM      4  C   UNL     1       0.584   5.956  39.776  1.00  0.00     0.004 C 
BRANCH   4   5
ATOM      5  C   UNL     1       1.452   6.522  38.638  1.00  0.00     0.000 C 
BRANCH   5   6
ATOM      6  C   UNL     1       2.275   5.437  37.927  1.00  0.00     0.000 C 
BRANCH   6   7
ATOM      7  C   UNL     1       1.934   5.316  36.431  1.00  0.00     0.000 C 
BRANCH   7   8
ATOM      8  C   UNL     1       2.170   3.898  35.887  1.00  0.00     0.006 C 
BRANCH   8   9
ATOM      9  C   UNL     1       1.090   2.906  36.339  1.00  0.00     0.053 C 
BRANCH   9  10
ATOM     10  C   UNL     1       1.669   1.895  37.279  1.00  0.00     0.041 C 
ATOM     11  O   UNL     1       2.917   1.779  37.394  1.00  0.00    -0.550 OA
ATOM     12  O   UNL     1       0.831   1.106  38.057  1.00  0.00    -0.550 OA
ENDBRANCH   9  10
ENDBRANCH   8   9
ENDBRANCH   7   8
ENDBRANCH   6   7
ENDBRANCH   5   6
ENDBRANCH   4   5
ENDBRANCH   3   4
ENDBRANCH   1   3
BRANCH   2  13
ATOM     13  C   UNL     1      -1.865   4.969  36.797  1.00  0.00     0.027 C 
BRANCH  13  14
ATOM     14  C   UNL     1      -2.098   6.230  35.945  1.00  0.00     0.004 C 
BRANCH  14  15
ATOM     15  C   UNL     1      -1.124   7.385  36.257  1.00  0.00     0.000 C 
BRANCH  15  16
ATOM     16  C   UNL     1      -1.791   8.627  36.876  1.00  0.00     0.000 C 
BRANCH  16  17
ATOM     17  C   UNL     1      -1.486   8.776  38.375  1.00  0.00    -0.000 C 
BRANCH  17  18
ATOM     18  C   UNL     1      -2.780   8.741  39.202  1.00  0.00    -0.000 C 
BRANCH  18  19
ATOM     19  C   UNL     1      -2.593   8.060  40.566  1.00  0.00    -0.003 C 
ATOM     20  C   UNL     1      -3.882   7.434  41.098  1.00  0.00     0.004 C 
ENDBRANCH  18  19
ENDBRANCH  17  18
ENDBRANCH  16  17
ENDBRANCH  15  16
ENDBRANCH  14  15
ENDBRANCH  13  14
ENDBRANCH   2  13
TORSDOF 15
ENDMDL
MODEL 5
REMARK VINA RESULT:    -2.969      1.625      5.342
REMARK INTER + INTRA:          -8.475
REMARK INTER:                  -5.549
REMARK INTRA:                  -2.926
REMARK UNBOUND:                -2.903
REMARK SMILES CCCCCCCCC=CCCCCCCCC(=O)[O-]
REMARK SMILES IDX 10 1 9 2 11 3 12 4 13 5 14 6 15 7 16 8 17 9 18 10 19 11
REMARK SMILES IDX 20 12 8 13 7 14 6 15 5 16 4 17 3 18 2 19 1 20
REMARK H PARENT
REMARK Flexibility Score: inf
ROOT
ATOM      1  C   UNL     1      -2.312   6.381  40.345  1.00  0.00    -0.031 C 
ATOM      2  C   UNL     1      -2.077   5.307  39.569  1.00  0.00    -0.031 C 
ENDROOT
BRANCH   1   3
ATOM      3  C   UNL     1      -3.239   7.508  39.953  1.00  0.00     0.027 C 
BRANCH   3   4
ATOM      4  C   UNL     1      -2.471   8.776  39.556  1.00  0.00     0.004 C 
BRANCH   4   5
ATOM      5  C   UNL     1      -2.150   8.806  38.051  1.00  0.00     0.000 C 
BRANCH   5   6
ATOM      6  C   UNL     1      -0.650   8.635  37.763  1.00  0.00     0.000 C 
BRANCH   6   7
ATOM      7  C   UNL     1       0.233   9.025  38.961  1.00  0.00     0.000 C 
BRANCH   7   8
ATOM      8  C   UNL     1       1.037   7.835  39.511  1.00  0.00     0.006 C 
BRANCH   8   9
ATOM      9  C   UNL     1       1.478   6.863  38.409  1.00  0.00     0.053 C 
BRANCH   9  10
ATOM     10  C   UNL     1       2.099   5.640  39.009  1.00  0.00     0.041 C 
ATOM     11  O   UNL     1       1.430   4.581  39.123  1.00  0.00    -0.550 OA
ATOM     12  O   UNL     1       3.429   5.658  39.408  1.00  0.00    -0.550 OA
ENDBRANCH   9  10
ENDBRANCH   8   9
ENDBRANCH   7   8
ENDBRANCH   6   7
ENDBRANCH   5   6
ENDBRANCH   4   5
ENDBRANCH   3   4
ENDBRANCH   1   3
BRANCH   2  13
ATOM     13  C   UNL     1      -2.638   5.119  38.180  1.00  0.00     0.027 C 
BRANCH  13  14
ATOM     14  C   UNL     1      -1.542   5.196  37.102  1.00  0.00     0.004 C 
BRANCH  14  15
ATOM     15  C   UNL     1      -2.022   5.796  35.763  1.00  0.00     0.000 C 
BRANCH  15  16
ATOM     16  C   UNL     1      -1.116   5.470  34.562  1.00  0.00     0.000 C 
BRANCH  16  17
ATOM     17  C   UNL     1       0.136   6.358  34.508  1.00  0.00    -0.000 C 
BRANCH  17  18
ATOM     18  C   UNL     1       1.399   5.510  34.294  1.00  0.00    -0.000 C 
BRANCH  18  19
ATOM     19  C   UNL     1       1.650   4.520  35.442  1.00  0.00    -0.003 C 
ATOM     20  C   UNL     1       3.137   4.278  35.701  1.00  0.00     0.004 C 
ENDBRANCH  18  19
ENDBRANCH  17  18
ENDBRANCH  16  17
ENDBRANCH  15  16
ENDBRANCH  14  15
ENDBRANCH  13  14
ENDBRANCH   2  13
TORSDOF 15
ENDMDL
MODEL 6
REMARK VINA RESULT:    -2.963      2.678      6.284
REMARK INTER + INTRA:          -8.464
REMARK INTER:                  -5.813
REMARK INTRA:                  -2.650
REMARK UNBOUND:                -2.903
REMARK SMILES CCCCCCCCC=CCCCCCCCC(=O)[O-]
REMARK SMILES IDX 10 1 9 2 11 3 12 4 13 5 14 6 15 7 16 8 17 9 18 10 19 11
REMARK SMILES IDX 20 12 8 13 7 14 6 15 5 16 4 17 3 18 2 19 1 20
REMARK H PARENT
REMARK Flexibility Score: inf
ROOT
ATOM      1  C   UNL     1       0.785   4.604  39.311  1.00  0.00    -0.031 C 
ATOM      2  C   UNL     1      -0.360   4.181  38.743  1.00  0.00    -0.031 C 
ENDROOT
BRANCH   1   3
ATOM      3  C   UNL     1       0.928   5.936  40.010  1.00  0.00     0.027 C 
BRANCH   3   4
ATOM      4  C   UNL     1       1.736   6.941  39.178  1.00  0.00     0.004 C 
BRANCH   4   5
ATOM      5  C   UNL     1       0.832   7.791  38.267  1.00  0.00     0.000 C 
BRANCH   5   6
ATOM      6  C   UNL     1      -0.159   8.657  39.060  1.00  0.00     0.000 C 
BRANCH   6   7
ATOM      7  C   UNL     1      -1.517   8.806  38.350  1.00  0.00     0.000 C 
BRANCH   7   8
ATOM      8  C   UNL     1      -2.699   8.788  39.333  1.00  0.00     0.006 C 
BRANCH   8   9
ATOM      9  C   UNL     1      -2.403   7.967  40.595  1.00  0.00     0.053 C 
BRANCH   9  10
ATOM     10  C   UNL     1      -3.663   7.362  41.132  1.00  0.00     0.041 C 
ATOM     11  O   UNL     1      -4.175   7.802  42.194  1.00  0.00    -0.550 OA
ATOM     12  O   UNL     1      -4.295   6.337  40.439  1.00  0.00    -0.550 OA
ENDBRANCH   9  10
ENDBRANCH   8   9
ENDBRANCH   7   8
ENDBRANCH   6   7
ENDBRANCH   5   6
ENDBRANCH   4   5
ENDBRANCH   3   4
ENDBRANCH   1   3
BRANCH   2  13
ATOM     13  C   UNL     1      -1.624   5.003  38.657  1.00  0.00     0.027 C 
BRANCH  13  14
ATOM     14  C   UNL     1      -2.277   4.909  37.267  1.00  0.00     0.004 C 
BRANCH  14  15
ATOM     15  C   UNL     1      -1.783   5.977  36.270  1.00  0.00     0.000 C 
BRANCH  15  16
ATOM     16  C   UNL     1      -1.447   5.432  34.870  1.00  0.00     0.000 C 
BRANCH  16  17
ATOM     17  C   UNL     1      -0.045   5.843  34.396  1.00  0.00    -0.000 C 
BRANCH  17  18
ATOM     18  C   UNL     1       0.725   4.631  33.850  1.00  0.00    -0.000 C 
BRANCH  18  19
ATOM     19  C   UNL     1       1.995   4.323  34.658  1.00  0.00    -0.003 C 
ATOM     20  C   UNL     1       2.077   5.119  35.960  1.00  0.00     0.004 C 
ENDBRANCH  18  19
ENDBRANCH  17  18
ENDBRANCH  16  17
ENDBRANCH  15  16
ENDBRANCH  14  15
ENDBRANCH  13  14
ENDBRANCH   2  13
TORSDOF 15
ENDMDL
MODEL 7
REMARK VINA RESULT:    -2.929      2.302      3.973
REMARK INTER + INTRA:          -8.401
REMARK INTER:                  -5.619
REMARK INTRA:                  -2.782
REMARK UNBOUND:                -2.903
REMARK SMILES CCCCCCCCC=CCCCCCCCC(=O)[O-]
REMARK SMILES IDX 10 1 9 2 11 3 12 4 13 5 14 6 15 7 16 8 17 9 18 10 19 11
REMARK SMILES IDX 20 12 8 13 7 14 6 15 5 16 4 17 3 18 2 19 1 20
REMARK H PARENT
REMARK Flexibility Score: inf
ROOT
ATOM      1  C   UNL     1      -1.557   4.919  39.274  1.00  0.00    -0.031 C 
ATOM      2  C   UNL     1      -2.346   5.131  38.205  1.00  0.00    -0.031 C 
ENDROOT
BRANCH   1   3
ATOM      3  C   UNL     1      -0.091   4.566  39.173  1.00  0.00     0.027 C 
BRANCH   3   4
ATOM      4  C   UNL     1       0.815   5.744  39.556  1.00  0.00     0.004 C 
BRANCH   4   5
ATOM      5  C   UNL     1       1.483   6.380  38.325  1.00  0.00     0.000 C 
BRANCH   5   6
ATOM      6  C   UNL     1       2.309   5.371  37.512  1.00  0.00     0.000 C 
BRANCH   6   7
ATOM      7  C   UNL     1       1.795   5.206  36.071  1.00  0.00     0.000 C 
BRANCH   7   8
ATOM      8  C   UNL     1       2.411   3.987  35.363  1.00  0.00     0.006 C 
BRANCH   8   9
ATOM      9  C   UNL     1       3.710   4.331  34.623  1.00  0.00     0.053 C 
BRANCH   9  10
ATOM     10  C   UNL     1       4.856   3.552  35.190  1.00  0.00     0.041 C 
ATOM     11  O   UNL     1       4.694   2.845  36.218  1.00  0.00    -0.550 OA
ATOM     12  O   UNL     1       6.095   3.578  34.562  1.00  0.00    -0.550 OA
ENDBRANCH   9  10
ENDBRANCH   8   9
ENDBRANCH   7   8
ENDBRANCH   6   7
ENDBRANCH   5   6
ENDBRANCH   4   5
ENDBRANCH   3   4
ENDBRANCH   1   3
BRANCH   2  13
ATOM     13  C   UNL     1      -1.902   4.971  36.771  1.00  0.00     0.027 C 
BRANCH  13  14
ATOM     14  C   UNL     1      -2.144   6.249  35.948  1.00  0.00     0.004 C 
BRANCH  14  15
ATOM     15  C   UNL     1      -1.184   7.407  36.293  1.00  0.00     0.000 C 
BRANCH  15  16
ATOM     16  C   UNL     1      -1.866   8.627  36.938  1.00  0.00     0.000 C 
BRANCH  16  17
ATOM     17  C   UNL     1      -1.548   8.760  38.435  1.00  0.00    -0.000 C 
BRANCH  17  18
ATOM     18  C   UNL     1      -2.833   8.707  39.275  1.00  0.00    -0.000 C 
BRANCH  18  19
ATOM     19  C   UNL     1      -2.628   8.005  40.626  1.00  0.00    -0.003 C 
ATOM     20  C   UNL     1      -1.231   8.229  41.204  1.00  0.00     0.004 C 
ENDBRANCH  18  19
ENDBRANCH  17  18
ENDBRANCH  16  17
ENDBRANCH  15  16
ENDBRANCH  14  15
ENDBRANCH  13  14
ENDBRANCH   2  13
TORSDOF 15
ENDMDL
MODEL 8
REMARK VINA RESULT:    -2.907      2.414      3.329
REMARK INTER + INTRA:          -8.358
REMARK INTER:                  -5.588
REMARK INTRA:                  -2.771
REMARK UNBOUND:                -2.903
REMARK SMILES CCCCCCCCC=CCCCCCCCC(=O)[O-]
REMARK SMILES IDX 10 1 9 2 11 3 12 4 13 5 14 6 15 7 16 8 17 9 18 10 19 11
REMARK SMILES IDX 20 12 8 13 7 14 6 15 5 16 4 17 3 18 2 19 1 20
REMARK H PARENT
REMARK Flexibility Score: inf
ROOT
ATOM      1  C   UNL     1       1.747   7.547  38.997  1.00  0.00    -0.031 C 
ATOM      2  C   UNL     1       1.233   6.468  39.615  1.00  0.00    -0.031 C 
ENDROOT
BRANCH   1   3
ATOM      3  C   UNL     1       0.977   8.829  38.777  1.00  0.00     0.027 C 
BRANCH   3   4
ATOM      4  C   UNL     1       0.539   8.996  37.316  1.00  0.00     0.004 C 
BRANCH   4   5
ATOM      5  C   UNL     1      -0.981   8.821  37.148  1.00  0.00     0.000 C 
BRANCH   5   6
ATOM      6  C   UNL     1      -1.363   7.418  36.651  1.00  0.00     0.000 C 
BRANCH   6   7
ATOM      7  C   UNL     1      -0.333   6.836  35.666  1.00  0.00     0.000 C 
BRANCH   7   8
ATOM      8  C   UNL     1       0.219   5.477  36.127  1.00  0.00     0.006 C 
BRANCH   8   9
ATOM      9  C   UNL     1       1.746   5.391  36.008  1.00  0.00     0.053 C 
BRANCH   9  10
ATOM     10  C   UNL     1       2.132   4.520  34.853  1.00  0.00     0.041 C 
ATOM     11  O   UNL     1       3.322   4.499  34.445  1.00  0.00    -0.550 OA
ATOM     12  O   UNL     1       1.185   3.702  34.251  1.00  0.00    -0.550 OA
ENDBRANCH   9  10
ENDBRANCH   8   9
ENDBRANCH   7   8
ENDBRANCH   6   7
ENDBRANCH   5   6
ENDBRANCH   4   5
ENDBRANCH   3   4
ENDBRANCH   1   3
BRANCH   2  13
ATOM     13  C   UNL     1      -0.193   6.360  40.099  1.00  0.00     0.027 C 
BRANCH  13  14
ATOM     14  C   UNL     1      -0.374   6.976  41.498  1.00  0.00     0.004 C 
BRANCH  14  15
ATOM     15  C   UNL     1      -1.525   8.000  41.587  1.00  0.00     0.000 C 
BRANCH  15  16
ATOM     16  C   UNL     1      -2.412   8.069  40.331  1.00  0.00     0.000 C 
BRANCH  16  17
ATOM     17  C   UNL     1      -3.865   7.653  40.610  1.00  0.00    -0.000 C 
BRANCH  17  18
ATOM     18  C   UNL     1      -3.939   6.694  41.808  1.00  0.00    -0.000 C 
BRANCH  18  19
ATOM     19  C   UNL     1      -3.857   5.218  41.390  1.00  0.00    -0.003 C 
ATOM     20  C   UNL     1      -2.959   4.390  42.309  1.00  0.00     0.004 C 
ENDBRANCH  18  19
ENDBRANCH  17  18
ENDBRANCH  16  17
ENDBRANCH  15  16
ENDBRANCH  14  15
ENDBRANCH  13  14
ENDBRANCH   2  13
TORSDOF 15
ENDMDL
MODEL 9
REMARK VINA RESULT:    -2.887      2.555      5.842
REMARK INTER + INTRA:          -8.321
REMARK INTER:                  -5.423
REMARK INTRA:                  -2.898
REMARK UNBOUND:                -2.903
REMARK SMILES CCCCCCCCC=CCCCCCCCC(=O)[O-]
REMARK SMILES IDX 10 1 9 2 11 3 12 4 13 5 14 6 15 7 16 8 17 9 18 10 19 11
REMARK SMILES IDX 20 12 8 13 7 14 6 15 5 16 4 17 3 18 2 19 1 20
REMARK H PARENT
REMARK Flexibility Score: inf
ROOT
ATOM      1  C   UNL     1       0.986   4.285  40.282  1.00  0.00    -0.031 C 
ATOM      2  C   UNL     1       2.111   4.645  39.639  1.00  0.00    -0.031 C 
ENDROOT
BRANCH   1   3
ATOM      3  C   UNL     1      -0.210   5.195  40.446  1.00  0.00     0.027 C 
BRANCH   3   4
ATOM      4  C   UNL     1      -0.158   5.987  41.759  1.00  0.00     0.004 C 
BRANCH   4   5
ATOM      5  C   UNL     1       0.162   7.473  41.521  1.00  0.00     0.000 C 
BRANCH   5   6
ATOM      6  C   UNL     1      -1.100   8.348  41.461  1.00  0.00     0.000 C 
BRANCH   6   7
ATOM      7  C   UNL     1      -1.608   8.560  40.024  1.00  0.00     0.000 C 
BRANCH   7   8
ATOM      8  C   UNL     1      -3.015   7.979  39.806  1.00  0.00     0.006 C 
BRANCH   8   9
ATOM      9  C   UNL     1      -3.638   7.443  41.101  1.00  0.00     0.053 C 
BRANCH   9  10
ATOM     10  C   UNL     1      -3.844   5.963  41.008  1.00  0.00     0.041 C 
ATOM     11  O   UNL     1      -4.156   5.435  39.910  1.00  0.00    -0.550 OA
ATOM     12  O   UNL     1      -3.655   5.162  42.127  1.00  0.00    -0.550 OA
ENDBRANCH   9  10
ENDBRANCH   8   9
ENDBRANCH   7   8
ENDBRANCH   6   7
ENDBRANCH   5   6
ENDBRANCH   4   5
ENDBRANCH   3   4
ENDBRANCH   1   3
BRANCH   2  13
ATOM     13  C   UNL     1       2.365   6.018  39.065  1.00  0.00     0.027 C 
BRANCH  13  14
ATOM     14  C   UNL     1       1.789   6.164  37.645  1.00  0.00     0.004 C 
BRANCH  14  15
ATOM     15  C   UNL     1       0.795   7.334  37.490  1.00  0.00     0.000 C 
BRANCH  15  16
ATOM     16  C   UNL     1       0.220   7.494  36.071  1.00  0.00     0.000 C 
BRANCH  16  17
ATOM     17  C   UNL     1      -0.806   6.405  35.722  1.00  0.00    -0.000 C 
BRANCH  17  18
ATOM     18  C   UNL     1      -1.806   6.207  36.872  1.00  0.00    -0.000 C 
BRANCH  18  19
ATOM     19  C   UNL     1      -1.972   4.731  37.265  1.00  0.00    -0.003 C 
ATOM     20  C   UNL     1      -0.884   3.835  36.674  1.00  0.00     0.004 C 
ENDBRANCH  18  19
ENDBRANCH  17  18
ENDBRANCH  16  17
ENDBRANCH  15  16
ENDBRANCH  14  15
ENDBRANCH  13  14
ENDBRANCH   2  13
TORSDOF 15
ENDMDL
