MODEL 1
REMARK VINA RESULT:    -5.274      0.000      0.000
REMARK INTER + INTRA:          -8.476
REMARK INTER:                  -6.507
REMARK INTRA:                  -1.968
REMARK UNBOUND:                -1.968
REMARK SMILES CC(C)=CCC[C@H](C)[C@H]1C=CC(C)=CC1
REMARK SMILES IDX 6 1 7 2 8 3 9 4 13 5 12 6 14 7 11 8 15 9 10 10 5 11 4 12
REMARK SMILES IDX 2 13 1 14 3 15
REMARK H PARENT
REMARK Flexibility Score: inf
ROOT
ATOM      1  C   UNL     1     102.885 107.208 129.527  1.00  0.00     0.008 C 
ENDROOT
BRANCH   1   2
ATOM      2  C   UNL     1     101.579 106.908 128.746  1.00  0.00    -0.007 C 
ATOM      3  C   UNL     1     100.381 107.505 129.508  1.00  0.00     0.008 C 
BRANCH   2   4
ATOM      4  C   UNL     1     101.395 105.390 128.418  1.00  0.00     0.018 C 
ATOM      5  C   UNL     1     103.833 104.401 124.913  1.00  0.00     0.044 C 
ATOM      6  C   UNL     1     102.988 104.592 126.138  1.00  0.00    -0.055 C 
ATOM      7  C   UNL     1     103.540 104.507 127.356  1.00  0.00    -0.023 C 
ATOM      8  C   UNL     1     101.535 104.823 125.998  1.00  0.00    -0.001 C 
ATOM      9  C   UNL     1     102.695 104.565 128.603  1.00  0.00     0.035 C 
ATOM     10  C   UNL     1     100.785 105.160 127.052  1.00  0.00    -0.023 C 
ENDBRANCH   2   4
ENDBRANCH   1   2
BRANCH   1  11
ATOM     11  C   UNL     1     103.860 108.110 128.755  1.00  0.00     0.027 C 
BRANCH  11  12
ATOM     12  C   UNL     1     103.421 108.269 127.320  1.00  0.00    -0.028 C 
ATOM     13  C   UNL     1     104.189 107.967 126.250  1.00  0.00    -0.080 C 
ATOM     14  C   UNL     1     105.611 107.479 126.397  1.00  0.00     0.039 C 
ATOM     15  C   UNL     1     103.602 108.140 124.873  1.00  0.00     0.039 C 
ENDBRANCH  11  12
ENDBRANCH   1  11
TORSDOF 4
ENDMDL
MODEL 2
REMARK VINA RESULT:    -5.252      5.089      8.003
REMARK INTER + INTRA:          -8.449
REMARK INTER:                  -6.510
REMARK INTRA:                  -1.938
REMARK UNBOUND:                -1.968
REMARK SMILES CC(C)=CCC[C@H](C)[C@H]1C=CC(C)=CC1
REMARK SMILES IDX 6 1 7 2 8 3 9 4 13 5 12 6 14 7 11 8 15 9 10 10 5 11 4 12
REMARK SMILES IDX 2 13 1 14 3 15
REMARK H PARENT
REMARK Flexibility Score: inf
ROOT
ATOM      1  C   UNL     1     109.522 105.247 129.591  1.00  0.00     0.008 C 
ENDROOT
BRANCH   1   2
ATOM      2  C   UNL     1     110.837 105.562 128.832  1.00  0.00    -0.007 C 
ATOM      3  C   UNL     1     112.024 104.942 129.594  1.00  0.00     0.008 C 
BRANCH   2   4
ATOM      4  C   UNL     1     111.030 107.086 128.542  1.00  0.00     0.018 C 
ATOM      5  C   UNL     1     108.986 108.076 124.794  1.00  0.00     0.044 C 
ATOM      6  C   UNL     1     109.690 107.884 126.104  1.00  0.00    -0.055 C 
ATOM      7  C   UNL     1     109.003 107.946 127.254  1.00  0.00    -0.023 C 
ATOM      8  C   UNL     1     111.154 107.679 126.127  1.00  0.00    -0.001 C 
ATOM      9  C   UNL     1     109.703 107.887 128.588  1.00  0.00     0.035 C 
ATOM     10  C   UNL     1     111.786 107.342 127.256  1.00  0.00    -0.023 C 
ENDBRANCH   2   4
ENDBRANCH   1   2
BRANCH   1  11
ATOM     11  C   UNL     1     108.533 104.406 128.769  1.00  0.00     0.027 C 
BRANCH  11  12
ATOM     12  C   UNL     1     109.030 104.223 127.357  1.00  0.00    -0.028 C 
ATOM     13  C   UNL     1     108.306 104.508 126.251  1.00  0.00    -0.080 C 
ATOM     14  C   UNL     1     106.880 104.997 126.332  1.00  0.00     0.039 C 
ATOM     15  C   UNL     1     108.949 104.312 124.902  1.00  0.00     0.039 C 
ENDBRANCH  11  12
ENDBRANCH   1  11
TORSDOF 4
ENDMDL
MODEL 3
REMARK VINA RESULT:    -5.248      3.800      5.622
REMARK INTER + INTRA:          -8.444
REMARK INTER:                  -6.469
REMARK INTRA:                  -1.975
REMARK UNBOUND:                -1.968
REMARK SMILES CC(C)=CCC[C@H](C)[C@H]1C=CC(C)=CC1
REMARK SMILES IDX 6 1 7 2 8 3 9 4 13 5 12 6 14 7 11 8 15 9 10 10 5 11 4 12
REMARK SMILES IDX 2 13 1 14 3 15
REMARK H PARENT
REMARK Flexibility Score: inf
ROOT
ATOM      1  C   UNL     1     107.221 109.515 129.442  1.00  0.00     0.008 C 
ENDROOT
BRANCH   1   2
ATOM      2  C   UNL     1     106.918 110.844 128.702  1.00  0.00    -0.007 C 
ATOM      3  C   UNL     1     107.516 112.018 129.501  1.00  0.00     0.008 C 
BRANCH   2   4
ATOM      4  C   UNL     1     105.400 111.037 128.383  1.00  0.00     0.018 C 
ATOM      5  C   UNL     1     104.384 108.622 124.869  1.00  0.00     0.044 C 
ATOM      6  C   UNL     1     104.585 109.460 126.097  1.00  0.00    -0.055 C 
ATOM      7  C   UNL     1     104.503 108.901 127.313  1.00  0.00    -0.023 C 
ATOM      8  C   UNL     1     104.821 110.912 125.964  1.00  0.00    -0.001 C 
ATOM      9  C   UNL     1     104.570 109.739 128.565  1.00  0.00     0.035 C 
ATOM     10  C   UNL     1     105.166 111.655 127.021  1.00  0.00    -0.023 C 
ENDBRANCH   2   4
ENDBRANCH   1   2
BRANCH   1  11
ATOM     11  C   UNL     1     108.099 108.553 128.628  1.00  0.00     0.027 C 
BRANCH  11  12
ATOM     12  C   UNL     1     108.277 109.054 127.217  1.00  0.00    -0.028 C 
ATOM     13  C   UNL     1     107.991 108.334 126.110  1.00  0.00    -0.080 C 
ATOM     14  C   UNL     1     107.506 106.906 126.187  1.00  0.00     0.039 C 
ATOM     15  C   UNL     1     108.182 108.981 124.762  1.00  0.00     0.039 C 
ENDBRANCH  11  12
ENDBRANCH   1  11
TORSDOF 4
ENDMDL
MODEL 4
REMARK VINA RESULT:    -5.224      3.838      5.673
REMARK INTER + INTRA:          -8.414
REMARK INTER:                  -6.443
REMARK INTRA:                  -1.971
REMARK UNBOUND:                -1.968
REMARK SMILES CC(C)=CCC[C@H](C)[C@H]1C=CC(C)=CC1
REMARK SMILES IDX 6 1 7 2 8 3 9 4 13 5 12 6 14 7 11 8 15 9 10 10 5 11 4 12
REMARK SMILES IDX 2 13 1 14 3 15
REMARK H PARENT
REMARK Flexibility Score: inf
ROOT
ATOM      1  C   UNL     1     105.272 102.904 129.464  1.00  0.00     0.008 C 
ENDROOT
BRANCH   1   2
ATOM      2  C   UNL     1     105.585 101.572 128.734  1.00  0.00    -0.007 C 
ATOM      3  C   UNL     1     104.991 100.400 129.537  1.00  0.00     0.008 C 
BRANCH   2   4
ATOM      4  C   UNL     1     107.106 101.386 128.422  1.00  0.00     0.018 C 
ATOM      5  C   UNL     1     108.116 103.760 124.878  1.00  0.00     0.044 C 
ATOM      6  C   UNL     1     107.917 102.937 126.117  1.00  0.00    -0.055 C 
ATOM      7  C   UNL     1     107.991 103.513 127.325  1.00  0.00    -0.023 C 
ATOM      8  C   UNL     1     107.692 101.482 126.003  1.00  0.00    -0.001 C 
ATOM      9  C   UNL     1     107.926 102.692 128.588  1.00  0.00     0.035 C 
ATOM     10  C   UNL     1     107.348 100.751 127.069  1.00  0.00    -0.023 C 
ENDBRANCH   2   4
ENDBRANCH   1   2
BRANCH   1  11
ATOM     11  C   UNL     1     104.323 103.820 128.676  1.00  0.00     0.027 C 
BRANCH  11  12
ATOM     12  C   UNL     1     104.199 103.359 127.245  1.00  0.00    -0.028 C 
ATOM     13  C   UNL     1     104.523 104.111 126.171  1.00  0.00    -0.080 C 
ATOM     14  C   UNL     1     105.001 105.538 126.306  1.00  0.00     0.039 C 
ATOM     15  C   UNL     1     104.384 103.502 124.798  1.00  0.00     0.039 C 
ENDBRANCH  11  12
ENDBRANCH   1  11
TORSDOF 4
ENDMDL
MODEL 5
REMARK VINA RESULT:    -5.146      3.532      5.773
REMARK INTER + INTRA:          -8.318
REMARK INTER:                  -6.525
REMARK INTRA:                  -1.793
REMARK UNBOUND:                -1.968
REMARK SMILES CC(C)=CCC[C@H](C)[C@H]1C=CC(C)=CC1
REMARK SMILES IDX 6 1 7 2 8 3 9 4 13 5 12 6 14 7 11 8 15 9 10 10 5 11 4 12
REMARK SMILES IDX 2 13 1 14 3 15
REMARK H PARENT
REMARK Flexibility Score: inf
ROOT
ATOM      1  C   UNL     1     105.323 101.124 128.244  1.00  0.00     0.008 C 
ENDROOT
BRANCH   1   2
ATOM      2  C   UNL     1     106.788 100.793 127.856  1.00  0.00    -0.007 C 
ATOM      3  C   UNL     1     107.746 101.551 128.794  1.00  0.00     0.008 C 
BRANCH   2   4
ATOM      4  C   UNL     1     107.094 101.043 126.343  1.00  0.00     0.018 C 
ATOM      5  C   UNL     1     104.580 104.343 124.927  1.00  0.00     0.044 C 
ATOM      6  C   UNL     1     105.522 103.233 125.288  1.00  0.00    -0.055 C 
ATOM      7  C   UNL     1     106.720 103.513 125.822  1.00  0.00    -0.023 C 
ATOM      8  C   UNL     1     105.148 101.832 125.005  1.00  0.00    -0.001 C 
ATOM      9  C   UNL     1     107.737 102.429 126.073  1.00  0.00     0.035 C 
ATOM     10  C   UNL     1     105.885 100.815 125.460  1.00  0.00    -0.023 C 
ENDBRANCH   2   4
ENDBRANCH   1   2
BRANCH   1  11
ATOM     11  C   UNL     1     105.213 102.195 129.340  1.00  0.00     0.027 C 
BRANCH  11  12
ATOM     12  C   UNL     1     104.394 103.368 128.861  1.00  0.00    -0.028 C 
ATOM     13  C   UNL     1     104.855 104.636 128.778  1.00  0.00    -0.080 C 
ATOM     14  C   UNL     1     106.250 105.011 129.219  1.00  0.00     0.039 C 
ATOM     15  C   UNL     1     103.934 105.702 128.242  1.00  0.00     0.039 C 
ENDBRANCH  11  12
ENDBRANCH   1  11
TORSDOF 4
ENDMDL
MODEL 6
REMARK VINA RESULT:    -5.059      1.315      2.549
REMARK INTER + INTRA:          -8.210
REMARK INTER:                  -6.285
REMARK INTRA:                  -1.925
REMARK UNBOUND:                -1.968
REMARK SMILES CC(C)=CCC[C@H](C)[C@H]1C=CC(C)=CC1
REMARK SMILES IDX 6 1 7 2 8 3 9 4 13 5 12 6 14 7 11 8 15 9 10 10 5 11 4 12
REMARK SMILES IDX 2 13 1 14 3 15
REMARK H PARENT
REMARK Flexibility Score: inf
ROOT
ATOM      1  C   UNL     1     103.128 104.452 128.412  1.00  0.00     0.008 C 
ENDROOT
BRANCH   1   2
ATOM      2  C   UNL     1     101.860 105.242 127.994  1.00  0.00    -0.007 C 
ATOM      3  C   UNL     1     100.700 104.878 128.939  1.00  0.00     0.008 C 
BRANCH   2   4
ATOM      4  C   UNL     1     101.494 105.062 126.485  1.00  0.00     0.018 C 
ATOM      5  C   UNL     1     103.539 108.166 124.162  1.00  0.00     0.044 C 
ATOM      6  C   UNL     1     102.815 107.033 124.827  1.00  0.00    -0.055 C 
ATOM      7  C   UNL     1     103.448 105.874 125.058  1.00  0.00    -0.023 C 
ATOM      8  C   UNL     1     101.388 107.180 125.180  1.00  0.00    -0.001 C 
ATOM      9  C   UNL     1     102.712 104.677 125.604  1.00  0.00     0.035 C 
ATOM     10  C   UNL     1     100.761 106.259 125.918  1.00  0.00    -0.023 C 
ENDBRANCH   2   4
ENDBRANCH   1   2
BRANCH   1  11
ATOM     11  C   UNL     1     104.283 105.356 128.871  1.00  0.00     0.027 C 
BRANCH  11  12
ATOM     12  C   UNL     1     103.933 106.810 128.679  1.00  0.00    -0.028 C 
ATOM     13  C   UNL     1     104.687 107.690 127.983  1.00  0.00    -0.080 C 
ATOM     14  C   UNL     1     106.007 107.299 127.363  1.00  0.00     0.039 C 
ATOM     15  C   UNL     1     104.191 109.107 127.842  1.00  0.00     0.039 C 
ENDBRANCH  11  12
ENDBRANCH   1  11
TORSDOF 4
ENDMDL
MODEL 7
REMARK VINA RESULT:    -5.048      4.827      7.701
REMARK INTER + INTRA:          -8.197
REMARK INTER:                  -6.304
REMARK INTRA:                  -1.893
REMARK UNBOUND:                -1.968
REMARK SMILES CC(C)=CCC[C@H](C)[C@H]1C=CC(C)=CC1
REMARK SMILES IDX 6 1 7 2 8 3 9 4 13 5 12 6 14 7 11 8 15 9 10 10 5 11 4 12
REMARK SMILES IDX 2 13 1 14 3 15
REMARK H PARENT
REMARK Flexibility Score: inf
ROOT
ATOM      1  C   UNL     1     109.144 108.103 128.325  1.00  0.00     0.008 C 
ENDROOT
BRANCH   1   2
ATOM      2  C   UNL     1     110.458 107.342 128.007  1.00  0.00    -0.007 C 
ATOM      3  C   UNL     1     111.544 107.758 129.017  1.00  0.00     0.008 C 
BRANCH   2   4
ATOM      4  C   UNL     1     110.917 107.504 126.521  1.00  0.00     0.018 C 
ATOM      5  C   UNL     1     109.253 104.201 124.168  1.00  0.00     0.044 C 
ATOM      6  C   UNL     1     109.851 105.400 124.844  1.00  0.00    -0.055 C 
ATOM      7  C   UNL     1     109.127 106.519 124.992  1.00  0.00    -0.023 C 
ATOM      8  C   UNL     1     111.256 105.362 125.298  1.00  0.00    -0.001 C 
ATOM      9  C   UNL     1     109.741 107.779 125.547  1.00  0.00     0.035 C 
ATOM     10  C   UNL     1     111.766 106.345 126.046  1.00  0.00    -0.023 C 
ENDBRANCH   2   4
ENDBRANCH   1   2
BRANCH   1  11
ATOM     11  C   UNL     1     108.015 107.186 128.819  1.00  0.00     0.027 C 
BRANCH  11  12
ATOM     12  C   UNL     1     108.414 105.736 128.701  1.00  0.00    -0.028 C 
ATOM     13  C   UNL     1     107.755 104.822 127.954  1.00  0.00    -0.080 C 
ATOM     14  C   UNL     1     106.498 105.168 127.192  1.00  0.00     0.039 C 
ATOM     15  C   UNL     1     108.293 103.415 127.900  1.00  0.00     0.039 C 
ENDBRANCH  11  12
ENDBRANCH   1  11
TORSDOF 4
ENDMDL
MODEL 8
REMARK VINA RESULT:    -5.036      3.950      5.740
REMARK INTER + INTRA:          -8.182
REMARK INTER:                  -6.285
REMARK INTRA:                  -1.897
REMARK UNBOUND:                -1.968
REMARK SMILES CC(C)=CCC[C@H](C)[C@H]1C=CC(C)=CC1
REMARK SMILES IDX 6 1 7 2 8 3 9 4 13 5 12 6 14 7 11 8 15 9 10 10 5 11 4 12
REMARK SMILES IDX 2 13 1 14 3 15
REMARK H PARENT
REMARK Flexibility Score: inf
ROOT
ATOM      1  C   UNL     1     104.479 109.278 128.460  1.00  0.00     0.008 C 
ENDROOT
BRANCH   1   2
ATOM      2  C   UNL     1     105.244 110.550 128.008  1.00  0.00    -0.007 C 
ATOM      3  C   UNL     1     104.897 111.714 128.955  1.00  0.00     0.008 C 
BRANCH   2   4
ATOM      4  C   UNL     1     105.014 110.902 126.502  1.00  0.00     0.018 C 
ATOM      5  C   UNL     1     108.160 108.998 124.117  1.00  0.00     0.044 C 
ATOM      6  C   UNL     1     107.008 109.670 124.805  1.00  0.00    -0.055 C 
ATOM      7  C   UNL     1     105.885 108.985 125.063  1.00  0.00    -0.023 C 
ATOM      8  C   UNL     1     107.096 111.104 125.151  1.00  0.00    -0.001 C 
ATOM      9  C   UNL     1     104.667 109.665 125.633  1.00  0.00     0.035 C 
ATOM     10  C   UNL     1     106.163 111.689 125.908  1.00  0.00    -0.023 C 
ENDBRANCH   2   4
ENDBRANCH   1   2
BRANCH   1  11
ATOM     11  C   UNL     1     105.408 108.129 128.882  1.00  0.00     0.027 C 
BRANCH  11  12
ATOM     12  C   UNL     1     106.853 108.499 128.658  1.00  0.00    -0.028 C 
ATOM     13  C   UNL     1     107.731 107.751 127.953  1.00  0.00    -0.080 C 
ATOM     14  C   UNL     1     107.348 106.418 127.355  1.00  0.00     0.039 C 
ATOM     15  C   UNL     1     109.137 108.267 127.778  1.00  0.00     0.039 C 
ENDBRANCH  11  12
ENDBRANCH   1  11
TORSDOF 4
ENDMDL
MODEL 9
REMARK VINA RESULT:    -4.999      3.066      5.961
REMARK INTER + INTRA:          -8.136
REMARK INTER:                  -7.075
REMARK INTRA:                  -1.061
REMARK UNBOUND:                -1.968
REMARK SMILES CC(C)=CCC[C@H](C)[C@H]1C=CC(C)=CC1
REMARK SMILES IDX 6 1 7 2 8 3 9 4 13 5 12 6 14 7 11 8 15 9 10 10 5 11 4 12
REMARK SMILES IDX 2 13 1 14 3 15
REMARK H PARENT
REMARK Flexibility Score: inf
ROOT
ATOM      1  C   UNL     1     105.890 102.532 125.297  1.00  0.00     0.008 C 
ENDROOT
BRANCH   1   2
ATOM      2  C   UNL     1     104.522 103.236 125.490  1.00  0.00    -0.007 C 
ATOM      3  C   UNL     1     103.874 103.474 124.114  1.00  0.00     0.008 C 
BRANCH   2   4
ATOM      4  C   UNL     1     104.619 104.539 126.349  1.00  0.00     0.018 C 
ATOM      5  C   UNL     1     101.071 104.801 128.910  1.00  0.00     0.044 C 
ATOM      6  C   UNL     1     102.347 104.816 128.121  1.00  0.00    -0.055 C 
ATOM      7  C   UNL     1     103.424 104.155 128.570  1.00  0.00    -0.023 C 
ATOM      8  C   UNL     1     102.429 105.604 126.874  1.00  0.00    -0.001 C 
ATOM      9  C   UNL     1     104.754 104.258 127.869  1.00  0.00     0.035 C 
ATOM     10  C   UNL     1     103.489 105.507 126.066  1.00  0.00    -0.023 C 
ENDBRANCH   2   4
ENDBRANCH   1   2
BRANCH   1  11
ATOM     11  C   UNL     1     105.925 101.105 125.867  1.00  0.00     0.027 C 
BRANCH  11  12
ATOM     12  C   UNL     1     106.959 100.991 126.960  1.00  0.00    -0.028 C 
ATOM     13  C   UNL     1     106.670 100.791 128.265  1.00  0.00    -0.080 C 
ATOM     14  C   UNL     1     105.248 100.716 128.768  1.00  0.00     0.039 C 
ATOM     15  C   UNL     1     107.811 100.657 129.241  1.00  0.00     0.039 C 
ENDBRANCH  11  12
ENDBRANCH   1  11
TORSDOF 4
ENDMDL
