MODEL 1
REMARK VINA RESULT:    -4.892      0.000      0.000
REMARK INTER + INTRA:          -5.035
REMARK INTER:                  -5.035
REMARK INTRA:                   0.000
REMARK UNBOUND:                 0.000
REMARK SMILES Oc1ccc2[nH]ccc2c1
REMARK SMILES IDX 3 1 4 2 5 3 9 4 8 5 7 6 6 7 10 8 2 9 1 11
REMARK H PARENT 6 10 1 12
REMARK Flexibility Score: inf
ROOT
ATOM      1  C   UNL     1    -101.563 -14.138  53.098  1.00  0.00     0.048 A 
ATOM      2  C   UNL     1    -101.907 -12.993  52.355  1.00  0.00     0.030 A 
ATOM      3  C   UNL     1    -102.289 -11.852  53.059  1.00  0.00     0.046 A 
ATOM      4  C   UNL     1    -102.331 -11.831  54.429  1.00  0.00     0.003 A 
ATOM      5  C   UNL     1    -102.742 -10.572  54.809  1.00  0.00     0.028 A 
ATOM      6  C   UNL     1    -102.932  -9.877  53.618  1.00  0.00     0.083 A 
ATOM      7  N   UNL     1    -102.653 -10.663  52.554  1.00  0.00    -0.361 N 
ATOM      8  C   UNL     1    -101.997 -12.947  55.192  1.00  0.00     0.056 A 
ATOM      9  C   UNL     1    -101.606 -14.119  54.511  1.00  0.00     0.116 A 
ATOM     10  H   UNL     1    -102.712 -10.395  51.545  1.00  0.00     0.166 HD
ENDROOT
BRANCH   9  11
ATOM     11  O   UNL     1    -101.260 -15.266  55.221  1.00  0.00    -0.508 OA
ATOM     12  H   UNL     1    -101.468 -15.359  56.209  1.00  0.00     0.293 HD
ENDBRANCH   9  11
TORSDOF 1
ENDMDL
MODEL 2
REMARK VINA RESULT:    -4.838      0.823      2.184
REMARK INTER + INTRA:          -4.979
REMARK INTER:                  -4.979
REMARK INTRA:                   0.000
REMARK UNBOUND:                 0.000
REMARK SMILES Oc1ccc2[nH]ccc2c1
REMARK SMILES IDX 3 1 4 2 5 3 9 4 8 5 7 6 6 7 10 8 2 9 1 11
REMARK H PARENT 6 10 1 12
REMARK Flexibility Score: inf
ROOT
ATOM      1  C   UNL     1    -101.989 -13.003  55.471  1.00  0.00     0.048 A 
ATOM      2  C   UNL     1    -102.468 -11.839  54.841  1.00  0.00     0.030 A 
ATOM      3  C   UNL     1    -102.572 -11.848  53.451  1.00  0.00     0.046 A 
ATOM      4  C   UNL     1    -102.224 -12.946  52.710  1.00  0.00     0.003 A 
ATOM      5  C   UNL     1    -102.442 -12.636  51.386  1.00  0.00     0.028 A 
ATOM      6  C   UNL     1    -102.923 -11.330  51.394  1.00  0.00     0.083 A 
ATOM      7  N   UNL     1    -103.001 -10.855  52.658  1.00  0.00    -0.361 N 
ATOM      8  C   UNL     1    -101.746 -14.113  53.303  1.00  0.00     0.056 A 
ATOM      9  C   UNL     1    -101.628 -14.137  54.709  1.00  0.00     0.116 A 
ATOM     10  H   UNL     1    -103.329  -9.907  52.951  1.00  0.00     0.166 HD
ENDROOT
BRANCH   9  11
ATOM     11  O   UNL     1    -101.156 -15.276  55.357  1.00  0.00    -0.508 OA
ATOM     12  H   UNL     1    -100.546 -15.212  56.163  1.00  0.00     0.293 HD
ENDBRANCH   9  11
TORSDOF 1
ENDMDL
MODEL 3
REMARK VINA RESULT:    -4.520      2.589      3.972
REMARK INTER + INTRA:          -4.652
REMARK INTER:                  -4.652
REMARK INTRA:                   0.000
REMARK UNBOUND:                 0.000
REMARK SMILES Oc1ccc2[nH]ccc2c1
REMARK SMILES IDX 3 1 4 2 5 3 9 4 8 5 7 6 6 7 10 8 2 9 1 11
REMARK H PARENT 6 10 1 12
REMARK Flexibility Score: inf
ROOT
ATOM      1  C   UNL     1    -102.406 -10.656  55.192  1.00  0.00     0.048 A 
ATOM      2  C   UNL     1    -102.335 -12.061  55.180  1.00  0.00     0.030 A 
ATOM      3  C   UNL     1    -102.095 -12.690  53.960  1.00  0.00     0.046 A 
ATOM      4  C   UNL     1    -101.929 -11.976  52.802  1.00  0.00     0.003 A 
ATOM      5  C   UNL     1    -101.710 -12.881  51.788  1.00  0.00     0.028 A 
ATOM      6  C   UNL     1    -101.755 -14.130  52.399  1.00  0.00     0.083 A 
ATOM      7  N   UNL     1    -101.989 -14.007  53.725  1.00  0.00    -0.361 N 
ATOM      8  C   UNL     1    -101.994 -10.584  52.781  1.00  0.00     0.056 A 
ATOM      9  C   UNL     1    -102.237  -9.916  54.000  1.00  0.00     0.116 A 
ATOM     10  H   UNL     1    -102.071 -14.782  54.421  1.00  0.00     0.166 HD
ENDROOT
BRANCH   9  11
ATOM     11  O   UNL     1    -102.312  -8.526  54.039  1.00  0.00    -0.508 OA
ATOM     12  H   UNL     1    -102.772  -8.000  53.306  1.00  0.00     0.293 HD
ENDBRANCH   9  11
TORSDOF 1
ENDMDL
MODEL 4
REMARK VINA RESULT:    -4.480      2.479      2.956
REMARK INTER + INTRA:          -4.611
REMARK INTER:                  -4.611
REMARK INTRA:                   0.000
REMARK UNBOUND:                 0.000
REMARK SMILES Oc1ccc2[nH]ccc2c1
REMARK SMILES IDX 3 1 4 2 5 3 9 4 8 5 7 6 6 7 10 8 2 9 1 11
REMARK H PARENT 6 10 1 12
REMARK Flexibility Score: inf
ROOT
ATOM      1  C   UNL     1    -103.645 -14.853  54.644  1.00  0.00     0.048 A 
ATOM      2  C   UNL     1    -104.288 -14.476  53.450  1.00  0.00     0.030 A 
ATOM      3  C   UNL     1    -103.501 -13.958  52.423  1.00  0.00     0.046 A 
ATOM      4  C   UNL     1    -102.145 -13.816  52.558  1.00  0.00     0.003 A 
ATOM      5  C   UNL     1    -101.668 -13.284  51.380  1.00  0.00     0.028 A 
ATOM      6  C   UNL     1    -102.790 -13.127  50.572  1.00  0.00     0.083 A 
ATOM      7  N   UNL     1    -103.905 -13.541  51.214  1.00  0.00    -0.361 N 
ATOM      8  C   UNL     1    -101.479 -14.180  53.726  1.00  0.00     0.056 A 
ATOM      9  C   UNL     1    -102.247 -14.708  54.786  1.00  0.00     0.116 A 
ATOM     10  H   UNL     1    -104.881 -13.534  50.841  1.00  0.00     0.166 HD
ENDROOT
BRANCH   9  11
ATOM     11  O   UNL     1    -101.635 -15.089  55.978  1.00  0.00    -0.508 OA
ATOM     12  H   UNL     1    -100.870 -14.556  56.374  1.00  0.00     0.293 HD
ENDBRANCH   9  11
TORSDOF 1
ENDMDL
MODEL 5
REMARK VINA RESULT:    -4.478      1.805      2.459
REMARK INTER + INTRA:          -4.609
REMARK INTER:                  -4.609
REMARK INTRA:                   0.000
REMARK UNBOUND:                 0.000
REMARK SMILES Oc1ccc2[nH]ccc2c1
REMARK SMILES IDX 3 1 4 2 5 3 9 4 8 5 7 6 6 7 10 8 2 9 1 11
REMARK H PARENT 6 10 1 12
REMARK Flexibility Score: inf
ROOT
ATOM      1  C   UNL     1    -102.584 -14.395  53.366  1.00  0.00     0.048 A 
ATOM      2  C   UNL     1    -102.526 -13.398  54.358  1.00  0.00     0.030 A 
ATOM      3  C   UNL     1    -102.281 -12.088  53.949  1.00  0.00     0.046 A 
ATOM      4  C   UNL     1    -102.103 -11.766  52.629  1.00  0.00     0.003 A 
ATOM      5  C   UNL     1    -101.885 -10.408  52.562  1.00  0.00     0.028 A 
ATOM      6  C   UNL     1    -101.944  -9.965  53.880  1.00  0.00     0.083 A 
ATOM      7  N   UNL     1    -102.187 -10.995  54.722  1.00  0.00    -0.361 N 
ATOM      8  C   UNL     1    -102.154 -12.730  51.624  1.00  0.00     0.056 A 
ATOM      9  C   UNL     1    -102.400 -14.066  52.004  1.00  0.00     0.116 A 
ATOM     10  H   UNL     1    -102.281 -10.945  55.762  1.00  0.00     0.166 HD
ENDROOT
BRANCH   9  11
ATOM     11  O   UNL     1    -102.463 -15.072  51.042  1.00  0.00    -0.508 OA
ATOM     12  H   UNL     1    -101.954 -15.941  51.151  1.00  0.00     0.293 HD
ENDBRANCH   9  11
TORSDOF 1
ENDMDL
MODEL 6
REMARK VINA RESULT:    -4.419      2.542      3.579
REMARK INTER + INTRA:          -4.548
REMARK INTER:                  -4.548
REMARK INTRA:                   0.000
REMARK UNBOUND:                 0.000
REMARK SMILES Oc1ccc2[nH]ccc2c1
REMARK SMILES IDX 3 1 4 2 5 3 9 4 8 5 7 6 6 7 10 8 2 9 1 11
REMARK H PARENT 6 10 1 12
REMARK Flexibility Score: inf
ROOT
ATOM      1  C   UNL     1    -101.964 -10.585  52.533  1.00  0.00     0.048 A 
ATOM      2  C   UNL     1    -101.811 -11.960  52.275  1.00  0.00     0.030 A 
ATOM      3  C   UNL     1    -101.955 -12.842  53.344  1.00  0.00     0.046 A 
ATOM      4  C   UNL     1    -102.236 -12.400  54.610  1.00  0.00     0.003 A 
ATOM      5  C   UNL     1    -102.314 -13.507  55.426  1.00  0.00     0.028 A 
ATOM      6  C   UNL     1    -102.068 -14.592  54.590  1.00  0.00     0.083 A 
ATOM      7  N   UNL     1    -101.850 -14.180  53.320  1.00  0.00    -0.361 N 
ATOM      8  C   UNL     1    -102.394 -11.045  54.898  1.00  0.00     0.056 A 
ATOM      9  C   UNL     1    -102.254 -10.126  53.837  1.00  0.00     0.116 A 
ATOM     10  H   UNL     1    -101.643 -14.784  52.493  1.00  0.00     0.166 HD
ENDROOT
BRANCH   9  11
ATOM     11  O   UNL     1    -102.401  -8.759  54.066  1.00  0.00    -0.508 OA
ATOM     12  H   UNL     1    -103.045  -8.198  53.522  1.00  0.00     0.293 HD
ENDBRANCH   9  11
TORSDOF 1
ENDMDL
MODEL 7
REMARK VINA RESULT:    -4.379      1.867      2.498
REMARK INTER + INTRA:          -4.507
REMARK INTER:                  -4.507
REMARK INTRA:                   0.000
REMARK UNBOUND:                 0.000
REMARK SMILES Oc1ccc2[nH]ccc2c1
REMARK SMILES IDX 3 1 4 2 5 3 9 4 8 5 7 6 6 7 10 8 2 9 1 11
REMARK H PARENT 6 10 1 12
REMARK Flexibility Score: inf
ROOT
ATOM      1  C   UNL     1    -102.701 -12.937  50.991  1.00  0.00     0.048 A 
ATOM      2  C   UNL     1    -102.643 -11.752  51.748  1.00  0.00     0.030 A 
ATOM      3  C   UNL     1    -102.448 -11.868  53.124  1.00  0.00     0.046 A 
ATOM      4  C   UNL     1    -102.315 -13.088  53.732  1.00  0.00     0.003 A 
ATOM      5  C   UNL     1    -102.137 -12.861  55.078  1.00  0.00     0.028 A 
ATOM      6  C   UNL     1    -102.173 -11.477  55.220  1.00  0.00     0.083 A 
ATOM      7  N   UNL     1    -102.363 -10.876  54.024  1.00  0.00    -0.361 N 
ATOM      8  C   UNL     1    -102.368 -14.280  53.010  1.00  0.00     0.056 A 
ATOM      9  C   UNL     1    -102.564 -14.197  51.616  1.00  0.00     0.116 A 
ATOM     10  H   UNL     1    -102.429  -9.849  53.842  1.00  0.00     0.166 HD
ENDROOT
BRANCH   9  11
ATOM     11  O   UNL     1    -102.626 -15.355  50.843  1.00  0.00    -0.508 OA
ATOM     12  H   UNL     1    -103.253 -15.430  50.051  1.00  0.00     0.293 HD
ENDBRANCH   9  11
TORSDOF 1
ENDMDL
MODEL 8
REMARK VINA RESULT:    -4.182      2.478      3.673
REMARK INTER + INTRA:          -4.304
REMARK INTER:                  -4.304
REMARK INTRA:                   0.000
REMARK UNBOUND:                 0.000
REMARK SMILES Oc1ccc2[nH]ccc2c1
REMARK SMILES IDX 3 1 4 2 5 3 9 4 8 5 7 6 6 7 10 8 2 9 1 11
REMARK H PARENT 6 10 1 12
REMARK Flexibility Score: inf
ROOT
ATOM      1  C   UNL     1    -102.819 -11.595  51.292  1.00  0.00     0.048 A 
ATOM      2  C   UNL     1    -102.724 -11.356  52.676  1.00  0.00     0.030 A 
ATOM      3  C   UNL     1    -102.345 -12.418  53.495  1.00  0.00     0.046 A 
ATOM      4  C   UNL     1    -102.070 -13.659  52.983  1.00  0.00     0.003 A 
ATOM      5  C   UNL     1    -101.729 -14.474  54.040  1.00  0.00     0.028 A 
ATOM      6  C   UNL     1    -101.819 -13.663  55.167  1.00  0.00     0.083 A 
ATOM      7  N   UNL     1    -102.195 -12.409  54.828  1.00  0.00    -0.361 N 
ATOM      8  C   UNL     1    -102.154 -13.928  51.618  1.00  0.00     0.056 A 
ATOM      9  C   UNL     1    -102.536 -12.874  50.761  1.00  0.00     0.116 A 
ATOM     10  H   UNL     1    -102.337 -11.602  55.476  1.00  0.00     0.166 HD
ENDROOT
BRANCH   9  11
ATOM     11  O   UNL     1    -102.637 -13.084  49.388  1.00  0.00    -0.508 OA
ATOM     12  H   UNL     1    -102.945 -12.349  48.762  1.00  0.00     0.293 HD
ENDBRANCH   9  11
TORSDOF 1
ENDMDL
MODEL 9
REMARK VINA RESULT:    -4.074      2.297      2.921
REMARK INTER + INTRA:          -4.193
REMARK INTER:                  -4.193
REMARK INTRA:                   0.000
REMARK UNBOUND:                 0.000
REMARK SMILES Oc1ccc2[nH]ccc2c1
REMARK SMILES IDX 3 1 4 2 5 3 9 4 8 5 7 6 6 7 10 8 2 9 1 11
REMARK H PARENT 6 10 1 12
REMARK Flexibility Score: inf
ROOT
ATOM      1  C   UNL     1    -103.536 -13.354  49.968  1.00  0.00     0.048 A 
ATOM      2  C   UNL     1    -103.463 -11.962  50.158  1.00  0.00     0.030 A 
ATOM      3  C   UNL     1    -102.903 -11.496  51.347  1.00  0.00     0.046 A 
ATOM      4  C   UNL     1    -102.435 -12.354  52.307  1.00  0.00     0.003 A 
ATOM      5  C   UNL     1    -101.950 -11.588  53.344  1.00  0.00     0.028 A 
ATOM      6  C   UNL     1    -102.156 -10.270  52.948  1.00  0.00     0.083 A 
ATOM      7  N   UNL     1    -102.737 -10.220  51.728  1.00  0.00    -0.361 N 
ATOM      8  C   UNL     1    -102.493 -13.738  52.149  1.00  0.00     0.056 A 
ATOM      9  C   UNL     1    -103.054 -14.242  50.957  1.00  0.00     0.116 A 
ATOM     10  H   UNL     1    -103.002  -9.361  51.195  1.00  0.00     0.166 HD
ENDROOT
BRANCH   9  11
ATOM     11  O   UNL     1    -103.139 -15.616  50.743  1.00  0.00    -0.508 OA
ATOM     12  H   UNL     1    -102.318 -16.209  50.781  1.00  0.00     0.293 HD
ENDBRANCH   9  11
TORSDOF 1
ENDMDL
