MODEL 1
REMARK VINA RESULT:    -2.016      0.000      0.000
REMARK INTER + INTRA:          -4.277
REMARK INTER:                  -3.667
REMARK INTRA:                  -0.610
REMARK UNBOUND:                -0.610
REMARK SMILES CCCCCCCCCCCCCCCC(=O)[O-]
REMARK SMILES IDX 9 1 10 2 11 3 12 4 13 5 14 6 15 7 16 8 17 9 18 10 8 11 7 12
REMARK SMILES IDX 6 13 5 14 4 15 3 16 2 17 1 18
REMARK H PARENT
REMARK Flexibility Score: inf
ROOT
ATOM      1  C   UNL     1     -10.952 -11.504   3.509  1.00  0.00     0.000 C 
ENDROOT
BRANCH   1   2
ATOM      2  C   UNL     1     -12.119 -12.125   2.720  1.00  0.00     0.000 C 
BRANCH   2   3
ATOM      3  C   UNL     1     -12.002 -11.899   1.202  1.00  0.00     0.000 C 
BRANCH   3   4
ATOM      4  C   UNL     1     -11.801 -10.419   0.841  1.00  0.00     0.000 C 
BRANCH   4   5
ATOM      5  C   UNL     1     -11.498 -10.207  -0.652  1.00  0.00     0.000 C 
BRANCH   5   6
ATOM      6  C   UNL     1      -9.997 -10.294  -0.982  1.00  0.00     0.006 C 
BRANCH   6   7
ATOM      7  C   UNL     1      -9.672 -11.227  -2.162  1.00  0.00     0.053 C 
BRANCH   7   8
ATOM      8  C   UNL     1      -9.744 -10.527  -3.484  1.00  0.00     0.041 C 
ATOM      9  O   UNL     1      -8.690 -10.276  -4.126  1.00  0.00    -0.550 OA
ATOM     10  O   UNL     1     -10.971 -10.120  -3.994  1.00  0.00    -0.550 OA
ENDBRANCH   7   8
ENDBRANCH   6   7
ENDBRANCH   5   6
ENDBRANCH   4   5
ENDBRANCH   3   4
ENDBRANCH   2   3
ENDBRANCH   1   2
BRANCH   1  11
ATOM     11  C   UNL     1     -10.753 -12.061   4.931  1.00  0.00     0.000 C 
BRANCH  11  12
ATOM     12  C   UNL     1     -12.057 -12.125   5.739  1.00  0.00    -0.000 C 
BRANCH  12  13
ATOM     13  C   UNL     1     -11.965 -11.257   7.001  1.00  0.00    -0.000 C 
BRANCH  13  14
ATOM     14  C   UNL     1     -11.740 -12.120   8.248  1.00  0.00    -0.000 C 
BRANCH  14  15
ATOM     15  C   UNL     1     -10.386 -11.803   8.899  1.00  0.00    -0.000 C 
BRANCH  15  16
ATOM     16  C   UNL     1     -10.523 -11.246  10.327  1.00  0.00    -0.000 C 
BRANCH  16  17
ATOM     17  C   UNL     1     -11.027  -9.794  10.410  1.00  0.00    -0.003 C 
ATOM     18  C   UNL     1     -11.236  -9.313  11.845  1.00  0.00     0.004 C 
ENDBRANCH  16  17
ENDBRANCH  15  16
ENDBRANCH  14  15
ENDBRANCH  13  14
ENDBRANCH  12  13
ENDBRANCH  11  12
ENDBRANCH   1  11
TORSDOF 14
ENDMDL
MODEL 2
REMARK VINA RESULT:    -1.999     23.354     25.750
REMARK INTER + INTRA:          -4.246
REMARK INTER:                  -3.055
REMARK INTRA:                  -1.191
REMARK UNBOUND:                -0.610
REMARK SMILES CCCCCCCCCCCCCCCC(=O)[O-]
REMARK SMILES IDX 9 1 10 2 11 3 12 4 13 5 14 6 15 7 16 8 17 9 18 10 8 11 7 12
REMARK SMILES IDX 6 13 5 14 4 15 3 16 2 17 1 18
REMARK H PARENT
REMARK Flexibility Score: inf
ROOT
ATOM      1  C   UNL     1       5.962   3.875   1.367  1.00  0.00     0.000 C 
ENDROOT
BRANCH   1   2
ATOM      2  C   UNL     1       7.473   4.165   1.299  1.00  0.00     0.000 C 
BRANCH   2   3
ATOM      3  C   UNL     1       7.913   5.277   2.267  1.00  0.00     0.000 C 
BRANCH   3   4
ATOM      4  C   UNL     1       7.635   6.684   1.713  1.00  0.00     0.000 C 
BRANCH   4   5
ATOM      5  C   UNL     1       7.173   7.670   2.799  1.00  0.00     0.000 C 
BRANCH   5   6
ATOM      6  C   UNL     1       5.712   8.121   2.621  1.00  0.00     0.006 C 
BRANCH   6   7
ATOM      7  C   UNL     1       4.680   7.124   3.179  1.00  0.00     0.053 C 
BRANCH   7   8
ATOM      8  C   UNL     1       3.271   7.600   3.010  1.00  0.00     0.041 C 
ATOM      9  O   UNL     1       2.898   8.099   1.915  1.00  0.00    -0.550 OA
ATOM     10  O   UNL     1       2.375   7.525   4.070  1.00  0.00    -0.550 OA
ENDBRANCH   7   8
ENDBRANCH   6   7
ENDBRANCH   5   6
ENDBRANCH   4   5
ENDBRANCH   3   4
ENDBRANCH   2   3
ENDBRANCH   1   2
BRANCH   1  11
ATOM     11  C   UNL     1       5.200   4.060   0.042  1.00  0.00     0.000 C 
BRANCH  11  12
ATOM     12  C   UNL     1       4.529   5.436  -0.078  1.00  0.00    -0.000 C 
BRANCH  12  13
ATOM     13  C   UNL     1       5.548   6.512  -0.471  1.00  0.00    -0.000 C 
BRANCH  13  14
ATOM     14  C   UNL     1       4.850   7.837  -0.803  1.00  0.00    -0.000 C 
BRANCH  14  15
ATOM     15  C   UNL     1       4.756   8.043  -2.322  1.00  0.00    -0.000 C 
BRANCH  15  16
ATOM     16  C   UNL     1       6.135   8.125  -3.001  1.00  0.00    -0.000 C 
BRANCH  16  17
ATOM     17  C   UNL     1       6.098   8.118  -4.540  1.00  0.00    -0.003 C 
ATOM     18  C   UNL     1       7.462   7.836  -5.170  1.00  0.00     0.004 C 
ENDBRANCH  16  17
ENDBRANCH  15  16
ENDBRANCH  14  15
ENDBRANCH  13  14
ENDBRANCH  12  13
ENDBRANCH  11  12
ENDBRANCH   1  11
TORSDOF 14
ENDMDL
MODEL 3
REMARK VINA RESULT:    -1.881      6.519     10.908
REMARK INTER + INTRA:          -4.031
REMARK INTER:                  -3.393
REMARK INTRA:                  -0.638
REMARK UNBOUND:                -0.610
REMARK SMILES CCCCCCCCCCCCCCCC(=O)[O-]
REMARK SMILES IDX 9 1 10 2 11 3 12 4 13 5 14 6 15 7 16 8 17 9 18 10 8 11 7 12
REMARK SMILES IDX 6 13 5 14 4 15 3 16 2 17 1 18
REMARK H PARENT
REMARK Flexibility Score: inf
ROOT
ATOM      1  C   UNL     1      -8.594 -12.125   7.012  1.00  0.00     0.000 C 
ENDROOT
BRANCH   1   2
ATOM      2  C   UNL     1      -7.989 -11.232   8.111  1.00  0.00     0.000 C 
BRANCH   2   3
ATOM      3  C   UNL     1      -8.997 -10.877   9.218  1.00  0.00     0.000 C 
BRANCH   3   4
ATOM      4  C   UNL     1     -10.273 -11.732   9.147  1.00  0.00     0.000 C 
BRANCH   4   5
ATOM      5  C   UNL     1     -11.531 -10.959   9.579  1.00  0.00     0.000 C 
BRANCH   5   6
ATOM      6  C   UNL     1     -11.649 -10.803  11.105  1.00  0.00     0.006 C 
BRANCH   6   7
ATOM      7  C   UNL     1     -11.321  -9.387  11.614  1.00  0.00     0.053 C 
BRANCH   7   8
ATOM      8  C   UNL     1     -11.129  -9.340  13.098  1.00  0.00     0.041 C 
ATOM      9  O   UNL     1     -10.446 -10.226  13.678  1.00  0.00    -0.550 OA
ATOM     10  O   UNL     1     -11.732  -8.338  13.850  1.00  0.00    -0.550 OA
ENDBRANCH   7   8
ENDBRANCH   6   7
ENDBRANCH   5   6
ENDBRANCH   4   5
ENDBRANCH   3   4
ENDBRANCH   2   3
ENDBRANCH   1   2
BRANCH   1  11
ATOM     11  C   UNL     1      -8.064 -11.865   5.591  1.00  0.00     0.000 C 
BRANCH  11  12
ATOM     12  C   UNL     1      -6.540 -11.676   5.543  1.00  0.00    -0.000 C 
BRANCH  12  13
ATOM     13  C   UNL     1      -6.100 -11.101   4.191  1.00  0.00    -0.000 C 
BRANCH  13  14
ATOM     14  C   UNL     1      -6.295 -12.125   3.066  1.00  0.00    -0.000 C 
BRANCH  14  15
ATOM     15  C   UNL     1      -6.793 -11.443   1.784  1.00  0.00    -0.000 C 
BRANCH  15  16
ATOM     16  C   UNL     1      -8.041 -12.122   1.190  1.00  0.00    -0.000 C 
BRANCH  16  17
ATOM     17  C   UNL     1      -8.579 -11.474  -0.099  1.00  0.00    -0.003 C 
ATOM     18  C   UNL     1     -10.098 -11.308  -0.097  1.00  0.00     0.004 C 
ENDBRANCH  16  17
ENDBRANCH  15  16
ENDBRANCH  14  15
ENDBRANCH  13  14
ENDBRANCH  12  13
ENDBRANCH  11  12
ENDBRANCH   1  11
TORSDOF 14
ENDMDL
MODEL 4
REMARK VINA RESULT:    -1.725      4.944      5.929
REMARK INTER + INTRA:          -3.747
REMARK INTER:                  -3.602
REMARK INTRA:                  -0.144
REMARK UNBOUND:                -0.610
REMARK SMILES CCCCCCCCCCCCCCCC(=O)[O-]
REMARK SMILES IDX 9 1 10 2 11 3 12 4 13 5 14 6 15 7 16 8 17 9 18 10 8 11 7 12
REMARK SMILES IDX 6 13 5 14 4 15 3 16 2 17 1 18
REMARK H PARENT
REMARK Flexibility Score: inf
ROOT
ATOM      1  C   UNL     1      -9.197 -10.552   8.946  1.00  0.00     0.000 C 
ENDROOT
BRANCH   1   2
ATOM      2  C   UNL     1      -9.409 -11.809   8.082  1.00  0.00     0.000 C 
BRANCH   2   3
ATOM      3  C   UNL     1      -8.288 -12.022   7.050  1.00  0.00     0.000 C 
BRANCH   3   4
ATOM      4  C   UNL     1      -8.770 -11.811   5.606  1.00  0.00     0.000 C 
BRANCH   4   5
ATOM      5  C   UNL     1      -7.682 -12.124   4.564  1.00  0.00     0.000 C 
BRANCH   5   6
ATOM      6  C   UNL     1      -6.256 -11.898   5.096  1.00  0.00     0.006 C 
BRANCH   6   7
ATOM      7  C   UNL     1      -5.656 -10.534   4.709  1.00  0.00     0.053 C 
BRANCH   7   8
ATOM      8  C   UNL     1      -5.072 -10.533   3.331  1.00  0.00     0.041 C 
ATOM      9  O   UNL     1      -3.840 -10.332   3.164  1.00  0.00    -0.550 OA
ATOM     10  O   UNL     1      -5.892 -10.719   2.224  1.00  0.00    -0.550 OA
ENDBRANCH   7   8
ENDBRANCH   6   7
ENDBRANCH   5   6
ENDBRANCH   4   5
ENDBRANCH   3   4
ENDBRANCH   2   3
ENDBRANCH   1   2
BRANCH   1  11
ATOM     11  C   UNL     1     -10.473  -9.747   9.255  1.00  0.00     0.000 C 
BRANCH  11  12
ATOM     12  C   UNL     1     -11.760 -10.561   9.055  1.00  0.00    -0.000 C 
BRANCH  12  13
ATOM     13  C   UNL     1     -12.117 -11.346  10.323  1.00  0.00    -0.000 C 
BRANCH  13  14
ATOM     14  C   UNL     1     -11.310 -10.844  11.527  1.00  0.00    -0.000 C 
BRANCH  14  15
ATOM     15  C   UNL     1     -11.707 -11.596  12.806  1.00  0.00    -0.000 C 
BRANCH  15  16
ATOM     16  C   UNL     1     -11.435 -10.785  14.086  1.00  0.00    -0.000 C 
BRANCH  16  17
ATOM     17  C   UNL     1     -10.602  -9.507  13.878  1.00  0.00    -0.003 C 
ATOM     18  C   UNL     1     -11.400  -8.370  13.241  1.00  0.00     0.004 C 
ENDBRANCH  16  17
ENDBRANCH  15  16
ENDBRANCH  14  15
ENDBRANCH  13  14
ENDBRANCH  12  13
ENDBRANCH  11  12
ENDBRANCH   1  11
TORSDOF 14
ENDMDL
MODEL 5
REMARK VINA RESULT:    -1.642     23.264     24.928
REMARK INTER + INTRA:          -3.596
REMARK INTER:                  -3.158
REMARK INTRA:                  -0.438
REMARK UNBOUND:                -0.610
REMARK SMILES CCCCCCCCCCCCCCCC(=O)[O-]
REMARK SMILES IDX 9 1 10 2 11 3 12 4 13 5 14 6 15 7 16 8 17 9 18 10 8 11 7 12
REMARK SMILES IDX 6 13 5 14 4 15 3 16 2 17 1 18
REMARK H PARENT
REMARK Flexibility Score: inf
ROOT
ATOM      1  C   UNL     1       3.547   6.918   4.151  1.00  0.00     0.000 C 
ENDROOT
BRANCH   1   2
ATOM      2  C   UNL     1       4.881   7.479   4.677  1.00  0.00     0.000 C 
BRANCH   2   3
ATOM      3  C   UNL     1       5.862   7.847   3.549  1.00  0.00     0.000 C 
BRANCH   3   4
ATOM      4  C   UNL     1       6.965   6.793   3.362  1.00  0.00     0.000 C 
BRANCH   4   5
ATOM      5  C   UNL     1       8.064   7.249   2.388  1.00  0.00     0.000 C 
BRANCH   5   6
ATOM      6  C   UNL     1       7.528   8.124   1.241  1.00  0.00     0.006 C 
BRANCH   6   7
ATOM      7  C   UNL     1       6.536   7.398   0.315  1.00  0.00     0.053 C 
BRANCH   7   8
ATOM      8  C   UNL     1       6.661   7.831  -1.113  1.00  0.00     0.041 C 
ATOM      9  O   UNL     1       7.789   8.124  -1.590  1.00  0.00    -0.550 OA
ATOM     10  O   UNL     1       5.528   7.945  -1.911  1.00  0.00    -0.550 OA
ENDBRANCH   7   8
ENDBRANCH   6   7
ENDBRANCH   5   6
ENDBRANCH   4   5
ENDBRANCH   3   4
ENDBRANCH   2   3
ENDBRANCH   1   2
BRANCH   1  11
ATOM     11  C   UNL     1       2.903   7.722   3.007  1.00  0.00     0.000 C 
BRANCH  11  12
ATOM     12  C   UNL     1       3.349   7.250   1.616  1.00  0.00    -0.000 C 
BRANCH  12  13
ATOM     13  C   UNL     1       3.925   5.829   1.675  1.00  0.00    -0.000 C 
BRANCH  13  14
ATOM     14  C   UNL     1       3.641   5.065   0.376  1.00  0.00    -0.000 C 
BRANCH  14  15
ATOM     15  C   UNL     1       4.923   4.426  -0.177  1.00  0.00    -0.000 C 
BRANCH  15  16
ATOM     16  C   UNL     1       5.790   3.780   0.919  1.00  0.00    -0.000 C 
BRANCH  16  17
ATOM     17  C   UNL     1       7.214   4.355   1.040  1.00  0.00    -0.003 C 
ATOM     18  C   UNL     1       8.044   3.673   2.127  1.00  0.00     0.004 C 
ENDBRANCH  16  17
ENDBRANCH  15  16
ENDBRANCH  14  15
ENDBRANCH  13  14
ENDBRANCH  12  13
ENDBRANCH  11  12
ENDBRANCH   1  11
TORSDOF 14
ENDMDL
MODEL 6
REMARK VINA RESULT:    -1.513      2.670      4.170
REMARK INTER + INTRA:          -3.363
REMARK INTER:                  -2.444
REMARK INTRA:                  -0.919
REMARK UNBOUND:                -0.610
REMARK SMILES CCCCCCCCCCCCCCCC(=O)[O-]
REMARK SMILES IDX 9 1 10 2 11 3 12 4 13 5 14 6 15 7 16 8 17 9 18 10 8 11 7 12
REMARK SMILES IDX 6 13 5 14 4 15 3 16 2 17 1 18
REMARK H PARENT
REMARK Flexibility Score: inf
ROOT
ATOM      1  C   UNL     1      -8.988 -11.556   7.611  1.00  0.00     0.000 C 
ENDROOT
BRANCH   1   2
ATOM      2  C   UNL     1      -9.959 -11.966   6.489  1.00  0.00     0.000 C 
BRANCH   2   3
ATOM      3  C   UNL     1      -9.266 -12.123   5.125  1.00  0.00     0.000 C 
BRANCH   3   4
ATOM      4  C   UNL     1      -7.775 -11.751   5.176  1.00  0.00     0.000 C 
BRANCH   4   5
ATOM      5  C   UNL     1      -7.101 -11.804   3.794  1.00  0.00     0.000 C 
BRANCH   5   6
ATOM      6  C   UNL     1      -8.086 -12.122   2.655  1.00  0.00     0.006 C 
BRANCH   6   7
ATOM      7  C   UNL     1      -7.588 -11.694   1.263  1.00  0.00     0.053 C 
BRANCH   7   8
ATOM      8  C   UNL     1      -8.680 -11.690   0.238  1.00  0.00     0.041 C 
ATOM      9  O   UNL     1      -8.433 -11.354  -0.950  1.00  0.00    -0.550 OA
ATOM     10  O   UNL     1      -9.980 -12.025   0.600  1.00  0.00    -0.550 OA
ENDBRANCH   7   8
ENDBRANCH   6   7
ENDBRANCH   5   6
ENDBRANCH   4   5
ENDBRANCH   3   4
ENDBRANCH   2   3
ENDBRANCH   1   2
BRANCH   1  11
ATOM     11  C   UNL     1      -9.578 -11.589   9.033  1.00  0.00     0.000 C 
BRANCH  11  12
ATOM     12  C   UNL     1     -11.070 -11.953   9.056  1.00  0.00    -0.000 C 
BRANCH  12  13
ATOM     13  C   UNL     1     -11.817 -11.147  10.127  1.00  0.00    -0.000 C 
BRANCH  13  14
ATOM     14  C   UNL     1     -11.838  -9.654   9.777  1.00  0.00    -0.000 C 
BRANCH  14  15
ATOM     15  C   UNL     1     -11.000  -8.844  10.777  1.00  0.00    -0.000 C 
BRANCH  15  16
ATOM     16  C   UNL     1     -10.653  -9.638  12.049  1.00  0.00    -0.000 C 
BRANCH  16  17
ATOM     17  C   UNL     1     -10.645  -8.809  13.347  1.00  0.00    -0.003 C 
ATOM     18  C   UNL     1     -12.035  -8.641  13.958  1.00  0.00     0.004 C 
ENDBRANCH  16  17
ENDBRANCH  15  16
ENDBRANCH  14  15
ENDBRANCH  13  14
ENDBRANCH  12  13
ENDBRANCH  11  12
ENDBRANCH   1  11
TORSDOF 14
ENDMDL
MODEL 7
REMARK VINA RESULT:    -1.346      6.135     11.212
REMARK INTER + INTRA:          -3.059
REMARK INTER:                  -2.672
REMARK INTRA:                  -0.387
REMARK UNBOUND:                -0.610
REMARK SMILES CCCCCCCCCCCCCCCC(=O)[O-]
REMARK SMILES IDX 9 1 10 2 11 3 12 4 13 5 14 6 15 7 16 8 17 9 18 10 8 11 7 12
REMARK SMILES IDX 6 13 5 14 4 15 3 16 2 17 1 18
REMARK H PARENT
REMARK Flexibility Score: inf
ROOT
ATOM      1  C   UNL     1     -12.088 -11.679   7.354  1.00  0.00     0.000 C 
ENDROOT
BRANCH   1   2
ATOM      2  C   UNL     1     -11.743 -10.357   8.063  1.00  0.00     0.000 C 
BRANCH   2   3
ATOM      3  C   UNL     1     -11.902 -10.438   9.592  1.00  0.00     0.000 C 
BRANCH   3   4
ATOM      4  C   UNL     1     -11.576  -9.107  10.288  1.00  0.00     0.000 C 
BRANCH   4   5
ATOM      5  C   UNL     1     -10.763  -9.295  11.580  1.00  0.00     0.000 C 
BRANCH   5   6
ATOM      6  C   UNL     1     -11.378  -8.568  12.790  1.00  0.00     0.006 C 
BRANCH   6   7
ATOM      7  C   UNL     1     -12.034  -9.511  13.815  1.00  0.00     0.053 C 
BRANCH   7   8
ATOM      8  C   UNL     1     -11.337 -10.833  13.909  1.00  0.00     0.041 C 
ATOM      9  O   UNL     1     -10.096 -10.882  14.118  1.00  0.00    -0.550 OA
ATOM     10  O   UNL     1     -12.050 -12.013  13.732  1.00  0.00    -0.550 OA
ENDBRANCH   7   8
ENDBRANCH   6   7
ENDBRANCH   5   6
ENDBRANCH   4   5
ENDBRANCH   3   4
ENDBRANCH   2   3
ENDBRANCH   1   2
BRANCH   1  11
ATOM     11  C   UNL     1     -12.101 -11.614   5.816  1.00  0.00     0.000 C 
BRANCH  11  12
ATOM     12  C   UNL     1     -10.800 -12.125   5.181  1.00  0.00    -0.000 C 
BRANCH  12  13
ATOM     13  C   UNL     1     -10.859 -12.027   3.651  1.00  0.00    -0.000 C 
BRANCH  13  14
ATOM     14  C   UNL     1     -11.819 -10.916   3.207  1.00  0.00    -0.000 C 
BRANCH  14  15
ATOM     15  C   UNL     1     -11.835 -10.783   1.677  1.00  0.00    -0.000 C 
BRANCH  15  16
ATOM     16  C   UNL     1     -10.860 -11.750   0.982  1.00  0.00    -0.000 C 
BRANCH  16  17
ATOM     17  C   UNL     1     -10.041 -11.129  -0.164  1.00  0.00    -0.003 C 
ATOM     18  C   UNL     1     -10.828 -11.013  -1.468  1.00  0.00     0.004 C 
ENDBRANCH  16  17
ENDBRANCH  15  16
ENDBRANCH  14  15
ENDBRANCH  13  14
ENDBRANCH  12  13
ENDBRANCH  11  12
ENDBRANCH   1  11
TORSDOF 14
ENDMDL
