MODEL 1
REMARK VINA RESULT:    -4.563      0.000      0.000
REMARK INTER + INTRA:          -7.875
REMARK INTER:                  -7.231
REMARK INTRA:                  -0.643
REMARK UNBOUND:                -0.643
REMARK SMILES CCCCCCCCCCCC(=O)[O-]
REMARK SMILES IDX 7 1 8 2 9 3 10 4 11 5 12 6 13 7 14 8 6 9 5 10 4 11 3 12 2 13
REMARK SMILES IDX 1 14
REMARK H PARENT
REMARK Flexibility Score: inf
ROOT
ATOM      1  C   UNL     1      10.128 -13.128   5.442  1.00  0.00     0.000 C 
ENDROOT
BRANCH   1   2
ATOM      2  C   UNL     1      11.003 -12.346   4.451  1.00  0.00     0.000 C 
BRANCH   2   3
ATOM      3  C   UNL     1      11.094 -10.849   4.792  1.00  0.00     0.000 C 
BRANCH   3   4
ATOM      4  C   UNL     1      12.446 -10.466   5.417  1.00  0.00     0.006 C 
BRANCH   4   5
ATOM      5  C   UNL     1      13.324  -9.662   4.448  1.00  0.00     0.053 C 
BRANCH   5   6
ATOM      6  C   UNL     1      12.517  -8.706   3.625  1.00  0.00     0.041 C 
ATOM      7  O   UNL     1      12.027  -7.673   4.154  1.00  0.00    -0.550 OA
ATOM      8  O   UNL     1      12.331  -8.937   2.269  1.00  0.00    -0.550 OA
ENDBRANCH   5   6
ENDBRANCH   4   5
ENDBRANCH   3   4
ENDBRANCH   2   3
ENDBRANCH   1   2
BRANCH   1   9
ATOM      9  C   UNL     1       8.934 -12.284   5.905  1.00  0.00     0.000 C 
BRANCH   9  10
ATOM     10  C   UNL     1       8.073 -13.058   6.915  1.00  0.00    -0.000 C 
BRANCH  10  11
ATOM     11  C   UNL     1       8.617 -14.468   7.203  1.00  0.00    -0.000 C 
BRANCH  11  12
ATOM     12  C   UNL     1       7.690 -15.621   6.775  1.00  0.00    -0.000 C 
BRANCH  12  13
ATOM     13  C   UNL     1       7.602 -15.815   5.246  1.00  0.00    -0.003 C 
ATOM     14  C   UNL     1       6.160 -15.833   4.740  1.00  0.00     0.004 C 
ENDBRANCH  12  13
ENDBRANCH  11  12
ENDBRANCH  10  11
ENDBRANCH   9  10
ENDBRANCH   1   9
TORSDOF 10
ENDMDL
MODEL 2
REMARK VINA RESULT:    -4.543     12.068     14.397
REMARK INTER + INTRA:          -7.842
REMARK INTER:                  -7.190
REMARK INTRA:                  -0.652
REMARK UNBOUND:                -0.643
REMARK SMILES CCCCCCCCCCCC(=O)[O-]
REMARK SMILES IDX 7 1 8 2 9 3 10 4 11 5 12 6 13 7 14 8 6 9 5 10 4 11 3 12 2 13
REMARK SMILES IDX 1 14
REMARK H PARENT
REMARK Flexibility Score: inf
ROOT
ATOM      1  C   UNL     1       5.756 -15.702  -5.895  1.00  0.00     0.000 C 
ENDROOT
BRANCH   1   2
ATOM      2  C   UNL     1       5.411 -17.057  -5.259  1.00  0.00     0.000 C 
BRANCH   2   3
ATOM      3  C   UNL     1       3.971 -17.111  -4.721  1.00  0.00     0.000 C 
BRANCH   3   4
ATOM      4  C   UNL     1       3.438 -18.548  -4.601  1.00  0.00     0.006 C 
BRANCH   4   5
ATOM      5  C   UNL     1       3.391 -19.028  -3.144  1.00  0.00     0.053 C 
BRANCH   5   6
ATOM      6  C   UNL     1       2.639 -18.077  -2.266  1.00  0.00     0.041 C 
ATOM      7  O   UNL     1       1.474 -17.713  -2.579  1.00  0.00    -0.550 OA
ATOM      8  O   UNL     1       3.209 -17.617  -1.086  1.00  0.00    -0.550 OA
ENDBRANCH   5   6
ENDBRANCH   4   5
ENDBRANCH   3   4
ENDBRANCH   2   3
ENDBRANCH   1   2
BRANCH   1   9
ATOM      9  C   UNL     1       4.603 -15.197  -6.772  1.00  0.00     0.000 C 
BRANCH   9  10
ATOM     10  C   UNL     1       5.137 -14.422  -7.986  1.00  0.00    -0.000 C 
BRANCH  10  11
ATOM     11  C   UNL     1       6.240 -15.184  -8.741  1.00  0.00    -0.000 C 
BRANCH  11  12
ATOM     12  C   UNL     1       7.480 -14.344  -9.100  1.00  0.00    -0.000 C 
BRANCH  12  13
ATOM     13  C   UNL     1       8.310 -13.905  -7.876  1.00  0.00    -0.003 C 
ATOM     14  C   UNL     1       8.282 -12.391  -7.661  1.00  0.00     0.004 C 
ENDBRANCH  12  13
ENDBRANCH  11  12
ENDBRANCH  10  11
ENDBRANCH   9  10
ENDBRANCH   1   9
TORSDOF 10
ENDMDL
MODEL 3
REMARK VINA RESULT:    -4.534      3.419      7.057
REMARK INTER + INTRA:          -7.828
REMARK INTER:                  -7.127
REMARK INTRA:                  -0.701
REMARK UNBOUND:                -0.643
REMARK SMILES CCCCCCCCCCCC(=O)[O-]
REMARK SMILES IDX 7 1 8 2 9 3 10 4 11 5 12 6 13 7 14 8 6 9 5 10 4 11 3 12 2 13
REMARK SMILES IDX 1 14
REMARK H PARENT
REMARK Flexibility Score: inf
ROOT
ATOM      1  C   UNL     1       9.735 -12.398   5.465  1.00  0.00     0.000 C 
ENDROOT
BRANCH   1   2
ATOM      2  C   UNL     1       8.484 -11.969   6.246  1.00  0.00     0.000 C 
BRANCH   2   3
ATOM      3  C   UNL     1       7.956 -13.073   7.176  1.00  0.00     0.000 C 
BRANCH   3   4
ATOM      4  C   UNL     1       8.733 -14.393   7.029  1.00  0.00     0.006 C 
BRANCH   4   5
ATOM      5  C   UNL     1       7.807 -15.578   6.723  1.00  0.00     0.053 C 
BRANCH   5   6
ATOM      6  C   UNL     1       7.359 -15.583   5.294  1.00  0.00     0.041 C 
ATOM      7  O   UNL     1       8.192 -15.390   4.368  1.00  0.00    -0.550 OA
ATOM      8  O   UNL     1       6.029 -15.830   4.981  1.00  0.00    -0.550 OA
ENDBRANCH   5   6
ENDBRANCH   4   5
ENDBRANCH   3   4
ENDBRANCH   2   3
ENDBRANCH   1   2
BRANCH   1   9
ATOM      9  C   UNL     1      10.529 -11.178   4.985  1.00  0.00     0.000 C 
BRANCH   9  10
ATOM     10  C   UNL     1      12.033 -11.371   5.229  1.00  0.00    -0.000 C 
BRANCH  10  11
ATOM     11  C   UNL     1      12.834 -10.066   5.079  1.00  0.00    -0.000 C 
BRANCH  11  12
ATOM     12  C   UNL     1      13.381  -9.800   3.664  1.00  0.00    -0.000 C 
BRANCH  12  13
ATOM     13  C   UNL     1      12.508  -8.838   2.830  1.00  0.00    -0.003 C 
ATOM     14  C   UNL     1      11.740  -7.842   3.700  1.00  0.00     0.004 C 
ENDBRANCH  12  13
ENDBRANCH  11  12
ENDBRANCH  10  11
ENDBRANCH   9  10
ENDBRANCH   1   9
TORSDOF 10
ENDMDL
MODEL 4
REMARK VINA RESULT:    -4.499      7.749     11.130
REMARK INTER + INTRA:          -7.773
REMARK INTER:                  -7.157
REMARK INTRA:                  -0.616
REMARK UNBOUND:                -0.643
REMARK SMILES CCCCCCCCCCCC(=O)[O-]
REMARK SMILES IDX 7 1 8 2 9 3 10 4 11 5 12 6 13 7 14 8 6 9 5 10 4 11 3 12 2 13
REMARK SMILES IDX 1 14
REMARK H PARENT
REMARK Flexibility Score: inf
ROOT
ATOM      1  C   UNL     1       4.487 -18.542   1.150  1.00  0.00     0.000 C 
ENDROOT
BRANCH   1   2
ATOM      2  C   UNL     1       3.503 -17.797   0.236  1.00  0.00     0.000 C 
BRANCH   2   3
ATOM      3  C   UNL     1       3.970 -17.752  -1.228  1.00  0.00     0.000 C 
BRANCH   3   4
ATOM      4  C   UNL     1       2.909 -17.160  -2.170  1.00  0.00     0.006 C 
BRANCH   4   5
ATOM      5  C   UNL     1       2.222 -18.239  -3.019  1.00  0.00     0.053 C 
BRANCH   5   6
ATOM      6  C   UNL     1       3.202 -18.993  -3.864  1.00  0.00     0.041 C 
ATOM      7  O   UNL     1       3.445 -20.205  -3.623  1.00  0.00    -0.550 OA
ATOM      8  O   UNL     1       3.824 -18.367  -4.937  1.00  0.00    -0.550 OA
ENDBRANCH   5   6
ENDBRANCH   4   5
ENDBRANCH   3   4
ENDBRANCH   2   3
ENDBRANCH   1   2
BRANCH   1   9
ATOM      9  C   UNL     1       3.744 -19.298   2.258  1.00  0.00     0.000 C 
BRANCH   9  10
ATOM     10  C   UNL     1       4.092 -18.726   3.641  1.00  0.00    -0.000 C 
BRANCH  10  11
ATOM     11  C   UNL     1       3.423 -17.367   3.909  1.00  0.00    -0.000 C 
BRANCH  11  12
ATOM     12  C   UNL     1       4.390 -16.232   4.295  1.00  0.00    -0.000 C 
BRANCH  12  13
ATOM     13  C   UNL     1       5.878 -16.584   4.081  1.00  0.00    -0.003 C 
ATOM     14  C   UNL     1       6.803 -15.808   5.019  1.00  0.00     0.004 C 
ENDBRANCH  12  13
ENDBRANCH  11  12
ENDBRANCH  10  11
ENDBRANCH   9  10
ENDBRANCH   1   9
TORSDOF 10
ENDMDL
MODEL 5
REMARK VINA RESULT:    -4.485      5.440      8.763
REMARK INTER + INTRA:          -7.750
REMARK INTER:                  -7.026
REMARK INTRA:                  -0.725
REMARK UNBOUND:                -0.643
REMARK SMILES CCCCCCCCCCCC(=O)[O-]
REMARK SMILES IDX 7 1 8 2 9 3 10 4 11 5 12 6 13 7 14 8 6 9 5 10 4 11 3 12 2 13
REMARK SMILES IDX 1 14
REMARK H PARENT
REMARK Flexibility Score: inf
ROOT
ATOM      1  C   UNL     1       5.321 -16.558   4.226  1.00  0.00     0.000 C 
ENDROOT
BRANCH   1   2
ATOM      2  C   UNL     1       6.023 -17.850   3.784  1.00  0.00     0.000 C 
BRANCH   2   3
ATOM      3  C   UNL     1       5.055 -19.037   3.652  1.00  0.00     0.000 C 
BRANCH   3   4
ATOM      4  C   UNL     1       3.862 -18.729   2.732  1.00  0.00     0.006 C 
BRANCH   4   5
ATOM      5  C   UNL     1       4.246 -18.789   1.247  1.00  0.00     0.053 C 
BRANCH   5   6
ATOM      6  C   UNL     1       3.744 -17.597   0.492  1.00  0.00     0.041 C 
ATOM      7  O   UNL     1       3.967 -16.435   0.923  1.00  0.00    -0.550 OA
ATOM      8  O   UNL     1       3.058 -17.767  -0.703  1.00  0.00    -0.550 OA
ENDBRANCH   5   6
ENDBRANCH   4   5
ENDBRANCH   3   4
ENDBRANCH   2   3
ENDBRANCH   1   2
BRANCH   1   9
ATOM      9  C   UNL     1       6.318 -15.397   4.328  1.00  0.00     0.000 C 
BRANCH   9  10
ATOM     10  C   UNL     1       7.605 -15.841   5.041  1.00  0.00    -0.000 C 
BRANCH  10  11
ATOM     11  C   UNL     1       7.542 -15.638   6.564  1.00  0.00    -0.000 C 
BRANCH  11  12
ATOM     12  C   UNL     1       8.674 -14.775   7.152  1.00  0.00    -0.000 C 
BRANCH  12  13
ATOM     13  C   UNL     1       8.842 -13.410   6.451  1.00  0.00    -0.003 C 
ATOM     14  C   UNL     1       7.724 -12.429   6.805  1.00  0.00     0.004 C 
ENDBRANCH  12  13
ENDBRANCH  11  12
ENDBRANCH  10  11
ENDBRANCH   9  10
ENDBRANCH   1   9
TORSDOF 10
ENDMDL
MODEL 6
REMARK VINA RESULT:    -4.481      8.709     11.724
REMARK INTER + INTRA:          -7.744
REMARK INTER:                  -7.046
REMARK INTRA:                  -0.698
REMARK UNBOUND:                -0.643
REMARK SMILES CCCCCCCCCCCC(=O)[O-]
REMARK SMILES IDX 7 1 8 2 9 3 10 4 11 5 12 6 13 7 14 8 6 9 5 10 4 11 3 12 2 13
REMARK SMILES IDX 1 14
REMARK H PARENT
REMARK Flexibility Score: inf
ROOT
ATOM      1  C   UNL     1      12.858  -9.356  -3.993  1.00  0.00     0.000 C 
ENDROOT
BRANCH   1   2
ATOM      2  C   UNL     1      12.232 -10.146  -5.151  1.00  0.00     0.000 C 
BRANCH   2   3
ATOM      3  C   UNL     1      12.147  -9.328  -6.450  1.00  0.00     0.000 C 
BRANCH   3   4
ATOM      4  C   UNL     1      11.698 -10.173  -7.654  1.00  0.00     0.006 C 
BRANCH   4   5
ATOM      5  C   UNL     1      10.376  -9.673  -8.252  1.00  0.00     0.053 C 
BRANCH   5   6
ATOM      6  C   UNL     1       9.189 -10.249  -7.544  1.00  0.00     0.041 C 
ATOM      7  O   UNL     1       8.729 -11.370  -7.888  1.00  0.00    -0.550 OA
ATOM      8  O   UNL     1       8.608  -9.564  -6.485  1.00  0.00    -0.550 OA
ENDBRANCH   5   6
ENDBRANCH   4   5
ENDBRANCH   3   4
ENDBRANCH   2   3
ENDBRANCH   1   2
BRANCH   1   9
ATOM      9  C   UNL     1      12.217  -7.969  -3.864  1.00  0.00     0.000 C 
BRANCH   9  10
ATOM     10  C   UNL     1      13.056  -7.059  -2.955  1.00  0.00    -0.000 C 
BRANCH  10  11
ATOM     11  C   UNL     1      14.344  -7.738  -2.458  1.00  0.00    -0.000 C 
BRANCH  11  12
ATOM     12  C   UNL     1      14.466  -7.857  -0.927  1.00  0.00    -0.000 C 
BRANCH  12  13
ATOM     13  C   UNL     1      13.680  -9.045  -0.332  1.00  0.00    -0.003 C 
ATOM     14  C   UNL     1      12.860  -8.648   0.896  1.00  0.00     0.004 C 
ENDBRANCH  12  13
ENDBRANCH  11  12
ENDBRANCH  10  11
ENDBRANCH   9  10
ENDBRANCH   1   9
TORSDOF 10
ENDMDL
MODEL 7
REMARK VINA RESULT:    -4.442      8.431     10.903
REMARK INTER + INTRA:          -7.683
REMARK INTER:                  -7.001
REMARK INTRA:                  -0.681
REMARK UNBOUND:                -0.643
REMARK SMILES CCCCCCCCCCCC(=O)[O-]
REMARK SMILES IDX 7 1 8 2 9 3 10 4 11 5 12 6 13 7 14 8 6 9 5 10 4 11 3 12 2 13
REMARK SMILES IDX 1 14
REMARK H PARENT
REMARK Flexibility Score: inf
ROOT
ATOM      1  C   UNL     1      12.472  -9.006  -3.946  1.00  0.00     0.000 C 
ENDROOT
BRANCH   1   2
ATOM      2  C   UNL     1      12.142  -7.556  -3.562  1.00  0.00     0.000 C 
BRANCH   2   3
ATOM      3  C   UNL     1      13.281  -6.873  -2.786  1.00  0.00     0.000 C 
BRANCH   3   4
ATOM      4  C   UNL     1      14.401  -7.852  -2.397  1.00  0.00     0.006 C 
BRANCH   4   5
ATOM      5  C   UNL     1      14.616  -7.912  -0.878  1.00  0.00     0.053 C 
BRANCH   5   6
ATOM      6  C   UNL     1      13.592  -8.772  -0.204  1.00  0.00     0.041 C 
ATOM      7  O   UNL     1      12.945  -8.330   0.783  1.00  0.00    -0.550 OA
ATOM      8  O   UNL     1      13.329 -10.049  -0.681  1.00  0.00    -0.550 OA
ENDBRANCH   5   6
ENDBRANCH   4   5
ENDBRANCH   3   4
ENDBRANCH   2   3
ENDBRANCH   1   2
BRANCH   1   9
ATOM      9  C   UNL     1      11.550  -9.499  -5.068  1.00  0.00     0.000 C 
BRANCH   9  10
ATOM     10  C   UNL     1      12.206  -9.301  -6.443  1.00  0.00    -0.000 C 
BRANCH  10  11
ATOM     11  C   UNL     1      11.633 -10.242  -7.517  1.00  0.00    -0.000 C 
BRANCH  11  12
ATOM     12  C   UNL     1      10.472  -9.655  -8.342  1.00  0.00    -0.000 C 
BRANCH  12  13
ATOM     13  C   UNL     1       9.075 -10.028  -7.802  1.00  0.00    -0.003 C 
ATOM     14  C   UNL     1       8.933 -11.526  -7.532  1.00  0.00     0.004 C 
ENDBRANCH  12  13
ENDBRANCH  11  12
ENDBRANCH  10  11
ENDBRANCH   9  10
ENDBRANCH   1   9
TORSDOF 10
ENDMDL
MODEL 8
REMARK VINA RESULT:    -4.398      4.222      8.369
REMARK INTER + INTRA:          -7.612
REMARK INTER:                  -6.839
REMARK INTRA:                  -0.773
REMARK UNBOUND:                -0.643
REMARK SMILES CCCCCCCCCCCC(=O)[O-]
REMARK SMILES IDX 7 1 8 2 9 3 10 4 11 5 12 6 13 7 14 8 6 9 5 10 4 11 3 12 2 13
REMARK SMILES IDX 1 14
REMARK H PARENT
REMARK Flexibility Score: inf
ROOT
ATOM      1  C   UNL     1      13.042  -9.745   0.977  1.00  0.00     0.000 C 
ENDROOT
BRANCH   1   2
ATOM      2  C   UNL     1      12.801  -8.458   1.780  1.00  0.00     0.000 C 
BRANCH   2   3
ATOM      3  C   UNL     1      11.824  -8.664   2.950  1.00  0.00     0.000 C 
BRANCH   3   4
ATOM      4  C   UNL     1      12.529  -8.661   4.317  1.00  0.00     0.006 C 
BRANCH   4   5
ATOM      5  C   UNL     1      13.037 -10.055   4.709  1.00  0.00     0.053 C 
BRANCH   5   6
ATOM      6  C   UNL     1      11.972 -11.098   4.566  1.00  0.00     0.041 C 
ATOM      7  O   UNL     1      11.024 -11.154   5.394  1.00  0.00    -0.550 OA
ATOM      8  O   UNL     1      12.007 -11.989   3.501  1.00  0.00    -0.550 OA
ENDBRANCH   5   6
ENDBRANCH   4   5
ENDBRANCH   3   4
ENDBRANCH   2   3
ENDBRANCH   1   2
BRANCH   1   9
ATOM      9  C   UNL     1      13.466  -9.422  -0.461  1.00  0.00     0.000 C 
BRANCH   9  10
ATOM     10  C   UNL     1      14.242  -8.097  -0.521  1.00  0.00    -0.000 C 
BRANCH  10  11
ATOM     11  C   UNL     1      14.555  -7.655  -1.960  1.00  0.00    -0.000 C 
BRANCH  11  12
ATOM     12  C   UNL     1      13.439  -7.936  -2.983  1.00  0.00    -0.000 C 
BRANCH  12  13
ATOM     13  C   UNL     1      12.436  -6.773  -3.144  1.00  0.00    -0.003 C 
ATOM     14  C   UNL     1      11.190  -6.951  -2.276  1.00  0.00     0.004 C 
ENDBRANCH  12  13
ENDBRANCH  11  12
ENDBRANCH  10  11
ENDBRANCH   9  10
ENDBRANCH   1   9
TORSDOF 10
ENDMDL
MODEL 9
REMARK VINA RESULT:    -4.391      3.440      5.552
REMARK INTER + INTRA:          -7.602
REMARK INTER:                  -6.644
REMARK INTRA:                  -0.958
REMARK UNBOUND:                -0.643
REMARK SMILES CCCCCCCCCCCC(=O)[O-]
REMARK SMILES IDX 7 1 8 2 9 3 10 4 11 5 12 6 13 7 14 8 6 9 5 10 4 11 3 12 2 13
REMARK SMILES IDX 1 14
REMARK H PARENT
REMARK Flexibility Score: inf
ROOT
ATOM      1  C   UNL     1       6.679 -15.417   4.068  1.00  0.00     0.000 C 
ENDROOT
BRANCH   1   2
ATOM      2  C   UNL     1       7.043 -15.601   5.548  1.00  0.00     0.000 C 
BRANCH   2   3
ATOM      3  C   UNL     1       8.522 -15.296   5.838  1.00  0.00     0.000 C 
BRANCH   3   4
ATOM      4  C   UNL     1       8.712 -14.432   7.096  1.00  0.00     0.006 C 
BRANCH   4   5
ATOM      5  C   UNL     1       7.952 -13.102   7.006  1.00  0.00     0.053 C 
BRANCH   5   6
ATOM      6  C   UNL     1       8.419 -12.269   5.852  1.00  0.00     0.041 C 
ATOM      7  O   UNL     1       7.621 -11.967   4.925  1.00  0.00    -0.550 OA
ATOM      8  O   UNL     1       9.725 -11.799   5.814  1.00  0.00    -0.550 OA
ENDBRANCH   5   6
ENDBRANCH   4   5
ENDBRANCH   3   4
ENDBRANCH   2   3
ENDBRANCH   1   2
BRANCH   1   9
ATOM      9  C   UNL     1       7.090 -16.644   3.245  1.00  0.00     0.000 C 
BRANCH   9  10
ATOM     10  C   UNL     1       6.702 -17.943   3.965  1.00  0.00    -0.000 C 
BRANCH  10  11
ATOM     11  C   UNL     1       5.917 -18.912   3.065  1.00  0.00    -0.000 C 
BRANCH  11  12
ATOM     12  C   UNL     1       4.417 -19.032   3.393  1.00  0.00    -0.000 C 
BRANCH  12  13
ATOM     13  C   UNL     1       3.587 -17.802   2.966  1.00  0.00    -0.003 C 
ATOM     14  C   UNL     1       3.216 -16.908   4.149  1.00  0.00     0.004 C 
ENDBRANCH  12  13
ENDBRANCH  11  12
ENDBRANCH  10  11
ENDBRANCH   9  10
ENDBRANCH   1   9
TORSDOF 10
ENDMDL
