MODEL 1
REMARK VINA RESULT:    -2.731      0.000      0.000
REMARK INTER + INTRA:          -3.103
REMARK INTER:                  -3.050
REMARK INTRA:                  -0.053
REMARK UNBOUND:                -0.053
REMARK SMILES CCCC(=O)[O-]
REMARK SMILES IDX 3 1 4 2 5 3 6 4 2 5 1 6
REMARK H PARENT
REMARK Flexibility Score: inf
ROOT
ATOM      1  C   UNL     1    -109.583  42.873  -0.710  1.00  0.00     0.052 C 
ENDROOT
BRANCH   1   2
ATOM      2  C   UNL     1    -108.172  42.940  -0.211  1.00  0.00     0.041 C 
ATOM      3  O   UNL     1    -107.843  43.800   0.648  1.00  0.00    -0.550 OA
ATOM      4  O   UNL     1    -107.228  42.030  -0.671  1.00  0.00    -0.550 OA
ENDBRANCH   1   2
BRANCH   1   5
ATOM      5  C   UNL     1    -110.155  44.270  -0.983  1.00  0.00     0.003 C 
ATOM      6  C   UNL     1    -109.599  44.884  -2.267  1.00  0.00     0.004 C 
ENDBRANCH   1   5
TORSDOF 2
ENDMDL
MODEL 2
REMARK VINA RESULT:    -2.726      0.079      1.324
REMARK INTER + INTRA:          -3.097
REMARK INTER:                  -3.038
REMARK INTRA:                  -0.059
REMARK UNBOUND:                -0.053
REMARK SMILES CCCC(=O)[O-]
REMARK SMILES IDX 3 1 4 2 5 3 6 4 2 5 1 6
REMARK H PARENT
REMARK Flexibility Score: inf
ROOT
ATOM      1  C   UNL     1    -109.562  42.845  -0.711  1.00  0.00     0.052 C 
ENDROOT
BRANCH   1   2
ATOM      2  C   UNL     1    -108.153  42.910  -0.205  1.00  0.00     0.041 C 
ATOM      3  O   UNL     1    -107.290  42.095  -0.626  1.00  0.00    -0.550 OA
ATOM      4  O   UNL     1    -107.785  43.892   0.706  1.00  0.00    -0.550 OA
ENDBRANCH   1   2
BRANCH   1   5
ATOM      5  C   UNL     1    -110.130  44.243  -0.989  1.00  0.00     0.003 C 
ATOM      6  C   UNL     1    -109.513  44.884  -2.232  1.00  0.00     0.004 C 
ENDBRANCH   1   5
TORSDOF 2
ENDMDL
MODEL 3
REMARK VINA RESULT:    -2.605     14.007     14.802
REMARK INTER + INTRA:          -2.963
REMARK INTER:                  -2.955
REMARK INTRA:                  -0.007
REMARK UNBOUND:                -0.053
REMARK SMILES CCCC(=O)[O-]
REMARK SMILES IDX 3 1 4 2 5 3 6 4 2 5 1 6
REMARK H PARENT
REMARK Flexibility Score: inf
ROOT
ATOM      1  C   UNL     1    -107.057  29.341   3.206  1.00  0.00     0.052 C 
ENDROOT
BRANCH   1   2
ATOM      2  C   UNL     1    -105.606  28.996   3.334  1.00  0.00     0.041 C 
ATOM      3  O   UNL     1    -104.725  29.795   2.919  1.00  0.00    -0.550 OA
ATOM      4  O   UNL     1    -105.224  27.808   3.944  1.00  0.00    -0.550 OA
ENDBRANCH   1   2
BRANCH   1   5
ATOM      5  C   UNL     1    -107.364  30.013   1.861  1.00  0.00     0.003 C 
ATOM      6  C   UNL     1    -108.844  29.923   1.491  1.00  0.00     0.004 C 
ENDBRANCH   1   5
TORSDOF 2
ENDMDL
MODEL 4
REMARK VINA RESULT:    -2.503     13.438     13.954
REMARK INTER + INTRA:          -2.848
REMARK INTER:                  -2.810
REMARK INTRA:                  -0.038
REMARK UNBOUND:                -0.053
REMARK SMILES CCCC(=O)[O-]
REMARK SMILES IDX 3 1 4 2 5 3 6 4 2 5 1 6
REMARK H PARENT
REMARK Flexibility Score: inf
ROOT
ATOM      1  C   UNL     1    -106.755  29.383   2.796  1.00  0.00     0.052 C 
ENDROOT
BRANCH   1   2
ATOM      2  C   UNL     1    -105.674  30.337   3.200  1.00  0.00     0.041 C 
ATOM      3  O   UNL     1    -105.946  31.546   3.423  1.00  0.00    -0.550 OA
ATOM      4  O   UNL     1    -104.371  29.883   3.364  1.00  0.00    -0.550 OA
ENDBRANCH   1   2
BRANCH   1   5
ATOM      5  C   UNL     1    -107.708  30.007   1.768  1.00  0.00     0.003 C 
ATOM      6  C   UNL     1    -109.136  30.127   2.297  1.00  0.00     0.004 C 
ENDBRANCH   1   5
TORSDOF 2
ENDMDL
MODEL 5
REMARK VINA RESULT:    -2.499      2.232      3.055
REMARK INTER + INTRA:          -2.844
REMARK INTER:                  -2.810
REMARK INTRA:                  -0.034
REMARK UNBOUND:                -0.053
REMARK SMILES CCCC(=O)[O-]
REMARK SMILES IDX 3 1 4 2 5 3 6 4 2 5 1 6
REMARK H PARENT
REMARK Flexibility Score: inf
ROOT
ATOM      1  C   UNL     1    -109.749  42.893  -0.674  1.00  0.00     0.052 C 
ENDROOT
BRANCH   1   2
ATOM      2  C   UNL     1    -110.139  44.238  -1.204  1.00  0.00     0.041 C 
ATOM      3  O   UNL     1    -111.020  44.920  -0.618  1.00  0.00    -0.550 OA
ATOM      4  O   UNL     1    -109.504  44.754  -2.327  1.00  0.00    -0.550 OA
ENDBRANCH   1   2
BRANCH   1   5
ATOM      5  C   UNL     1    -108.394  42.936   0.045  1.00  0.00     0.003 C 
ATOM      6  C   UNL     1    -107.320  42.139  -0.692  1.00  0.00     0.004 C 
ENDBRANCH   1   5
TORSDOF 2
ENDMDL
MODEL 6
REMARK VINA RESULT:    -2.467     13.362     14.067
REMARK INTER + INTRA:          -2.808
REMARK INTER:                  -2.752
REMARK INTRA:                  -0.056
REMARK UNBOUND:                -0.053
REMARK SMILES CCCC(=O)[O-]
REMARK SMILES IDX 3 1 4 2 5 3 6 4 2 5 1 6
REMARK H PARENT
REMARK Flexibility Score: inf
ROOT
ATOM      1  C   UNL     1    -107.961  29.776   1.796  1.00  0.00     0.052 C 
ENDROOT
BRANCH   1   2
ATOM      2  C   UNL     1    -106.722  30.039   2.596  1.00  0.00     0.041 C 
ATOM      3  O   UNL     1    -105.867  29.129   2.757  1.00  0.00    -0.550 OA
ATOM      4  O   UNL     1    -106.496  31.299   3.135  1.00  0.00    -0.550 OA
ENDBRANCH   1   2
BRANCH   1   5
ATOM      5  C   UNL     1    -109.212  30.331   2.488  1.00  0.00     0.003 C 
ATOM      6  C   UNL     1    -109.494  29.638   3.820  1.00  0.00     0.004 C 
ENDBRANCH   1   5
TORSDOF 2
ENDMDL
MODEL 7
REMARK VINA RESULT:    -2.461      1.132      1.466
REMARK INTER + INTRA:          -2.802
REMARK INTER:                  -2.791
REMARK INTRA:                  -0.011
REMARK UNBOUND:                -0.053
REMARK SMILES CCCC(=O)[O-]
REMARK SMILES IDX 3 1 4 2 5 3 6 4 2 5 1 6
REMARK H PARENT
REMARK Flexibility Score: inf
ROOT
ATOM      1  C   UNL     1    -109.838  42.849  -0.750  1.00  0.00     0.052 C 
ENDROOT
BRANCH   1   2
ATOM      2  C   UNL     1    -108.480  43.341  -0.355  1.00  0.00     0.041 C 
ATOM      3  O   UNL     1    -108.290  44.565  -0.128  1.00  0.00    -0.550 OA
ATOM      4  O   UNL     1    -107.431  42.442  -0.205  1.00  0.00    -0.550 OA
ENDBRANCH   1   2
BRANCH   1   5
ATOM      5  C   UNL     1    -110.823  44.007  -0.958  1.00  0.00     0.003 C 
ATOM      6  C   UNL     1    -112.261  43.521  -1.133  1.00  0.00     0.004 C 
ENDBRANCH   1   5
TORSDOF 2
ENDMDL
MODEL 8
REMARK VINA RESULT:    -2.311     12.269     12.908
REMARK INTER + INTRA:          -2.634
REMARK INTER:                  -2.614
REMARK INTRA:                  -0.020
REMARK UNBOUND:                -0.053
REMARK SMILES CCCC(=O)[O-]
REMARK SMILES IDX 3 1 4 2 5 3 6 4 2 5 1 6
REMARK H PARENT
REMARK Flexibility Score: inf
ROOT
ATOM      1  C   UNL     1    -106.771  30.647   3.043  1.00  0.00     0.052 C 
ENDROOT
BRANCH   1   2
ATOM      2  C   UNL     1    -106.370  32.033   3.445  1.00  0.00     0.041 C 
ATOM      3  O   UNL     1    -105.159  32.378   3.409  1.00  0.00    -0.550 OA
ATOM      4  O   UNL     1    -107.337  32.955   3.826  1.00  0.00    -0.550 OA
ENDBRANCH   1   2
BRANCH   1   5
ATOM      5  C   UNL     1    -108.287  30.533   2.834  1.00  0.00     0.003 C 
ATOM      6  C   UNL     1    -108.643  29.944   1.470  1.00  0.00     0.004 C 
ENDBRANCH   1   5
TORSDOF 2
ENDMDL
MODEL 9
REMARK VINA RESULT:    -2.295     13.858     14.491
REMARK INTER + INTRA:          -2.616
REMARK INTER:                  -2.549
REMARK INTRA:                  -0.067
REMARK UNBOUND:                -0.053
REMARK SMILES CCCC(=O)[O-]
REMARK SMILES IDX 3 1 4 2 5 3 6 4 2 5 1 6
REMARK H PARENT
REMARK Flexibility Score: inf
ROOT
ATOM      1  C   UNL     1    -115.022  33.830  -8.550  1.00  0.00     0.052 C 
ENDROOT
BRANCH   1   2
ATOM      2  C   UNL     1    -115.883  33.786  -9.775  1.00  0.00     0.041 C 
ATOM      3  O   UNL     1    -115.654  34.562 -10.739  1.00  0.00    -0.550 OA
ATOM      4  O   UNL     1    -116.917  32.863  -9.865  1.00  0.00    -0.550 OA
ENDBRANCH   1   2
BRANCH   1   5
ATOM      5  C   UNL     1    -115.086  35.199  -7.860  1.00  0.00     0.003 C 
ATOM      6  C   UNL     1    -116.440  35.453  -7.199  1.00  0.00     0.004 C 
ENDBRANCH   1   5
TORSDOF 2
ENDMDL
