MODEL 1
REMARK VINA RESULT:    -7.759      0.000      0.000
REMARK INTER + INTRA:         -10.240
REMARK INTER:                  -9.800
REMARK INTRA:                  -0.439
REMARK UNBOUND:                -0.439
REMARK SMILES COc1cc(O)c2c(=O)c(OC)c(-c3ccc(O)c(O)c3)oc2c1
REMARK SMILES IDX 3 1 4 2 5 3 7 4 23 5 24 6 22 7 13 8 10 9 8 10 9 11 2 12 1 13
REMARK SMILES IDX 6 14 14 16 21 17 15 18 19 19 16 20 17 21 20 22 18 24 11 26
REMARK SMILES IDX 12 27
REMARK H PARENT 6 15 20 23 18 25
REMARK Flexibility Score: inf
ROOT
ATOM      1  C   UNL     1      16.222  14.304  28.364  1.00  0.00     0.126 A 
ATOM      2  C   UNL     1      16.412  13.078  27.703  1.00  0.00     0.093 A 
ATOM      3  C   UNL     1      17.073  12.016  28.337  1.00  0.00     0.134 A 
ATOM      4  C   UNL     1      17.556  12.174  29.659  1.00  0.00     0.111 A 
ATOM      5  C   UNL     1      17.357  13.408  30.316  1.00  0.00     0.146 A 
ATOM      6  C   UNL     1      16.699  14.457  29.668  1.00  0.00     0.094 A 
ATOM      7  O   UNL     1      17.790  13.589  31.557  1.00  0.00    -0.452 OA
ATOM      8  C   UNL     1      18.421  12.653  32.255  1.00  0.00     0.180 A 
ATOM      9  C   UNL     1      18.694  11.396  31.676  1.00  0.00     0.210 A 
ATOM     10  C   UNL     1      18.237  11.156  30.359  1.00  0.00     0.239 A 
ATOM     11  O   UNL     1      18.442  10.041  29.809  1.00  0.00    -0.285 OA
ENDROOT
BRANCH   1  12
ATOM     12  O   UNL     1      15.568  15.390  27.764  1.00  0.00    -0.496 OA
ATOM     13  C   UNL     1      14.159  15.600  27.798  1.00  0.00     0.278 C 
ENDBRANCH   1  12
BRANCH   3  14
ATOM     14  O   UNL     1      17.245  10.814  27.649  1.00  0.00    -0.507 OA
ATOM     15  H   UNL     1      17.900  10.727  26.881  1.00  0.00     0.293 HD
ENDBRANCH   3  14
BRANCH   8  16
ATOM     16  C   UNL     1      18.836  12.985  33.638  1.00  0.00     0.025 A 
ATOM     17  C   UNL     1      20.150  13.394  33.928  1.00  0.00     0.062 A 
ATOM     18  C   UNL     1      17.919  12.833  34.690  1.00  0.00     0.016 A 
ATOM     19  C   UNL     1      20.530  13.681  35.247  1.00  0.00     0.158 A 
ATOM     20  C   UNL     1      18.297  13.120  36.004  1.00  0.00     0.051 A 
ATOM     21  C   UNL     1      19.600  13.548  36.286  1.00  0.00     0.157 A 
BRANCH  19  22
ATOM     22  O   UNL     1      21.830  14.094  35.533  1.00  0.00    -0.504 OA
ATOM     23  H   UNL     1      22.606  13.442  35.528  1.00  0.00     0.293 HD
ENDBRANCH  19  22
BRANCH  21  24
ATOM     24  O   UNL     1      19.981  13.838  37.596  1.00  0.00    -0.504 OA
ATOM     25  H   UNL     1      20.273  13.108  38.236  1.00  0.00     0.293 HD
ENDBRANCH  21  24
ENDBRANCH   8  16
BRANCH   9  26
ATOM     26  O   UNL     1      19.430  10.460  32.430  1.00  0.00    -0.490 OA
ATOM     27  C   UNL     1      20.796  10.106  32.244  1.00  0.00     0.278 C 
ENDBRANCH   9  26
TORSDOF 6
ENDMDL
MODEL 2
REMARK VINA RESULT:    -7.732      1.667      7.044
REMARK INTER + INTRA:         -10.205
REMARK INTER:                  -9.739
REMARK INTRA:                  -0.466
REMARK UNBOUND:                -0.439
REMARK SMILES COc1cc(O)c2c(=O)c(OC)c(-c3ccc(O)c(O)c3)oc2c1
REMARK SMILES IDX 3 1 4 2 5 3 7 4 23 5 24 6 22 7 13 8 10 9 8 10 9 11 2 12 1 13
REMARK SMILES IDX 6 14 14 16 21 17 15 18 19 19 16 20 17 21 20 22 18 24 11 26
REMARK SMILES IDX 12 27
REMARK H PARENT 6 15 20 23 18 25
REMARK Flexibility Score: inf
ROOT
ATOM      1  C   UNL     1      18.282  12.500  34.789  1.00  0.00     0.126 A 
ATOM      2  C   UNL     1      18.655  11.164  34.563  1.00  0.00     0.093 A 
ATOM      3  C   UNL     1      18.353  10.529  33.350  1.00  0.00     0.134 A 
ATOM      4  C   UNL     1      17.664  11.238  32.336  1.00  0.00     0.111 A 
ATOM      5  C   UNL     1      17.295  12.580  32.570  1.00  0.00     0.146 A 
ATOM      6  C   UNL     1      17.602  13.197  33.786  1.00  0.00     0.094 A 
ATOM      7  O   UNL     1      16.654  13.277  31.641  1.00  0.00    -0.452 OA
ATOM      8  C   UNL     1      16.323  12.781  30.454  1.00  0.00     0.180 A 
ATOM      9  C   UNL     1      16.621  11.440  30.135  1.00  0.00     0.210 A 
ATOM     10  C   UNL     1      17.316  10.665  31.094  1.00  0.00     0.239 A 
ATOM     11  O   UNL     1      17.620   9.468  30.844  1.00  0.00    -0.285 OA
ENDROOT
BRANCH   1  12
ATOM     12  O   UNL     1      18.564  13.170  35.988  1.00  0.00    -0.496 OA
ATOM     13  C   UNL     1      19.755  13.912  36.234  1.00  0.00     0.278 C 
ENDBRANCH   1  12
BRANCH   3  14
ATOM     14  O   UNL     1      18.739   9.201  33.162  1.00  0.00    -0.507 OA
ATOM     15  H   UNL     1      18.122   8.520  32.736  1.00  0.00     0.293 HD
ENDBRANCH   3  14
BRANCH   8  16
ATOM     16  C   UNL     1      15.622  13.675  29.503  1.00  0.00     0.025 A 
ATOM     17  C   UNL     1      14.220  13.680  29.404  1.00  0.00     0.062 A 
ATOM     18  C   UNL     1      16.372  14.491  28.641  1.00  0.00     0.016 A 
ATOM     19  C   UNL     1      13.576  14.517  28.481  1.00  0.00     0.158 A 
ATOM     20  C   UNL     1      15.731  15.326  27.722  1.00  0.00     0.051 A 
ATOM     21  C   UNL     1      14.333  15.344  27.641  1.00  0.00     0.157 A 
BRANCH  19  22
ATOM     22  O   UNL     1      12.185  14.528  28.388  1.00  0.00    -0.504 OA
ATOM     23  H   UNL     1      11.711  14.916  27.579  1.00  0.00     0.293 HD
ENDBRANCH  19  22
BRANCH  21  24
ATOM     24  O   UNL     1      13.690  16.177  26.727  1.00  0.00    -0.504 OA
ATOM     25  H   UNL     1      12.749  15.981  26.403  1.00  0.00     0.293 HD
ENDBRANCH  21  24
ENDBRANCH   8  16
BRANCH   9  26
ATOM     26  O   UNL     1      16.186  10.936  28.893  1.00  0.00    -0.490 OA
ATOM     27  C   UNL     1      15.045  10.117  28.662  1.00  0.00     0.278 C 
ENDBRANCH   9  26
TORSDOF 6
ENDMDL
MODEL 3
REMARK VINA RESULT:    -7.672     10.877     13.564
REMARK INTER + INTRA:         -10.129
REMARK INTER:                  -9.681
REMARK INTRA:                  -0.449
REMARK UNBOUND:                -0.439
REMARK SMILES COc1cc(O)c2c(=O)c(OC)c(-c3ccc(O)c(O)c3)oc2c1
REMARK SMILES IDX 3 1 4 2 5 3 7 4 23 5 24 6 22 7 13 8 10 9 8 10 9 11 2 12 1 13
REMARK SMILES IDX 6 14 14 16 21 17 15 18 19 19 16 20 17 21 20 22 18 24 11 26
REMARK SMILES IDX 12 27
REMARK H PARENT 6 15 20 23 18 25
REMARK Flexibility Score: inf
ROOT
ATOM      1  C   UNL     1      18.561  23.600  34.418  1.00  0.00     0.126 A 
ATOM      2  C   UNL     1      18.579  24.948  34.813  1.00  0.00     0.093 A 
ATOM      3  C   UNL     1      17.386  25.633  35.084  1.00  0.00     0.134 A 
ATOM      4  C   UNL     1      16.144  24.962  34.962  1.00  0.00     0.111 A 
ATOM      5  C   UNL     1      16.136  23.607  34.568  1.00  0.00     0.146 A 
ATOM      6  C   UNL     1      17.335  22.941  34.299  1.00  0.00     0.094 A 
ATOM      7  O   UNL     1      14.992  22.946  34.450  1.00  0.00    -0.452 OA
ATOM      8  C   UNL     1      13.805  23.490  34.687  1.00  0.00     0.180 A 
ATOM      9  C   UNL     1      13.706  24.847  35.058  1.00  0.00     0.210 A 
ATOM     10  C   UNL     1      14.903  25.586  35.209  1.00  0.00     0.239 A 
ATOM     11  O   UNL     1      14.863  26.797  35.557  1.00  0.00    -0.285 OA
ENDROOT
BRANCH   1  12
ATOM     12  O   UNL     1      19.731  22.880  34.136  1.00  0.00    -0.496 OA
ATOM     13  C   UNL     1      20.476  22.144  35.103  1.00  0.00     0.278 C 
ENDBRANCH   1  12
BRANCH   3  14
ATOM     14  O   UNL     1      17.443  26.972  35.473  1.00  0.00    -0.507 OA
ATOM     15  H   UNL     1      17.299  27.727  34.813  1.00  0.00     0.293 HD
ENDBRANCH   3  14
BRANCH   8  16
ATOM     16  C   UNL     1      12.608  22.631  34.531  1.00  0.00     0.025 A 
ATOM     17  C   UNL     1      11.856  22.636  33.343  1.00  0.00     0.062 A 
ATOM     18  C   UNL     1      12.179  21.841  35.610  1.00  0.00     0.016 A 
ATOM     19  C   UNL     1      10.711  21.833  33.224  1.00  0.00     0.158 A 
ATOM     20  C   UNL     1      11.040  21.041  35.491  1.00  0.00     0.051 A 
ATOM     21  C   UNL     1      10.306  21.031  34.298  1.00  0.00     0.157 A 
BRANCH  19  22
ATOM     22  O   UNL     1       9.970  21.831  32.043  1.00  0.00    -0.504 OA
ATOM     23  H   UNL     1       8.998  21.544  32.029  1.00  0.00     0.293 HD
ENDBRANCH  19  22
BRANCH  21  24
ATOM     24  O   UNL     1       9.170  20.232  34.174  1.00  0.00    -0.504 OA
ATOM     25  H   UNL     1       8.558  20.303  33.369  1.00  0.00     0.293 HD
ENDBRANCH  21  24
ENDBRANCH   8  16
BRANCH   9  26
ATOM     26  O   UNL     1      12.421  25.400  35.229  1.00  0.00    -0.490 OA
ATOM     27  C   UNL     1      11.749  26.279  34.334  1.00  0.00     0.278 C 
ENDBRANCH   9  26
TORSDOF 6
ENDMDL
MODEL 4
REMARK VINA RESULT:    -6.993     11.265     13.039
REMARK INTER + INTRA:          -9.272
REMARK INTER:                  -8.962
REMARK INTRA:                  -0.309
REMARK UNBOUND:                -0.439
REMARK SMILES COc1cc(O)c2c(=O)c(OC)c(-c3ccc(O)c(O)c3)oc2c1
REMARK SMILES IDX 3 1 4 2 5 3 7 4 23 5 24 6 22 7 13 8 10 9 8 10 9 11 2 12 1 13
REMARK SMILES IDX 6 14 14 16 21 17 15 18 19 19 16 20 17 21 20 22 18 24 11 26
REMARK SMILES IDX 12 27
REMARK H PARENT 6 15 20 23 18 25
REMARK Flexibility Score: inf
ROOT
ATOM      1  C   UNL     1      11.380  22.483  35.320  1.00  0.00     0.126 A 
ATOM      2  C   UNL     1      10.920  23.663  35.929  1.00  0.00     0.093 A 
ATOM      3  C   UNL     1      11.820  24.664  36.325  1.00  0.00     0.134 A 
ATOM      4  C   UNL     1      13.209  24.488  36.111  1.00  0.00     0.111 A 
ATOM      5  C   UNL     1      13.661  23.301  35.497  1.00  0.00     0.146 A 
ATOM      6  C   UNL     1      12.750  22.313  35.110  1.00  0.00     0.094 A 
ATOM      7  O   UNL     1      14.954  23.105  35.274  1.00  0.00    -0.452 OA
ATOM      8  C   UNL     1      15.893  23.985  35.601  1.00  0.00     0.180 A 
ATOM      9  C   UNL     1      15.545  25.190  36.247  1.00  0.00     0.210 A 
ATOM     10  C   UNL     1      14.175  25.444  36.490  1.00  0.00     0.239 A 
ATOM     11  O   UNL     1      13.817  26.516  37.048  1.00  0.00    -0.285 OA
ENDROOT
BRANCH   1  12
ATOM     12  O   UNL     1      10.513  21.459  34.911  1.00  0.00    -0.496 OA
ATOM     13  C   UNL     1      10.658  20.716  33.704  1.00  0.00     0.278 C 
ENDBRANCH   1  12
BRANCH   3  14
ATOM     14  O   UNL     1      11.327  25.822  36.927  1.00  0.00    -0.507 OA
ATOM     15  H   UNL     1      11.720  26.186  37.787  1.00  0.00     0.293 HD
ENDBRANCH   3  14
BRANCH   8  16
ATOM     16  C   UNL     1      17.299  23.645  35.281  1.00  0.00     0.025 A 
ATOM     17  C   UNL     1      18.064  24.443  34.412  1.00  0.00     0.062 A 
ATOM     18  C   UNL     1      17.863  22.472  35.807  1.00  0.00     0.016 A 
ATOM     19  C   UNL     1      19.386  24.091  34.103  1.00  0.00     0.158 A 
ATOM     20  C   UNL     1      19.180  22.121  35.500  1.00  0.00     0.051 A 
ATOM     21  C   UNL     1      19.946  22.930  34.651  1.00  0.00     0.157 A 
BRANCH  19  22
ATOM     22  O   UNL     1      20.147  24.886  33.248  1.00  0.00    -0.504 OA
ATOM     23  H   UNL     1      19.727  25.376  32.466  1.00  0.00     0.293 HD
ENDBRANCH  19  22
BRANCH  21  24
ATOM     24  O   UNL     1      21.261  22.585  34.344  1.00  0.00    -0.504 OA
ATOM     25  H   UNL     1      22.029  23.225  34.510  1.00  0.00     0.293 HD
ENDBRANCH  21  24
ENDBRANCH   8  16
BRANCH   9  26
ATOM     26  O   UNL     1      16.582  26.060  36.639  1.00  0.00    -0.490 OA
ATOM     27  C   UNL     1      17.211  26.109  37.915  1.00  0.00     0.278 C 
ENDBRANCH   9  26
TORSDOF 6
ENDMDL
MODEL 5
REMARK VINA RESULT:    -6.846      2.311      4.139
REMARK INTER + INTRA:          -9.086
REMARK INTER:                  -8.614
REMARK INTRA:                  -0.472
REMARK UNBOUND:                -0.439
REMARK SMILES COc1cc(O)c2c(=O)c(OC)c(-c3ccc(O)c(O)c3)oc2c1
REMARK SMILES IDX 3 1 4 2 5 3 7 4 23 5 24 6 22 7 13 8 10 9 8 10 9 11 2 12 1 13
REMARK SMILES IDX 6 14 14 16 21 17 15 18 19 19 16 20 17 21 20 22 18 24 11 26
REMARK SMILES IDX 12 27
REMARK H PARENT 6 15 20 23 18 25
REMARK Flexibility Score: inf
ROOT
ATOM      1  C   UNL     1      16.983  13.130  25.696  1.00  0.00     0.126 A 
ATOM      2  C   UNL     1      16.104  14.176  26.024  1.00  0.00     0.093 A 
ATOM      3  C   UNL     1      15.814  14.478  27.362  1.00  0.00     0.134 A 
ATOM      4  C   UNL     1      16.413  13.723  28.401  1.00  0.00     0.111 A 
ATOM      5  C   UNL     1      17.297  12.677  28.062  1.00  0.00     0.146 A 
ATOM      6  C   UNL     1      17.572  12.388  26.723  1.00  0.00     0.094 A 
ATOM      7  O   UNL     1      17.881  11.953  29.008  1.00  0.00    -0.452 OA
ATOM      8  C   UNL     1      17.686  12.154  30.307  1.00  0.00     0.180 A 
ATOM      9  C   UNL     1      16.797  13.156  30.746  1.00  0.00     0.210 A 
ATOM     10  C   UNL     1      16.164  13.961  29.769  1.00  0.00     0.239 A 
ATOM     11  O   UNL     1      15.376  14.881  30.117  1.00  0.00    -0.285 OA
ENDROOT
BRANCH   1  12
ATOM     12  O   UNL     1      17.298  12.797  24.371  1.00  0.00    -0.496 OA
ATOM     13  C   UNL     1      18.602  12.447  23.917  1.00  0.00     0.278 C 
ENDBRANCH   1  12
BRANCH   3  14
ATOM     14  O   UNL     1      14.935  15.523  27.649  1.00  0.00    -0.507 OA
ATOM     15  H   UNL     1      14.579  15.680  28.585  1.00  0.00     0.293 HD
ENDBRANCH   3  14
BRANCH   8  16
ATOM     16  C   UNL     1      18.415  11.282  31.257  1.00  0.00     0.025 A 
ATOM     17  C   UNL     1      19.601  11.710  31.879  1.00  0.00     0.062 A 
ATOM     18  C   UNL     1      17.948   9.979  31.498  1.00  0.00     0.016 A 
ATOM     19  C   UNL     1      20.289  10.860  32.757  1.00  0.00     0.158 A 
ATOM     20  C   UNL     1      18.633   9.133  32.373  1.00  0.00     0.051 A 
ATOM     21  C   UNL     1      19.802   9.571  33.008  1.00  0.00     0.157 A 
BRANCH  19  22
ATOM     22  O   UNL     1      21.461  11.287  33.380  1.00  0.00    -0.504 OA
ATOM     23  H   UNL     1      21.751  12.258  33.355  1.00  0.00     0.293 HD
ENDBRANCH  19  22
BRANCH  21  24
ATOM     24  O   UNL     1      20.487   8.730  33.884  1.00  0.00    -0.504 OA
ATOM     25  H   UNL     1      19.995   8.103  34.510  1.00  0.00     0.293 HD
ENDBRANCH  21  24
ENDBRANCH   8  16
BRANCH   9  26
ATOM     26  O   UNL     1      16.567  13.285  32.131  1.00  0.00    -0.490 OA
ATOM     27  C   UNL     1      17.152  14.246  33.003  1.00  0.00     0.278 C 
ENDBRANCH   9  26
TORSDOF 6
ENDMDL
MODEL 6
REMARK VINA RESULT:    -6.762      2.366      7.664
REMARK INTER + INTRA:          -8.981
REMARK INTER:                  -8.499
REMARK INTRA:                  -0.482
REMARK UNBOUND:                -0.439
REMARK SMILES COc1cc(O)c2c(=O)c(OC)c(-c3ccc(O)c(O)c3)oc2c1
REMARK SMILES IDX 3 1 4 2 5 3 7 4 23 5 24 6 22 7 13 8 10 9 8 10 9 11 2 12 1 13
REMARK SMILES IDX 6 14 14 16 21 17 15 18 19 19 16 20 17 21 20 22 18 24 11 26
REMARK SMILES IDX 12 27
REMARK H PARENT 6 15 20 23 18 25
REMARK Flexibility Score: inf
ROOT
ATOM      1  C   UNL     1      18.185   9.894  35.947  1.00  0.00     0.126 A 
ATOM      2  C   UNL     1      18.597  11.144  36.440  1.00  0.00     0.093 A 
ATOM      3  C   UNL     1      18.620  12.271  35.606  1.00  0.00     0.134 A 
ATOM      4  C   UNL     1      18.224  12.155  34.251  1.00  0.00     0.111 A 
ATOM      5  C   UNL     1      17.810  10.896  33.766  1.00  0.00     0.146 A 
ATOM      6  C   UNL     1      17.795   9.782  34.610  1.00  0.00     0.094 A 
ATOM      7  O   UNL     1      17.426  10.751  32.505  1.00  0.00    -0.452 OA
ATOM      8  C   UNL     1      17.401  11.749  31.629  1.00  0.00     0.180 A 
ATOM      9  C   UNL     1      17.825  13.039  32.009  1.00  0.00     0.210 A 
ATOM     10  C   UNL     1      18.229  13.241  33.349  1.00  0.00     0.239 A 
ATOM     11  O   UNL     1      18.598  14.382  33.738  1.00  0.00    -0.285 OA
ENDROOT
BRANCH   1  12
ATOM     12  O   UNL     1      18.149   8.742  36.748  1.00  0.00    -0.496 OA
ATOM     13  C   UNL     1      17.024   7.875  36.860  1.00  0.00     0.278 C 
ENDBRANCH   1  12
BRANCH   3  14
ATOM     14  O   UNL     1      19.035  13.496  36.130  1.00  0.00    -0.507 OA
ATOM     15  H   UNL     1      18.382  14.250  36.309  1.00  0.00     0.293 HD
ENDBRANCH   3  14
BRANCH   8  16
ATOM     16  C   UNL     1      16.935  11.450  30.255  1.00  0.00     0.025 A 
ATOM     17  C   UNL     1      15.574  11.532  29.911  1.00  0.00     0.062 A 
ATOM     18  C   UNL     1      17.860  11.019  29.290  1.00  0.00     0.016 A 
ATOM     19  C   UNL     1      15.150  11.221  28.610  1.00  0.00     0.158 A 
ATOM     20  C   UNL     1      17.438  10.710  27.994  1.00  0.00     0.051 A 
ATOM     21  C   UNL     1      16.085  10.814  27.649  1.00  0.00     0.157 A 
BRANCH  19  22
ATOM     22  O   UNL     1      13.802  11.310  28.267  1.00  0.00    -0.504 OA
ATOM     23  H   UNL     1      13.509  11.633  27.351  1.00  0.00     0.293 HD
ENDBRANCH  19  22
BRANCH  21  24
ATOM     24  O   UNL     1      15.660  10.510  26.357  1.00  0.00    -0.504 OA
ATOM     25  H   UNL     1      16.171   9.860  25.771  1.00  0.00     0.293 HD
ENDBRANCH  21  24
ENDBRANCH   8  16
BRANCH   9  26
ATOM     26  O   UNL     1      17.849  14.050  31.026  1.00  0.00    -0.490 OA
ATOM     27  C   UNL     1      16.808  14.975  30.735  1.00  0.00     0.278 C 
ENDBRANCH   9  26
TORSDOF 6
ENDMDL
MODEL 7
REMARK VINA RESULT:    -6.758     12.067     13.413
REMARK INTER + INTRA:          -8.975
REMARK INTER:                  -8.477
REMARK INTRA:                  -0.499
REMARK UNBOUND:                -0.439
REMARK SMILES COc1cc(O)c2c(=O)c(OC)c(-c3ccc(O)c(O)c3)oc2c1
REMARK SMILES IDX 3 1 4 2 5 3 7 4 23 5 24 6 22 7 13 8 10 9 8 10 9 11 2 12 1 13
REMARK SMILES IDX 6 14 14 16 21 17 15 18 19 19 16 20 17 21 20 22 18 24 11 26
REMARK SMILES IDX 12 27
REMARK H PARENT 6 15 20 23 18 25
REMARK Flexibility Score: inf
ROOT
ATOM      1  C   UNL     1      10.362  24.080  36.752  1.00  0.00     0.126 A 
ATOM      2  C   UNL     1      10.358  22.730  36.362  1.00  0.00     0.093 A 
ATOM      3  C   UNL     1      11.549  22.085  35.998  1.00  0.00     0.134 A 
ATOM      4  C   UNL     1      12.773  22.797  36.023  1.00  0.00     0.111 A 
ATOM      5  C   UNL     1      12.767  24.152  36.419  1.00  0.00     0.146 A 
ATOM      6  C   UNL     1      11.571  24.780  36.776  1.00  0.00     0.094 A 
ATOM      7  O   UNL     1      13.896  24.848  36.460  1.00  0.00    -0.452 OA
ATOM      8  C   UNL     1      15.081  24.338  36.144  1.00  0.00     0.180 A 
ATOM      9  C   UNL     1      15.187  23.002  35.707  1.00  0.00     0.210 A 
ATOM     10  C   UNL     1      14.009  22.219  35.662  1.00  0.00     0.239 A 
ATOM     11  O   UNL     1      14.059  21.014  35.296  1.00  0.00    -0.285 OA
ENDROOT
BRANCH   1  12
ATOM     12  O   UNL     1       9.193  24.762  37.122  1.00  0.00    -0.496 OA
ATOM     13  C   UNL     1       8.597  25.808  36.361  1.00  0.00     0.278 C 
ENDBRANCH   1  12
BRANCH   3  14
ATOM     14  O   UNL     1      11.506  20.743  35.616  1.00  0.00    -0.507 OA
ATOM     15  H   UNL     1      11.204  20.015  36.253  1.00  0.00     0.293 HD
ENDBRANCH   3  14
BRANCH   8  16
ATOM     16  C   UNL     1      16.263  25.224  36.249  1.00  0.00     0.025 A 
ATOM     17  C   UNL     1      17.018  25.298  37.433  1.00  0.00     0.062 A 
ATOM     18  C   UNL     1      16.605  26.052  35.167  1.00  0.00     0.016 A 
ATOM     19  C   UNL     1      18.120  26.162  37.521  1.00  0.00     0.158 A 
ATOM     20  C   UNL     1      17.703  26.912  35.254  1.00  0.00     0.051 A 
ATOM     21  C   UNL     1      18.465  26.966  36.428  1.00  0.00     0.157 A 
BRANCH  19  22
ATOM     22  O   UNL     1      18.873  26.229  38.692  1.00  0.00    -0.504 OA
ATOM     23  H   UNL     1      18.907  25.455  39.345  1.00  0.00     0.293 HD
ENDBRANCH  19  22
BRANCH  21  24
ATOM     24  O   UNL     1      19.563  27.821  36.517  1.00  0.00    -0.504 OA
ATOM     25  H   UNL     1      20.351  27.740  35.884  1.00  0.00     0.293 HD
ENDBRANCH  21  24
ENDBRANCH   8  16
BRANCH   9  26
ATOM     26  O   UNL     1      16.454  22.526  35.314  1.00  0.00    -0.490 OA
ATOM     27  C   UNL     1      16.969  22.481  33.987  1.00  0.00     0.278 C 
ENDBRANCH   9  26
TORSDOF 6
ENDMDL
MODEL 8
REMARK VINA RESULT:    -6.724     11.158     13.715
REMARK INTER + INTRA:          -8.932
REMARK INTER:                  -8.784
REMARK INTRA:                  -0.148
REMARK UNBOUND:                -0.439
REMARK SMILES COc1cc(O)c2c(=O)c(OC)c(-c3ccc(O)c(O)c3)oc2c1
REMARK SMILES IDX 3 1 4 2 5 3 7 4 23 5 24 6 22 7 13 8 10 9 8 10 9 11 2 12 1 13
REMARK SMILES IDX 6 14 14 16 21 17 15 18 19 19 16 20 17 21 20 22 18 24 11 26
REMARK SMILES IDX 12 27
REMARK H PARENT 6 15 20 23 18 25
REMARK Flexibility Score: inf
ROOT
ATOM      1  C   UNL     1      18.507  23.839  34.464  1.00  0.00     0.126 A 
ATOM      2  C   UNL     1      18.513  25.185  34.868  1.00  0.00     0.093 A 
ATOM      3  C   UNL     1      17.314  25.852  35.158  1.00  0.00     0.134 A 
ATOM      4  C   UNL     1      16.080  25.167  35.044  1.00  0.00     0.111 A 
ATOM      5  C   UNL     1      16.084  23.815  34.640  1.00  0.00     0.146 A 
ATOM      6  C   UNL     1      17.288  23.166  34.353  1.00  0.00     0.094 A 
ATOM      7  O   UNL     1      14.948  23.140  34.528  1.00  0.00    -0.452 OA
ATOM      8  C   UNL     1      13.756  23.668  34.783  1.00  0.00     0.180 A 
ATOM      9  C   UNL     1      13.644  25.020  35.165  1.00  0.00     0.210 A 
ATOM     10  C   UNL     1      14.834  25.773  35.309  1.00  0.00     0.239 A 
ATOM     11  O   UNL     1      14.783  26.981  35.666  1.00  0.00    -0.285 OA
ENDROOT
BRANCH   1  12
ATOM     12  O   UNL     1      19.684  23.136  34.164  1.00  0.00    -0.496 OA
ATOM     13  C   UNL     1      20.289  22.176  35.025  1.00  0.00     0.278 C 
ENDBRANCH   1  12
BRANCH   3  14
ATOM     14  O   UNL     1      17.359  27.189  35.556  1.00  0.00    -0.507 OA
ATOM     15  H   UNL     1      17.623  27.929  34.915  1.00  0.00     0.293 HD
ENDBRANCH   3  14
BRANCH   8  16
ATOM     16  C   UNL     1      12.568  22.795  34.633  1.00  0.00     0.025 A 
ATOM     17  C   UNL     1      11.591  22.712  35.641  1.00  0.00     0.062 A 
ATOM     18  C   UNL     1      12.443  21.989  33.491  1.00  0.00     0.016 A 
ATOM     19  C   UNL     1      10.486  21.861  35.490  1.00  0.00     0.158 A 
ATOM     20  C   UNL     1      11.342  21.142  33.340  1.00  0.00     0.051 A 
ATOM     21  C   UNL     1      10.359  21.079  34.336  1.00  0.00     0.157 A 
BRANCH  19  22
ATOM     22  O   UNL     1       9.513  21.785  36.486  1.00  0.00    -0.504 OA
ATOM     23  H   UNL     1       9.135  20.895  36.790  1.00  0.00     0.293 HD
ENDBRANCH  19  22
BRANCH  21  24
ATOM     24  O   UNL     1       9.258  20.237  34.188  1.00  0.00    -0.504 OA
ATOM     25  H   UNL     1       8.448  20.313  34.794  1.00  0.00     0.293 HD
ENDBRANCH  21  24
ENDBRANCH   8  16
BRANCH   9  26
ATOM     26  O   UNL     1      12.354  25.556  35.354  1.00  0.00    -0.490 OA
ATOM     27  C   UNL     1      11.625  26.358  34.431  1.00  0.00     0.278 C 
ENDBRANCH   9  26
TORSDOF 6
ENDMDL
MODEL 9
REMARK VINA RESULT:    -6.537     11.912     13.888
REMARK INTER + INTRA:          -8.696
REMARK INTER:                  -8.194
REMARK INTRA:                  -0.502
REMARK UNBOUND:                -0.439
REMARK SMILES COc1cc(O)c2c(=O)c(OC)c(-c3ccc(O)c(O)c3)oc2c1
REMARK SMILES IDX 3 1 4 2 5 3 7 4 23 5 24 6 22 7 13 8 10 9 8 10 9 11 2 12 1 13
REMARK SMILES IDX 6 14 14 16 21 17 15 18 19 19 16 20 17 21 20 22 18 24 11 26
REMARK SMILES IDX 12 27
REMARK H PARENT 6 15 20 23 18 25
REMARK Flexibility Score: inf
ROOT
ATOM      1  C   UNL     1      18.850  26.538  35.019  1.00  0.00     0.126 A 
ATOM      2  C   UNL     1      19.445  25.391  34.467  1.00  0.00     0.093 A 
ATOM      3  C   UNL     1      18.678  24.253  34.178  1.00  0.00     0.134 A 
ATOM      4  C   UNL     1      17.287  24.254  34.442  1.00  0.00     0.111 A 
ATOM      5  C   UNL     1      16.697  25.412  34.994  1.00  0.00     0.146 A 
ATOM      6  C   UNL     1      17.477  26.536  35.278  1.00  0.00     0.094 A 
ATOM      7  O   UNL     1      15.396  25.451  35.248  1.00  0.00    -0.452 OA
ATOM      8  C   UNL     1      14.573  24.437  35.009  1.00  0.00     0.180 A 
ATOM      9  C   UNL     1      15.071  23.226  34.486  1.00  0.00     0.210 A 
ATOM     10  C   UNL     1      16.451  23.146  34.187  1.00  0.00     0.239 A 
ATOM     11  O   UNL     1      16.937  22.089  33.700  1.00  0.00    -0.285 OA
ENDROOT
BRANCH   1  12
ATOM     12  O   UNL     1      19.582  27.695  35.324  1.00  0.00    -0.496 OA
ATOM     13  C   UNL     1      19.904  28.118  36.645  1.00  0.00     0.278 C 
ENDBRANCH   1  12
BRANCH   3  14
ATOM     14  O   UNL     1      19.304  23.132  33.631  1.00  0.00    -0.507 OA
ATOM     15  H   UNL     1      19.358  22.252  34.131  1.00  0.00     0.293 HD
ENDBRANCH   3  14
BRANCH   8  16
ATOM     16  C   UNL     1      13.138  24.622  35.327  1.00  0.00     0.025 A 
ATOM     17  C   UNL     1      12.224  25.060  34.351  1.00  0.00     0.062 A 
ATOM     18  C   UNL     1      12.689  24.415  36.641  1.00  0.00     0.016 A 
ATOM     19  C   UNL     1      10.874  25.252  34.679  1.00  0.00     0.158 A 
ATOM     20  C   UNL     1      11.344  24.605  36.966  1.00  0.00     0.051 A 
ATOM     21  C   UNL     1      10.433  25.020  35.987  1.00  0.00     0.157 A 
BRANCH  19  22
ATOM     22  O   UNL     1       9.967  25.679  33.710  1.00  0.00    -0.504 OA
ATOM     23  H   UNL     1       8.997  25.382  33.725  1.00  0.00     0.293 HD
ENDBRANCH  19  22
BRANCH  21  24
ATOM     24  O   UNL     1       9.089  25.210  36.308  1.00  0.00    -0.504 OA
ATOM     25  H   UNL     1       8.591  24.561  36.906  1.00  0.00     0.293 HD
ENDBRANCH  21  24
ENDBRANCH   8  16
BRANCH   9  26
ATOM     26  O   UNL     1      14.173  22.152  34.316  1.00  0.00    -0.490 OA
ATOM     27  C   UNL     1      13.957  21.075  35.221  1.00  0.00     0.278 C 
ENDBRANCH   9  26
TORSDOF 6
ENDMDL
