MODEL 1
REMARK VINA RESULT:    -4.777      0.000      0.000
REMARK INTER + INTRA:          -5.150
REMARK INTER:                  -5.056
REMARK INTRA:                  -0.094
REMARK UNBOUND:                -0.094
REMARK SMILES C=C(C)[C@@H]1CC=C(C)C(=O)C1
REMARK SMILES IDX 8 1 7 2 6 3 5 4 4 5 11 6 9 7 10 8 2 9 1 10 3 11
REMARK H PARENT
REMARK Flexibility Score: inf
ROOT
ATOM      1  C   UNL     1     -25.805   0.245  -1.251  1.00  0.00     0.048 C 
ATOM      2  C   UNL     1     -26.377   0.084  -2.631  1.00  0.00    -0.012 C 
ATOM      3  C   UNL     1     -27.697  -0.120  -2.790  1.00  0.00    -0.019 C 
ATOM      4  C   UNL     1     -28.324  -0.269  -4.151  1.00  0.00     0.036 C 
ATOM      5  C   UNL     1     -27.354  -0.946  -5.136  1.00  0.00     0.025 C 
ATOM      6  C   UNL     1     -26.023  -0.175  -5.190  1.00  0.00     0.089 C 
ATOM      7  C   UNL     1     -25.470   0.025  -3.806  1.00  0.00     0.158 C 
ATOM      8  O   UNL     1     -24.229   0.179  -3.655  1.00  0.00    -0.295 OA
ENDROOT
BRANCH   5   9
ATOM      9  C   UNL     1     -27.972  -1.085  -6.521  1.00  0.00    -0.077 C 
ATOM     10  C   UNL     1     -29.163  -1.685  -6.669  1.00  0.00     0.008 C 
ATOM     11  C   UNL     1     -27.272  -0.560  -7.750  1.00  0.00     0.039 C 
ENDBRANCH   5   9
TORSDOF 1
ENDMDL
MODEL 2
REMARK VINA RESULT:    -4.678      2.390      4.107
REMARK INTER + INTRA:          -5.045
REMARK INTER:                  -4.947
REMARK INTRA:                  -0.098
REMARK UNBOUND:                -0.094
REMARK SMILES C=C(C)[C@@H]1CC=C(C)C(=O)C1
REMARK SMILES IDX 8 1 7 2 6 3 5 4 4 5 11 6 9 7 10 8 2 9 1 10 3 11
REMARK H PARENT
REMARK Flexibility Score: inf
ROOT
ATOM      1  C   UNL     1     -22.500   0.544   0.829  1.00  0.00     0.048 C 
ATOM      2  C   UNL     1     -23.573   0.228  -0.176  1.00  0.00    -0.012 C 
ATOM      3  C   UNL     1     -23.236  -0.253  -1.385  1.00  0.00    -0.019 C 
ATOM      4  C   UNL     1     -24.271  -0.605  -2.421  1.00  0.00     0.036 C 
ATOM      5  C   UNL     1     -25.497   0.320  -2.315  1.00  0.00     0.025 C 
ATOM      6  C   UNL     1     -26.069   0.287  -0.886  1.00  0.00     0.089 C 
ATOM      7  C   UNL     1     -24.988   0.562   0.123  1.00  0.00     0.158 C 
ATOM      8  O   UNL     1     -25.301   1.046   1.244  1.00  0.00    -0.295 OA
ENDROOT
BRANCH   5   9
ATOM      9  C   UNL     1     -26.559  -0.039  -3.346  1.00  0.00    -0.077 C 
ATOM     10  C   UNL     1     -27.858  -0.001  -3.016  1.00  0.00     0.008 C 
ATOM     11  C   UNL     1     -26.184  -0.443  -4.751  1.00  0.00     0.039 C 
ENDBRANCH   5   9
TORSDOF 1
ENDMDL
MODEL 3
REMARK VINA RESULT:    -4.669      2.326      4.603
REMARK INTER + INTRA:          -5.036
REMARK INTER:                  -4.939
REMARK INTRA:                  -0.097
REMARK UNBOUND:                -0.094
REMARK SMILES C=C(C)[C@@H]1CC=C(C)C(=O)C1
REMARK SMILES IDX 8 1 7 2 6 3 5 4 4 5 11 6 9 7 10 8 2 9 1 10 3 11
REMARK H PARENT
REMARK Flexibility Score: inf
ROOT
ATOM      1  C   UNL     1     -29.527  -3.852  -7.616  1.00  0.00     0.048 C 
ATOM      2  C   UNL     1     -28.790  -2.999  -6.621  1.00  0.00    -0.012 C 
ATOM      3  C   UNL     1     -29.236  -1.762  -6.340  1.00  0.00    -0.019 C 
ATOM      4  C   UNL     1     -28.546  -0.874  -5.338  1.00  0.00     0.036 C 
ATOM      5  C   UNL     1     -27.027  -1.126  -5.327  1.00  0.00     0.025 C 
ATOM      6  C   UNL     1     -26.735  -2.617  -5.081  1.00  0.00     0.089 C 
ATOM      7  C   UNL     1     -27.505  -3.474  -6.048  1.00  0.00     0.158 C 
ATOM      8  O   UNL     1     -27.067  -4.619  -6.339  1.00  0.00    -0.295 OA
ENDROOT
BRANCH   5   9
ATOM      9  C   UNL     1     -26.323  -0.245  -4.304  1.00  0.00    -0.077 C 
ATOM     10  C   UNL     1     -26.728  -0.243  -3.025  1.00  0.00     0.008 C 
ATOM     11  C   UNL     1     -25.163   0.638  -4.693  1.00  0.00     0.039 C 
ENDBRANCH   5   9
TORSDOF 1
ENDMDL
MODEL 4
REMARK VINA RESULT:    -4.644      2.201      5.827
REMARK INTER + INTRA:          -5.010
REMARK INTER:                  -4.918
REMARK INTRA:                  -0.092
REMARK UNBOUND:                -0.094
REMARK SMILES C=C(C)[C@@H]1CC=C(C)C(=O)C1
REMARK SMILES IDX 8 1 7 2 6 3 5 4 4 5 11 6 9 7 10 8 2 9 1 10 3 11
REMARK H PARENT
REMARK Flexibility Score: inf
ROOT
ATOM      1  C   UNL     1     -26.207  -0.306  -4.983  1.00  0.00     0.048 C 
ATOM      2  C   UNL     1     -25.613   0.056  -3.650  1.00  0.00    -0.012 C 
ATOM      3  C   UNL     1     -24.294   0.296  -3.548  1.00  0.00    -0.019 C 
ATOM      4  C   UNL     1     -23.651   0.681  -2.241  1.00  0.00     0.036 C 
ATOM      5  C   UNL     1     -24.369   0.015  -1.053  1.00  0.00     0.025 C 
ATOM      6  C   UNL     1     -25.873   0.347  -1.083  1.00  0.00     0.089 C 
ATOM      7  C   UNL     1     -26.459   0.026  -2.430  1.00  0.00     0.158 C 
ATOM      8  O   UNL     1     -27.689  -0.235  -2.519  1.00  0.00    -0.295 OA
ENDROOT
BRANCH   5   9
ATOM      9  C   UNL     1     -23.739   0.412   0.274  1.00  0.00    -0.077 C 
ATOM     10  C   UNL     1     -22.493   0.015   0.573  1.00  0.00     0.008 C 
ATOM     11  C   UNL     1     -24.487   1.252   1.279  1.00  0.00     0.039 C 
ENDBRANCH   5   9
TORSDOF 1
ENDMDL
MODEL 5
REMARK VINA RESULT:    -4.562      1.877      4.470
REMARK INTER + INTRA:          -4.922
REMARK INTER:                  -4.827
REMARK INTRA:                  -0.096
REMARK UNBOUND:                -0.094
REMARK SMILES C=C(C)[C@@H]1CC=C(C)C(=O)C1
REMARK SMILES IDX 8 1 7 2 6 3 5 4 4 5 11 6 9 7 10 8 2 9 1 10 3 11
REMARK H PARENT
REMARK Flexibility Score: inf
ROOT
ATOM      1  C   UNL     1     -29.249  -1.628  -6.369  1.00  0.00     0.048 C 
ATOM      2  C   UNL     1     -28.275  -1.392  -5.248  1.00  0.00    -0.012 C 
ATOM      3  C   UNL     1     -28.442  -0.340  -4.427  1.00  0.00    -0.019 C 
ATOM      4  C   UNL     1     -27.507  -0.069  -3.278  1.00  0.00     0.036 C 
ATOM      5  C   UNL     1     -26.073  -0.517  -3.613  1.00  0.00     0.025 C 
ATOM      6  C   UNL     1     -26.061  -1.998  -4.036  1.00  0.00     0.089 C 
ATOM      7  C   UNL     1     -27.066  -2.245  -5.127  1.00  0.00     0.158 C 
ATOM      8  O   UNL     1     -26.889  -3.209  -5.919  1.00  0.00    -0.295 OA
ENDROOT
BRANCH   5   9
ATOM      9  C   UNL     1     -25.123  -0.264  -2.450  1.00  0.00    -0.077 C 
ATOM     10  C   UNL     1     -23.830  -0.609  -2.550  1.00  0.00     0.008 C 
ATOM     11  C   UNL     1     -25.602   0.374  -1.169  1.00  0.00     0.039 C 
ENDBRANCH   5   9
TORSDOF 1
ENDMDL
MODEL 6
REMARK VINA RESULT:    -4.527      1.593      2.365
REMARK INTER + INTRA:          -4.886
REMARK INTER:                  -4.789
REMARK INTRA:                  -0.096
REMARK UNBOUND:                -0.094
REMARK SMILES C=C(C)[C@@H]1CC=C(C)C(=O)C1
REMARK SMILES IDX 8 1 7 2 6 3 5 4 4 5 11 6 9 7 10 8 2 9 1 10 3 11
REMARK H PARENT
REMARK Flexibility Score: inf
ROOT
ATOM      1  C   UNL     1     -25.071   0.787   0.402  1.00  0.00     0.048 C 
ATOM      2  C   UNL     1     -25.468   0.318  -0.969  1.00  0.00    -0.012 C 
ATOM      3  C   UNL     1     -26.715  -0.136  -1.186  1.00  0.00    -0.019 C 
ATOM      4  C   UNL     1     -27.170  -0.600  -2.545  1.00  0.00     0.036 C 
ATOM      5  C   UNL     1     -26.010  -1.240  -3.330  1.00  0.00     0.025 C 
ATOM      6  C   UNL     1     -24.821  -0.264  -3.416  1.00  0.00     0.089 C 
ATOM      7  C   UNL     1     -24.450   0.240  -2.048  1.00  0.00     0.158 C 
ATOM      8  O   UNL     1     -23.271   0.631  -1.836  1.00  0.00    -0.295 OA
ENDROOT
BRANCH   5   9
ATOM      9  C   UNL     1     -26.455  -1.696  -4.712  1.00  0.00    -0.077 C 
ATOM     10  C   UNL     1     -26.679  -0.793  -5.679  1.00  0.00     0.008 C 
ATOM     11  C   UNL     1     -26.655  -3.157  -5.031  1.00  0.00     0.039 C 
ENDBRANCH   5   9
TORSDOF 1
ENDMDL
MODEL 7
REMARK VINA RESULT:    -4.520      1.804      4.705
REMARK INTER + INTRA:          -4.878
REMARK INTER:                  -4.781
REMARK INTRA:                  -0.097
REMARK UNBOUND:                -0.094
REMARK SMILES C=C(C)[C@@H]1CC=C(C)C(=O)C1
REMARK SMILES IDX 8 1 7 2 6 3 5 4 4 5 11 6 9 7 10 8 2 9 1 10 3 11
REMARK H PARENT
REMARK Flexibility Score: inf
ROOT
ATOM      1  C   UNL     1     -28.472  -0.669  -4.749  1.00  0.00     0.048 C 
ATOM      2  C   UNL     1     -27.239  -0.386  -3.937  1.00  0.00    -0.012 C 
ATOM      3  C   UNL     1     -27.319  -0.337  -2.595  1.00  0.00    -0.019 C 
ATOM      4  C   UNL     1     -26.111  -0.076  -1.733  1.00  0.00     0.036 C 
ATOM      5  C   UNL     1     -25.115   0.859  -2.443  1.00  0.00     0.025 C 
ATOM      6  C   UNL     1     -24.734   0.286  -3.820  1.00  0.00     0.089 C 
ATOM      7  C   UNL     1     -25.967  -0.038  -4.619  1.00  0.00     0.158 C 
ATOM      8  O   UNL     1     -25.900  -0.047  -5.877  1.00  0.00    -0.295 OA
ENDROOT
BRANCH   5   9
ATOM      9  C   UNL     1     -23.882   1.114  -1.587  1.00  0.00    -0.077 C 
ATOM     10  C   UNL     1     -23.246   0.089  -1.001  1.00  0.00     0.008 C 
ATOM     11  C   UNL     1     -23.348   2.510  -1.376  1.00  0.00     0.039 C 
ENDBRANCH   5   9
TORSDOF 1
ENDMDL
MODEL 8
REMARK VINA RESULT:    -4.500      2.896      5.754
REMARK INTER + INTRA:          -4.857
REMARK INTER:                  -4.758
REMARK INTRA:                  -0.098
REMARK UNBOUND:                -0.094
REMARK SMILES C=C(C)[C@@H]1CC=C(C)C(=O)C1
REMARK SMILES IDX 8 1 7 2 6 3 5 4 4 5 11 6 9 7 10 8 2 9 1 10 3 11
REMARK H PARENT
REMARK Flexibility Score: inf
ROOT
ATOM      1  C   UNL     1     -24.828   1.037  -5.516  1.00  0.00     0.048 C 
ATOM      2  C   UNL     1     -24.966   1.327  -4.047  1.00  0.00    -0.012 C 
ATOM      3  C   UNL     1     -24.756   2.574  -3.589  1.00  0.00    -0.019 C 
ATOM      4  C   UNL     1     -24.900   2.923  -2.131  1.00  0.00     0.036 C 
ATOM      5  C   UNL     1     -24.503   1.736  -1.235  1.00  0.00     0.025 C 
ATOM      6  C   UNL     1     -25.315   0.484  -1.617  1.00  0.00     0.089 C 
ATOM      7  C   UNL     1     -25.212   0.217  -3.093  1.00  0.00     0.158 C 
ATOM      8  O   UNL     1     -25.374  -0.959  -3.518  1.00  0.00    -0.295 OA
ENDROOT
BRANCH   5   9
ATOM      9  C   UNL     1     -24.663   2.073   0.241  1.00  0.00    -0.077 C 
ATOM     10  C   UNL     1     -25.080   1.134   1.104  1.00  0.00     0.008 C 
ATOM     11  C   UNL     1     -24.360   3.453   0.769  1.00  0.00     0.039 C 
ENDBRANCH   5   9
TORSDOF 1
ENDMDL
MODEL 9
REMARK VINA RESULT:    -4.498      3.329      5.028
REMARK INTER + INTRA:          -4.855
REMARK INTER:                  -4.756
REMARK INTRA:                  -0.098
REMARK UNBOUND:                -0.094
REMARK SMILES C=C(C)[C@@H]1CC=C(C)C(=O)C1
REMARK SMILES IDX 8 1 7 2 6 3 5 4 4 5 11 6 9 7 10 8 2 9 1 10 3 11
REMARK H PARENT
REMARK Flexibility Score: inf
ROOT
ATOM      1  C   UNL     1     -23.627   3.433   2.048  1.00  0.00     0.048 C 
ATOM      2  C   UNL     1     -24.328   2.585   1.024  1.00  0.00    -0.012 C 
ATOM      3  C   UNL     1     -24.848   1.397   1.381  1.00  0.00    -0.019 C 
ATOM      4  C   UNL     1     -25.576   0.517   0.399  1.00  0.00     0.036 C 
ATOM      5  C   UNL     1     -24.993   0.667  -1.018  1.00  0.00     0.025 C 
ATOM      6  C   UNL     1     -25.000   2.146  -1.445  1.00  0.00     0.089 C 
ATOM      7  C   UNL     1     -24.337   3.002  -0.401  1.00  0.00     0.158 C 
ATOM      8  O   UNL     1     -23.819   4.099  -0.743  1.00  0.00    -0.295 OA
ENDROOT
BRANCH   5   9
ATOM      9  C   UNL     1     -25.735  -0.205  -2.022  1.00  0.00    -0.077 C 
ATOM     10  C   UNL     1     -27.004  -0.572  -1.786  1.00  0.00     0.008 C 
ATOM     11  C   UNL     1     -25.074  -0.674  -3.294  1.00  0.00     0.039 C 
ENDBRANCH   5   9
TORSDOF 1
ENDMDL
