MODEL 1
REMARK VINA RESULT:    -3.672      0.000      0.000
REMARK INTER + INTRA:          -5.567
REMARK INTER:                  -4.960
REMARK INTRA:                  -0.606
REMARK UNBOUND:                -0.606
REMARK SMILES CCCCCCCC(=O)[O-]
REMARK SMILES IDX 5 1 6 2 7 3 8 4 9 5 10 6 4 7 3 8 2 9 1 10
REMARK H PARENT
REMARK Flexibility Score: inf
ROOT
ATOM      1  C   UNL     1     -14.504  44.939  30.471  1.00  0.00     0.000 C 
ENDROOT
BRANCH   1   2
ATOM      2  C   UNL     1     -15.824  44.426  29.873  1.00  0.00     0.006 C 
BRANCH   2   3
ATOM      3  C   UNL     1     -17.051  44.878  30.675  1.00  0.00     0.053 C 
BRANCH   3   4
ATOM      4  C   UNL     1     -17.783  43.693  31.221  1.00  0.00     0.041 C 
ATOM      5  O   UNL     1     -17.314  42.535  31.072  1.00  0.00    -0.550 OA
ATOM      6  O   UNL     1     -18.960  43.872  31.939  1.00  0.00    -0.550 OA
ENDBRANCH   3   4
ENDBRANCH   2   3
ENDBRANCH   1   2
BRANCH   1   7
ATOM      7  C   UNL     1     -13.992  44.057  31.621  1.00  0.00     0.000 C 
BRANCH   7   8
ATOM      8  C   UNL     1     -13.760  44.892  32.890  1.00  0.00    -0.000 C 
BRANCH   8   9
ATOM      9  C   UNL     1     -14.977  44.891  33.827  1.00  0.00    -0.003 C 
ATOM     10  C   UNL     1     -15.528  43.488  34.083  1.00  0.00     0.004 C 
ENDBRANCH   8   9
ENDBRANCH   7   8
ENDBRANCH   1   7
TORSDOF 6
ENDMDL
MODEL 2
REMARK VINA RESULT:    -3.576      1.896      3.716
REMARK INTER + INTRA:          -5.436
REMARK INTER:                  -4.873
REMARK INTRA:                  -0.563
REMARK UNBOUND:                -0.606
REMARK SMILES CCCCCCCC(=O)[O-]
REMARK SMILES IDX 5 1 6 2 7 3 8 4 9 5 10 6 4 7 3 8 2 9 1 10
REMARK H PARENT
REMARK Flexibility Score: inf
ROOT
ATOM      1  C   UNL     1     -17.903  43.735  31.269  1.00  0.00     0.000 C 
ENDROOT
BRANCH   1   2
ATOM      2  C   UNL     1     -18.115  43.837  32.788  1.00  0.00     0.006 C 
BRANCH   2   3
ATOM      3  C   UNL     1     -16.909  44.448  33.513  1.00  0.00     0.053 C 
BRANCH   3   4
ATOM      4  C   UNL     1     -15.957  43.374  33.939  1.00  0.00     0.041 C 
ATOM      5  O   UNL     1     -16.320  42.169  33.937  1.00  0.00    -0.550 OA
ATOM      6  O   UNL     1     -14.652  43.699  34.289  1.00  0.00    -0.550 OA
ENDBRANCH   3   4
ENDBRANCH   2   3
ENDBRANCH   1   2
BRANCH   1   7
ATOM      7  C   UNL     1     -17.207  44.973  30.683  1.00  0.00     0.000 C 
BRANCH   7   8
ATOM      8  C   UNL     1     -16.216  44.574  29.579  1.00  0.00    -0.000 C 
BRANCH   8   9
ATOM      9  C   UNL     1     -14.994  43.821  30.126  1.00  0.00    -0.003 C 
ATOM     10  C   UNL     1     -14.037  44.728  30.900  1.00  0.00     0.004 C 
ENDBRANCH   8   9
ENDBRANCH   7   8
ENDBRANCH   1   7
TORSDOF 6
ENDMDL
MODEL 3
REMARK VINA RESULT:    -3.560      2.402      4.005
REMARK INTER + INTRA:          -5.414
REMARK INTER:                  -4.859
REMARK INTRA:                  -0.555
REMARK UNBOUND:                -0.606
REMARK SMILES CCCCCCCC(=O)[O-]
REMARK SMILES IDX 5 1 6 2 7 3 8 4 9 5 10 6 4 7 3 8 2 9 1 10
REMARK H PARENT
REMARK Flexibility Score: inf
ROOT
ATOM      1  C   UNL     1     -17.468  43.949  31.827  1.00  0.00     0.000 C 
ENDROOT
BRANCH   1   2
ATOM      2  C   UNL     1     -17.045  44.349  33.249  1.00  0.00     0.006 C 
BRANCH   2   3
ATOM      3  C   UNL     1     -15.968  43.423  33.828  1.00  0.00     0.053 C 
BRANCH   3   4
ATOM      4  C   UNL     1     -14.750  44.209  34.203  1.00  0.00     0.041 C 
ATOM      5  O   UNL     1     -13.607  43.692  34.101  1.00  0.00    -0.550 OA
ATOM      6  O   UNL     1     -14.875  45.529  34.617  1.00  0.00    -0.550 OA
ENDBRANCH   3   4
ENDBRANCH   2   3
ENDBRANCH   1   2
BRANCH   1   7
ATOM      7  C   UNL     1     -17.134  45.025  30.784  1.00  0.00     0.000 C 
BRANCH   7   8
ATOM      8  C   UNL     1     -15.981  44.570  29.876  1.00  0.00    -0.000 C 
BRANCH   8   9
ATOM      9  C   UNL     1     -14.601  44.882  30.474  1.00  0.00    -0.003 C 
ATOM     10  C   UNL     1     -13.671  43.669  30.481  1.00  0.00     0.004 C 
ENDBRANCH   8   9
ENDBRANCH   7   8
ENDBRANCH   1   7
TORSDOF 6
ENDMDL
MODEL 4
REMARK VINA RESULT:    -3.530      1.719      3.547
REMARK INTER + INTRA:          -5.375
REMARK INTER:                  -4.834
REMARK INTRA:                  -0.541
REMARK UNBOUND:                -0.606
REMARK SMILES CCCCCCCC(=O)[O-]
REMARK SMILES IDX 5 1 6 2 7 3 8 4 9 5 10 6 4 7 3 8 2 9 1 10
REMARK H PARENT
REMARK Flexibility Score: inf
ROOT
ATOM      1  C   UNL     1     -12.593  44.513  32.050  1.00  0.00     0.000 C 
ENDROOT
BRANCH   1   2
ATOM      2  C   UNL     1     -13.489  44.988  33.205  1.00  0.00     0.006 C 
BRANCH   2   3
ATOM      3  C   UNL     1     -14.029  43.827  34.050  1.00  0.00     0.053 C 
BRANCH   3   4
ATOM      4  C   UNL     1     -15.526  43.844  34.062  1.00  0.00     0.041 C 
ATOM      5  O   UNL     1     -16.148  44.929  33.924  1.00  0.00    -0.550 OA
ATOM      6  O   UNL     1     -16.233  42.653  34.177  1.00  0.00    -0.550 OA
ENDBRANCH   3   4
ENDBRANCH   2   3
ENDBRANCH   1   2
BRANCH   1   7
ATOM      7  C   UNL     1     -13.398  43.970  30.860  1.00  0.00     0.000 C 
BRANCH   7   8
ATOM      8  C   UNL     1     -14.539  44.929  30.487  1.00  0.00    -0.000 C 
BRANCH   8   9
ATOM      9  C   UNL     1     -15.868  44.198  30.240  1.00  0.00    -0.003 C 
ATOM     10  C   UNL     1     -17.088  45.057  30.576  1.00  0.00     0.004 C 
ENDBRANCH   8   9
ENDBRANCH   7   8
ENDBRANCH   1   7
TORSDOF 6
ENDMDL
MODEL 5
REMARK VINA RESULT:    -3.528      2.991      4.408
REMARK INTER + INTRA:          -5.372
REMARK INTER:                  -4.860
REMARK INTRA:                  -0.512
REMARK UNBOUND:                -0.606
REMARK SMILES CCCCCCCC(=O)[O-]
REMARK SMILES IDX 5 1 6 2 7 3 8 4 9 5 10 6 4 7 3 8 2 9 1 10
REMARK H PARENT
REMARK Flexibility Score: inf
ROOT
ATOM      1  C   UNL     1     -15.871  43.536  31.643  1.00  0.00     0.000 C 
ENDROOT
BRANCH   1   2
ATOM      2  C   UNL     1     -15.139  43.234  32.960  1.00  0.00     0.006 C 
BRANCH   2   3
ATOM      3  C   UNL     1     -15.426  44.277  34.048  1.00  0.00     0.053 C 
BRANCH   3   4
ATOM      4  C   UNL     1     -14.275  45.225  34.179  1.00  0.00     0.041 C 
ATOM      5  O   UNL     1     -14.320  46.164  35.016  1.00  0.00    -0.550 OA
ATOM      6  O   UNL     1     -13.132  45.040  33.412  1.00  0.00    -0.550 OA
ENDBRANCH   3   4
ENDBRANCH   2   3
ENDBRANCH   1   2
BRANCH   1   7
ATOM      7  C   UNL     1     -17.014  44.548  31.818  1.00  0.00     0.000 C 
BRANCH   7   8
ATOM      8  C   UNL     1     -18.380  43.845  31.774  1.00  0.00    -0.000 C 
BRANCH   8   9
ATOM      9  C   UNL     1     -19.090  43.848  33.136  1.00  0.00    -0.003 C 
ATOM     10  C   UNL     1     -19.006  42.499  33.851  1.00  0.00     0.004 C 
ENDBRANCH   8   9
ENDBRANCH   7   8
ENDBRANCH   1   7
TORSDOF 6
ENDMDL
MODEL 6
REMARK VINA RESULT:    -3.511      2.297      3.818
REMARK INTER + INTRA:          -5.349
REMARK INTER:                  -4.833
REMARK INTRA:                  -0.516
REMARK UNBOUND:                -0.606
REMARK SMILES CCCCCCCC(=O)[O-]
REMARK SMILES IDX 5 1 6 2 7 3 8 4 9 5 10 6 4 7 3 8 2 9 1 10
REMARK H PARENT
REMARK Flexibility Score: inf
ROOT
ATOM      1  C   UNL     1     -14.661  44.866  30.548  1.00  0.00     0.000 C 
ENDROOT
BRANCH   1   2
ATOM      2  C   UNL     1     -14.105  44.061  31.734  1.00  0.00     0.006 C 
BRANCH   2   3
ATOM      3  C   UNL     1     -13.523  44.958  32.834  1.00  0.00     0.053 C 
BRANCH   3   4
ATOM      4  C   UNL     1     -14.412  44.951  34.038  1.00  0.00     0.041 C 
ATOM      5  O   UNL     1     -14.348  45.887  34.878  1.00  0.00    -0.550 OA
ATOM      6  O   UNL     1     -15.346  43.936  34.207  1.00  0.00    -0.550 OA
ENDBRANCH   3   4
ENDBRANCH   2   3
ENDBRANCH   1   2
BRANCH   1   7
ATOM      7  C   UNL     1     -16.065  44.406  30.126  1.00  0.00     0.000 C 
BRANCH   7   8
ATOM      8  C   UNL     1     -17.116  44.835  31.162  1.00  0.00    -0.000 C 
BRANCH   8   9
ATOM      9  C   UNL     1     -18.089  43.700  31.520  1.00  0.00    -0.003 C 
ATOM     10  C   UNL     1     -17.406  42.333  31.584  1.00  0.00     0.004 C 
ENDBRANCH   8   9
ENDBRANCH   7   8
ENDBRANCH   1   7
TORSDOF 6
ENDMDL
MODEL 7
REMARK VINA RESULT:    -3.470      1.278      2.775
REMARK INTER + INTRA:          -5.294
REMARK INTER:                  -4.652
REMARK INTRA:                  -0.642
REMARK UNBOUND:                -0.606
REMARK SMILES CCCCCCCC(=O)[O-]
REMARK SMILES IDX 5 1 6 2 7 3 8 4 9 5 10 6 4 7 3 8 2 9 1 10
REMARK H PARENT
REMARK Flexibility Score: inf
ROOT
ATOM      1  C   UNL     1     -14.734  43.809  34.233  1.00  0.00     0.000 C 
ENDROOT
BRANCH   1   2
ATOM      2  C   UNL     1     -16.104  43.362  33.701  1.00  0.00     0.006 C 
BRANCH   2   3
ATOM      3  C   UNL     1     -16.935  44.530  33.154  1.00  0.00     0.053 C 
BRANCH   3   4
ATOM      4  C   UNL     1     -17.371  44.248  31.750  1.00  0.00     0.041 C 
ATOM      5  O   UNL     1     -17.220  45.118  30.853  1.00  0.00    -0.550 OA
ATOM      6  O   UNL     1     -17.898  43.005  31.422  1.00  0.00    -0.550 OA
ENDBRANCH   3   4
ENDBRANCH   2   3
ENDBRANCH   1   2
BRANCH   1   7
ATOM      7  C   UNL     1     -14.163  45.011  33.466  1.00  0.00     0.000 C 
BRANCH   7   8
ATOM      8  C   UNL     1     -13.077  44.564  32.475  1.00  0.00    -0.000 C 
BRANCH   8   9
ATOM      9  C   UNL     1     -13.587  44.510  31.026  1.00  0.00    -0.003 C 
ATOM     10  C   UNL     1     -13.986  43.099  30.591  1.00  0.00     0.004 C 
ENDBRANCH   8   9
ENDBRANCH   7   8
ENDBRANCH   1   7
TORSDOF 6
ENDMDL
MODEL 8
REMARK VINA RESULT:    -3.467      1.092      2.681
REMARK INTER + INTRA:          -5.289
REMARK INTER:                  -4.682
REMARK INTRA:                  -0.607
REMARK UNBOUND:                -0.606
REMARK SMILES CCCCCCCC(=O)[O-]
REMARK SMILES IDX 5 1 6 2 7 3 8 4 9 5 10 6 4 7 3 8 2 9 1 10
REMARK H PARENT
REMARK Flexibility Score: inf
ROOT
ATOM      1  C   UNL     1     -15.681  44.027  33.848  1.00  0.00     0.000 C 
ENDROOT
BRANCH   1   2
ATOM      2  C   UNL     1     -17.086  44.572  33.545  1.00  0.00     0.006 C 
BRANCH   2   3
ATOM      3  C   UNL     1     -17.458  44.452  32.061  1.00  0.00     0.053 C 
BRANCH   3   4
ATOM      4  C   UNL     1     -17.555  43.013  31.662  1.00  0.00     0.041 C 
ATOM      5  O   UNL     1     -18.374  42.250  32.238  1.00  0.00    -0.550 OA
ATOM      6  O   UNL     1     -16.776  42.526  30.619  1.00  0.00    -0.550 OA
ENDBRANCH   3   4
ENDBRANCH   2   3
ENDBRANCH   1   2
BRANCH   1   7
ATOM      7  C   UNL     1     -14.648  45.141  34.073  1.00  0.00     0.000 C 
BRANCH   7   8
ATOM      8  C   UNL     1     -13.439  44.964  33.142  1.00  0.00    -0.000 C 
BRANCH   8   9
ATOM      9  C   UNL     1     -13.733  44.020  31.966  1.00  0.00    -0.003 C 
ATOM     10  C   UNL     1     -13.986  44.767  30.655  1.00  0.00     0.004 C 
ENDBRANCH   8   9
ENDBRANCH   7   8
ENDBRANCH   1   7
TORSDOF 6
ENDMDL
MODEL 9
REMARK VINA RESULT:    -3.453      1.429      2.234
REMARK INTER + INTRA:          -5.270
REMARK INTER:                  -4.756
REMARK INTRA:                  -0.514
REMARK UNBOUND:                -0.606
REMARK SMILES CCCCCCCC(=O)[O-]
REMARK SMILES IDX 5 1 6 2 7 3 8 4 9 5 10 6 4 7 3 8 2 9 1 10
REMARK H PARENT
REMARK Flexibility Score: inf
ROOT
ATOM      1  C   UNL     1     -15.940  44.491  29.926  1.00  0.00     0.000 C 
ENDROOT
BRANCH   1   2
ATOM      2  C   UNL     1     -17.127  44.999  30.760  1.00  0.00     0.006 C 
BRANCH   2   3
ATOM      3  C   UNL     1     -17.793  43.886  31.578  1.00  0.00     0.053 C 
BRANCH   3   4
ATOM      4  C   UNL     1     -17.485  44.051  33.033  1.00  0.00     0.041 C 
ATOM      5  O   UNL     1     -17.915  45.053  33.661  1.00  0.00    -0.550 OA
ATOM      6  O   UNL     1     -16.764  43.072  33.706  1.00  0.00    -0.550 OA
ENDBRANCH   3   4
ENDBRANCH   2   3
ENDBRANCH   1   2
BRANCH   1   7
ATOM      7  C   UNL     1     -14.584  44.947  30.485  1.00  0.00     0.000 C 
BRANCH   7   8
ATOM      8  C   UNL     1     -13.999  43.889  31.433  1.00  0.00    -0.000 C 
BRANCH   8   9
ATOM      9  C   UNL     1     -13.116  44.504  32.530  1.00  0.00    -0.003 C 
ATOM     10  C   UNL     1     -13.927  45.216  33.614  1.00  0.00     0.004 C 
ENDBRANCH   8   9
ENDBRANCH   7   8
ENDBRANCH   1   7
TORSDOF 6
ENDMDL
