MODEL 1
REMARK VINA RESULT:    -5.362      0.000      0.000
REMARK INTER + INTRA:          -6.976
REMARK INTER:                  -6.616
REMARK INTRA:                  -0.360
REMARK UNBOUND:                -0.360
REMARK SMILES O=c1c(O)c(-c2cc(O)c(O)c(O)c2)oc2cc(O)cc(O)c12
REMARK SMILES IDX 5 1 3 2 2 3 1 4 23 5 21 6 20 7 18 8 17 9 16 10 15 11 6 12
REMARK SMILES IDX 7 13 8 14 14 15 10 16 12 17 9 18 11 20 13 22 4 24 22 26
REMARK SMILES IDX 19 28
REMARK H PARENT 9 19 11 21 13 23 4 25 22 27 19 29
REMARK Flexibility Score: inf
ROOT
ATOM      1  C   UNL     1      -8.526  91.488 -13.355  1.00  0.00     0.180 A 
ATOM      2  C   UNL     1      -7.854  91.989 -12.226  1.00  0.00     0.208 A 
ATOM      3  C   UNL     1      -6.465  92.178 -12.288  1.00  0.00     0.238 A 
ATOM      4  O   UNL     1      -5.861  92.575 -11.258  1.00  0.00    -0.285 OA
ATOM      5  C   UNL     1      -5.766  91.880 -13.484  1.00  0.00     0.111 A 
ATOM      6  C   UNL     1      -4.364  92.071 -13.672  1.00  0.00     0.134 A 
ATOM      7  C   UNL     1      -3.758  91.621 -14.851  1.00  0.00     0.093 A 
ATOM      8  C   UNL     1      -4.511  91.045 -15.873  1.00  0.00     0.123 A 
ATOM      9  C   UNL     1      -5.892  90.907 -15.724  1.00  0.00     0.094 A 
ATOM     10  C   UNL     1      -6.519  91.316 -14.545  1.00  0.00     0.146 A 
ATOM     11  O   UNL     1      -7.833  91.156 -14.439  1.00  0.00    -0.452 OA
ENDROOT
BRANCH   1  12
ATOM     12  C   UNL     1      -9.993  91.286 -13.373  1.00  0.00     0.029 A 
ATOM     13  C   UNL     1     -10.872  92.341 -13.665  1.00  0.00     0.062 A 
ATOM     14  C   UNL     1     -12.258  92.125 -13.701  1.00  0.00     0.162 A 
ATOM     15  C   UNL     1     -10.514  90.002 -13.152  1.00  0.00     0.062 A 
ATOM     16  C   UNL     1     -12.772  90.841 -13.456  1.00  0.00     0.200 A 
ATOM     17  C   UNL     1     -11.899  89.780 -13.186  1.00  0.00     0.162 A 
BRANCH  14  18
ATOM     18  O   UNL     1     -13.123  93.181 -13.985  1.00  0.00    -0.504 OA
ATOM     19  H   UNL     1     -14.090  93.022 -14.237  1.00  0.00     0.293 HD
ENDBRANCH  14  18
BRANCH  16  20
ATOM     20  O   UNL     1     -14.146  90.602 -13.482  1.00  0.00    -0.502 OA
ATOM     21  H   UNL     1     -14.781  91.165 -14.036  1.00  0.00     0.293 HD
ENDBRANCH  16  20
BRANCH  17  22
ATOM     22  O   UNL     1     -12.413  88.506 -12.950  1.00  0.00    -0.504 OA
ATOM     23  H   UNL     1     -11.859  87.672 -13.110  1.00  0.00     0.293 HD
ENDBRANCH  17  22
ENDBRANCH   1  12
BRANCH   2  24
ATOM     24  O   UNL     1      -8.560  92.255 -11.050  1.00  0.00    -0.502 OA
ATOM     25  H   UNL     1      -8.276  91.886 -10.150  1.00  0.00     0.293 HD
ENDBRANCH   2  24
BRANCH   6  26
ATOM     26  O   UNL     1      -3.534  92.719 -12.751  1.00  0.00    -0.507 OA
ATOM     27  H   UNL     1      -3.374  93.715 -12.723  1.00  0.00     0.293 HD
ENDBRANCH   6  26
BRANCH   8  28
ATOM     28  O   UNL     1      -3.877  90.622 -17.040  1.00  0.00    -0.508 OA
ATOM     29  H   UNL     1      -3.234  89.839 -17.039  1.00  0.00     0.293 HD
ENDBRANCH   8  28
TORSDOF 7
ENDMDL
MODEL 2
REMARK VINA RESULT:    -5.314      3.770      6.215
REMARK INTER + INTRA:          -6.916
REMARK INTER:                  -6.560
REMARK INTRA:                  -0.356
REMARK UNBOUND:                -0.360
REMARK SMILES O=c1c(O)c(-c2cc(O)c(O)c(O)c2)oc2cc(O)cc(O)c12
REMARK SMILES IDX 5 1 3 2 2 3 1 4 23 5 21 6 20 7 18 8 17 9 16 10 15 11 6 12
REMARK SMILES IDX 7 13 8 14 14 15 10 16 12 17 9 18 11 20 13 22 4 24 22 26
REMARK SMILES IDX 19 28
REMARK H PARENT 9 19 11 21 13 23 4 25 22 27 19 29
REMARK Flexibility Score: inf
ROOT
ATOM      1  C   UNL     1      -5.580  91.774 -14.845  1.00  0.00     0.180 A 
ATOM      2  C   UNL     1      -4.817  92.524 -13.932  1.00  0.00     0.208 A 
ATOM      3  C   UNL     1      -4.778  92.125 -12.587  1.00  0.00     0.238 A 
ATOM      4  O   UNL     1      -4.137  92.831 -11.765  1.00  0.00    -0.285 OA
ATOM      5  C   UNL     1      -5.488  90.972 -12.174  1.00  0.00     0.111 A 
ATOM      6  C   UNL     1      -5.488  90.453 -10.844  1.00  0.00     0.134 A 
ATOM      7  C   UNL     1      -6.330  89.383 -10.520  1.00  0.00     0.093 A 
ATOM      8  C   UNL     1      -7.124  88.772 -11.489  1.00  0.00     0.123 A 
ATOM      9  C   UNL     1      -7.089  89.233 -12.806  1.00  0.00     0.094 A 
ATOM     10  C   UNL     1      -6.284  90.322 -13.151  1.00  0.00     0.146 A 
ATOM     11  O   UNL     1      -6.288  90.736 -14.413  1.00  0.00    -0.452 OA
ENDROOT
BRANCH   1  12
ATOM     12  C   UNL     1      -5.649  92.118 -16.283  1.00  0.00     0.029 A 
ATOM     13  C   UNL     1      -4.649  91.711 -17.181  1.00  0.00     0.062 A 
ATOM     14  C   UNL     1      -4.743  92.026 -18.545  1.00  0.00     0.162 A 
ATOM     15  C   UNL     1      -6.764  92.816 -16.772  1.00  0.00     0.062 A 
ATOM     16  C   UNL     1      -5.853  92.744 -19.021  1.00  0.00     0.200 A 
ATOM     17  C   UNL     1      -6.864  93.135 -18.134  1.00  0.00     0.162 A 
BRANCH  14  18
ATOM     18  O   UNL     1      -3.742  91.623 -19.426  1.00  0.00    -0.504 OA
ATOM     19  H   UNL     1      -3.956  91.129 -20.284  1.00  0.00     0.293 HD
ENDBRANCH  14  18
BRANCH  16  20
ATOM     20  O   UNL     1      -5.968  93.073 -20.372  1.00  0.00    -0.502 OA
ATOM     21  H   UNL     1      -6.592  93.801 -20.698  1.00  0.00     0.293 HD
ENDBRANCH  16  20
BRANCH  17  22
ATOM     22  O   UNL     1      -7.967  93.840 -18.613  1.00  0.00    -0.504 OA
ATOM     23  H   UNL     1      -8.003  94.853 -18.584  1.00  0.00     0.293 HD
ENDBRANCH  17  22
ENDBRANCH   1  12
BRANCH   2  24
ATOM     24  O   UNL     1      -4.141  93.671 -14.358  1.00  0.00    -0.502 OA
ATOM     25  H   UNL     1      -3.534  93.675 -15.169  1.00  0.00     0.293 HD
ENDBRANCH   2  24
BRANCH   6  26
ATOM     26  O   UNL     1      -4.663  90.931  -9.820  1.00  0.00    -0.507 OA
ATOM     27  H   UNL     1      -4.989  91.235  -8.914  1.00  0.00     0.293 HD
ENDBRANCH   6  26
BRANCH   8  28
ATOM     28  O   UNL     1      -7.939  87.699 -11.134  1.00  0.00    -0.508 OA
ATOM     29  H   UNL     1      -7.552  86.841 -10.760  1.00  0.00     0.293 HD
ENDBRANCH   8  28
TORSDOF 7
ENDMDL
MODEL 3
REMARK VINA RESULT:    -5.313      6.657      8.504
REMARK INTER + INTRA:          -6.915
REMARK INTER:                  -6.558
REMARK INTRA:                  -0.356
REMARK UNBOUND:                -0.360
REMARK SMILES O=c1c(O)c(-c2cc(O)c(O)c(O)c2)oc2cc(O)cc(O)c12
REMARK SMILES IDX 5 1 3 2 2 3 1 4 23 5 21 6 20 7 18 8 17 9 16 10 15 11 6 12
REMARK SMILES IDX 7 13 8 14 14 15 10 16 12 17 9 18 11 20 13 22 4 24 22 26
REMARK SMILES IDX 19 28
REMARK H PARENT 9 19 11 21 13 23 4 25 22 27 19 29
REMARK Flexibility Score: inf
ROOT
ATOM      1  C   UNL     1      -4.460  88.415  -8.509  1.00  0.00     0.180 A 
ATOM      2  C   UNL     1      -3.316  88.123  -7.745  1.00  0.00     0.208 A 
ATOM      3  C   UNL     1      -2.867  86.795  -7.672  1.00  0.00     0.238 A 
ATOM      4  O   UNL     1      -1.875  86.531  -6.944  1.00  0.00    -0.285 OA
ATOM      5  C   UNL     1      -3.557  85.778  -8.377  1.00  0.00     0.111 A 
ATOM      6  C   UNL     1      -3.167  84.405  -8.406  1.00  0.00     0.134 A 
ATOM      7  C   UNL     1      -3.997  83.465  -9.029  1.00  0.00     0.093 A 
ATOM      8  C   UNL     1      -5.168  83.855  -9.677  1.00  0.00     0.123 A 
ATOM      9  C   UNL     1      -5.529  85.203  -9.705  1.00  0.00     0.094 A 
ATOM     10  C   UNL     1      -4.739  86.159  -9.063  1.00  0.00     0.146 A 
ATOM     11  O   UNL     1      -5.123  87.430  -9.104  1.00  0.00    -0.452 OA
ENDROOT
BRANCH   1  12
ATOM     12  C   UNL     1      -4.979  89.794  -8.653  1.00  0.00     0.029 A 
ATOM     13  C   UNL     1      -5.894  90.331  -7.733  1.00  0.00     0.062 A 
ATOM     14  C   UNL     1      -6.357  91.647  -7.873  1.00  0.00     0.162 A 
ATOM     15  C   UNL     1      -4.505  90.604  -9.697  1.00  0.00     0.062 A 
ATOM     16  C   UNL     1      -5.894  92.443  -8.934  1.00  0.00     0.200 A 
ATOM     17  C   UNL     1      -4.965  91.921  -9.842  1.00  0.00     0.162 A 
BRANCH  14  18
ATOM     18  O   UNL     1      -7.271  92.168  -6.957  1.00  0.00    -0.504 OA
ATOM     19  H   UNL     1      -6.992  92.835  -6.249  1.00  0.00     0.293 HD
ENDBRANCH  14  18
BRANCH  16  20
ATOM     20  O   UNL     1      -6.342  93.754  -9.096  1.00  0.00    -0.502 OA
ATOM     21  H   UNL     1      -6.415  94.399  -8.318  1.00  0.00     0.293 HD
ENDBRANCH  16  20
BRANCH  17  22
ATOM     22  O   UNL     1      -4.502  92.716 -10.890  1.00  0.00    -0.504 OA
ATOM     23  H   UNL     1      -5.042  92.844 -11.738  1.00  0.00     0.293 HD
ENDBRANCH  17  22
ENDBRANCH   1  12
BRANCH   2  24
ATOM     24  O   UNL     1      -2.664  89.138  -7.040  1.00  0.00    -0.502 OA
ATOM     25  H   UNL     1      -2.363  89.999  -7.482  1.00  0.00     0.293 HD
ENDBRANCH   2  24
BRANCH   6  26
ATOM     26  O   UNL     1      -1.970  83.922  -7.868  1.00  0.00    -0.507 OA
ATOM     27  H   UNL     1      -1.689  84.027  -6.904  1.00  0.00     0.293 HD
ENDBRANCH   6  26
BRANCH   8  28
ATOM     28  O   UNL     1      -5.963  82.894 -10.299  1.00  0.00    -0.508 OA
ATOM     29  H   UNL     1      -6.134  82.915 -11.297  1.00  0.00     0.293 HD
ENDBRANCH   8  28
TORSDOF 7
ENDMDL
MODEL 4
REMARK VINA RESULT:    -5.270      3.796      6.110
REMARK INTER + INTRA:          -6.862
REMARK INTER:                  -6.532
REMARK INTRA:                  -0.330
REMARK UNBOUND:                -0.360
REMARK SMILES O=c1c(O)c(-c2cc(O)c(O)c(O)c2)oc2cc(O)cc(O)c12
REMARK SMILES IDX 5 1 3 2 2 3 1 4 23 5 21 6 20 7 18 8 17 9 16 10 15 11 6 12
REMARK SMILES IDX 7 13 8 14 14 15 10 16 12 17 9 18 11 20 13 22 4 24 22 26
REMARK SMILES IDX 19 28
REMARK H PARENT 9 19 11 21 13 23 4 25 22 27 19 29
REMARK Flexibility Score: inf
ROOT
ATOM      1  C   UNL     1      -5.598  91.672 -14.823  1.00  0.00     0.180 A 
ATOM      2  C   UNL     1      -4.830  92.437 -13.928  1.00  0.00     0.208 A 
ATOM      3  C   UNL     1      -4.781  92.058 -12.577  1.00  0.00     0.238 A 
ATOM      4  O   UNL     1      -4.135  92.777 -11.770  1.00  0.00    -0.285 OA
ATOM      5  C   UNL     1      -5.485  90.910 -12.141  1.00  0.00     0.111 A 
ATOM      6  C   UNL     1      -5.473  90.411 -10.803  1.00  0.00     0.134 A 
ATOM      7  C   UNL     1      -6.311  89.344 -10.457  1.00  0.00     0.093 A 
ATOM      8  C   UNL     1      -7.111  88.717 -11.411  1.00  0.00     0.123 A 
ATOM      9  C   UNL     1      -7.086  89.159 -12.735  1.00  0.00     0.094 A 
ATOM     10  C   UNL     1      -6.287  90.244 -13.103  1.00  0.00     0.146 A 
ATOM     11  O   UNL     1      -6.301  90.639 -14.370  1.00  0.00    -0.452 OA
ENDROOT
BRANCH   1  12
ATOM     12  C   UNL     1      -5.679  91.994 -16.266  1.00  0.00     0.029 A 
ATOM     13  C   UNL     1      -6.761  92.719 -16.793  1.00  0.00     0.062 A 
ATOM     14  C   UNL     1      -6.809  93.035 -18.159  1.00  0.00     0.162 A 
ATOM     15  C   UNL     1      -4.628  91.620 -17.116  1.00  0.00     0.062 A 
ATOM     16  C   UNL     1      -5.762  92.637 -19.006  1.00  0.00     0.200 A 
ATOM     17  C   UNL     1      -4.671  91.933 -18.483  1.00  0.00     0.162 A 
BRANCH  14  18
ATOM     18  O   UNL     1      -7.891  93.749 -18.673  1.00  0.00    -0.504 OA
ATOM     19  H   UNL     1      -8.697  93.974 -18.104  1.00  0.00     0.293 HD
ENDBRANCH  14  18
BRANCH  16  20
ATOM     20  O   UNL     1      -5.790  92.936 -20.368  1.00  0.00    -0.502 OA
ATOM     21  H   UNL     1      -5.334  93.757 -20.750  1.00  0.00     0.293 HD
ENDBRANCH  16  20
BRANCH  17  22
ATOM     22  O   UNL     1      -3.631  91.546 -19.326  1.00  0.00    -0.504 OA
ATOM     23  H   UNL     1      -3.185  92.203 -19.956  1.00  0.00     0.293 HD
ENDBRANCH  17  22
ENDBRANCH   1  12
BRANCH   2  24
ATOM     24  O   UNL     1      -4.160  93.579 -14.375  1.00  0.00    -0.502 OA
ATOM     25  H   UNL     1      -3.149  93.653 -14.371  1.00  0.00     0.293 HD
ENDBRANCH   2  24
BRANCH   6  26
ATOM     26  O   UNL     1      -4.643  90.906  -9.793  1.00  0.00    -0.507 OA
ATOM     27  H   UNL     1      -4.588  90.530  -8.858  1.00  0.00     0.293 HD
ENDBRANCH   6  26
BRANCH   8  28
ATOM     28  O   UNL     1      -7.921  87.648 -11.034  1.00  0.00    -0.508 OA
ATOM     29  H   UNL     1      -7.547  86.850 -10.536  1.00  0.00     0.293 HD
ENDBRANCH   8  28
TORSDOF 7
ENDMDL
MODEL 5
REMARK VINA RESULT:    -5.212      7.665      8.877
REMARK INTER + INTRA:          -6.791
REMARK INTER:                  -6.701
REMARK INTRA:                  -0.090
REMARK UNBOUND:                -0.360
REMARK SMILES O=c1c(O)c(-c2cc(O)c(O)c(O)c2)oc2cc(O)cc(O)c12
REMARK SMILES IDX 5 1 3 2 2 3 1 4 23 5 21 6 20 7 18 8 17 9 16 10 15 11 6 12
REMARK SMILES IDX 7 13 8 14 14 15 10 16 12 17 9 18 11 20 13 22 4 24 22 26
REMARK SMILES IDX 19 28
REMARK H PARENT 9 19 11 21 13 23 4 25 22 27 19 29
REMARK Flexibility Score: inf
ROOT
ATOM      1  C   UNL     1      -9.815  84.218  -8.973  1.00  0.00     0.180 A 
ATOM      2  C   UNL     1      -9.723  85.578  -8.629  1.00  0.00     0.208 A 
ATOM      3  C   UNL     1      -8.485  86.229  -8.750  1.00  0.00     0.238 A 
ATOM      4  O   UNL     1      -8.397  87.432  -8.390  1.00  0.00    -0.285 OA
ATOM      5  C   UNL     1      -7.359  85.517  -9.229  1.00  0.00     0.111 A 
ATOM      6  C   UNL     1      -6.065  86.087  -9.430  1.00  0.00     0.134 A 
ATOM      7  C   UNL     1      -4.993  85.258  -9.784  1.00  0.00     0.093 A 
ATOM      8  C   UNL     1      -5.180  83.895 -10.007  1.00  0.00     0.123 A 
ATOM      9  C   UNL     1      -6.452  83.338  -9.871  1.00  0.00     0.094 A 
ATOM     10  C   UNL     1      -7.534  84.133  -9.485  1.00  0.00     0.146 A 
ATOM     11  O   UNL     1      -8.725  83.561  -9.356  1.00  0.00    -0.452 OA
ENDROOT
BRANCH   1  12
ATOM     12  C   UNL     1     -11.091  83.470  -8.895  1.00  0.00     0.029 A 
ATOM     13  C   UNL     1     -12.251  83.937  -9.534  1.00  0.00     0.062 A 
ATOM     14  C   UNL     1     -13.445  83.203  -9.469  1.00  0.00     0.162 A 
ATOM     15  C   UNL     1     -11.130  82.241  -8.220  1.00  0.00     0.062 A 
ATOM     16  C   UNL     1     -13.480  81.984  -8.771  1.00  0.00     0.200 A 
ATOM     17  C   UNL     1     -12.320  81.503  -8.150  1.00  0.00     0.162 A 
BRANCH  14  18
ATOM     18  O   UNL     1     -14.593  83.679 -10.101  1.00  0.00    -0.504 OA
ATOM     19  H   UNL     1     -14.547  84.382 -10.827  1.00  0.00     0.293 HD
ENDBRANCH  14  18
BRANCH  16  20
ATOM     20  O   UNL     1     -14.656  81.239  -8.689  1.00  0.00    -0.502 OA
ATOM     21  H   UNL     1     -14.687  80.253  -8.921  1.00  0.00     0.293 HD
ENDBRANCH  16  20
BRANCH  17  22
ATOM     22  O   UNL     1     -12.358  80.290  -7.465  1.00  0.00    -0.504 OA
ATOM     23  H   UNL     1     -13.105  80.068  -6.817  1.00  0.00     0.293 HD
ENDBRANCH  17  22
ENDBRANCH   1  12
BRANCH   2  24
ATOM     24  O   UNL     1     -10.843  86.255  -8.138  1.00  0.00    -0.502 OA
ATOM     25  H   UNL     1     -11.782  86.058  -8.461  1.00  0.00     0.293 HD
ENDBRANCH   2  24
BRANCH   6  26
ATOM     26  O   UNL     1      -5.790  87.454  -9.323  1.00  0.00    -0.507 OA
ATOM     27  H   UNL     1      -5.864  87.990  -8.471  1.00  0.00     0.293 HD
ENDBRANCH   6  26
BRANCH   8  28
ATOM     28  O   UNL     1      -4.093  83.103 -10.372  1.00  0.00    -0.508 OA
ATOM     29  H   UNL     1      -3.179  83.233  -9.955  1.00  0.00     0.293 HD
ENDBRANCH   8  28
TORSDOF 7
ENDMDL
MODEL 6
REMARK VINA RESULT:    -5.126      4.135      6.959
REMARK INTER + INTRA:          -6.685
REMARK INTER:                  -6.532
REMARK INTRA:                  -0.153
REMARK UNBOUND:                -0.360
REMARK SMILES O=c1c(O)c(-c2cc(O)c(O)c(O)c2)oc2cc(O)cc(O)c12
REMARK SMILES IDX 5 1 3 2 2 3 1 4 23 5 21 6 20 7 18 8 17 9 16 10 15 11 6 12
REMARK SMILES IDX 7 13 8 14 14 15 10 16 12 17 9 18 11 20 13 22 4 24 22 26
REMARK SMILES IDX 19 28
REMARK H PARENT 9 19 11 21 13 23 4 25 22 27 19 29
REMARK Flexibility Score: inf
ROOT
ATOM      1  C   UNL     1      -4.582  91.827 -13.650  1.00  0.00     0.180 A 
ATOM      2  C   UNL     1      -4.280  92.633 -12.538  1.00  0.00     0.208 A 
ATOM      3  C   UNL     1      -4.728  92.236 -11.268  1.00  0.00     0.238 A 
ATOM      4  O   UNL     1      -4.500  92.988 -10.285  1.00  0.00    -0.285 OA
ATOM      5  C   UNL     1      -5.458  91.032 -11.123  1.00  0.00     0.111 A 
ATOM      6  C   UNL     1      -5.926  90.513  -9.878  1.00  0.00     0.134 A 
ATOM      7  C   UNL     1      -6.750  89.381  -9.868  1.00  0.00     0.093 A 
ATOM      8  C   UNL     1      -7.069  88.712 -11.048  1.00  0.00     0.123 A 
ATOM      9  C   UNL     1      -6.568  89.176 -12.265  1.00  0.00     0.094 A 
ATOM     10  C   UNL     1      -5.773  90.323 -12.310  1.00  0.00     0.146 A 
ATOM     11  O   UNL     1      -5.326  90.738 -13.490  1.00  0.00    -0.452 OA
ENDROOT
BRANCH   1  12
ATOM     12  C   UNL     1      -4.124  92.166 -15.016  1.00  0.00     0.029 A 
ATOM     13  C   UNL     1      -4.525  93.355 -15.648  1.00  0.00     0.062 A 
ATOM     14  C   UNL     1      -4.062  93.671 -16.934  1.00  0.00     0.162 A 
ATOM     15  C   UNL     1      -3.224  91.314 -15.673  1.00  0.00     0.062 A 
ATOM     16  C   UNL     1      -3.178  92.800 -17.592  1.00  0.00     0.200 A 
ATOM     17  C   UNL     1      -2.757  91.623 -16.959  1.00  0.00     0.162 A 
BRANCH  14  18
ATOM     18  O   UNL     1      -4.472  94.849 -17.554  1.00  0.00    -0.504 OA
ATOM     19  H   UNL     1      -4.190  95.758 -17.209  1.00  0.00     0.293 HD
ENDBRANCH  14  18
BRANCH  16  20
ATOM     20  O   UNL     1      -2.707  93.090 -18.873  1.00  0.00    -0.502 OA
ATOM     21  H   UNL     1      -3.303  93.041 -19.691  1.00  0.00     0.293 HD
ENDBRANCH  16  20
BRANCH  17  22
ATOM     22  O   UNL     1      -1.875  90.765 -17.613  1.00  0.00    -0.504 OA
ATOM     23  H   UNL     1      -0.919  90.646 -17.299  1.00  0.00     0.293 HD
ENDBRANCH  17  22
ENDBRANCH   1  12
BRANCH   2  24
ATOM     24  O   UNL     1      -3.577  93.828 -12.708  1.00  0.00    -0.502 OA
ATOM     25  H   UNL     1      -3.906  94.711 -12.333  1.00  0.00     0.293 HD
ENDBRANCH   2  24
BRANCH   6  26
ATOM     26  O   UNL     1      -5.590  91.052  -8.631  1.00  0.00    -0.507 OA
ATOM     27  H   UNL     1      -6.181  91.022  -7.814  1.00  0.00     0.293 HD
ENDBRANCH   6  26
BRANCH   8  28
ATOM     28  O   UNL     1      -7.880  87.579 -10.999  1.00  0.00    -0.508 OA
ATOM     29  H   UNL     1      -7.492  86.647 -11.077  1.00  0.00     0.293 HD
ENDBRANCH   8  28
TORSDOF 7
ENDMDL
MODEL 7
REMARK VINA RESULT:    -5.106      4.633      6.687
REMARK INTER + INTRA:          -6.659
REMARK INTER:                  -6.305
REMARK INTRA:                  -0.355
REMARK UNBOUND:                -0.360
REMARK SMILES O=c1c(O)c(-c2cc(O)c(O)c(O)c2)oc2cc(O)cc(O)c12
REMARK SMILES IDX 5 1 3 2 2 3 1 4 23 5 21 6 20 7 18 8 17 9 16 10 15 11 6 12
REMARK SMILES IDX 7 13 8 14 14 15 10 16 12 17 9 18 11 20 13 22 4 24 22 26
REMARK SMILES IDX 19 28
REMARK H PARENT 9 19 11 21 13 23 4 25 22 27 19 29
REMARK Flexibility Score: inf
ROOT
ATOM      1  C   UNL     1      -4.145  92.100 -15.573  1.00  0.00     0.180 A 
ATOM      2  C   UNL     1      -3.048  91.466 -16.183  1.00  0.00     0.208 A 
ATOM      3  C   UNL     1      -2.892  91.565 -17.574  1.00  0.00     0.238 A 
ATOM      4  O   UNL     1      -1.939  90.951 -18.121  1.00  0.00    -0.285 OA
ATOM      5  C   UNL     1      -3.824  92.309 -18.337  1.00  0.00     0.111 A 
ATOM      6  C   UNL     1      -3.742  92.508 -19.748  1.00  0.00     0.134 A 
ATOM      7  C   UNL     1      -4.790  93.152 -20.417  1.00  0.00     0.093 A 
ATOM      8  C   UNL     1      -5.885  93.660 -19.720  1.00  0.00     0.123 A 
ATOM      9  C   UNL     1      -5.948  93.522 -18.332  1.00  0.00     0.094 A 
ATOM     10  C   UNL     1      -4.934  92.854 -17.642  1.00  0.00     0.146 A 
ATOM     11  O   UNL     1      -5.038  92.735 -16.324  1.00  0.00    -0.452 OA
ENDROOT
BRANCH   1  12
ATOM     12  C   UNL     1      -4.362  92.062 -14.108  1.00  0.00     0.029 A 
ATOM     13  C   UNL     1      -3.908  93.097 -13.275  1.00  0.00     0.062 A 
ATOM     14  C   UNL     1      -4.143  93.055 -11.893  1.00  0.00     0.162 A 
ATOM     15  C   UNL     1      -5.088  91.001 -13.546  1.00  0.00     0.062 A 
ATOM     16  C   UNL     1      -4.851  91.977 -11.336  1.00  0.00     0.200 A 
ATOM     17  C   UNL     1      -5.326  90.953 -12.165  1.00  0.00     0.162 A 
BRANCH  14  18
ATOM     18  O   UNL     1      -3.681  94.084 -11.074  1.00  0.00    -0.504 OA
ATOM     19  H   UNL     1      -2.984  93.922 -10.358  1.00  0.00     0.293 HD
ENDBRANCH  14  18
BRANCH  16  20
ATOM     20  O   UNL     1      -5.094  91.911  -9.965  1.00  0.00    -0.502 OA
ATOM     21  H   UNL     1      -5.989  92.166  -9.563  1.00  0.00     0.293 HD
ENDBRANCH  16  20
BRANCH  17  22
ATOM     22  O   UNL     1      -6.034  89.888 -11.610  1.00  0.00    -0.504 OA
ATOM     23  H   UNL     1      -6.894  90.034 -11.095  1.00  0.00     0.293 HD
ENDBRANCH  17  22
ENDBRANCH   1  12
BRANCH   2  24
ATOM     24  O   UNL     1      -2.152  90.719 -15.413  1.00  0.00    -0.502 OA
ATOM     25  H   UNL     1      -1.179  90.980 -15.306  1.00  0.00     0.293 HD
ENDBRANCH   2  24
BRANCH   6  26
ATOM     26  O   UNL     1      -2.647  92.122 -20.528  1.00  0.00    -0.507 OA
ATOM     27  H   UNL     1      -2.231  92.686 -21.254  1.00  0.00     0.293 HD
ENDBRANCH   6  26
BRANCH   8  28
ATOM     28  O   UNL     1      -6.903  94.308 -20.416  1.00  0.00    -0.508 OA
ATOM     29  H   UNL     1      -7.746  94.622 -19.951  1.00  0.00     0.293 HD
ENDBRANCH   8  28
TORSDOF 7
ENDMDL
MODEL 8
REMARK VINA RESULT:    -5.088      3.433      6.171
REMARK INTER + INTRA:          -6.638
REMARK INTER:                  -6.270
REMARK INTRA:                  -0.368
REMARK UNBOUND:                -0.360
REMARK SMILES O=c1c(O)c(-c2cc(O)c(O)c(O)c2)oc2cc(O)cc(O)c12
REMARK SMILES IDX 5 1 3 2 2 3 1 4 23 5 21 6 20 7 18 8 17 9 16 10 15 11 6 12
REMARK SMILES IDX 7 13 8 14 14 15 10 16 12 17 9 18 11 20 13 22 4 24 22 26
REMARK SMILES IDX 19 28
REMARK H PARENT 9 19 11 21 13 23 4 25 22 27 19 29
REMARK Flexibility Score: inf
ROOT
ATOM      1  C   UNL     1      -6.298  90.237 -12.495  1.00  0.00     0.180 A 
ATOM      2  C   UNL     1      -7.204  89.234 -12.106  1.00  0.00     0.208 A 
ATOM      3  C   UNL     1      -7.189  88.781 -10.778  1.00  0.00     0.238 A 
ATOM      4  O   UNL     1      -7.966  87.846 -10.449  1.00  0.00    -0.285 OA
ATOM      5  C   UNL     1      -6.281  89.347  -9.851  1.00  0.00     0.111 A 
ATOM      6  C   UNL     1      -6.206  88.991  -8.470  1.00  0.00     0.134 A 
ATOM      7  C   UNL     1      -5.182  89.521  -7.675  1.00  0.00     0.093 A 
ATOM      8  C   UNL     1      -4.271  90.440  -8.193  1.00  0.00     0.123 A 
ATOM      9  C   UNL     1      -4.371  90.840  -9.526  1.00  0.00     0.094 A 
ATOM     10  C   UNL     1      -5.360  90.302 -10.353  1.00  0.00     0.146 A 
ATOM     11  O   UNL     1      -5.414  90.700 -11.618  1.00  0.00    -0.452 OA
ENDROOT
BRANCH   1  12
ATOM     12  C   UNL     1      -6.271  90.783 -13.871  1.00  0.00     0.029 A 
ATOM     13  C   UNL     1      -7.086  91.864 -14.244  1.00  0.00     0.062 A 
ATOM     14  C   UNL     1      -7.030  92.384 -15.546  1.00  0.00     0.162 A 
ATOM     15  C   UNL     1      -5.372  90.251 -14.807  1.00  0.00     0.062 A 
ATOM     16  C   UNL     1      -6.142  91.829 -16.482  1.00  0.00     0.200 A 
ATOM     17  C   UNL     1      -5.311  90.765 -16.110  1.00  0.00     0.162 A 
BRANCH  14  18
ATOM     18  O   UNL     1      -7.849  93.452 -15.908  1.00  0.00    -0.504 OA
ATOM     19  H   UNL     1      -8.213  93.549 -16.848  1.00  0.00     0.293 HD
ENDBRANCH  14  18
BRANCH  16  20
ATOM     20  O   UNL     1      -6.071  92.325 -17.784  1.00  0.00    -0.502 OA
ATOM     21  H   UNL     1      -5.219  92.721 -18.164  1.00  0.00     0.293 HD
ENDBRANCH  16  20
BRANCH  17  22
ATOM     22  O   UNL     1      -4.426  90.222 -17.040  1.00  0.00    -0.504 OA
ATOM     23  H   UNL     1      -4.150  90.733 -17.871  1.00  0.00     0.293 HD
ENDBRANCH  17  22
ENDBRANCH   1  12
BRANCH   2  24
ATOM     24  O   UNL     1      -8.077  88.675 -13.043  1.00  0.00    -0.502 OA
ATOM     25  H   UNL     1      -8.953  88.240 -12.778  1.00  0.00     0.293 HD
ENDBRANCH   2  24
BRANCH   6  26
ATOM     26  O   UNL     1      -7.123  88.151  -7.829  1.00  0.00    -0.507 OA
ATOM     27  H   UNL     1      -7.890  87.683  -8.287  1.00  0.00     0.293 HD
ENDBRANCH   6  26
BRANCH   8  28
ATOM     28  O   UNL     1      -3.273  90.959  -7.369  1.00  0.00    -0.508 OA
ATOM     29  H   UNL     1      -2.368  91.224  -7.737  1.00  0.00     0.293 HD
ENDBRANCH   8  28
TORSDOF 7
ENDMDL
MODEL 9
REMARK VINA RESULT:    -5.069      4.558      7.037
REMARK INTER + INTRA:          -6.615
REMARK INTER:                  -6.739
REMARK INTRA:                   0.125
REMARK UNBOUND:                -0.360
REMARK SMILES O=c1c(O)c(-c2cc(O)c(O)c(O)c2)oc2cc(O)cc(O)c12
REMARK SMILES IDX 5 1 3 2 2 3 1 4 23 5 21 6 20 7 18 8 17 9 16 10 15 11 6 12
REMARK SMILES IDX 7 13 8 14 14 15 10 16 12 17 9 18 11 20 13 22 4 24 22 26
REMARK SMILES IDX 19 28
REMARK H PARENT 9 19 11 21 13 23 4 25 22 27 19 29
REMARK Flexibility Score: inf
ROOT
ATOM      1  C   UNL     1      -4.728  92.097 -14.929  1.00  0.00     0.180 A 
ATOM      2  C   UNL     1      -5.252  90.894 -14.426  1.00  0.00     0.208 A 
ATOM      3  C   UNL     1      -5.381  90.735 -13.037  1.00  0.00     0.238 A 
ATOM      4  O   UNL     1      -5.801  89.636 -12.590  1.00  0.00    -0.285 OA
ATOM      5  C   UNL     1      -5.001  91.788 -12.170  1.00  0.00     0.111 A 
ATOM      6  C   UNL     1      -5.125  91.751 -10.748  1.00  0.00     0.134 A 
ATOM      7  C   UNL     1      -4.596  92.797  -9.981  1.00  0.00     0.093 A 
ATOM      8  C   UNL     1      -4.006  93.905 -10.586  1.00  0.00     0.123 A 
ATOM      9  C   UNL     1      -3.931  93.979 -11.977  1.00  0.00     0.094 A 
ATOM     10  C   UNL     1      -4.419  92.935 -12.767  1.00  0.00     0.146 A 
ATOM     11  O   UNL     1      -4.319  93.040 -14.087  1.00  0.00    -0.452 OA
ENDROOT
BRANCH   1  12
ATOM     12  C   UNL     1      -4.585  92.348 -16.382  1.00  0.00     0.029 A 
ATOM     13  C   UNL     1      -5.539  91.881 -17.301  1.00  0.00     0.062 A 
ATOM     14  C   UNL     1      -5.399  92.148 -18.671  1.00  0.00     0.162 A 
ATOM     15  C   UNL     1      -3.507  93.116 -16.846  1.00  0.00     0.062 A 
ATOM     16  C   UNL     1      -4.304  92.899 -19.129  1.00  0.00     0.200 A 
ATOM     17  C   UNL     1      -3.361  93.385 -18.215  1.00  0.00     0.162 A 
BRANCH  14  18
ATOM     18  O   UNL     1      -6.348  91.674 -19.576  1.00  0.00    -0.504 OA
ATOM     19  H   UNL     1      -7.291  92.042 -19.599  1.00  0.00     0.293 HD
ENDBRANCH  14  18
BRANCH  16  20
ATOM     20  O   UNL     1      -4.141  93.174 -20.487  1.00  0.00    -0.502 OA
ATOM     21  H   UNL     1      -3.409  93.786 -20.829  1.00  0.00     0.293 HD
ENDBRANCH  16  20
BRANCH  17  22
ATOM     22  O   UNL     1      -2.280  94.137 -18.673  1.00  0.00    -0.504 OA
ATOM     23  H   UNL     1      -1.953  94.956 -18.174  1.00  0.00     0.293 HD
ENDBRANCH  17  22
ENDBRANCH   1  12
BRANCH   2  24
ATOM     24  O   UNL     1      -5.602  89.860 -15.299  1.00  0.00    -0.502 OA
ATOM     25  H   UNL     1      -5.984  90.034 -16.222  1.00  0.00     0.293 HD
ENDBRANCH   2  24
BRANCH   6  26
ATOM     26  O   UNL     1      -5.780  90.733 -10.048  1.00  0.00    -0.507 OA
ATOM     27  H   UNL     1      -5.503  90.389  -9.140  1.00  0.00     0.293 HD
ENDBRANCH   6  26
BRANCH   8  28
ATOM     28  O   UNL     1      -3.503  94.935  -9.792  1.00  0.00    -0.508 OA
ATOM     29  H   UNL     1      -4.076  95.727  -9.527  1.00  0.00     0.293 HD
ENDBRANCH   8  28
TORSDOF 7
ENDMDL
