MODEL 1
REMARK VINA RESULT:    -7.151      0.000      0.000
REMARK INTER + INTRA:          -9.079
REMARK INTER:                  -8.824
REMARK INTRA:                  -0.255
REMARK UNBOUND:                -0.255
REMARK SMILES Oc1cc(O)c2cc(O)c(-c3cc(O)c(O)c(O)c3)[o+]c2c1.[Cl-]
REMARK SMILES IDX 10 1 20 2 21 3 22 4 2 5 3 6 4 7 6 8 7 9 8 10 11 11 12 12
REMARK SMILES IDX 13 13 19 14 15 15 17 16 14 17 16 19 18 21 9 23 1 25 5 27
REMARK H PARENT 14 18 16 20 18 22 9 24 1 26 5 28
REMARK Flexibility Score: inf
ROOT
ATOM      1  C   UNL     1      -0.094   2.129  -3.356  1.00  0.00     0.402 A 
ATOM      2  O   UNL     1      -0.551   3.073  -4.174  1.00  0.00    -0.202 OA
ATOM      3  C   UNL     1      -1.778   3.066  -4.683  1.00  0.00     0.368 A 
ATOM      4  C   UNL     1      -2.167   4.103  -5.537  1.00  0.00     0.162 A 
ATOM      5  C   UNL     1      -3.448   4.119  -6.088  1.00  0.00     0.128 A 
ATOM      6  C   UNL     1      -4.349   3.092  -5.787  1.00  0.00     0.093 A 
ATOM      7  C   UNL     1      -3.985   2.042  -4.934  1.00  0.00     0.136 A 
ATOM      8  C   UNL     1      -2.684   2.024  -4.369  1.00  0.00     0.125 A 
ATOM      9  C   UNL     1      -2.236   1.020  -3.495  1.00  0.00     0.078 A 
ATOM     10  C   UNL     1      -0.939   1.071  -2.974  1.00  0.00     0.223 A 
ENDROOT
BRANCH   1  11
ATOM     11  C   UNL     1       1.297   2.243  -2.862  1.00  0.00     0.091 A 
ATOM     12  C   UNL     1       1.666   3.354  -2.089  1.00  0.00     0.068 A 
ATOM     13  C   UNL     1       2.977   3.498  -1.626  1.00  0.00     0.162 A 
ATOM     14  C   UNL     1       2.275   1.291  -3.199  1.00  0.00     0.068 A 
ATOM     15  C   UNL     1       3.947   2.533  -1.947  1.00  0.00     0.200 A 
ATOM     16  C   UNL     1       3.592   1.428  -2.741  1.00  0.00     0.162 A 
BRANCH  13  17
ATOM     17  O   UNL     1       3.300   4.609  -0.846  1.00  0.00    -0.504 OA
ATOM     18  H   UNL     1       3.332   4.568   0.166  1.00  0.00     0.293 HD
ENDBRANCH  13  17
BRANCH  15  19
ATOM     19  O   UNL     1       5.252   2.683  -1.478  1.00  0.00    -0.502 OA
ATOM     20  H   UNL     1       5.858   1.890  -1.306  1.00  0.00     0.293 HD
ENDBRANCH  15  19
BRANCH  16  21
ATOM     21  O   UNL     1       4.551   0.474  -3.077  1.00  0.00    -0.504 OA
ATOM     22  H   UNL     1       5.318   0.689  -3.703  1.00  0.00     0.293 HD
ENDBRANCH  16  21
ENDBRANCH   1  11
BRANCH  10  23
ATOM     23  O   UNL     1      -0.511   0.102  -2.068  1.00  0.00    -0.500 OA
ATOM     24  H   UNL     1      -0.925   0.013  -1.147  1.00  0.00     0.294 HD
ENDBRANCH  10  23
BRANCH   5  25
ATOM     25  O   UNL     1      -3.816   5.161  -6.936  1.00  0.00    -0.507 OA
ATOM     26  H   UNL     1      -3.695   5.095  -7.940  1.00  0.00     0.293 HD
ENDBRANCH   5  25
BRANCH   7  27
ATOM     27  O   UNL     1      -4.942   1.054  -4.685  1.00  0.00    -0.507 OA
ATOM     28  H   UNL     1      -5.296   0.415  -5.382  1.00  0.00     0.293 HD
ENDBRANCH   7  27
TORSDOF 7
ENDMDL
MODEL 2
REMARK VINA RESULT:    -7.109      4.360      7.459
REMARK INTER + INTRA:          -9.027
REMARK INTER:                  -8.650
REMARK INTRA:                  -0.376
REMARK UNBOUND:                -0.255
REMARK SMILES Oc1cc(O)c2cc(O)c(-c3cc(O)c(O)c(O)c3)[o+]c2c1.[Cl-]
REMARK SMILES IDX 10 1 20 2 21 3 22 4 2 5 3 6 4 7 6 8 7 9 8 10 11 11 12 12
REMARK SMILES IDX 13 13 19 14 15 15 17 16 14 17 16 19 18 21 9 23 1 25 5 27
REMARK H PARENT 14 18 16 20 18 22 9 24 1 26 5 28
REMARK Flexibility Score: inf
ROOT
ATOM      1  C   UNL     1      -3.532  -0.301  -3.603  1.00  0.00     0.402 A 
ATOM      2  O   UNL     1      -2.813  -1.299  -4.109  1.00  0.00    -0.202 OA
ATOM      3  C   UNL     1      -2.655  -2.468  -3.497  1.00  0.00     0.368 A 
ATOM      4  C   UNL     1      -1.878  -3.457  -4.108  1.00  0.00     0.162 A 
ATOM      5  C   UNL     1      -1.693  -4.691  -3.487  1.00  0.00     0.128 A 
ATOM      6  C   UNL     1      -2.286  -4.943  -2.245  1.00  0.00     0.093 A 
ATOM      7  C   UNL     1      -3.070  -3.969  -1.612  1.00  0.00     0.136 A 
ATOM      8  C   UNL     1      -3.263  -2.713  -2.242  1.00  0.00     0.125 A 
ATOM      9  C   UNL     1      -4.041  -1.683  -1.688  1.00  0.00     0.078 A 
ATOM     10  C   UNL     1      -4.189  -0.472  -2.371  1.00  0.00     0.223 A 
ENDROOT
BRANCH   1  11
ATOM     11  C   UNL     1      -3.624   0.958  -4.377  1.00  0.00     0.091 A 
ATOM     12  C   UNL     1      -4.509   1.038  -5.463  1.00  0.00     0.068 A 
ATOM     13  C   UNL     1      -4.604   2.207  -6.224  1.00  0.00     0.162 A 
ATOM     14  C   UNL     1      -2.802   2.060  -4.084  1.00  0.00     0.068 A 
ATOM     15  C   UNL     1      -3.795   3.314  -5.914  1.00  0.00     0.200 A 
ATOM     16  C   UNL     1      -2.888   3.235  -4.843  1.00  0.00     0.162 A 
BRANCH  13  17
ATOM     17  O   UNL     1      -5.507   2.250  -7.285  1.00  0.00    -0.504 OA
ATOM     18  H   UNL     1      -6.314   1.640  -7.333  1.00  0.00     0.293 HD
ENDBRANCH  13  17
BRANCH  15  19
ATOM     19  O   UNL     1      -3.897   4.477  -6.677  1.00  0.00    -0.502 OA
ATOM     20  H   UNL     1      -4.757   5.010  -6.735  1.00  0.00     0.293 HD
ENDBRANCH  15  19
BRANCH  16  21
ATOM     21  O   UNL     1      -2.072   4.324  -4.539  1.00  0.00    -0.504 OA
ATOM     22  H   UNL     1      -1.434   4.307  -3.753  1.00  0.00     0.293 HD
ENDBRANCH  16  21
ENDBRANCH   1  11
BRANCH  10  23
ATOM     23  O   UNL     1      -5.002   0.532  -1.846  1.00  0.00    -0.500 OA
ATOM     24  H   UNL     1      -4.803   0.968  -0.954  1.00  0.00     0.294 HD
ENDBRANCH  10  23
BRANCH   5  25
ATOM     25  O   UNL     1      -0.916  -5.664  -4.112  1.00  0.00    -0.507 OA
ATOM     26  H   UNL     1      -0.910  -6.625  -3.791  1.00  0.00     0.293 HD
ENDBRANCH   5  25
BRANCH   7  27
ATOM     27  O   UNL     1      -3.626  -4.297  -0.371  1.00  0.00    -0.507 OA
ATOM     28  H   UNL     1      -3.458  -3.783   0.482  1.00  0.00     0.293 HD
ENDBRANCH   7  27
TORSDOF 7
ENDMDL
MODEL 3
REMARK VINA RESULT:    -7.098      4.113      6.153
REMARK INTER + INTRA:          -9.013
REMARK INTER:                  -8.915
REMARK INTRA:                  -0.098
REMARK UNBOUND:                -0.255
REMARK SMILES Oc1cc(O)c2cc(O)c(-c3cc(O)c(O)c(O)c3)[o+]c2c1.[Cl-]
REMARK SMILES IDX 10 1 20 2 21 3 22 4 2 5 3 6 4 7 6 8 7 9 8 10 11 11 12 12
REMARK SMILES IDX 13 13 19 14 15 15 17 16 14 17 16 19 18 21 9 23 1 25 5 27
REMARK H PARENT 14 18 16 20 18 22 9 24 1 26 5 28
REMARK Flexibility Score: inf
ROOT
ATOM      1  C   UNL     1      -1.423  -1.417  -3.423  1.00  0.00     0.402 A 
ATOM      2  O   UNL     1      -1.689  -2.480  -2.668  1.00  0.00    -0.202 OA
ATOM      3  C   UNL     1      -2.779  -2.586  -1.917  1.00  0.00     0.368 A 
ATOM      4  C   UNL     1      -2.971  -3.743  -1.155  1.00  0.00     0.162 A 
ATOM      5  C   UNL     1      -4.104  -3.880  -0.355  1.00  0.00     0.128 A 
ATOM      6  C   UNL     1      -5.056  -2.855  -0.312  1.00  0.00     0.093 A 
ATOM      7  C   UNL     1      -4.888  -1.686  -1.066  1.00  0.00     0.136 A 
ATOM      8  C   UNL     1      -3.738  -1.545  -1.884  1.00  0.00     0.125 A 
ATOM      9  C   UNL     1      -3.493  -0.415  -2.682  1.00  0.00     0.078 A 
ATOM     10  C   UNL     1      -2.336  -0.348  -3.466  1.00  0.00     0.223 A 
ENDROOT
BRANCH   1  11
ATOM     11  C   UNL     1      -0.168  -1.413  -4.209  1.00  0.00     0.091 A 
ATOM     12  C   UNL     1       0.717  -0.331  -4.091  1.00  0.00     0.068 A 
ATOM     13  C   UNL     1       1.900  -0.290  -4.835  1.00  0.00     0.162 A 
ATOM     14  C   UNL     1       0.131  -2.443  -5.117  1.00  0.00     0.068 A 
ATOM     15  C   UNL     1       2.205  -1.334  -5.726  1.00  0.00     0.200 A 
ATOM     16  C   UNL     1       1.313  -2.410  -5.868  1.00  0.00     0.162 A 
BRANCH  13  17
ATOM     17  O   UNL     1       2.761   0.796  -4.677  1.00  0.00    -0.504 OA
ATOM     18  H   UNL     1       2.743   1.594  -5.300  1.00  0.00     0.293 HD
ENDBRANCH  13  17
BRANCH  15  19
ATOM     19  O   UNL     1       3.389  -1.286  -6.463  1.00  0.00    -0.502 OA
ATOM     20  H   UNL     1       3.983  -2.098  -6.582  1.00  0.00     0.293 HD
ENDBRANCH  15  19
BRANCH  16  21
ATOM     21  O   UNL     1       1.602  -3.441  -6.761  1.00  0.00    -0.504 OA
ATOM     22  H   UNL     1       1.234  -4.376  -6.631  1.00  0.00     0.293 HD
ENDBRANCH  16  21
ENDBRANCH   1  11
BRANCH  10  23
ATOM     23  O   UNL     1      -2.118   0.750  -4.297  1.00  0.00    -0.500 OA
ATOM     24  H   UNL     1      -1.295   1.334  -4.204  1.00  0.00     0.294 HD
ENDBRANCH  10  23
BRANCH   5  25
ATOM     25  O   UNL     1      -4.277  -5.040   0.397  1.00  0.00    -0.507 OA
ATOM     26  H   UNL     1      -5.183  -5.300   0.771  1.00  0.00     0.293 HD
ENDBRANCH   5  25
BRANCH   7  27
ATOM     27  O   UNL     1      -5.882  -0.708  -0.967  1.00  0.00    -0.507 OA
ATOM     28  H   UNL     1      -6.777  -0.848  -0.521  1.00  0.00     0.293 HD
ENDBRANCH   7  27
TORSDOF 7
ENDMDL
MODEL 4
REMARK VINA RESULT:    -7.097      4.200      6.487
REMARK INTER + INTRA:          -9.012
REMARK INTER:                  -8.783
REMARK INTRA:                  -0.228
REMARK UNBOUND:                -0.255
REMARK SMILES Oc1cc(O)c2cc(O)c(-c3cc(O)c(O)c(O)c3)[o+]c2c1.[Cl-]
REMARK SMILES IDX 10 1 20 2 21 3 22 4 2 5 3 6 4 7 6 8 7 9 8 10 11 11 12 12
REMARK SMILES IDX 13 13 19 14 15 15 17 16 14 17 16 19 18 21 9 23 1 25 5 27
REMARK H PARENT 14 18 16 20 18 22 9 24 1 26 5 28
REMARK Flexibility Score: inf
ROOT
ATOM      1  C   UNL     1      -1.557  -1.459  -3.377  1.00  0.00     0.402 A 
ATOM      2  O   UNL     1      -1.774  -2.538  -2.630  1.00  0.00    -0.202 OA
ATOM      3  C   UNL     1      -2.844  -2.687  -1.857  1.00  0.00     0.368 A 
ATOM      4  C   UNL     1      -2.984  -3.857  -1.105  1.00  0.00     0.162 A 
ATOM      5  C   UNL     1      -4.095  -4.039  -0.283  1.00  0.00     0.128 A 
ATOM      6  C   UNL     1      -5.076  -3.044  -0.208  1.00  0.00     0.093 A 
ATOM      7  C   UNL     1      -4.961  -1.863  -0.951  1.00  0.00     0.136 A 
ATOM      8  C   UNL     1      -3.833  -1.676  -1.791  1.00  0.00     0.125 A 
ATOM      9  C   UNL     1      -3.641  -0.530  -2.580  1.00  0.00     0.078 A 
ATOM     10  C   UNL     1      -2.504  -0.418  -3.388  1.00  0.00     0.223 A 
ENDROOT
BRANCH   1  11
ATOM     11  C   UNL     1      -0.321  -1.407  -4.190  1.00  0.00     0.091 A 
ATOM     12  C   UNL     1      -0.081  -2.405  -5.148  1.00  0.00     0.068 A 
ATOM     13  C   UNL     1       1.087  -2.392  -5.915  1.00  0.00     0.162 A 
ATOM     14  C   UNL     1       0.649  -0.411  -3.985  1.00  0.00     0.068 A 
ATOM     15  C   UNL     1       2.045  -1.381  -5.721  1.00  0.00     0.200 A 
ATOM     16  C   UNL     1       1.824  -0.391  -4.748  1.00  0.00     0.162 A 
BRANCH  13  17
ATOM     17  O   UNL     1       1.280  -3.393  -6.868  1.00  0.00    -0.504 OA
ATOM     18  H   UNL     1       0.953  -4.341  -6.728  1.00  0.00     0.293 HD
ENDBRANCH  13  17
BRANCH  15  19
ATOM     19  O   UNL     1       3.206  -1.375  -6.494  1.00  0.00    -0.502 OA
ATOM     20  H   UNL     1       3.546  -2.206  -6.964  1.00  0.00     0.293 HD
ENDBRANCH  15  19
BRANCH  16  21
ATOM     21  O   UNL     1       2.776   0.605  -4.540  1.00  0.00    -0.504 OA
ATOM     22  H   UNL     1       3.604   0.678  -5.118  1.00  0.00     0.293 HD
ENDBRANCH  16  21
ENDBRANCH   1  11
BRANCH  10  23
ATOM     23  O   UNL     1      -2.337   0.696  -4.210  1.00  0.00    -0.500 OA
ATOM     24  H   UNL     1      -1.418   1.035  -4.469  1.00  0.00     0.294 HD
ENDBRANCH  10  23
BRANCH   5  25
ATOM     25  O   UNL     1      -4.216  -5.213   0.458  1.00  0.00    -0.507 OA
ATOM     26  H   UNL     1      -3.845  -5.286   1.398  1.00  0.00     0.293 HD
ENDBRANCH   5  25
BRANCH   7  27
ATOM     27  O   UNL     1      -5.982  -0.917  -0.819  1.00  0.00    -0.507 OA
ATOM     28  H   UNL     1      -6.737  -0.797  -1.479  1.00  0.00     0.293 HD
ENDBRANCH   7  27
TORSDOF 7
ENDMDL
MODEL 5
REMARK VINA RESULT:    -7.090      3.788      7.095
REMARK INTER + INTRA:          -9.003
REMARK INTER:                  -8.655
REMARK INTRA:                  -0.347
REMARK UNBOUND:                -0.255
REMARK SMILES Oc1cc(O)c2cc(O)c(-c3cc(O)c(O)c(O)c3)[o+]c2c1.[Cl-]
REMARK SMILES IDX 10 1 20 2 21 3 22 4 2 5 3 6 4 7 6 8 7 9 8 10 11 11 12 12
REMARK SMILES IDX 13 13 19 14 15 15 17 16 14 17 16 19 18 21 9 23 1 25 5 27
REMARK H PARENT 14 18 16 20 18 22 9 24 1 26 5 28
REMARK Flexibility Score: inf
ROOT
ATOM      1  C   UNL     1       2.800   2.110  -3.082  1.00  0.00     0.402 A 
ATOM      2  O   UNL     1       3.832   2.222  -2.251  1.00  0.00    -0.202 OA
ATOM      3  C   UNL     1       4.056   3.301  -1.508  1.00  0.00     0.368 A 
ATOM      4  C   UNL     1       5.170   3.327  -0.664  1.00  0.00     0.162 A 
ATOM      5  C   UNL     1       5.431   4.447   0.124  1.00  0.00     0.128 A 
ATOM      6  C   UNL     1       4.575   5.553   0.070  1.00  0.00     0.093 A 
ATOM      7  C   UNL     1       3.452   5.552  -0.767  1.00  0.00     0.136 A 
ATOM      8  C   UNL     1       3.181   4.413  -1.567  1.00  0.00     0.125 A 
ATOM      9  C   UNL     1       2.073   4.318  -2.426  1.00  0.00     0.078 A 
ATOM     10  C   UNL     1       1.869   3.160  -3.183  1.00  0.00     0.223 A 
ENDROOT
BRANCH   1  11
ATOM     11  C   UNL     1       2.664   0.860  -3.864  1.00  0.00     0.091 A 
ATOM     12  C   UNL     1       3.406   0.700  -5.045  1.00  0.00     0.068 A 
ATOM     13  C   UNL     1       3.284  -0.461  -5.814  1.00  0.00     0.162 A 
ATOM     14  C   UNL     1       1.764  -0.149  -3.482  1.00  0.00     0.068 A 
ATOM     15  C   UNL     1       2.398  -1.477  -5.416  1.00  0.00     0.200 A 
ATOM     16  C   UNL     1       1.633  -1.316  -4.247  1.00  0.00     0.162 A 
BRANCH  13  17
ATOM     17  O   UNL     1       4.051  -0.588  -6.972  1.00  0.00    -0.504 OA
ATOM     18  H   UNL     1       5.017  -0.288  -7.015  1.00  0.00     0.293 HD
ENDBRANCH  13  17
BRANCH  15  19
ATOM     19  O   UNL     1       2.284  -2.634  -6.188  1.00  0.00    -0.502 OA
ATOM     20  H   UNL     1       1.869  -3.485  -5.827  1.00  0.00     0.293 HD
ENDBRANCH  15  19
BRANCH  16  21
ATOM     21  O   UNL     1       0.741  -2.313  -3.855  1.00  0.00    -0.504 OA
ATOM     22  H   UNL     1      -0.090  -2.100  -3.316  1.00  0.00     0.293 HD
ENDBRANCH  16  21
ENDBRANCH   1  11
BRANCH  10  23
ATOM     23  O   UNL     1       0.743   3.046  -3.996  1.00  0.00    -0.500 OA
ATOM     24  H   UNL     1      -0.084   2.542  -3.695  1.00  0.00     0.294 HD
ENDBRANCH  10  23
BRANCH   5  25
ATOM     25  O   UNL     1       6.546   4.454   0.959  1.00  0.00    -0.507 OA
ATOM     26  H   UNL     1       6.770   5.255   1.539  1.00  0.00     0.293 HD
ENDBRANCH   5  25
BRANCH   7  27
ATOM     27  O   UNL     1       2.647   6.696  -0.766  1.00  0.00    -0.507 OA
ATOM     28  H   UNL     1       2.406   7.223  -1.592  1.00  0.00     0.293 HD
ENDBRANCH   7  27
TORSDOF 7
ENDMDL
MODEL 6
REMARK VINA RESULT:    -7.059      4.362      5.475
REMARK INTER + INTRA:          -8.964
REMARK INTER:                  -8.643
REMARK INTRA:                  -0.321
REMARK UNBOUND:                -0.255
REMARK SMILES Oc1cc(O)c2cc(O)c(-c3cc(O)c(O)c(O)c3)[o+]c2c1.[Cl-]
REMARK SMILES IDX 10 1 20 2 21 3 22 4 2 5 3 6 4 7 6 8 7 9 8 10 11 11 12 12
REMARK SMILES IDX 13 13 19 14 15 15 17 16 14 17 16 19 18 21 9 23 1 25 5 27
REMARK H PARENT 14 18 16 20 18 22 9 24 1 26 5 28
REMARK Flexibility Score: inf
ROOT
ATOM      1  C   UNL     1      -0.653  -1.899  -4.263  1.00  0.00     0.402 A 
ATOM      2  O   UNL     1      -1.534  -1.009  -3.814  1.00  0.00    -0.202 OA
ATOM      3  C   UNL     1      -2.626  -1.342  -3.134  1.00  0.00     0.368 A 
ATOM      4  C   UNL     1      -3.495  -0.334  -2.706  1.00  0.00     0.162 A 
ATOM      5  C   UNL     1      -4.649  -0.655  -1.992  1.00  0.00     0.128 A 
ATOM      6  C   UNL     1      -4.941  -1.993  -1.703  1.00  0.00     0.093 A 
ATOM      7  C   UNL     1      -4.087  -3.021  -2.121  1.00  0.00     0.136 A 
ATOM      8  C   UNL     1      -2.910  -2.698  -2.844  1.00  0.00     0.125 A 
ATOM      9  C   UNL     1      -1.990  -3.662  -3.291  1.00  0.00     0.078 A 
ATOM     10  C   UNL     1      -0.849  -3.266  -3.996  1.00  0.00     0.223 A 
ENDROOT
BRANCH   1  11
ATOM     11  C   UNL     1       0.520  -1.404  -5.019  1.00  0.00     0.091 A 
ATOM     12  C   UNL     1       1.768  -1.324  -4.382  1.00  0.00     0.068 A 
ATOM     13  C   UNL     1       2.889  -0.842  -5.064  1.00  0.00     0.162 A 
ATOM     14  C   UNL     1       0.401  -0.956  -6.345  1.00  0.00     0.068 A 
ATOM     15  C   UNL     1       2.769  -0.416  -6.398  1.00  0.00     0.200 A 
ATOM     16  C   UNL     1       1.518  -0.470  -7.037  1.00  0.00     0.162 A 
BRANCH  13  17
ATOM     17  O   UNL     1       4.114  -0.794  -4.400  1.00  0.00    -0.504 OA
ATOM     18  H   UNL     1       4.244  -0.272  -3.542  1.00  0.00     0.293 HD
ENDBRANCH  13  17
BRANCH  15  19
ATOM     19  O   UNL     1       3.894   0.062  -7.073  1.00  0.00    -0.502 OA
ATOM     20  H   UNL     1       3.841   0.825  -7.736  1.00  0.00     0.293 HD
ENDBRANCH  15  19
BRANCH  16  21
ATOM     21  O   UNL     1       1.389  -0.034  -8.355  1.00  0.00    -0.504 OA
ATOM     22  H   UNL     1       2.018  -0.349  -9.083  1.00  0.00     0.293 HD
ENDBRANCH  16  21
ENDBRANCH   1  11
BRANCH  10  23
ATOM     23  O   UNL     1       0.090  -4.217  -4.396  1.00  0.00    -0.500 OA
ATOM     24  H   UNL     1       0.056  -5.173  -4.062  1.00  0.00     0.294 HD
ENDBRANCH  10  23
BRANCH   5  25
ATOM     25  O   UNL     1      -5.502   0.364  -1.574  1.00  0.00    -0.507 OA
ATOM     26  H   UNL     1      -6.461   0.418  -1.897  1.00  0.00     0.293 HD
ENDBRANCH   5  25
BRANCH   7  27
ATOM     27  O   UNL     1      -4.450  -4.331  -1.795  1.00  0.00    -0.507 OA
ATOM     28  H   UNL     1      -5.080  -4.579  -1.046  1.00  0.00     0.293 HD
ENDBRANCH   7  27
TORSDOF 7
ENDMDL
MODEL 7
REMARK VINA RESULT:    -7.003      3.545      6.594
REMARK INTER + INTRA:          -8.896
REMARK INTER:                  -8.541
REMARK INTRA:                  -0.354
REMARK UNBOUND:                -0.255
REMARK SMILES Oc1cc(O)c2cc(O)c(-c3cc(O)c(O)c(O)c3)[o+]c2c1.[Cl-]
REMARK SMILES IDX 10 1 20 2 21 3 22 4 2 5 3 6 4 7 6 8 7 9 8 10 11 11 12 12
REMARK SMILES IDX 13 13 19 14 15 15 17 16 14 17 16 19 18 21 9 23 1 25 5 27
REMARK H PARENT 14 18 16 20 18 22 9 24 1 26 5 28
REMARK Flexibility Score: inf
ROOT
ATOM      1  C   UNL     1      -2.973  -0.080  -3.222  1.00  0.00     0.402 A 
ATOM      2  O   UNL     1      -2.188  -1.050  -3.682  1.00  0.00    -0.202 OA
ATOM      3  C   UNL     1      -2.323  -2.325  -3.333  1.00  0.00     0.368 A 
ATOM      4  C   UNL     1      -1.446  -3.273  -3.869  1.00  0.00     0.162 A 
ATOM      5  C   UNL     1      -1.562  -4.617  -3.518  1.00  0.00     0.128 A 
ATOM      6  C   UNL     1      -2.560  -5.021  -2.624  1.00  0.00     0.093 A 
ATOM      7  C   UNL     1      -3.451  -4.091  -2.074  1.00  0.00     0.136 A 
ATOM      8  C   UNL     1      -3.338  -2.723  -2.431  1.00  0.00     0.125 A 
ATOM      9  C   UNL     1      -4.194  -1.723  -1.939  1.00  0.00     0.078 A 
ATOM     10  C   UNL     1      -4.023  -0.394  -2.340  1.00  0.00     0.223 A 
ENDROOT
BRANCH   1  11
ATOM     11  C   UNL     1      -2.716   1.305  -3.678  1.00  0.00     0.091 A 
ATOM     12  C   UNL     1      -1.742   2.077  -3.026  1.00  0.00     0.068 A 
ATOM     13  C   UNL     1      -1.492   3.394  -3.422  1.00  0.00     0.162 A 
ATOM     14  C   UNL     1      -3.466   1.886  -4.715  1.00  0.00     0.068 A 
ATOM     15  C   UNL     1      -2.230   3.964  -4.474  1.00  0.00     0.200 A 
ATOM     16  C   UNL     1      -3.223   3.206  -5.117  1.00  0.00     0.162 A 
BRANCH  13  17
ATOM     17  O   UNL     1      -0.504   4.123  -2.758  1.00  0.00    -0.504 OA
ATOM     18  H   UNL     1      -0.248   3.933  -1.797  1.00  0.00     0.293 HD
ENDBRANCH  13  17
BRANCH  15  19
ATOM     19  O   UNL     1      -1.971   5.279  -4.864  1.00  0.00    -0.502 OA
ATOM     20  H   UNL     1      -1.343   5.882  -4.346  1.00  0.00     0.293 HD
ENDBRANCH  15  19
BRANCH  16  21
ATOM     21  O   UNL     1      -3.970   3.770  -6.151  1.00  0.00    -0.504 OA
ATOM     22  H   UNL     1      -4.503   4.621  -6.018  1.00  0.00     0.293 HD
ENDBRANCH  16  21
ENDBRANCH   1  11
BRANCH  10  23
ATOM     23  O   UNL     1      -4.904   0.590  -1.892  1.00  0.00    -0.500 OA
ATOM     24  H   UNL     1      -4.998   0.813  -0.909  1.00  0.00     0.294 HD
ENDBRANCH  10  23
BRANCH   5  25
ATOM     25  O   UNL     1      -0.679  -5.547  -4.062  1.00  0.00    -0.507 OA
ATOM     26  H   UNL     1       0.088  -5.929  -3.521  1.00  0.00     0.293 HD
ENDBRANCH   5  25
BRANCH   7  27
ATOM     27  O   UNL     1      -4.419  -4.573  -1.187  1.00  0.00    -0.507 OA
ATOM     28  H   UNL     1      -4.424  -5.506  -0.802  1.00  0.00     0.293 HD
ENDBRANCH   7  27
TORSDOF 7
ENDMDL
MODEL 8
REMARK VINA RESULT:    -6.988      3.130      5.301
REMARK INTER + INTRA:          -8.877
REMARK INTER:                  -8.523
REMARK INTRA:                  -0.354
REMARK UNBOUND:                -0.255
REMARK SMILES Oc1cc(O)c2cc(O)c(-c3cc(O)c(O)c(O)c3)[o+]c2c1.[Cl-]
REMARK SMILES IDX 10 1 20 2 21 3 22 4 2 5 3 6 4 7 6 8 7 9 8 10 11 11 12 12
REMARK SMILES IDX 13 13 19 14 15 15 17 16 14 17 16 19 18 21 9 23 1 25 5 27
REMARK H PARENT 14 18 16 20 18 22 9 24 1 26 5 28
REMARK Flexibility Score: inf
ROOT
ATOM      1  C   UNL     1      -0.828   0.972  -3.301  1.00  0.00     0.402 A 
ATOM      2  O   UNL     1       0.011   0.276  -4.064  1.00  0.00    -0.202 OA
ATOM      3  C   UNL     1      -0.105  -1.031  -4.271  1.00  0.00     0.368 A 
ATOM      4  C   UNL     1       0.829  -1.676  -5.088  1.00  0.00     0.162 A 
ATOM      5  C   UNL     1       0.733  -3.047  -5.321  1.00  0.00     0.128 A 
ATOM      6  C   UNL     1      -0.301  -3.784  -4.733  1.00  0.00     0.093 A 
ATOM      7  C   UNL     1      -1.249  -3.162  -3.911  1.00  0.00     0.136 A 
ATOM      8  C   UNL     1      -1.157  -1.766  -3.675  1.00  0.00     0.125 A 
ATOM      9  C   UNL     1      -2.069  -1.057  -2.875  1.00  0.00     0.078 A 
ATOM     10  C   UNL     1      -1.915   0.321  -2.691  1.00  0.00     0.223 A 
ENDROOT
BRANCH   1  11
ATOM     11  C   UNL     1      -0.587   2.424  -3.139  1.00  0.00     0.091 A 
ATOM     12  C   UNL     1      -1.290   3.334  -3.943  1.00  0.00     0.068 A 
ATOM     13  C   UNL     1      -1.069   4.709  -3.825  1.00  0.00     0.162 A 
ATOM     14  C   UNL     1       0.374   2.911  -2.236  1.00  0.00     0.068 A 
ATOM     15  C   UNL     1      -0.122   5.193  -2.906  1.00  0.00     0.200 A 
ATOM     16  C   UNL     1       0.603   4.287  -2.113  1.00  0.00     0.162 A 
BRANCH  13  17
ATOM     17  O   UNL     1      -1.800   5.582  -4.632  1.00  0.00    -0.504 OA
ATOM     18  H   UNL     1      -1.356   6.192  -5.308  1.00  0.00     0.293 HD
ENDBRANCH  13  17
BRANCH  15  19
ATOM     19  O   UNL     1       0.090   6.568  -2.793  1.00  0.00    -0.502 OA
ATOM     20  H   UNL     1       0.262   7.016  -1.901  1.00  0.00     0.293 HD
ENDBRANCH  15  19
BRANCH  16  21
ATOM     21  O   UNL     1       1.555   4.759  -1.210  1.00  0.00    -0.504 OA
ATOM     22  H   UNL     1       2.161   5.538  -1.435  1.00  0.00     0.293 HD
ENDBRANCH  16  21
ENDBRANCH   1  11
BRANCH  10  23
ATOM     23  O   UNL     1      -2.849   1.034  -1.939  1.00  0.00    -0.500 OA
ATOM     24  H   UNL     1      -3.406   1.776  -2.346  1.00  0.00     0.294 HD
ENDBRANCH  10  23
BRANCH   5  25
ATOM     25  O   UNL     1       1.673  -3.672  -6.139  1.00  0.00    -0.507 OA
ATOM     26  H   UNL     1       2.461  -4.177  -5.750  1.00  0.00     0.293 HD
ENDBRANCH   5  25
BRANCH   7  27
ATOM     27  O   UNL     1      -2.250  -3.967  -3.359  1.00  0.00    -0.507 OA
ATOM     28  H   UNL     1      -2.304  -4.969  -3.474  1.00  0.00     0.293 HD
ENDBRANCH   7  27
TORSDOF 7
ENDMDL
MODEL 9
REMARK VINA RESULT:    -6.982      4.356      7.683
REMARK INTER + INTRA:          -8.870
REMARK INTER:                  -8.811
REMARK INTRA:                  -0.059
REMARK UNBOUND:                -0.255
REMARK SMILES Oc1cc(O)c2cc(O)c(-c3cc(O)c(O)c(O)c3)[o+]c2c1.[Cl-]
REMARK SMILES IDX 10 1 20 2 21 3 22 4 2 5 3 6 4 7 6 8 7 9 8 10 11 11 12 12
REMARK SMILES IDX 13 13 19 14 15 15 17 16 14 17 16 19 18 21 9 23 1 25 5 27
REMARK H PARENT 14 18 16 20 18 22 9 24 1 26 5 28
REMARK Flexibility Score: inf
ROOT
ATOM      1  C   UNL     1      -1.768  -2.425  -3.257  1.00  0.00     0.402 A 
ATOM      2  O   UNL     1      -0.942  -1.396  -3.426  1.00  0.00    -0.202 OA
ATOM      3  C   UNL     1       0.125  -1.439  -4.216  1.00  0.00     0.368 A 
ATOM      4  C   UNL     1       0.935  -0.305  -4.327  1.00  0.00     0.162 A 
ATOM      5  C   UNL     1       2.063  -0.323  -5.147  1.00  0.00     0.128 A 
ATOM      6  C   UNL     1       2.387  -1.481  -5.862  1.00  0.00     0.093 A 
ATOM      7  C   UNL     1       1.592  -2.630  -5.768  1.00  0.00     0.136 A 
ATOM      8  C   UNL     1       0.442  -2.615  -4.938  1.00  0.00     0.125 A 
ATOM      9  C   UNL     1      -0.420  -3.715  -4.793  1.00  0.00     0.078 A 
ATOM     10  C   UNL     1      -1.538  -3.624  -3.957  1.00  0.00     0.223 A 
ENDROOT
BRANCH   1  11
ATOM     11  C   UNL     1      -2.919  -2.257  -2.340  1.00  0.00     0.091 A 
ATOM     12  C   UNL     1      -3.686  -1.083  -2.403  1.00  0.00     0.068 A 
ATOM     13  C   UNL     1      -4.765  -0.888  -1.537  1.00  0.00     0.162 A 
ATOM     14  C   UNL     1      -3.228  -3.223  -1.367  1.00  0.00     0.068 A 
ATOM     15  C   UNL     1      -5.084  -1.867  -0.579  1.00  0.00     0.200 A 
ATOM     16  C   UNL     1      -4.307  -3.035  -0.494  1.00  0.00     0.162 A 
BRANCH  13  17
ATOM     17  O   UNL     1      -5.512   0.286  -1.642  1.00  0.00    -0.504 OA
ATOM     18  H   UNL     1      -6.248   0.398  -2.329  1.00  0.00     0.293 HD
ENDBRANCH  13  17
BRANCH  15  19
ATOM     19  O   UNL     1      -6.165  -1.665   0.279  1.00  0.00    -0.502 OA
ATOM     20  H   UNL     1      -6.564  -0.747   0.438  1.00  0.00     0.293 HD
ENDBRANCH  15  19
BRANCH  16  21
ATOM     21  O   UNL     1      -4.607  -4.003   0.464  1.00  0.00    -0.504 OA
ATOM     22  H   UNL     1      -5.228  -4.777   0.260  1.00  0.00     0.293 HD
ENDBRANCH  16  21
ENDBRANCH   1  11
BRANCH  10  23
ATOM     23  O   UNL     1      -2.421  -4.697  -3.852  1.00  0.00    -0.500 OA
ATOM     24  H   UNL     1      -3.010  -4.982  -4.626  1.00  0.00     0.294 HD
ENDBRANCH  10  23
BRANCH   5  25
ATOM     25  O   UNL     1       2.858   0.817  -5.245  1.00  0.00    -0.507 OA
ATOM     26  H   UNL     1       2.840   1.539  -4.534  1.00  0.00     0.293 HD
ENDBRANCH   5  25
BRANCH   7  27
ATOM     27  O   UNL     1       1.984  -3.747  -6.512  1.00  0.00    -0.507 OA
ATOM     28  H   UNL     1       2.582  -3.710  -7.324  1.00  0.00     0.293 HD
ENDBRANCH   7  27
TORSDOF 7
ENDMDL
