MODEL 1
REMARK VINA RESULT:    33.841      0.000      0.000
REMARK INTER + INTRA:          38.467
REMARK INTER:                  38.787
REMARK INTRA:                  -0.320
REMARK UNBOUND:                -0.320
REMARK SMILES O=C1C[C@@H](c2ccc(O)cc2)Oc2cc(O)cc(O)c21
REMARK SMILES IDX 3 1 4 2 12 3 13 4 14 5 15 6 17 7 18 8 20 9 2 10 1 11 5 12
REMARK SMILES IDX 6 13 11 14 7 15 10 16 8 17 9 18 19 20 16 22
REMARK H PARENT 9 19 19 21 16 23
REMARK Flexibility Score: inf
ROOT
ATOM      1  C   UNL     1      18.069  40.044  11.946  1.00  0.00     0.131 C 
ATOM      2  C   UNL     1      17.668  40.544  10.550  1.00  0.00     0.211 C 
ATOM      3  O   UNL     1      18.158  41.870  10.331  1.00  0.00    -0.484 OA
ATOM      4  C   UNL     1      19.422  42.291  10.770  1.00  0.00     0.138 A 
ATOM      5  C   UNL     1      19.940  43.494  10.285  1.00  0.00     0.093 A 
ATOM      6  C   UNL     1      21.201  43.934  10.691  1.00  0.00     0.123 A 
ATOM      7  C   UNL     1      21.937  43.179  11.611  1.00  0.00     0.093 A 
ATOM      8  C   UNL     1      21.418  41.991  12.142  1.00  0.00     0.133 A 
ATOM      9  C   UNL     1      20.157  41.517  11.694  1.00  0.00     0.102 A 
ATOM     10  C   UNL     1      19.544  40.240  12.133  1.00  0.00     0.174 C 
ATOM     11  O   UNL     1      20.236  39.300  12.606  1.00  0.00    -0.294 OA
ENDROOT
BRANCH   2  12
ATOM     12  C   UNL     1      16.169  40.513  10.382  1.00  0.00    -0.007 A 
ATOM     13  C   UNL     1      15.498  41.575   9.753  1.00  0.00     0.011 A 
ATOM     14  C   UNL     1      15.421  39.444  10.904  1.00  0.00     0.011 A 
ATOM     15  C   UNL     1      14.105  41.556   9.626  1.00  0.00     0.046 A 
ATOM     16  C   UNL     1      14.029  39.426  10.776  1.00  0.00     0.046 A 
ATOM     17  C   UNL     1      13.367  40.480  10.137  1.00  0.00     0.115 A 
BRANCH  17  18
ATOM     18  O   UNL     1      11.980  40.449  10.017  1.00  0.00    -0.508 OA
ATOM     19  H   UNL     1      11.497  39.625   9.676  1.00  0.00     0.293 HD
ENDBRANCH  17  18
ENDBRANCH   2  12
BRANCH   8  20
ATOM     20  O   UNL     1      22.171  41.345  13.125  1.00  0.00    -0.507 OA
ATOM     21  H   UNL     1      22.167  41.606  14.100  1.00  0.00     0.293 HD
ENDBRANCH   8  20
BRANCH   6  22
ATOM     22  O   UNL     1      21.712  45.124  10.179  1.00  0.00    -0.508 OA
ATOM     23  H   UNL     1      21.873  45.247   9.186  1.00  0.00     0.293 HD
ENDBRANCH   6  22
TORSDOF 4
ENDMDL
MODEL 2
REMARK VINA RESULT:    34.511      0.055      1.085
REMARK INTER + INTRA:          39.235
REMARK INTER:                  39.550
REMARK INTRA:                  -0.315
REMARK UNBOUND:                -0.320
REMARK SMILES O=C1C[C@@H](c2ccc(O)cc2)Oc2cc(O)cc(O)c21
REMARK SMILES IDX 3 1 4 2 12 3 13 4 14 5 15 6 17 7 18 8 20 9 2 10 1 11 5 12
REMARK SMILES IDX 6 13 11 14 7 15 10 16 8 17 9 18 19 20 16 22
REMARK H PARENT 9 19 19 21 16 23
REMARK Flexibility Score: inf
ROOT
ATOM      1  C   UNL     1      18.058  40.028  11.980  1.00  0.00     0.131 C 
ATOM      2  C   UNL     1      17.643  40.554  10.598  1.00  0.00     0.211 C 
ATOM      3  O   UNL     1      18.141  41.880  10.394  1.00  0.00    -0.484 OA
ATOM      4  C   UNL     1      19.414  42.283  10.822  1.00  0.00     0.138 A 
ATOM      5  C   UNL     1      19.935  43.489  10.350  1.00  0.00     0.093 A 
ATOM      6  C   UNL     1      21.205  43.912  10.746  1.00  0.00     0.123 A 
ATOM      7  C   UNL     1      21.947  43.137  11.644  1.00  0.00     0.093 A 
ATOM      8  C   UNL     1      21.425  41.944  12.162  1.00  0.00     0.133 A 
ATOM      9  C   UNL     1      20.154  41.488  11.724  1.00  0.00     0.102 A 
ATOM     10  C   UNL     1      19.537  40.209  12.150  1.00  0.00     0.174 C 
ATOM     11  O   UNL     1      20.228  39.256  12.599  1.00  0.00    -0.294 OA
ENDROOT
BRANCH   2  12
ATOM     12  C   UNL     1      16.141  40.538  10.450  1.00  0.00    -0.007 A 
ATOM     13  C   UNL     1      15.385  39.461  10.945  1.00  0.00     0.011 A 
ATOM     14  C   UNL     1      15.487  41.575   9.763  1.00  0.00     0.011 A 
ATOM     15  C   UNL     1      13.997  39.436  10.778  1.00  0.00     0.046 A 
ATOM     16  C   UNL     1      14.099  41.548   9.597  1.00  0.00     0.046 A 
ATOM     17  C   UNL     1      13.350  40.481  10.104  1.00  0.00     0.115 A 
BRANCH  17  18
ATOM     18  O   UNL     1      11.968  40.467   9.932  1.00  0.00    -0.508 OA
ATOM     19  H   UNL     1      11.497  41.174   9.378  1.00  0.00     0.293 HD
ENDBRANCH  17  18
ENDBRANCH   2  12
BRANCH   8  20
ATOM     20  O   UNL     1      22.186  41.277  13.124  1.00  0.00    -0.507 OA
ATOM     21  H   UNL     1      22.137  41.469  14.115  1.00  0.00     0.293 HD
ENDBRANCH   8  20
BRANCH   6  22
ATOM     22  O   UNL     1      21.718  45.106  10.246  1.00  0.00    -0.508 OA
ATOM     23  H   UNL     1      21.113  45.836   9.890  1.00  0.00     0.293 HD
ENDBRANCH   6  22
TORSDOF 4
ENDMDL
