MODEL 1
REMARK VINA RESULT:    -4.786      0.000      0.000
REMARK INTER + INTRA:          -7.556
REMARK INTER:                  -7.304
REMARK INTRA:                  -0.252
REMARK UNBOUND:                -0.252
REMARK SMILES CC1=CCC[C@H](C)C(=O)C[C@@H](C(C)C)C(=O)C1
REMARK SMILES IDX 8 1 9 2 6 3 7 4 5 5 4 6 3 7 2 8 1 9 10 11 11 12 15 13 16 14
REMARK SMILES IDX 17 15 12 17 13 18 14 19
REMARK H PARENT
REMARK Flexibility Score: 70.00
ROOT
ATOM      1  C   UNL     1      13.398 -18.919 -29.840  1.00  0.00     0.136 C 
ATOM      2  O   UNL     1      13.804 -19.646 -28.944  1.00  0.00    -0.299 OA
ENDROOT
BRANCH   1   3
ATOM      3  C   UNL     1      13.384 -19.435 -31.266  1.00  0.00     0.053 C 
ATOM      4  C   UNL     1      12.515 -20.696 -31.367  1.00  0.00     0.016 C 
BRANCH   3   5
ATOM      5  C   UNL     1      12.882 -18.339 -32.234  1.00  0.00     0.015 C 
BRANCH   5   6
ATOM      6  C   UNL     1      11.444 -18.620 -32.712  1.00  0.00     0.028 C 
BRANCH   6   7
ATOM      7  C   UNL     1      10.614 -17.371 -32.884  1.00  0.00    -0.028 C 
ATOM      8  C   UNL     1       9.902 -16.753 -31.908  1.00  0.00    -0.070 CG0
ATOM      9  C   UNL     1       9.220 -15.454 -32.257  1.00  0.00     0.039 C 
ATOM     10  G   UNL     1       9.713 -17.324 -30.508  1.00  0.00     0.000 G0
ENDBRANCH   6   7
ENDBRANCH   5   6
ENDBRANCH   3   5
ENDBRANCH   1   3
BRANCH   1  11
ATOM     11  C   UNL     1      12.943 -17.518 -29.495  1.00  0.00     0.087 C 
BRANCH  11  12
ATOM     12  C   UNL     1      11.620 -17.520 -28.681  1.00  0.00     0.066 C 
BRANCH  12  13
ATOM     13  C   UNL     1      10.572 -16.697 -29.417  1.00  0.00     0.140 C 
ATOM     14  O   UNL     1      10.392 -15.525 -29.116  1.00  0.00    -0.299 OA
BRANCH  13  15
ATOM     15  C   UNL     1       9.722 -17.338 -30.487  1.00  0.00     0.106 CG0
ATOM     16  G   UNL     1       9.908 -16.733 -31.873  1.00  0.00     0.000 G0
ENDBRANCH  13  15
ENDBRANCH  12  13
BRANCH  12  17
ATOM     17  C   UNL     1      11.801 -17.018 -27.210  1.00  0.00    -0.006 C 
ATOM     18  C   UNL     1      13.282 -16.864 -26.816  1.00  0.00     0.008 C 
ATOM     19  C   UNL     1      11.125 -17.978 -26.212  1.00  0.00     0.008 C 
ENDBRANCH  12  17
ENDBRANCH  11  12
ENDBRANCH   1  11
TORSDOF 1
ENDMDL
MODEL 2
REMARK VINA RESULT:    -4.585      2.292      4.932
REMARK INTER + INTRA:          -7.249
REMARK INTER:                  -7.505
REMARK INTRA:                   0.256
REMARK UNBOUND:                -0.252
REMARK SMILES CC1=CCC[C@H](C)C(=O)C[C@@H](C(C)C)C(=O)C1
REMARK SMILES IDX 8 1 9 2 6 3 7 4 5 5 4 6 3 7 2 8 1 9 10 11 11 12 15 13 16 14
REMARK SMILES IDX 17 15 12 17 13 18 14 19
REMARK H PARENT
REMARK Flexibility Score: 70.00
ROOT
ATOM      1  C   UNL     1      14.044 -16.154 -30.638  1.00  0.00     0.136 C 
ATOM      2  O   UNL     1      14.725 -15.207 -31.006  1.00  0.00    -0.299 OA
ENDROOT
BRANCH   1   3
ATOM      3  C   UNL     1      13.535 -16.193 -29.210  1.00  0.00     0.053 C 
ATOM      4  C   UNL     1      14.122 -15.026 -28.404  1.00  0.00     0.016 C 
BRANCH   3   5
ATOM      5  C   UNL     1      11.989 -16.159 -29.184  1.00  0.00     0.015 C 
BRANCH   5   6
ATOM      6  C   UNL     1      11.416 -17.183 -28.187  1.00  0.00     0.028 C 
BRANCH   6   7
ATOM      7  C   UNL     1      12.233 -18.449 -28.090  1.00  0.00    -0.028 C 
ATOM      8  C   UNL     1      12.267 -19.442 -29.014  1.00  0.00    -0.070 CG0
ATOM      9  C   UNL     1      13.230 -20.579 -28.782  1.00  0.00     0.039 C 
ATOM     10  G   UNL     1      11.356 -19.494 -30.234  1.00  0.00     0.000 G0
ENDBRANCH   6   7
ENDBRANCH   5   6
ENDBRANCH   3   5
ENDBRANCH   1   3
BRANCH   1  11
ATOM     11  C   UNL     1      13.752 -17.269 -31.619  1.00  0.00     0.087 C 
BRANCH  11  12
ATOM     12  C   UNL     1      12.230 -17.549 -31.745  1.00  0.00     0.066 C 
BRANCH  12  13
ATOM     13  C   UNL     1      11.967 -19.031 -31.521  1.00  0.00     0.140 C 
ATOM     14  O   UNL     1      12.232 -19.839 -32.400  1.00  0.00    -0.299 OA
BRANCH  13  15
ATOM     15  C   UNL     1      11.336 -19.501 -30.233  1.00  0.00     0.106 CG0
ATOM     16  G   UNL     1      12.264 -19.434 -29.026  1.00  0.00     0.000 G0
ENDBRANCH  13  15
ENDBRANCH  12  13
BRANCH  12  17
ATOM     17  C   UNL     1      11.626 -17.067 -33.107  1.00  0.00    -0.006 C 
ATOM     18  C   UNL     1      12.660 -16.340 -33.987  1.00  0.00     0.008 C 
ATOM     19  C   UNL     1      10.428 -16.126 -32.878  1.00  0.00     0.008 C 
ENDBRANCH  12  17
ENDBRANCH  11  12
ENDBRANCH   1  11
TORSDOF 1
ENDMDL
MODEL 3
REMARK VINA RESULT:    -4.464      2.198      2.967
REMARK INTER + INTRA:          -7.064
REMARK INTER:                  -7.174
REMARK INTRA:                   0.110
REMARK UNBOUND:                -0.252
REMARK SMILES CC1=CCC[C@H](C)C(=O)C[C@@H](C(C)C)C(=O)C1
REMARK SMILES IDX 8 1 9 2 6 3 7 4 5 5 4 6 3 7 2 8 1 9 10 11 11 12 15 13 16 14
REMARK SMILES IDX 17 15 12 17 13 18 14 19
REMARK H PARENT
REMARK Flexibility Score: 70.00
ROOT
ATOM      1  C   UNL     1      13.358 -16.553 -31.106  1.00  0.00     0.136 C 
ATOM      2  O   UNL     1      14.493 -16.138 -31.300  1.00  0.00    -0.299 OA
ENDROOT
BRANCH   1   3
ATOM      3  C   UNL     1      12.723 -17.483 -32.122  1.00  0.00     0.053 C 
ATOM      4  C   UNL     1      12.773 -16.857 -33.522  1.00  0.00     0.016 C 
BRANCH   3   5
ATOM      5  C   UNL     1      13.426 -18.861 -32.108  1.00  0.00     0.015 C 
BRANCH   5   6
ATOM      6  C   UNL     1      12.524 -19.951 -31.500  1.00  0.00     0.028 C 
BRANCH   6   7
ATOM      7  C   UNL     1      11.169 -19.440 -31.071  1.00  0.00    -0.028 C 
ATOM      8  C   UNL     1      10.854 -18.974 -29.836  1.00  0.00    -0.070 CG0
ATOM      9  C   UNL     1       9.470 -18.409 -29.636  1.00  0.00     0.039 C 
ATOM     10  G   UNL     1      11.796 -19.039 -28.641  1.00  0.00     0.000 G0
ENDBRANCH   6   7
ENDBRANCH   5   6
ENDBRANCH   3   5
ENDBRANCH   1   3
BRANCH   1  11
ATOM     11  C   UNL     1      12.618 -16.101 -29.866  1.00  0.00     0.087 C 
BRANCH  11  12
ATOM     12  C   UNL     1      13.158 -16.789 -28.584  1.00  0.00     0.066 C 
BRANCH  12  13
ATOM     13  C   UNL     1      12.081 -17.694 -28.002  1.00  0.00     0.140 C 
ATOM     14  O   UNL     1      11.468 -17.350 -27.001  1.00  0.00    -0.299 OA
BRANCH  13  15
ATOM     15  C   UNL     1      11.800 -19.037 -28.632  1.00  0.00     0.106 CG0
ATOM     16  G   UNL     1      10.854 -18.978 -29.825  1.00  0.00     0.000 G0
ENDBRANCH  13  15
ENDBRANCH  12  13
BRANCH  12  17
ATOM     17  C   UNL     1      13.681 -15.774 -27.513  1.00  0.00    -0.006 C 
ATOM     18  C   UNL     1      14.468 -14.608 -28.140  1.00  0.00     0.008 C 
ATOM     19  C   UNL     1      14.583 -16.476 -26.480  1.00  0.00     0.008 C 
ENDBRANCH  12  17
ENDBRANCH  11  12
ENDBRANCH   1  11
TORSDOF 1
ENDMDL
MODEL 4
REMARK VINA RESULT:    -4.376      1.791      4.156
REMARK INTER + INTRA:          -6.930
REMARK INTER:                  -6.929
REMARK INTRA:                  -0.001
REMARK UNBOUND:                -0.252
REMARK SMILES CC1=CCC[C@H](C)C(=O)C[C@@H](C(C)C)C(=O)C1
REMARK SMILES IDX 8 1 9 2 6 3 7 4 5 5 4 6 3 7 2 8 1 9 10 11 11 12 15 13 16 14
REMARK SMILES IDX 17 15 12 17 13 18 14 19
REMARK H PARENT
REMARK Flexibility Score: 70.00
ROOT
ATOM      1  C   UNL     1      12.830 -16.588 -28.738  1.00  0.00     0.136 C 
ATOM      2  O   UNL     1      13.149 -15.493 -28.295  1.00  0.00    -0.299 OA
ENDROOT
BRANCH   1   3
ATOM      3  C   UNL     1      11.544 -17.236 -28.261  1.00  0.00     0.053 C 
ATOM      4  C   UNL     1      11.495 -17.255 -26.727  1.00  0.00     0.016 C 
BRANCH   3   5
ATOM      5  C   UNL     1      10.316 -16.499 -28.844  1.00  0.00     0.015 C 
BRANCH   5   6
ATOM      6  C   UNL     1       9.252 -17.488 -29.357  1.00  0.00     0.028 C 
BRANCH   6   7
ATOM      7  C   UNL     1       9.290 -17.687 -30.853  1.00  0.00    -0.028 C 
ATOM      8  C   UNL     1      10.109 -18.541 -31.517  1.00  0.00    -0.070 CG0
ATOM      9  C   UNL     1       9.920 -18.671 -33.008  1.00  0.00     0.039 C 
ATOM     10  G   UNL     1      11.232 -19.326 -30.852  1.00  0.00     0.000 G0
ENDBRANCH   6   7
ENDBRANCH   5   6
ENDBRANCH   3   5
ENDBRANCH   1   3
BRANCH   1  11
ATOM     11  C   UNL     1      13.744 -17.268 -29.733  1.00  0.00     0.087 C 
BRANCH  11  12
ATOM     12  C   UNL     1      13.068 -17.442 -31.120  1.00  0.00     0.066 C 
BRANCH  12  13
ATOM     13  C   UNL     1      12.640 -18.892 -31.296  1.00  0.00     0.140 C 
ATOM     14  O   UNL     1      13.399 -19.694 -31.825  1.00  0.00    -0.299 OA
BRANCH  13  15
ATOM     15  C   UNL     1      11.264 -19.334 -30.862  1.00  0.00     0.106 CG0
ATOM     16  G   UNL     1      10.128 -18.547 -31.504  1.00  0.00     0.000 G0
ENDBRANCH  13  15
ENDBRANCH  12  13
BRANCH  12  17
ATOM     17  C   UNL     1      13.970 -16.971 -32.309  1.00  0.00    -0.006 C 
ATOM     18  C   UNL     1      14.830 -15.745 -31.948  1.00  0.00     0.008 C 
ATOM     19  C   UNL     1      13.117 -16.625 -33.545  1.00  0.00     0.008 C 
ENDBRANCH  12  17
ENDBRANCH  11  12
ENDBRANCH   1  11
TORSDOF 1
ENDMDL
MODEL 5
REMARK VINA RESULT:    -4.373      1.649      4.430
REMARK INTER + INTRA:          -6.926
REMARK INTER:                  -7.093
REMARK INTRA:                   0.168
REMARK UNBOUND:                -0.252
REMARK SMILES CC1=CCC[C@H](C)C(=O)C[C@@H](C(C)C)C(=O)C1
REMARK SMILES IDX 8 1 9 2 6 3 7 4 5 5 4 6 3 7 2 8 1 9 10 11 11 12 15 13 16 14
REMARK SMILES IDX 17 15 12 17 13 18 14 19
REMARK H PARENT
REMARK Flexibility Score: 70.00
ROOT
ATOM      1  C   UNL     1      13.138 -16.237 -28.748  1.00  0.00     0.136 C 
ATOM      2  O   UNL     1      12.605 -15.135 -28.750  1.00  0.00    -0.299 OA
ENDROOT
BRANCH   1   3
ATOM      3  C   UNL     1      13.187 -17.036 -27.460  1.00  0.00     0.053 C 
ATOM      4  C   UNL     1      14.138 -16.370 -26.457  1.00  0.00     0.016 C 
BRANCH   3   5
ATOM      5  C   UNL     1      11.769 -17.186 -26.861  1.00  0.00     0.015 C 
BRANCH   5   6
ATOM      6  C   UNL     1      11.012 -18.373 -27.486  1.00  0.00     0.028 C 
BRANCH   6   7
ATOM      7  C   UNL     1      10.087 -17.971 -28.609  1.00  0.00    -0.028 C 
ATOM      8  C   UNL     1      10.082 -18.503 -29.858  1.00  0.00    -0.070 CG0
ATOM      9  C   UNL     1       9.008 -18.038 -30.809  1.00  0.00     0.039 C 
ATOM     10  G   UNL     1      11.125 -19.493 -30.361  1.00  0.00     0.000 G0
ENDBRANCH   6   7
ENDBRANCH   5   6
ENDBRANCH   3   5
ENDBRANCH   1   3
BRANCH   1  11
ATOM     11  C   UNL     1      13.751 -16.754 -30.031  1.00  0.00     0.087 C 
BRANCH  11  12
ATOM     12  C   UNL     1      12.702 -17.456 -30.935  1.00  0.00     0.066 C 
BRANCH  12  13
ATOM     13  C   UNL     1      12.524 -18.897 -30.480  1.00  0.00     0.140 C 
ATOM     14  O   UNL     1      13.505 -19.586 -30.234  1.00  0.00    -0.299 OA
BRANCH  13  15
ATOM     15  C   UNL     1      11.142 -19.493 -30.375  1.00  0.00     0.106 CG0
ATOM     16  G   UNL     1      10.080 -18.516 -29.886  1.00  0.00     0.000 G0
ENDBRANCH  13  15
ENDBRANCH  12  13
BRANCH  12  17
ATOM     17  C   UNL     1      13.054 -17.384 -32.459  1.00  0.00    -0.006 C 
ATOM     18  C   UNL     1      14.276 -16.490 -32.740  1.00  0.00     0.008 C 
ATOM     19  C   UNL     1      11.861 -16.856 -33.278  1.00  0.00     0.008 C 
ENDBRANCH  12  17
ENDBRANCH  11  12
ENDBRANCH   1  11
TORSDOF 1
ENDMDL
MODEL 6
REMARK VINA RESULT:    -4.150      1.731      2.583
REMARK INTER + INTRA:          -6.585
REMARK INTER:                  -6.499
REMARK INTRA:                  -0.086
REMARK UNBOUND:                -0.252
REMARK SMILES CC1=CCC[C@H](C)C(=O)C[C@@H](C(C)C)C(=O)C1
REMARK SMILES IDX 8 1 9 2 6 3 7 4 5 5 4 6 3 7 2 8 1 9 10 11 11 12 15 13 16 14
REMARK SMILES IDX 17 15 12 17 13 18 14 19
REMARK H PARENT
REMARK Flexibility Score: 70.00
ROOT
ATOM      1  C   UNL     1      12.908 -17.373 -32.215  1.00  0.00     0.136 C 
ATOM      2  O   UNL     1      13.946 -17.764 -32.731  1.00  0.00    -0.299 OA
ENDROOT
BRANCH   1   3
ATOM      3  C   UNL     1      11.673 -17.192 -33.077  1.00  0.00     0.053 C 
ATOM      4  C   UNL     1      12.060 -16.619 -34.448  1.00  0.00     0.016 C 
BRANCH   3   5
ATOM      5  C   UNL     1      10.919 -18.533 -33.232  1.00  0.00     0.015 C 
BRANCH   5   6
ATOM      6  C   UNL     1       9.515 -18.470 -32.601  1.00  0.00     0.028 C 
BRANCH   6   7
ATOM      7  C   UNL     1       9.133 -17.089 -32.123  1.00  0.00    -0.028 C 
ATOM      8  C   UNL     1       9.206 -16.647 -30.843  1.00  0.00    -0.070 CG0
ATOM      9  C   UNL     1       8.877 -15.198 -30.585  1.00  0.00     0.039 C 
ATOM     10  G   UNL     1       9.548 -17.540 -29.656  1.00  0.00     0.000 G0
ENDBRANCH   6   7
ENDBRANCH   5   6
ENDBRANCH   3   5
ENDBRANCH   1   3
BRANCH   1  11
ATOM     11  C   UNL     1      12.900 -17.062 -30.735  1.00  0.00     0.087 C 
BRANCH  11  12
ATOM     12  C   UNL     1      12.092 -18.112 -29.924  1.00  0.00     0.066 C 
BRANCH  12  13
ATOM     13  C   UNL     1      10.974 -17.414 -29.163  1.00  0.00     0.140 C 
ATOM     14  O   UNL     1      11.226 -16.795 -28.138  1.00  0.00    -0.299 OA
BRANCH  13  15
ATOM     15  C   UNL     1       9.548 -17.523 -29.645  1.00  0.00     0.106 CG0
ATOM     16  G   UNL     1       9.227 -16.636 -30.841  1.00  0.00     0.000 G0
ENDBRANCH  13  15
ENDBRANCH  12  13
BRANCH  12  17
ATOM     17  C   UNL     1      12.984 -18.966 -28.962  1.00  0.00    -0.006 C 
ATOM     18  C   UNL     1      14.081 -18.130 -28.276  1.00  0.00     0.008 C 
ATOM     19  C   UNL     1      13.654 -20.130 -29.716  1.00  0.00     0.008 C 
ENDBRANCH  12  17
ENDBRANCH  11  12
ENDBRANCH   1  11
TORSDOF 1
ENDMDL
MODEL 7
REMARK VINA RESULT:    -4.088      1.980      3.894
REMARK INTER + INTRA:          -6.490
REMARK INTER:                  -7.288
REMARK INTRA:                   0.798
REMARK UNBOUND:                -0.252
REMARK SMILES CC1=CCC[C@H](C)C(=O)C[C@@H](C(C)C)C(=O)C1
REMARK SMILES IDX 8 1 9 2 6 3 7 4 5 5 4 6 3 7 2 8 1 9 10 11 11 12 15 13 16 14
REMARK SMILES IDX 17 15 12 17 13 18 14 19
REMARK H PARENT
REMARK Flexibility Score: 70.00
ROOT
ATOM      1  C   UNL     1      10.021 -16.998 -30.309  1.00  0.00     0.136 C 
ATOM      2  O   UNL     1       9.020 -17.561 -29.889  1.00  0.00    -0.299 OA
ENDROOT
BRANCH   1   3
ATOM      3  C   UNL     1      10.421 -17.179 -31.761  1.00  0.00     0.053 C 
ATOM      4  C   UNL     1      10.060 -15.929 -32.573  1.00  0.00     0.016 C 
BRANCH   3   5
ATOM      5  C   UNL     1      11.931 -17.493 -31.872  1.00  0.00     0.015 C 
BRANCH   5   6
ATOM      6  C   UNL     1      12.206 -19.005 -31.762  1.00  0.00     0.028 C 
BRANCH   6   7
ATOM      7  C   UNL     1      13.347 -19.342 -30.832  1.00  0.00    -0.028 C 
ATOM      8  C   UNL     1      13.230 -19.639 -29.513  1.00  0.00    -0.070 CG0
ATOM      9  C   UNL     1      14.481 -20.051 -28.778  1.00  0.00     0.039 C 
ATOM     10  G   UNL     1      11.927 -19.527 -28.731  1.00  0.00     0.000 G0
ENDBRANCH   6   7
ENDBRANCH   5   6
ENDBRANCH   3   5
ENDBRANCH   1   3
BRANCH   1  11
ATOM     11  C   UNL     1      10.840 -16.155 -29.356  1.00  0.00     0.087 C 
BRANCH  11  12
ATOM     12  C   UNL     1      12.105 -16.904 -28.856  1.00  0.00     0.066 C 
BRANCH  12  13
ATOM     13  C   UNL     1      11.685 -18.162 -28.109  1.00  0.00     0.140 C 
ATOM     14  O   UNL     1      11.177 -18.074 -27.000  1.00  0.00    -0.299 OA
BRANCH  13  15
ATOM     15  C   UNL     1      11.938 -19.522 -28.714  1.00  0.00     0.106 CG0
ATOM     16  G   UNL     1      13.226 -19.612 -29.523  1.00  0.00     0.000 G0
ENDBRANCH  13  15
ENDBRANCH  12  13
BRANCH  12  17
ATOM     17  C   UNL     1      13.044 -16.012 -27.978  1.00  0.00    -0.006 C 
ATOM     18  C   UNL     1      13.888 -15.037 -28.819  1.00  0.00     0.008 C 
ATOM     19  C   UNL     1      13.994 -16.878 -27.129  1.00  0.00     0.008 C 
ENDBRANCH  12  17
ENDBRANCH  11  12
ENDBRANCH   1  11
TORSDOF 1
ENDMDL
MODEL 8
REMARK VINA RESULT:    -3.974      1.892      3.954
REMARK INTER + INTRA:          -6.317
REMARK INTER:                  -6.745
REMARK INTRA:                   0.428
REMARK UNBOUND:                -0.252
REMARK SMILES CC1=CCC[C@H](C)C(=O)C[C@@H](C(C)C)C(=O)C1
REMARK SMILES IDX 8 1 9 2 6 3 7 4 5 5 4 6 3 7 2 8 1 9 10 11 11 12 15 13 16 14
REMARK SMILES IDX 17 15 12 17 13 18 14 19
REMARK H PARENT
REMARK Flexibility Score: 70.00
ROOT
ATOM      1  C   UNL     1      10.982 -16.387 -30.398  1.00  0.00     0.136 C 
ATOM      2  O   UNL     1      11.748 -16.381 -31.352  1.00  0.00    -0.299 OA
ENDROOT
BRANCH   1   3
ATOM      3  C   UNL     1       9.493 -16.228 -30.639  1.00  0.00     0.053 C 
ATOM      4  C   UNL     1       9.218 -14.952 -31.446  1.00  0.00     0.016 C 
BRANCH   3   5
ATOM      5  C   UNL     1       8.926 -17.472 -31.362  1.00  0.00     0.015 C 
BRANCH   5   6
ATOM      6  C   UNL     1       9.257 -18.770 -30.602  1.00  0.00     0.028 C 
BRANCH   6   7
ATOM      7  C   UNL     1      10.451 -19.506 -31.162  1.00  0.00    -0.028 C 
ATOM      8  C   UNL     1      11.586 -19.806 -30.482  1.00  0.00    -0.070 CG0
ATOM      9  C   UNL     1      12.623 -20.641 -31.190  1.00  0.00     0.039 C 
ATOM     10  G   UNL     1      11.887 -19.305 -29.075  1.00  0.00     0.000 G0
ENDBRANCH   6   7
ENDBRANCH   5   6
ENDBRANCH   3   5
ENDBRANCH   1   3
BRANCH   1  11
ATOM     11  C   UNL     1      11.553 -16.530 -29.004  1.00  0.00     0.087 C 
BRANCH  11  12
ATOM     12  C   UNL     1      13.046 -16.957 -29.028  1.00  0.00     0.066 C 
BRANCH  12  13
ATOM     13  C   UNL     1      13.140 -18.474 -28.947  1.00  0.00     0.140 C 
ATOM     14  O   UNL     1      14.231 -19.014 -28.826  1.00  0.00    -0.299 OA
BRANCH  13  15
ATOM     15  C   UNL     1      11.893 -19.317 -29.061  1.00  0.00     0.106 CG0
ATOM     16  G   UNL     1      11.593 -19.795 -30.477  1.00  0.00     0.000 G0
ENDBRANCH  13  15
ENDBRANCH  12  13
BRANCH  12  17
ATOM     17  C   UNL     1      13.900 -16.278 -27.906  1.00  0.00    -0.006 C 
ATOM     18  C   UNL     1      13.312 -16.500 -26.500  1.00  0.00     0.008 C 
ATOM     19  C   UNL     1      14.027 -14.762 -28.151  1.00  0.00     0.008 C 
ENDBRANCH  12  17
ENDBRANCH  11  12
ENDBRANCH   1  11
TORSDOF 1
ENDMDL
MODEL 9
REMARK VINA RESULT:    -3.745      1.608      3.562
REMARK INTER + INTRA:          -5.968
REMARK INTER:                  -6.910
REMARK INTRA:                   0.942
REMARK UNBOUND:                -0.252
REMARK SMILES CC1=CCC[C@H](C)C(=O)C[C@@H](C(C)C)C(=O)C1
REMARK SMILES IDX 8 1 9 2 6 3 7 4 5 5 4 6 3 7 2 8 1 9 10 11 11 12 15 13 16 14
REMARK SMILES IDX 17 15 12 17 13 18 14 19
REMARK H PARENT
REMARK Flexibility Score: 70.00
ROOT
ATOM      1  C   UNL     1      12.886 -16.950 -28.618  1.00  0.00     0.136 C 
ATOM      2  O   UNL     1      13.690 -16.870 -27.699  1.00  0.00    -0.299 OA
ENDROOT
BRANCH   1   3
ATOM      3  C   UNL     1      11.449 -17.328 -28.317  1.00  0.00     0.053 C 
ATOM      4  C   UNL     1      11.227 -17.412 -26.801  1.00  0.00     0.016 C 
BRANCH   3   5
ATOM      5  C   UNL     1      10.476 -16.315 -28.963  1.00  0.00     0.015 C 
BRANCH   5   6
ATOM      6  C   UNL     1       9.695 -16.944 -30.132  1.00  0.00     0.028 C 
BRANCH   6   7
ATOM      7  C   UNL     1       9.959 -16.276 -31.460  1.00  0.00    -0.028 C 
ATOM      8  C   UNL     1      10.690 -16.798 -32.477  1.00  0.00    -0.070 CG0
ATOM      9  C   UNL     1      10.750 -16.017 -33.765  1.00  0.00     0.039 C 
ATOM     10  G   UNL     1      11.488 -18.091 -32.369  1.00  0.00     0.000 G0
ENDBRANCH   6   7
ENDBRANCH   5   6
ENDBRANCH   3   5
ENDBRANCH   1   3
BRANCH   1  11
ATOM     11  C   UNL     1      13.364 -16.692 -30.031  1.00  0.00     0.087 C 
BRANCH  11  12
ATOM     12  C   UNL     1      13.595 -18.010 -30.817  1.00  0.00     0.066 C 
BRANCH  12  13
ATOM     13  C   UNL     1      12.974 -17.889 -32.202  1.00  0.00     0.140 C 
ATOM     14  O   UNL     1      13.673 -17.588 -33.160  1.00  0.00    -0.299 OA
BRANCH  13  15
ATOM     15  C   UNL     1      11.491 -18.095 -32.388  1.00  0.00     0.106 CG0
ATOM     16  G   UNL     1      10.691 -16.801 -32.481  1.00  0.00     0.000 G0
ENDBRANCH  13  15
ENDBRANCH  12  13
BRANCH  12  17
ATOM     17  C   UNL     1      13.060 -19.277 -30.068  1.00  0.00    -0.006 C 
ATOM     18  C   UNL     1      14.140 -19.946 -29.196  1.00  0.00     0.008 C 
ATOM     19  C   UNL     1      12.517 -20.320 -31.064  1.00  0.00     0.008 C 
ENDBRANCH  12  17
ENDBRANCH  11  12
ENDBRANCH   1  11
TORSDOF 1
ENDMDL
