MODEL 1
REMARK VINA RESULT:    -1.671      0.000      0.000
REMARK INTER + INTRA:          -1.671
REMARK INTER:                  -1.671
REMARK INTRA:                   0.000
REMARK UNBOUND:                 0.000
REMARK SMILES CC(=O)[O-]
REMARK SMILES IDX 1 1 2 2 3 3 4 4
REMARK H PARENT
REMARK Flexibility Score: inf
ROOT
ATOM      1  C   UNL     1      75.350  72.610  91.916  1.00  0.00     0.063 C 
ATOM      2  C   UNL     1      73.988  73.037  92.344  1.00  0.00     0.038 C 
ATOM      3  O   UNL     1      73.834  74.115  92.976  1.00  0.00    -0.550 OA
ATOM      4  O   UNL     1      72.878  72.275  92.001  1.00  0.00    -0.550 OA
ENDROOT
TORSDOF 0
ENDMDL
MODEL 2
REMARK VINA RESULT:    -1.567     27.527     27.823
REMARK INTER + INTRA:          -1.567
REMARK INTER:                  -1.567
REMARK INTRA:                   0.000
REMARK UNBOUND:                 0.000
REMARK SMILES CC(=O)[O-]
REMARK SMILES IDX 1 1 2 2 3 3 4 4
REMARK H PARENT
REMARK Flexibility Score: inf
ROOT
ATOM      1  C   UNL     1      84.456  91.309  74.574  1.00  0.00     0.063 C 
ATOM      2  C   UNL     1      83.617  90.942  73.398  1.00  0.00     0.038 C 
ATOM      3  O   UNL     1      83.725  89.802  72.876  1.00  0.00    -0.550 OA
ATOM      4  O   UNL     1      82.673  91.836  72.909  1.00  0.00    -0.550 OA
ENDROOT
TORSDOF 0
ENDMDL
MODEL 3
REMARK VINA RESULT:    -1.563     26.029     26.208
REMARK INTER + INTRA:          -1.563
REMARK INTER:                  -1.563
REMARK INTRA:                   0.000
REMARK UNBOUND:                 0.000
REMARK SMILES CC(=O)[O-]
REMARK SMILES IDX 1 1 2 2 3 3 4 4
REMARK H PARENT
REMARK Flexibility Score: inf
ROOT
ATOM      1  C   UNL     1      74.010  90.325  73.007  1.00  0.00     0.063 C 
ATOM      2  C   UNL     1      73.671  91.537  73.804  1.00  0.00     0.038 C 
ATOM      3  O   UNL     1      72.572  92.124  73.624  1.00  0.00    -0.550 OA
ATOM      4  O   UNL     1      74.541  91.990  74.788  1.00  0.00    -0.550 OA
ENDROOT
TORSDOF 0
ENDMDL
MODEL 4
REMARK VINA RESULT:    -1.555     17.046     17.639
REMARK INTER + INTRA:          -1.555
REMARK INTER:                  -1.555
REMARK INTRA:                   0.000
REMARK UNBOUND:                 0.000
REMARK SMILES CC(=O)[O-]
REMARK SMILES IDX 1 1 2 2 3 3 4 4
REMARK H PARENT
REMARK Flexibility Score: inf
ROOT
ATOM      1  C   UNL     1      74.203  90.681  93.074  1.00  0.00     0.063 C 
ATOM      2  C   UNL     1      75.606  90.497  92.603  1.00  0.00     0.038 C 
ATOM      3  O   UNL     1      76.267  91.484  92.188  1.00  0.00    -0.550 OA
ATOM      4  O   UNL     1      76.206  89.246  92.673  1.00  0.00    -0.550 OA
ENDROOT
TORSDOF 0
ENDMDL
MODEL 5
REMARK VINA RESULT:    -1.526     19.692     19.879
REMARK INTER + INTRA:          -1.526
REMARK INTER:                  -1.526
REMARK INTRA:                   0.000
REMARK UNBOUND:                 0.000
REMARK SMILES CC(=O)[O-]
REMARK SMILES IDX 1 1 2 2 3 3 4 4
REMARK H PARENT
REMARK Flexibility Score: inf
ROOT
ATOM      1  C   UNL     1      71.919  79.240  74.618  1.00  0.00     0.063 C 
ATOM      2  C   UNL     1      72.636  78.686  73.435  1.00  0.00     0.038 C 
ATOM      3  O   UNL     1      72.250  77.610  72.909  1.00  0.00    -0.550 OA
ATOM      4  O   UNL     1      73.699  79.385  72.875  1.00  0.00    -0.550 OA
ENDROOT
TORSDOF 0
ENDMDL
MODEL 6
REMARK VINA RESULT:    -1.517     19.453     19.798
REMARK INTER + INTRA:          -1.517
REMARK INTER:                  -1.517
REMARK INTRA:                   0.000
REMARK UNBOUND:                 0.000
REMARK SMILES CC(=O)[O-]
REMARK SMILES IDX 1 1 2 2 3 3 4 4
REMARK H PARENT
REMARK Flexibility Score: inf
ROOT
ATOM      1  C   UNL     1      71.920  90.623  81.207  1.00  0.00     0.063 C 
ATOM      2  C   UNL     1      72.646  89.873  82.271  1.00  0.00     0.038 C 
ATOM      3  O   UNL     1      72.051  89.548  83.332  1.00  0.00    -0.550 OA
ATOM      4  O   UNL     1      73.964  89.483  82.073  1.00  0.00    -0.550 OA
ENDROOT
TORSDOF 0
ENDMDL
MODEL 7
REMARK VINA RESULT:    -1.515     16.159     16.602
REMARK INTER + INTRA:          -1.515
REMARK INTER:                  -1.515
REMARK INTRA:                   0.000
REMARK UNBOUND:                 0.000
REMARK SMILES CC(=O)[O-]
REMARK SMILES IDX 1 1 2 2 3 3 4 4
REMARK H PARENT
REMARK Flexibility Score: inf
ROOT
ATOM      1  C   UNL     1      74.222  90.698  93.047  1.00  0.00     0.063 C 
ATOM      2  C   UNL     1      74.543  89.422  92.345  1.00  0.00     0.038 C 
ATOM      3  O   UNL     1      73.651  88.818  91.695  1.00  0.00    -0.550 OA
ATOM      4  O   UNL     1      75.841  88.926  92.361  1.00  0.00    -0.550 OA
ENDROOT
TORSDOF 0
ENDMDL
MODEL 8
REMARK VINA RESULT:    -1.496     27.515     27.789
REMARK INTER + INTRA:          -1.496
REMARK INTER:                  -1.496
REMARK INTRA:                   0.000
REMARK UNBOUND:                 0.000
REMARK SMILES CC(=O)[O-]
REMARK SMILES IDX 1 1 2 2 3 3 4 4
REMARK H PARENT
REMARK Flexibility Score: inf
ROOT
ATOM      1  C   UNL     1      82.748  91.719  73.023  1.00  0.00     0.063 C 
ATOM      2  C   UNL     1      83.892  90.949  73.589  1.00  0.00     0.038 C 
ATOM      3  O   UNL     1      84.667  91.489  74.420  1.00  0.00    -0.550 OA
ATOM      4  O   UNL     1      84.073  89.616  73.242  1.00  0.00    -0.550 OA
ENDROOT
TORSDOF 0
ENDMDL
