MODEL 1
REMARK VINA RESULT:    -3.587      0.000      0.000
REMARK INTER + INTRA:          -5.260
REMARK INTER:                  -4.845
REMARK INTRA:                  -0.415
REMARK UNBOUND:                -0.415
REMARK SMILES CCCCCCCC(=O)[O-]
REMARK SMILES IDX 5 1 6 2 7 3 8 4 9 5 10 6 4 7 3 8 2 9 1 10
REMARK H PARENT
REMARK Flexibility Score: inf
ROOT
ATOM      1  C   UNL     1       4.350   4.937   1.744  1.00  0.00     0.000 C 
ENDROOT
BRANCH   1   2
ATOM      2  C   UNL     1       3.927   6.386   1.433  1.00  0.00     0.006 C 
BRANCH   2   3
ATOM      3  C   UNL     1       4.201   7.384   2.570  1.00  0.00     0.053 C 
BRANCH   3   4
ATOM      4  C   UNL     1       3.139   7.336   3.624  1.00  0.00     0.041 C 
ATOM      5  O   UNL     1       3.389   6.845   4.755  1.00  0.00    -0.550 OA
ATOM      6  O   UNL     1       1.881   7.865   3.367  1.00  0.00    -0.550 OA
ENDBRANCH   3   4
ENDBRANCH   2   3
ENDBRANCH   1   2
BRANCH   1   7
ATOM      7  C   UNL     1       5.375   4.328   0.766  1.00  0.00     0.000 C 
BRANCH   7   8
ATOM      8  C   UNL     1       6.828   4.313   1.271  1.00  0.00    -0.000 C 
BRANCH   8   9
ATOM      9  C   UNL     1       7.797   5.028   0.319  1.00  0.00    -0.003 C 
ATOM     10  C   UNL     1       7.428   6.500   0.160  1.00  0.00     0.004 C 
ENDBRANCH   8   9
ENDBRANCH   7   8
ENDBRANCH   1   7
TORSDOF 6
ENDMDL
MODEL 2
REMARK VINA RESULT:    -3.487      3.044      5.403
REMARK INTER + INTRA:          -5.125
REMARK INTER:                  -4.973
REMARK INTRA:                  -0.152
REMARK UNBOUND:                -0.415
REMARK SMILES CCCCCCCC(=O)[O-]
REMARK SMILES IDX 5 1 6 2 7 3 8 4 9 5 10 6 4 7 3 8 2 9 1 10
REMARK H PARENT
REMARK Flexibility Score: inf
ROOT
ATOM      1  C   UNL     1       3.986   5.618   2.125  1.00  0.00     0.000 C 
ENDROOT
BRANCH   1   2
ATOM      2  C   UNL     1       4.560   5.062   0.806  1.00  0.00     0.006 C 
BRANCH   2   3
ATOM      3  C   UNL     1       5.667   4.013   0.989  1.00  0.00     0.053 C 
BRANCH   3   4
ATOM      4  C   UNL     1       7.033   4.620   0.898  1.00  0.00     0.041 C 
ATOM      5  O   UNL     1       7.915   4.328   1.747  1.00  0.00    -0.550 OA
ATOM      6  O   UNL     1       7.342   5.482  -0.146  1.00  0.00    -0.550 OA
ENDBRANCH   3   4
ENDBRANCH   2   3
ENDBRANCH   1   2
BRANCH   1   7
ATOM      7  C   UNL     1       3.918   7.156   2.213  1.00  0.00     0.000 C 
BRANCH   7   8
ATOM      8  C   UNL     1       2.570   7.721   2.694  1.00  0.00    -0.000 C 
BRANCH   8   9
ATOM      9  C   UNL     1       2.511   7.907   4.217  1.00  0.00    -0.003 C 
ATOM     10  C   UNL     1       1.077   8.125   4.690  1.00  0.00     0.004 C 
ENDBRANCH   8   9
ENDBRANCH   7   8
ENDBRANCH   1   7
TORSDOF 6
ENDMDL
MODEL 3
REMARK VINA RESULT:    -3.417      1.215      2.333
REMARK INTER + INTRA:          -5.031
REMARK INTER:                  -4.545
REMARK INTRA:                  -0.486
REMARK UNBOUND:                -0.415
REMARK SMILES CCCCCCCC(=O)[O-]
REMARK SMILES IDX 5 1 6 2 7 3 8 4 9 5 10 6 4 7 3 8 2 9 1 10
REMARK H PARENT
REMARK Flexibility Score: inf
ROOT
ATOM      1  C   UNL     1       6.591   7.737   1.193  1.00  0.00     0.000 C 
ENDROOT
BRANCH   1   2
ATOM      2  C   UNL     1       5.095   7.863   1.546  1.00  0.00     0.006 C 
BRANCH   2   3
ATOM      3  C   UNL     1       4.793   7.821   3.052  1.00  0.00     0.053 C 
BRANCH   3   4
ATOM      4  C   UNL     1       3.574   7.006   3.356  1.00  0.00     0.041 C 
ATOM      5  O   UNL     1       2.875   6.537   2.420  1.00  0.00    -0.550 OA
ATOM      6  O   UNL     1       3.229   6.735   4.674  1.00  0.00    -0.550 OA
ENDBRANCH   3   4
ENDBRANCH   2   3
ENDBRANCH   1   2
BRANCH   1   7
ATOM      7  C   UNL     1       7.254   6.410   1.611  1.00  0.00     0.000 C 
BRANCH   7   8
ATOM      8  C   UNL     1       7.079   5.252   0.614  1.00  0.00    -0.000 C 
BRANCH   8   9
ATOM      9  C   UNL     1       6.002   4.248   1.049  1.00  0.00    -0.003 C 
ATOM     10  C   UNL     1       4.715   4.440   0.252  1.00  0.00     0.004 C 
ENDBRANCH   8   9
ENDBRANCH   7   8
ENDBRANCH   1   7
TORSDOF 6
ENDMDL
MODEL 4
REMARK VINA RESULT:    -3.285      1.721      2.958
REMARK INTER + INTRA:          -4.852
REMARK INTER:                  -4.269
REMARK INTRA:                  -0.582
REMARK UNBOUND:                -0.415
REMARK SMILES CCCCCCCC(=O)[O-]
REMARK SMILES IDX 5 1 6 2 7 3 8 4 9 5 10 6 4 7 3 8 2 9 1 10
REMARK H PARENT
REMARK Flexibility Score: inf
ROOT
ATOM      1  C   UNL     1       7.039   4.696   1.361  1.00  0.00     0.000 C 
ENDROOT
BRANCH   1   2
ATOM      2  C   UNL     1       5.653   4.090   1.064  1.00  0.00     0.006 C 
BRANCH   2   3
ATOM      3  C   UNL     1       4.665   5.061   0.400  1.00  0.00     0.053 C 
BRANCH   3   4
ATOM      4  C   UNL     1       3.895   5.853   1.411  1.00  0.00     0.041 C 
ATOM      5  O   UNL     1       3.468   7.002   1.125  1.00  0.00    -0.550 OA
ATOM      6  O   UNL     1       3.620   5.307   2.658  1.00  0.00    -0.550 OA
ENDBRANCH   3   4
ENDBRANCH   2   3
ENDBRANCH   1   2
BRANCH   1   7
ATOM      7  C   UNL     1       7.599   5.622   0.262  1.00  0.00     0.000 C 
BRANCH   7   8
ATOM      8  C   UNL     1       8.066   7.004   0.751  1.00  0.00    -0.000 C 
BRANCH   8   9
ATOM      9  C   UNL     1       7.012   8.100   0.536  1.00  0.00    -0.003 C 
ATOM     10  C   UNL     1       6.418   8.024  -0.867  1.00  0.00     0.004 C 
ENDBRANCH   8   9
ENDBRANCH   7   8
ENDBRANCH   1   7
TORSDOF 6
ENDMDL
MODEL 5
REMARK VINA RESULT:    -3.125      2.635      4.197
REMARK INTER + INTRA:          -4.636
REMARK INTER:                  -4.054
REMARK INTRA:                  -0.582
REMARK UNBOUND:                -0.415
REMARK SMILES CCCCCCCC(=O)[O-]
REMARK SMILES IDX 5 1 6 2 7 3 8 4 9 5 10 6 4 7 3 8 2 9 1 10
REMARK H PARENT
REMARK Flexibility Score: inf
ROOT
ATOM      1  C   UNL     1       7.928   5.555   1.847  1.00  0.00     0.000 C 
ENDROOT
BRANCH   1   2
ATOM      2  C   UNL     1       7.417   4.363   1.012  1.00  0.00     0.006 C 
BRANCH   2   3
ATOM      3  C   UNL     1       5.943   4.004   1.256  1.00  0.00     0.053 C 
BRANCH   3   4
ATOM      4  C   UNL     1       5.017   4.873   0.464  1.00  0.00     0.041 C 
ATOM      5  O   UNL     1       3.824   5.030   0.831  1.00  0.00    -0.550 OA
ATOM      6  O   UNL     1       5.482   5.538  -0.664  1.00  0.00    -0.550 OA
ENDBRANCH   3   4
ENDBRANCH   2   3
ENDBRANCH   1   2
BRANCH   1   7
ATOM      7  C   UNL     1       8.123   6.868   1.064  1.00  0.00     0.000 C 
BRANCH   7   8
ATOM      8  C   UNL     1       7.390   8.089   1.647  1.00  0.00    -0.000 C 
BRANCH   8   9
ATOM      9  C   UNL     1       6.428   7.719   2.785  1.00  0.00    -0.003 C 
ATOM     10  C   UNL     1       4.979   7.996   2.393  1.00  0.00     0.004 C 
ENDBRANCH   8   9
ENDBRANCH   7   8
ENDBRANCH   1   7
TORSDOF 6
ENDMDL
MODEL 6
REMARK VINA RESULT:    -3.042      2.961      4.874
REMARK INTER + INTRA:          -4.523
REMARK INTER:                  -4.013
REMARK INTRA:                  -0.510
REMARK UNBOUND:                -0.415
REMARK SMILES CCCCCCCC(=O)[O-]
REMARK SMILES IDX 5 1 6 2 7 3 8 4 9 5 10 6 4 7 3 8 2 9 1 10
REMARK H PARENT
REMARK Flexibility Score: inf
ROOT
ATOM      1  C   UNL     1       3.791   7.717   0.874  1.00  0.00     0.000 C 
ENDROOT
BRANCH   1   2
ATOM      2  C   UNL     1       5.332   7.732   0.829  1.00  0.00     0.006 C 
BRANCH   2   3
ATOM      3  C   UNL     1       5.998   6.558   1.564  1.00  0.00     0.053 C 
BRANCH   3   4
ATOM      4  C   UNL     1       6.334   5.434   0.633  1.00  0.00     0.041 C 
ATOM      5  O   UNL     1       7.209   5.589  -0.259  1.00  0.00    -0.550 OA
ATOM      6  O   UNL     1       5.704   4.204   0.772  1.00  0.00    -0.550 OA
ENDBRANCH   3   4
ENDBRANCH   2   3
ENDBRANCH   1   2
BRANCH   1   7
ATOM      7  C   UNL     1       3.175   6.841   1.983  1.00  0.00     0.000 C 
BRANCH   7   8
ATOM      8  C   UNL     1       2.523   7.618   3.140  1.00  0.00    -0.000 C 
BRANCH   8   9
ATOM      9  C   UNL     1       3.188   7.336   4.496  1.00  0.00    -0.003 C 
ATOM     10  C   UNL     1       4.496   8.109   4.638  1.00  0.00     0.004 C 
ENDBRANCH   8   9
ENDBRANCH   7   8
ENDBRANCH   1   7
TORSDOF 6
ENDMDL
MODEL 7
REMARK VINA RESULT:    -2.669      2.783      4.567
REMARK INTER + INTRA:          -4.020
REMARK INTER:                  -3.694
REMARK INTRA:                  -0.326
REMARK UNBOUND:                -0.415
REMARK SMILES CCCCCCCC(=O)[O-]
REMARK SMILES IDX 5 1 6 2 7 3 8 4 9 5 10 6 4 7 3 8 2 9 1 10
REMARK H PARENT
REMARK Flexibility Score: inf
ROOT
ATOM      1  C   UNL     1       5.141   7.028   0.512  1.00  0.00     0.000 C 
ENDROOT
BRANCH   1   2
ATOM      2  C   UNL     1       6.681   7.105   0.531  1.00  0.00     0.006 C 
BRANCH   2   3
ATOM      3  C   UNL     1       7.380   5.754   0.747  1.00  0.00     0.053 C 
BRANCH   3   4
ATOM      4  C   UNL     1       7.903   5.612   2.143  1.00  0.00     0.041 C 
ATOM      5  O   UNL     1       8.125   6.633   2.844  1.00  0.00    -0.550 OA
ATOM      6  O   UNL     1       8.114   4.349   2.681  1.00  0.00    -0.550 OA
ENDBRANCH   3   4
ENDBRANCH   2   3
ENDBRANCH   1   2
BRANCH   1   7
ATOM      7  C   UNL     1       4.549   5.647   0.858  1.00  0.00     0.000 C 
BRANCH   7   8
ATOM      8  C   UNL     1       3.982   5.521   2.283  1.00  0.00    -0.000 C 
BRANCH   8   9
ATOM      9  C   UNL     1       3.852   6.875   2.995  1.00  0.00    -0.003 C 
ATOM     10  C   UNL     1       2.478   7.494   2.753  1.00  0.00     0.004 C 
ENDBRANCH   8   9
ENDBRANCH   7   8
ENDBRANCH   1   7
TORSDOF 6
ENDMDL
MODEL 8
REMARK VINA RESULT:    -2.464     21.370     22.338
REMARK INTER + INTRA:          -3.743
REMARK INTER:                  -3.478
REMARK INTRA:                  -0.266
REMARK UNBOUND:                -0.415
REMARK SMILES CCCCCCCC(=O)[O-]
REMARK SMILES IDX 5 1 6 2 7 3 8 4 9 5 10 6 4 7 3 8 2 9 1 10
REMARK H PARENT
REMARK Flexibility Score: inf
ROOT
ATOM      1  C   UNL     1      -9.963 -11.021  -3.117  1.00  0.00     0.000 C 
ENDROOT
BRANCH   1   2
ATOM      2  C   UNL     1      -9.986 -10.135  -1.856  1.00  0.00     0.006 C 
BRANCH   2   3
ATOM      3  C   UNL     1     -11.330  -9.436  -1.597  1.00  0.00     0.053 C 
BRANCH   3   4
ATOM      4  C   UNL     1     -11.628  -9.321  -0.134  1.00  0.00     0.041 C 
ATOM      5  O   UNL     1     -11.755 -10.356   0.571  1.00  0.00    -0.550 OA
ATOM      6  O   UNL     1     -11.733  -8.069   0.458  1.00  0.00    -0.550 OA
ENDBRANCH   3   4
ENDBRANCH   2   3
ENDBRANCH   1   2
BRANCH   1   7
ATOM      7  C   UNL     1     -10.308 -10.297  -4.434  1.00  0.00     0.000 C 
BRANCH   7   8
ATOM      8  C   UNL     1      -9.178 -10.270  -5.477  1.00  0.00    -0.000 C 
BRANCH   8   9
ATOM      9  C   UNL     1      -7.780 -10.342  -4.845  1.00  0.00    -0.003 C 
ATOM     10  C   UNL     1      -6.912  -9.171  -5.294  1.00  0.00     0.004 C 
ENDBRANCH   8   9
ENDBRANCH   7   8
ENDBRANCH   1   7
TORSDOF 6
ENDMDL
MODEL 9
REMARK VINA RESULT:    -2.454     21.729     22.716
REMARK INTER + INTRA:          -3.729
REMARK INTER:                  -3.341
REMARK INTRA:                  -0.389
REMARK UNBOUND:                -0.415
REMARK SMILES CCCCCCCC(=O)[O-]
REMARK SMILES IDX 5 1 6 2 7 3 8 4 9 5 10 6 4 7 3 8 2 9 1 10
REMARK H PARENT
REMARK Flexibility Score: inf
ROOT
ATOM      1  C   UNL     1     -10.233 -10.462  -4.941  1.00  0.00     0.000 C 
ENDROOT
BRANCH   1   2
ATOM      2  C   UNL     1     -11.218 -10.843  -3.818  1.00  0.00     0.006 C 
BRANCH   2   3
ATOM      3  C   UNL     1     -10.609 -11.717  -2.711  1.00  0.00     0.053 C 
BRANCH   3   4
ATOM      4  C   UNL     1      -9.841 -10.904  -1.715  1.00  0.00     0.041 C 
ATOM      5  O   UNL     1      -8.892 -11.421  -1.071  1.00  0.00    -0.550 OA
ATOM      6  O   UNL     1     -10.153  -9.564  -1.523  1.00  0.00    -0.550 OA
ENDBRANCH   3   4
ENDBRANCH   2   3
ENDBRANCH   1   2
BRANCH   1   7
ATOM      7  C   UNL     1      -9.369 -11.620  -5.477  1.00  0.00     0.000 C 
BRANCH   7   8
ATOM      8  C   UNL     1      -7.909 -11.251  -5.794  1.00  0.00    -0.000 C 
BRANCH   8   9
ATOM      9  C   UNL     1      -7.309 -10.268  -4.779  1.00  0.00    -0.003 C 
ATOM     10  C   UNL     1      -6.121  -9.518  -5.376  1.00  0.00     0.004 C 
ENDBRANCH   8   9
ENDBRANCH   7   8
ENDBRANCH   1   7
TORSDOF 6
ENDMDL
