MODEL 1
REMARK VINA RESULT:     2.803      0.000      0.000
REMARK INTER + INTRA:           3.233
REMARK INTER:                   3.049
REMARK INTRA:                   0.184
REMARK UNBOUND:                 0.184
REMARK SMILES CC(=O)[C@@H]1CC[C@H]2[C@@H]3CC=C4C[C@H](O)CC[C@@]4(C)[C@@H]3CC[C@@]12C
REMARK SMILES IDX 4 1 5 2 6 3 7 4 22 5 21 6 20 7 19 8 8 9 9 10 10 11 11 12
REMARK SMILES IDX 17 13 16 14 15 15 13 16 12 17 18 18 23 19 2 20 1 21 3 22
REMARK SMILES IDX 14 23
REMARK H PARENT 14 24
REMARK Flexibility Score: inf
ROOT
ATOM      1  C   UNL     1      73.117  35.488  53.763  1.00  0.00     0.062 C 
ATOM      2  C   UNL     1      72.901  35.970  52.323  1.00  0.00     0.012 C 
ATOM      3  C   UNL     1      73.853  35.166  51.440  1.00  0.00     0.005 C 
ATOM      4  C   UNL     1      74.727  34.303  52.370  1.00  0.00    -0.001 C 
ATOM      5  C   UNL     1      74.565  34.913  53.791  1.00  0.00    -0.020 C 
ATOM      6  C   UNL     1      75.566  36.084  54.026  1.00  0.00     0.008 C 
ATOM      7  C   UNL     1      77.007  35.769  53.602  1.00  0.00     0.005 C 
ATOM      8  C   UNL     1      77.070  35.395  52.099  1.00  0.00     0.003 C 
ATOM      9  C   UNL     1      76.183  34.152  51.834  1.00  0.00     0.000 C 
ATOM     10  C   UNL     1      76.857  32.881  52.378  1.00  0.00     0.031 C 
ATOM     11  C   UNL     1      78.243  32.724  51.844  1.00  0.00    -0.027 C 
ATOM     12  C   UNL     1      79.029  33.767  51.502  1.00  0.00    -0.065 C 
ATOM     13  C   UNL     1      78.528  35.220  51.482  1.00  0.00    -0.008 C 
ATOM     14  C   UNL     1      78.483  35.658  49.981  1.00  0.00     0.014 C 
ATOM     15  C   UNL     1      79.781  35.371  49.196  1.00  0.00     0.033 C 
ATOM     16  C   UNL     1      80.221  33.899  49.327  1.00  0.00     0.118 C 
ATOM     17  C   UNL     1      80.339  33.473  50.799  1.00  0.00     0.063 C 
ATOM     18  C   UNL     1      79.548  36.123  52.229  1.00  0.00     0.016 C 
ATOM     19  C   UNL     1      74.733  33.869  54.930  1.00  0.00     0.012 C 
ENDROOT
BRANCH   1  20
ATOM     20  C   UNL     1      72.038  34.478  54.138  1.00  0.00     0.133 C 
ATOM     21  C   UNL     1      71.676  34.226  55.572  1.00  0.00     0.088 C 
ATOM     22  O   UNL     1      71.446  33.858  53.265  1.00  0.00    -0.300 OA
ENDBRANCH   1  20
BRANCH  16  23
ATOM     23  O   UNL     1      81.432  33.681  48.648  1.00  0.00    -0.393 OA
ATOM     24  H   UNL     1      81.889  34.559  48.558  1.00  0.00     0.210 HD
ENDBRANCH  16  23
TORSDOF 2
ENDMDL
MODEL 2
REMARK VINA RESULT:     3.921      1.444      6.914
REMARK INTER + INTRA:           4.449
REMARK INTER:                   4.189
REMARK INTRA:                   0.260
REMARK UNBOUND:                 0.184
REMARK SMILES CC(=O)[C@@H]1CC[C@H]2[C@@H]3CC=C4C[C@H](O)CC[C@@]4(C)[C@@H]3CC[C@@]12C
REMARK SMILES IDX 4 1 5 2 6 3 7 4 22 5 21 6 20 7 19 8 8 9 9 10 10 11 11 12
REMARK SMILES IDX 17 13 16 14 15 15 13 16 12 17 18 18 23 19 2 20 1 21 3 22
REMARK SMILES IDX 14 23
REMARK H PARENT 14 24
REMARK Flexibility Score: inf
ROOT
ATOM      1  C   UNL     1      79.634  35.593  50.777  1.00  0.00     0.062 C 
ATOM      2  C   UNL     1      79.846  36.122  52.201  1.00  0.00     0.012 C 
ATOM      3  C   UNL     1      78.918  35.322  53.113  1.00  0.00     0.005 C 
ATOM      4  C   UNL     1      78.059  34.413  52.213  1.00  0.00    -0.001 C 
ATOM      5  C   UNL     1      78.200  34.984  50.774  1.00  0.00    -0.020 C 
ATOM      6  C   UNL     1      77.171  36.124  50.511  1.00  0.00     0.008 C 
ATOM      7  C   UNL     1      75.740  35.788  50.952  1.00  0.00     0.005 C 
ATOM      8  C   UNL     1      75.694  35.458  52.466  1.00  0.00     0.003 C 
ATOM      9  C   UNL     1      76.610  34.244  52.762  1.00  0.00     0.000 C 
ATOM     10  C   UNL     1      75.963  32.942  52.259  1.00  0.00     0.031 C 
ATOM     11  C   UNL     1      74.583  32.769  52.805  1.00  0.00    -0.027 C 
ATOM     12  C   UNL     1      73.775  33.803  53.121  1.00  0.00    -0.065 C 
ATOM     13  C   UNL     1      74.243  35.267  53.096  1.00  0.00    -0.008 C 
ATOM     14  C   UNL     1      74.286  35.750  54.583  1.00  0.00     0.014 C 
ATOM     15  C   UNL     1      72.998  35.457  55.383  1.00  0.00     0.033 C 
ATOM     16  C   UNL     1      72.592  33.972  55.298  1.00  0.00     0.118 C 
ATOM     17  C   UNL     1      72.477  33.500  53.840  1.00  0.00     0.063 C 
ATOM     18  C   UNL     1      73.198  36.125  52.328  1.00  0.00     0.016 C 
ATOM     19  C   UNL     1      78.051  33.903  49.668  1.00  0.00     0.012 C 
ENDROOT
BRANCH   1  20
ATOM     20  C   UNL     1      80.735  34.597  50.426  1.00  0.00     0.133 C 
ATOM     21  C   UNL     1      81.017  34.223  49.000  1.00  0.00     0.088 C 
ATOM     22  O   UNL     1      81.411  34.090  51.310  1.00  0.00    -0.300 OA
ENDBRANCH   1  20
BRANCH  16  23
ATOM     23  O   UNL     1      71.390  33.746  55.991  1.00  0.00    -0.393 OA
ATOM     24  H   UNL     1      71.605  33.218  56.804  1.00  0.00     0.210 HD
ENDBRANCH  16  23
TORSDOF 2
ENDMDL
MODEL 3
REMARK VINA RESULT:     5.528      1.457      2.903
REMARK INTER + INTRA:           6.197
REMARK INTER:                   6.026
REMARK INTRA:                   0.171
REMARK UNBOUND:                 0.184
REMARK SMILES CC(=O)[C@@H]1CC[C@H]2[C@@H]3CC=C4C[C@H](O)CC[C@@]4(C)[C@@H]3CC[C@@]12C
REMARK SMILES IDX 4 1 5 2 6 3 7 4 22 5 21 6 20 7 19 8 8 9 9 10 10 11 11 12
REMARK SMILES IDX 17 13 16 14 15 15 13 16 12 17 18 18 23 19 2 20 1 21 3 22
REMARK SMILES IDX 14 23
REMARK H PARENT 14 24
REMARK Flexibility Score: inf
ROOT
ATOM      1  C   UNL     1      71.860  33.737  54.582  1.00  0.00     0.062 C 
ATOM      2  C   UNL     1      72.480  32.351  54.368  1.00  0.00     0.012 C 
ATOM      3  C   UNL     1      73.993  32.520  54.482  1.00  0.00     0.005 C 
ATOM      4  C   UNL     1      74.279  34.027  54.630  1.00  0.00    -0.001 C 
ATOM      5  C   UNL     1      72.976  34.752  54.189  1.00  0.00    -0.020 C 
ATOM      6  C   UNL     1      72.939  34.965  52.646  1.00  0.00     0.008 C 
ATOM      7  C   UNL     1      74.241  35.531  52.062  1.00  0.00     0.005 C 
ATOM      8  C   UNL     1      75.437  34.596  52.374  1.00  0.00     0.003 C 
ATOM      9  C   UNL     1      75.595  34.449  53.909  1.00  0.00     0.000 C 
ATOM     10  C   UNL     1      76.187  35.731  54.517  1.00  0.00     0.031 C 
ATOM     11  C   UNL     1      77.461  36.121  53.841  1.00  0.00    -0.027 C 
ATOM     12  C   UNL     1      77.730  35.845  52.548  1.00  0.00    -0.065 C 
ATOM     13  C   UNL     1      76.818  34.969  51.674  1.00  0.00    -0.008 C 
ATOM     14  C   UNL     1      77.601  33.644  51.396  1.00  0.00     0.014 C 
ATOM     15  C   UNL     1      79.043  33.854  50.885  1.00  0.00     0.033 C 
ATOM     16  C   UNL     1      79.852  34.789  51.807  1.00  0.00     0.118 C 
ATOM     17  C   UNL     1      79.127  36.125  52.033  1.00  0.00     0.063 C 
ATOM     18  C   UNL     1      76.566  35.686  50.318  1.00  0.00     0.016 C 
ATOM     19  C   UNL     1      72.766  36.120  54.894  1.00  0.00     0.012 C 
ENDROOT
BRANCH   1  20
ATOM     20  C   UNL     1      71.376  33.872  56.022  1.00  0.00     0.133 C 
ATOM     21  C   UNL     1      72.027  33.104  57.134  1.00  0.00     0.088 C 
ATOM     22  O   UNL     1      70.445  34.618  56.290  1.00  0.00    -0.300 OA
ENDBRANCH   1  20
BRANCH  16  23
ATOM     23  O   UNL     1      81.141  35.003  51.289  1.00  0.00    -0.393 OA
ATOM     24  H   UNL     1      81.793  34.663  51.955  1.00  0.00     0.210 HD
ENDBRANCH  16  23
TORSDOF 2
ENDMDL
