MODEL 1
REMARK VINA RESULT:    -5.176      0.000      0.000
REMARK INTER + INTRA:          -5.784
REMARK INTER:                  -5.630
REMARK INTRA:                  -0.154
REMARK UNBOUND:                -0.154
REMARK SMILES CC1=CC[C@](O)(C(C)C)CC1
REMARK SMILES IDX 1 1 2 2 3 3 4 4 5 5 10 6 11 7 7 8 8 9 9 10 6 11
REMARK H PARENT 6 12
REMARK Flexibility Score: inf
ROOT
ATOM      1  C   UNL     1     119.029 116.739 116.220  1.00  0.00     0.039 C 
ATOM      2  C   UNL     1     120.336 117.435 115.954  1.00  0.00    -0.077 C 
ATOM      3  C   UNL     1     121.401 117.148 116.725  1.00  0.00    -0.025 C 
ATOM      4  C   UNL     1     122.735 117.831 116.568  1.00  0.00     0.062 C 
ATOM      5  C   UNL     1     122.972 118.420 115.146  1.00  0.00     0.071 C 
ATOM      6  C   UNL     1     121.703 119.223 114.767  1.00  0.00     0.040 C 
ATOM      7  C   UNL     1     120.450 118.336 114.746  1.00  0.00     0.033 C 
ENDROOT
BRANCH   5   8
ATOM      8  C   UNL     1     124.233 119.366 115.129  1.00  0.00     0.015 C 
ATOM      9  C   UNL     1     123.932 120.801 115.611  1.00  0.00     0.010 C 
ATOM     10  C   UNL     1     125.409 118.804 115.953  1.00  0.00     0.010 C 
ENDBRANCH   5   8
BRANCH   5  11
ATOM     11  O   UNL     1     123.128 117.379 114.207  1.00  0.00    -0.389 OA
ATOM     12  H   UNL     1     123.216 116.521 114.699  1.00  0.00     0.211 HD
ENDBRANCH   5  11
TORSDOF 2
ENDMDL
MODEL 2
REMARK VINA RESULT:    -4.731     15.406     16.077
REMARK INTER + INTRA:          -5.300
REMARK INTER:                  -5.148
REMARK INTRA:                  -0.151
REMARK UNBOUND:                -0.154
REMARK SMILES CC1=CC[C@](O)(C(C)C)CC1
REMARK SMILES IDX 1 1 2 2 3 3 4 4 5 5 10 6 11 7 7 8 8 9 9 10 6 11
REMARK H PARENT 6 12
REMARK Flexibility Score: inf
ROOT
ATOM      1  C   UNL     1     116.133 125.617 126.113  1.00  0.00     0.039 C 
ATOM      2  C   UNL     1     116.414 127.094 126.045  1.00  0.00    -0.077 C 
ATOM      3  C   UNL     1     117.567 127.518 125.495  1.00  0.00    -0.025 C 
ATOM      4  C   UNL     1     117.959 128.971 125.430  1.00  0.00     0.062 C 
ATOM      5  C   UNL     1     116.748 129.948 125.483  1.00  0.00     0.071 C 
ATOM      6  C   UNL     1     115.850 129.497 126.662  1.00  0.00     0.040 C 
ATOM      7  C   UNL     1     115.336 128.063 126.473  1.00  0.00     0.033 C 
ENDROOT
BRANCH   5   8
ATOM      8  C   UNL     1     117.228 131.432 125.709  1.00  0.00     0.015 C 
ATOM      9  C   UNL     1     117.596 131.743 127.175  1.00  0.00     0.010 C 
ATOM     10  C   UNL     1     118.420 131.814 124.809  1.00  0.00     0.010 C 
ENDBRANCH   5   8
BRANCH   5  11
ATOM     11  O   UNL     1     115.992 129.853 124.296  1.00  0.00    -0.389 OA
ATOM     12  H   UNL     1     115.928 128.897 124.038  1.00  0.00     0.211 HD
ENDBRANCH   5  11
TORSDOF 2
ENDMDL
MODEL 3
REMARK VINA RESULT:    -4.676     14.456     16.146
REMARK INTER + INTRA:          -5.239
REMARK INTER:                  -5.132
REMARK INTRA:                  -0.108
REMARK UNBOUND:                -0.154
REMARK SMILES CC1=CC[C@](O)(C(C)C)CC1
REMARK SMILES IDX 1 1 2 2 3 3 4 4 5 5 10 6 11 7 7 8 8 9 9 10 6 11
REMARK H PARENT 6 12
REMARK Flexibility Score: inf
ROOT
ATOM      1  C   UNL     1     109.809 116.170 128.820  1.00  0.00     0.039 C 
ATOM      2  C   UNL     1     109.665 116.588 127.381  1.00  0.00    -0.077 C 
ATOM      3  C   UNL     1     109.194 117.817 127.099  1.00  0.00    -0.025 C 
ATOM      4  C   UNL     1     108.966 118.305 125.691  1.00  0.00     0.062 C 
ATOM      5  C   UNL     1     109.831 117.568 124.627  1.00  0.00     0.071 C 
ATOM      6  C   UNL     1     109.687 116.049 124.894  1.00  0.00     0.040 C 
ATOM      7  C   UNL     1     110.177 115.667 126.298  1.00  0.00     0.033 C 
ENDROOT
BRANCH   5   8
ATOM      8  C   UNL     1     109.341 117.906 123.167  1.00  0.00     0.015 C 
ATOM      9  C   UNL     1     109.890 119.244 122.629  1.00  0.00     0.010 C 
ATOM     10  C   UNL     1     109.676 116.792 122.156  1.00  0.00     0.010 C 
ENDBRANCH   5   8
BRANCH   5  11
ATOM     11  O   UNL     1     111.191 117.913 124.779  1.00  0.00    -0.389 OA
ATOM     12  H   UNL     1     111.713 117.455 124.070  1.00  0.00     0.211 HD
ENDBRANCH   5  11
TORSDOF 2
ENDMDL
MODEL 4
REMARK VINA RESULT:    -4.660      1.131      4.408
REMARK INTER + INTRA:          -5.223
REMARK INTER:                  -5.072
REMARK INTRA:                  -0.151
REMARK UNBOUND:                -0.154
REMARK SMILES CC1=CC[C@](O)(C(C)C)CC1
REMARK SMILES IDX 1 1 2 2 3 3 4 4 5 5 10 6 11 7 7 8 8 9 9 10 6 11
REMARK H PARENT 6 12
REMARK Flexibility Score: inf
ROOT
ATOM      1  C   UNL     1     123.849 120.671 115.197  1.00  0.00     0.039 C 
ATOM      2  C   UNL     1     122.891 119.537 115.441  1.00  0.00    -0.077 C 
ATOM      3  C   UNL     1     121.843 119.372 114.612  1.00  0.00    -0.025 C 
ATOM      4  C   UNL     1     120.804 118.299 114.806  1.00  0.00     0.062 C 
ATOM      5  C   UNL     1     121.313 117.078 115.627  1.00  0.00     0.071 C 
ATOM      6  C   UNL     1     122.015 117.637 116.890  1.00  0.00     0.040 C 
ATOM      7  C   UNL     1     123.205 118.537 116.530  1.00  0.00     0.033 C 
ENDROOT
BRANCH   5   8
ATOM      8  C   UNL     1     120.116 116.141 116.047  1.00  0.00     0.015 C 
ATOM      9  C   UNL     1     120.549 114.946 116.923  1.00  0.00     0.010 C 
ATOM     10  C   UNL     1     118.991 116.904 116.774  1.00  0.00     0.010 C 
ENDBRANCH   5   8
BRANCH   5  11
ATOM     11  O   UNL     1     122.265 116.351 114.882  1.00  0.00    -0.389 OA
ATOM     12  H   UNL     1     122.125 116.545 113.919  1.00  0.00     0.211 HD
ENDBRANCH   5  11
TORSDOF 2
ENDMDL
MODEL 5
REMARK VINA RESULT:    -4.656     15.020     16.036
REMARK INTER + INTRA:          -5.218
REMARK INTER:                  -5.109
REMARK INTRA:                  -0.108
REMARK UNBOUND:                -0.154
REMARK SMILES CC1=CC[C@](O)(C(C)C)CC1
REMARK SMILES IDX 1 1 2 2 3 3 4 4 5 5 10 6 11 7 7 8 8 9 9 10 6 11
REMARK H PARENT 6 12
REMARK Flexibility Score: inf
ROOT
ATOM      1  C   UNL     1     118.728 129.858 125.506  1.00  0.00     0.039 C 
ATOM      2  C   UNL     1     117.625 128.876 125.796  1.00  0.00    -0.077 C 
ATOM      3  C   UNL     1     117.798 127.580 125.475  1.00  0.00    -0.025 C 
ATOM      4  C   UNL     1     116.732 126.535 125.678  1.00  0.00     0.062 C 
ATOM      5  C   UNL     1     115.696 126.906 126.781  1.00  0.00     0.071 C 
ATOM      6  C   UNL     1     115.236 128.359 126.505  1.00  0.00     0.040 C 
ATOM      7  C   UNL     1     116.408 129.349 126.558  1.00  0.00     0.033 C 
ENDROOT
BRANCH   5   8
ATOM      8  C   UNL     1     114.457 125.932 126.742  1.00  0.00     0.015 C 
ATOM      9  C   UNL     1     114.783 124.545 126.150  1.00  0.00     0.010 C 
ATOM     10  C   UNL     1     113.811 125.738 128.128  1.00  0.00     0.010 C 
ENDBRANCH   5   8
BRANCH   5  11
ATOM     11  O   UNL     1     116.305 126.872 128.053  1.00  0.00    -0.389 OA
ATOM     12  H   UNL     1     116.669 127.774 128.251  1.00  0.00     0.211 HD
ENDBRANCH   5  11
TORSDOF 2
ENDMDL
MODEL 6
REMARK VINA RESULT:    -4.614     16.106     17.564
REMARK INTER + INTRA:          -5.173
REMARK INTER:                  -5.071
REMARK INTRA:                  -0.101
REMARK UNBOUND:                -0.154
REMARK SMILES CC1=CC[C@](O)(C(C)C)CC1
REMARK SMILES IDX 1 1 2 2 3 3 4 4 5 5 10 6 11 7 7 8 8 9 9 10 6 11
REMARK H PARENT 6 12
REMARK Flexibility Score: inf
ROOT
ATOM      1  C   UNL     1     109.295 116.922 124.121  1.00  0.00     0.039 C 
ATOM      2  C   UNL     1     109.745 116.884 125.556  1.00  0.00    -0.077 C 
ATOM      3  C   UNL     1     109.198 117.742 126.438  1.00  0.00    -0.025 C 
ATOM      4  C   UNL     1     109.621 117.814 127.882  1.00  0.00     0.062 C 
ATOM      5  C   UNL     1     110.264 116.498 128.412  1.00  0.00     0.071 C 
ATOM      6  C   UNL     1     111.324 116.058 127.372  1.00  0.00     0.040 C 
ATOM      7  C   UNL     1     110.700 115.798 125.994  1.00  0.00     0.033 C 
ENDROOT
BRANCH   5   8
ATOM      8  C   UNL     1     110.947 116.727 129.814  1.00  0.00     0.015 C 
ATOM      9  C   UNL     1     109.940 117.000 130.951  1.00  0.00     0.010 C 
ATOM     10  C   UNL     1     111.856 115.553 130.230  1.00  0.00     0.010 C 
ENDBRANCH   5   8
BRANCH   5  11
ATOM     11  O   UNL     1     109.290 115.482 128.502  1.00  0.00    -0.389 OA
ATOM     12  H   UNL     1     108.982 115.259 127.585  1.00  0.00     0.211 HD
ENDBRANCH   5  11
TORSDOF 2
ENDMDL
MODEL 7
REMARK VINA RESULT:    -4.564     14.986     16.621
REMARK INTER + INTRA:          -5.118
REMARK INTER:                  -4.995
REMARK INTRA:                  -0.123
REMARK UNBOUND:                -0.154
REMARK SMILES CC1=CC[C@](O)(C(C)C)CC1
REMARK SMILES IDX 1 1 2 2 3 3 4 4 5 5 10 6 11 7 7 8 8 9 9 10 6 11
REMARK H PARENT 6 12
REMARK Flexibility Score: inf
ROOT
ATOM      1  C   UNL     1     109.454 116.692 122.534  1.00  0.00     0.039 C 
ATOM      2  C   UNL     1     109.557 116.846 124.028  1.00  0.00    -0.077 C 
ATOM      3  C   UNL     1     109.984 115.805 124.767  1.00  0.00    -0.025 C 
ATOM      4  C   UNL     1     110.070 115.848 126.271  1.00  0.00     0.062 C 
ATOM      5  C   UNL     1     110.206 117.287 126.848  1.00  0.00     0.071 C 
ATOM      6  C   UNL     1     109.123 118.158 126.164  1.00  0.00     0.040 C 
ATOM      7  C   UNL     1     109.305 118.204 124.640  1.00  0.00     0.033 C 
ENDROOT
BRANCH   5   8
ATOM      8  C   UNL     1     109.994 117.292 128.410  1.00  0.00     0.015 C 
ATOM      9  C   UNL     1     109.525 115.933 128.972  1.00  0.00     0.010 C 
ATOM     10  C   UNL     1     111.254 117.737 129.180  1.00  0.00     0.010 C 
ENDBRANCH   5   8
BRANCH   5  11
ATOM     11  O   UNL     1     111.470 117.825 126.524  1.00  0.00    -0.389 OA
ATOM     12  H   UNL     1     112.040 117.096 126.166  1.00  0.00     0.211 HD
ENDBRANCH   5  11
TORSDOF 2
ENDMDL
MODEL 8
REMARK VINA RESULT:    -4.462     16.407     17.622
REMARK INTER + INTRA:          -5.007
REMARK INTER:                  -4.875
REMARK INTRA:                  -0.133
REMARK UNBOUND:                -0.154
REMARK SMILES CC1=CC[C@](O)(C(C)C)CC1
REMARK SMILES IDX 1 1 2 2 3 3 4 4 5 5 10 6 11 7 7 8 8 9 9 10 6 11
REMARK H PARENT 6 12
REMARK Flexibility Score: inf
ROOT
ATOM      1  C   UNL     1     113.454 115.482 130.753  1.00  0.00     0.039 C 
ATOM      2  C   UNL     1     112.399 115.959 129.792  1.00  0.00    -0.077 C 
ATOM      3  C   UNL     1     111.107 115.673 130.040  1.00  0.00    -0.025 C 
ATOM      4  C   UNL     1     109.987 116.062 129.110  1.00  0.00     0.062 C 
ATOM      5  C   UNL     1     110.327 117.277 128.197  1.00  0.00     0.071 C 
ATOM      6  C   UNL     1     111.719 117.005 127.574  1.00  0.00     0.040 C 
ATOM      7  C   UNL     1     112.807 116.858 128.647  1.00  0.00     0.033 C 
ENDROOT
BRANCH   5   8
ATOM      8  C   UNL     1     109.251 117.447 127.058  1.00  0.00     0.015 C 
ATOM      9  C   UNL     1     108.877 118.918 126.779  1.00  0.00     0.010 C 
ATOM     10  C   UNL     1     109.680 116.787 125.732  1.00  0.00     0.010 C 
ENDBRANCH   5   8
BRANCH   5  11
ATOM     11  O   UNL     1     110.415 118.456 128.967  1.00  0.00    -0.389 OA
ATOM     12  H   UNL     1     110.899 118.248 129.808  1.00  0.00     0.211 HD
ENDBRANCH   5  11
TORSDOF 2
ENDMDL
MODEL 9
REMARK VINA RESULT:    -4.362     15.630     17.077
REMARK INTER + INTRA:          -4.898
REMARK INTER:                  -4.773
REMARK INTRA:                  -0.125
REMARK UNBOUND:                -0.154
REMARK SMILES CC1=CC[C@](O)(C(C)C)CC1
REMARK SMILES IDX 1 1 2 2 3 3 4 4 5 5 10 6 11 7 7 8 8 9 9 10 6 11
REMARK H PARENT 6 12
REMARK Flexibility Score: inf
ROOT
ATOM      1  C   UNL     1     111.285 115.625 130.562  1.00  0.00     0.039 C 
ATOM      2  C   UNL     1     110.932 116.149 129.196  1.00  0.00    -0.077 C 
ATOM      3  C   UNL     1     111.916 116.376 128.306  1.00  0.00    -0.025 C 
ATOM      4  C   UNL     1     111.665 116.948 126.934  1.00  0.00     0.062 C 
ATOM      5  C   UNL     1     110.219 116.707 126.412  1.00  0.00     0.071 C 
ATOM      6  C   UNL     1     109.249 117.113 127.549  1.00  0.00     0.040 C 
ATOM      7  C   UNL     1     109.474 116.278 128.818  1.00  0.00     0.033 C 
ENDROOT
BRANCH   5   8
ATOM      8  C   UNL     1     109.931 117.571 125.125  1.00  0.00     0.015 C 
ATOM      9  C   UNL     1     109.496 116.732 123.905  1.00  0.00     0.010 C 
ATOM     10  C   UNL     1     108.876 118.669 125.370  1.00  0.00     0.010 C 
ENDBRANCH   5   8
BRANCH   5  11
ATOM     11  O   UNL     1     110.021 115.338 126.136  1.00  0.00    -0.389 OA
ATOM     12  H   UNL     1     110.786 114.828 126.511  1.00  0.00     0.211 HD
ENDBRANCH   5  11
TORSDOF 2
ENDMDL
