MODEL 1
REMARK VINA RESULT:    -4.117      0.000      0.000
REMARK INTER + INTRA:          -6.568
REMARK INTER:                  -5.561
REMARK INTRA:                  -1.007
REMARK UNBOUND:                -1.007
REMARK SMILES CC(=O)CCC=C(C)CCC=C(C)C
REMARK SMILES IDX 7 1 6 2 8 3 9 4 10 5 11 6 13 7 12 8 14 9 5 10 4 11 2 12 3 13
REMARK SMILES IDX 1 14
REMARK H PARENT
REMARK Flexibility Score: inf
ROOT
ATOM      1  C   UNL     1     -13.750  28.938  17.844  1.00  0.00    -0.077 C 
ATOM      2  C   UNL     1     -14.256  27.857  18.482  1.00  0.00    -0.028 C 
ATOM      3  C   UNL     1     -13.931  29.148  16.360  1.00  0.00     0.039 C 
ENDROOT
BRANCH   1   4
ATOM      4  C   UNL     1     -12.917  29.933  18.623  1.00  0.00     0.034 C 
BRANCH   4   5
ATOM      5  C   UNL     1     -13.722  30.589  19.754  1.00  0.00     0.032 C 
BRANCH   5   6
ATOM      6  C   UNL     1     -14.845  31.448  19.223  1.00  0.00    -0.028 C 
ATOM      7  C   UNL     1     -16.642  30.027  20.235  1.00  0.00     0.039 C 
ATOM      8  C   UNL     1     -16.157  31.227  19.456  1.00  0.00    -0.080 C 
ATOM      9  C   UNL     1     -17.159  32.205  18.898  1.00  0.00     0.039 C 
ENDBRANCH   5   6
ENDBRANCH   4   5
ENDBRANCH   1   4
BRANCH   2  10
ATOM     10  C   UNL     1     -15.119  26.803  17.830  1.00  0.00     0.035 C 
BRANCH  10  11
ATOM     11  C   UNL     1     -16.032  26.107  18.847  1.00  0.00     0.079 C 
BRANCH  11  12
ATOM     12  C   UNL     1     -15.383  24.880  19.430  1.00  0.00     0.130 C 
ATOM     13  O   UNL     1     -15.098  24.849  20.618  1.00  0.00    -0.300 OA
ATOM     14  C   UNL     1     -15.070  23.701  18.559  1.00  0.00     0.087 C 
ENDBRANCH  11  12
ENDBRANCH  10  11
ENDBRANCH   2  10
TORSDOF 6
ENDMDL
MODEL 2
REMARK VINA RESULT:    -4.108      2.555      5.686
REMARK INTER + INTRA:          -6.555
REMARK INTER:                  -5.690
REMARK INTRA:                  -0.865
REMARK UNBOUND:                -1.007
REMARK SMILES CC(=O)CCC=C(C)CCC=C(C)C
REMARK SMILES IDX 7 1 6 2 8 3 9 4 10 5 11 6 13 7 12 8 14 9 5 10 4 11 2 12 3 13
REMARK SMILES IDX 1 14
REMARK H PARENT
REMARK Flexibility Score: inf
ROOT
ATOM      1  C   UNL     1     -13.577  26.948  15.131  1.00  0.00    -0.077 C 
ATOM      2  C   UNL     1     -13.749  27.589  16.310  1.00  0.00    -0.028 C 
ATOM      3  C   UNL     1     -13.456  27.695  13.825  1.00  0.00     0.039 C 
ENDROOT
BRANCH   1   4
ATOM      4  C   UNL     1     -13.576  25.434  15.107  1.00  0.00     0.034 C 
BRANCH   4   5
ATOM      5  C   UNL     1     -14.854  24.852  15.726  1.00  0.00     0.032 C 
BRANCH   5   6
ATOM      6  C   UNL     1     -14.554  23.961  16.909  1.00  0.00    -0.028 C 
ATOM      7  C   UNL     1     -15.714  25.457  18.549  1.00  0.00     0.039 C 
ATOM      8  C   UNL     1     -14.959  24.203  18.174  1.00  0.00    -0.080 C 
ATOM      9  C   UNL     1     -14.624  23.192  19.240  1.00  0.00     0.039 C 
ENDBRANCH   5   6
ENDBRANCH   4   5
ENDBRANCH   1   4
BRANCH   2  10
ATOM     10  C   UNL     1     -13.748  29.090  16.478  1.00  0.00     0.035 C 
BRANCH  10  11
ATOM     11  C   UNL     1     -14.529  29.524  17.725  1.00  0.00     0.079 C 
BRANCH  11  12
ATOM     12  C   UNL     1     -13.637  29.628  18.933  1.00  0.00     0.130 C 
ATOM     13  O   UNL     1     -12.903  30.597  19.064  1.00  0.00    -0.300 OA
ATOM     14  C   UNL     1     -13.630  28.544  19.968  1.00  0.00     0.087 C 
ENDBRANCH  11  12
ENDBRANCH  10  11
ENDBRANCH   2  10
TORSDOF 6
ENDMDL
MODEL 3
REMARK VINA RESULT:    -4.026      2.826      5.719
REMARK INTER + INTRA:          -6.445
REMARK INTER:                  -5.556
REMARK INTRA:                  -0.889
REMARK UNBOUND:                -1.007
REMARK SMILES CC(=O)CCC=C(C)CCC=C(C)C
REMARK SMILES IDX 7 1 6 2 8 3 9 4 10 5 11 6 13 7 12 8 14 9 5 10 4 11 2 12 3 13
REMARK SMILES IDX 1 14
REMARK H PARENT
REMARK Flexibility Score: inf
ROOT
ATOM      1  C   UNL     1     -14.811  27.269  17.622  1.00  0.00    -0.077 C 
ATOM      2  C   UNL     1     -13.762  28.016  18.036  1.00  0.00    -0.028 C 
ATOM      3  C   UNL     1     -16.060  27.112  18.455  1.00  0.00     0.039 C 
ENDROOT
BRANCH   1   4
ATOM      4  C   UNL     1     -14.708  26.510  16.315  1.00  0.00     0.034 C 
BRANCH   4   5
ATOM      5  C   UNL     1     -13.323  26.665  15.674  1.00  0.00     0.032 C 
BRANCH   5   6
ATOM      6  C   UNL     1     -13.415  27.014  14.207  1.00  0.00    -0.028 C 
ATOM      7  C   UNL     1     -13.745  29.460  14.634  1.00  0.00     0.039 C 
ATOM      8  C   UNL     1     -13.573  28.266  13.724  1.00  0.00    -0.080 C 
ATOM      9  C   UNL     1     -13.596  28.461  12.230  1.00  0.00     0.039 C 
ENDBRANCH   5   6
ENDBRANCH   4   5
ENDBRANCH   1   4
BRANCH   2  10
ATOM     10  C   UNL     1     -13.742  28.837  19.304  1.00  0.00     0.035 C 
BRANCH  10  11
ATOM     11  C   UNL     1     -13.454  30.317  19.018  1.00  0.00     0.079 C 
BRANCH  11  12
ATOM     12  C   UNL     1     -14.627  31.191  19.371  1.00  0.00     0.130 C 
ATOM     13  O   UNL     1     -14.500  32.407  19.371  1.00  0.00    -0.300 OA
ATOM     14  C   UNL     1     -15.946  30.581  19.737  1.00  0.00     0.087 C 
ENDBRANCH  11  12
ENDBRANCH  10  11
ENDBRANCH   2  10
TORSDOF 6
ENDMDL
MODEL 4
REMARK VINA RESULT:    -4.003      2.487      5.107
REMARK INTER + INTRA:          -6.414
REMARK INTER:                  -5.485
REMARK INTRA:                  -0.929
REMARK UNBOUND:                -1.007
REMARK SMILES CC(=O)CCC=C(C)CCC=C(C)C
REMARK SMILES IDX 7 1 6 2 8 3 9 4 10 5 11 6 13 7 12 8 14 9 5 10 4 11 2 12 3 13
REMARK SMILES IDX 1 14
REMARK H PARENT
REMARK Flexibility Score: inf
ROOT
ATOM      1  C   UNL     1     -14.801  25.177  16.856  1.00  0.00    -0.077 C 
ATOM      2  C   UNL     1     -15.167  26.320  17.483  1.00  0.00    -0.028 C 
ATOM      3  C   UNL     1     -14.846  23.837  17.548  1.00  0.00     0.039 C 
ENDROOT
BRANCH   1   4
ATOM      4  C   UNL     1     -14.265  25.249  15.442  1.00  0.00     0.034 C 
BRANCH   4   5
ATOM      5  C   UNL     1     -13.138  26.283  15.311  1.00  0.00     0.032 C 
BRANCH   5   6
ATOM      6  C   UNL     1     -13.341  27.193  14.123  1.00  0.00    -0.028 C 
ATOM      7  C   UNL     1     -13.907  29.188  15.528  1.00  0.00     0.039 C 
ATOM      8  C   UNL     1     -13.655  28.504  14.204  1.00  0.00    -0.080 C 
ATOM      9  C   UNL     1     -13.774  29.293  12.926  1.00  0.00     0.039 C 
ENDBRANCH   5   6
ENDBRANCH   4   5
ENDBRANCH   1   4
BRANCH   2  10
ATOM     10  C   UNL     1     -15.737  26.386  18.880  1.00  0.00     0.035 C 
BRANCH  10  11
ATOM     11  C   UNL     1     -14.710  26.917  19.888  1.00  0.00     0.079 C 
BRANCH  11  12
ATOM     12  C   UNL     1     -14.391  28.368  19.648  1.00  0.00     0.130 C 
ATOM     13  O   UNL     1     -15.243  29.219  19.857  1.00  0.00    -0.300 OA
ATOM     14  C   UNL     1     -13.041  28.775  19.141  1.00  0.00     0.087 C 
ENDBRANCH  11  12
ENDBRANCH  10  11
ENDBRANCH   2  10
TORSDOF 6
ENDMDL
MODEL 5
REMARK VINA RESULT:    -4.003      2.752      3.681
REMARK INTER + INTRA:          -6.414
REMARK INTER:                  -5.418
REMARK INTRA:                  -0.996
REMARK UNBOUND:                -1.007
REMARK SMILES CC(=O)CCC=C(C)CCC=C(C)C
REMARK SMILES IDX 7 1 6 2 8 3 9 4 10 5 11 6 13 7 12 8 14 9 5 10 4 11 2 12 3 13
REMARK SMILES IDX 1 14
REMARK H PARENT
REMARK Flexibility Score: inf
ROOT
ATOM      1  C   UNL     1     -13.725  29.089  17.639  1.00  0.00    -0.077 C 
ATOM      2  C   UNL     1     -13.816  29.537  16.366  1.00  0.00    -0.028 C 
ATOM      3  C   UNL     1     -14.471  27.864  18.111  1.00  0.00     0.039 C 
ENDROOT
BRANCH   1   4
ATOM      4  C   UNL     1     -12.907  29.874  18.642  1.00  0.00     0.034 C 
BRANCH   4   5
ATOM      5  C   UNL     1     -13.760  30.350  19.826  1.00  0.00     0.032 C 
BRANCH   5   6
ATOM      6  C   UNL     1     -14.654  31.508  19.449  1.00  0.00    -0.028 C 
ATOM      7  C   UNL     1     -16.768  30.258  19.942  1.00  0.00     0.039 C 
ATOM      8  C   UNL     1     -16.003  31.492  19.525  1.00  0.00    -0.080 C 
ATOM      9  C   UNL     1     -16.756  32.746  19.160  1.00  0.00     0.039 C 
ENDBRANCH   5   6
ENDBRANCH   4   5
ENDBRANCH   1   4
BRANCH   2  10
ATOM     10  C   UNL     1     -14.579  28.840  15.264  1.00  0.00     0.035 C 
BRANCH  10  11
ATOM     11  C   UNL     1     -13.693  28.573  14.040  1.00  0.00     0.079 C 
BRANCH  11  12
ATOM     12  C   UNL     1     -13.436  27.102  13.848  1.00  0.00     0.130 C 
ATOM     13  O   UNL     1     -13.542  26.607  12.736  1.00  0.00    -0.300 OA
ATOM     14  C   UNL     1     -13.066  26.238  15.015  1.00  0.00     0.087 C 
ENDBRANCH  11  12
ENDBRANCH  10  11
ENDBRANCH   2  10
TORSDOF 6
ENDMDL
MODEL 6
REMARK VINA RESULT:    -3.983      2.667      6.020
REMARK INTER + INTRA:          -6.387
REMARK INTER:                  -5.232
REMARK INTRA:                  -1.155
REMARK UNBOUND:                -1.007
REMARK SMILES CC(=O)CCC=C(C)CCC=C(C)C
REMARK SMILES IDX 7 1 6 2 8 3 9 4 10 5 11 6 13 7 12 8 14 9 5 10 4 11 2 12 3 13
REMARK SMILES IDX 1 14
REMARK H PARENT
REMARK Flexibility Score: inf
ROOT
ATOM      1  C   UNL     1     -15.712  25.924  18.903  1.00  0.00    -0.077 C 
ATOM      2  C   UNL     1     -14.860  26.398  19.841  1.00  0.00    -0.028 C 
ATOM      3  C   UNL     1     -16.587  26.839  18.082  1.00  0.00     0.039 C 
ENDROOT
BRANCH   1   4
ATOM      4  C   UNL     1     -15.846  24.428  18.715  1.00  0.00     0.034 C 
BRANCH   4   5
ATOM      5  C   UNL     1     -14.724  23.861  17.833  1.00  0.00     0.032 C 
BRANCH   5   6
ATOM      6  C   UNL     1     -15.135  23.779  16.381  1.00  0.00    -0.028 C 
ATOM      7  C   UNL     1     -13.766  25.765  15.704  1.00  0.00     0.039 C 
ATOM      8  C   UNL     1     -14.689  24.606  15.410  1.00  0.00    -0.080 C 
ATOM      9  C   UNL     1     -15.152  24.366  13.996  1.00  0.00     0.039 C 
ENDBRANCH   5   6
ENDBRANCH   4   5
ENDBRANCH   1   4
BRANCH   2  10
ATOM     10  C   UNL     1     -14.615  27.864  20.115  1.00  0.00     0.035 C 
BRANCH  10  11
ATOM     11  C   UNL     1     -13.238  28.314  19.611  1.00  0.00     0.079 C 
BRANCH  11  12
ATOM     12  C   UNL     1     -13.347  29.456  18.636  1.00  0.00     0.130 C 
ATOM     13  O   UNL     1     -13.112  30.596  19.007  1.00  0.00    -0.300 OA
ATOM     14  C   UNL     1     -13.756  29.204  17.216  1.00  0.00     0.087 C 
ENDBRANCH  11  12
ENDBRANCH  10  11
ENDBRANCH   2  10
TORSDOF 6
ENDMDL
MODEL 7
REMARK VINA RESULT:    -3.970      1.565      2.397
REMARK INTER + INTRA:          -6.370
REMARK INTER:                  -4.862
REMARK INTRA:                  -1.508
REMARK UNBOUND:                -1.007
REMARK SMILES CC(=O)CCC=C(C)CCC=C(C)C
REMARK SMILES IDX 7 1 6 2 8 3 9 4 10 5 11 6 13 7 12 8 14 9 5 10 4 11 2 12 3 13
REMARK SMILES IDX 1 14
REMARK H PARENT
REMARK Flexibility Score: inf
ROOT
ATOM      1  C   UNL     1     -13.605  29.381  18.868  1.00  0.00    -0.077 C 
ATOM      2  C   UNL     1     -13.745  29.197  17.535  1.00  0.00    -0.028 C 
ATOM      3  C   UNL     1     -13.488  28.223  19.828  1.00  0.00     0.039 C 
ENDROOT
BRANCH   1   4
ATOM      4  C   UNL     1     -13.636  30.789  19.427  1.00  0.00     0.034 C 
BRANCH   4   5
ATOM      5  C   UNL     1     -14.938  31.517  19.066  1.00  0.00     0.032 C 
BRANCH   5   6
ATOM      6  C   UNL     1     -16.141  30.881  19.721  1.00  0.00    -0.028 C 
ATOM      7  C   UNL     1     -17.247  30.323  17.545  1.00  0.00     0.039 C 
ATOM      8  C   UNL     1     -17.169  30.314  19.053  1.00  0.00    -0.080 C 
ATOM      9  C   UNL     1     -18.276  29.675  19.851  1.00  0.00     0.039 C 
ENDBRANCH   5   6
ENDBRANCH   4   5
ENDBRANCH   1   4
BRANCH   2  10
ATOM     10  C   UNL     1     -13.710  27.852  16.848  1.00  0.00     0.035 C 
BRANCH  10  11
ATOM     11  C   UNL     1     -15.121  27.333  16.542  1.00  0.00     0.079 C 
BRANCH  11  12
ATOM     12  C   UNL     1     -15.548  26.270  17.519  1.00  0.00     0.130 C 
ATOM     13  O   UNL     1     -15.056  25.154  17.455  1.00  0.00    -0.300 OA
ATOM     14  C   UNL     1     -16.585  26.568  18.560  1.00  0.00     0.087 C 
ENDBRANCH  11  12
ENDBRANCH  10  11
ENDBRANCH   2  10
TORSDOF 6
ENDMDL
MODEL 8
REMARK VINA RESULT:    -3.965      2.858      6.136
REMARK INTER + INTRA:          -6.362
REMARK INTER:                  -5.429
REMARK INTRA:                  -0.934
REMARK UNBOUND:                -1.007
REMARK SMILES CC(=O)CCC=C(C)CCC=C(C)C
REMARK SMILES IDX 7 1 6 2 8 3 9 4 10 5 11 6 13 7 12 8 14 9 5 10 4 11 2 12 3 13
REMARK SMILES IDX 1 14
REMARK H PARENT
REMARK Flexibility Score: inf
ROOT
ATOM      1  C   UNL     1     -14.347  27.879  16.984  1.00  0.00    -0.077 C 
ATOM      2  C   UNL     1     -13.433  28.544  17.728  1.00  0.00    -0.028 C 
ATOM      3  C   UNL     1     -15.682  27.457  17.546  1.00  0.00     0.039 C 
ENDROOT
BRANCH   1   4
ATOM      4  C   UNL     1     -13.997  27.483  15.565  1.00  0.00     0.034 C 
BRANCH   4   5
ATOM      5  C   UNL     1     -13.355  26.090  15.504  1.00  0.00     0.032 C 
BRANCH   5   6
ATOM      6  C   UNL     1     -14.313  25.049  14.974  1.00  0.00    -0.028 C 
ATOM      7  C   UNL     1     -14.623  23.951  17.204  1.00  0.00     0.039 C 
ATOM      8  C   UNL     1     -14.913  24.103  15.729  1.00  0.00    -0.080 C 
ATOM      9  C   UNL     1     -15.886  23.164  15.063  1.00  0.00     0.039 C 
ENDBRANCH   5   6
ENDBRANCH   4   5
ENDBRANCH   1   4
BRANCH   2  10
ATOM     10  C   UNL     1     -13.661  29.016  19.144  1.00  0.00     0.035 C 
BRANCH  10  11
ATOM     11  C   UNL     1     -13.415  30.524  19.288  1.00  0.00     0.079 C 
BRANCH  11  12
ATOM     12  C   UNL     1     -14.705  31.295  19.370  1.00  0.00     0.130 C 
ATOM     13  O   UNL     1     -14.700  32.506  19.209  1.00  0.00    -0.300 OA
ATOM     14  C   UNL     1     -15.993  30.588  19.664  1.00  0.00     0.087 C 
ENDBRANCH  11  12
ENDBRANCH  10  11
ENDBRANCH   2  10
TORSDOF 6
ENDMDL
MODEL 9
REMARK VINA RESULT:    -3.920      2.240      4.424
REMARK INTER + INTRA:          -6.303
REMARK INTER:                  -5.236
REMARK INTRA:                  -1.067
REMARK UNBOUND:                -1.007
REMARK SMILES CC(=O)CCC=C(C)CCC=C(C)C
REMARK SMILES IDX 7 1 6 2 8 3 9 4 10 5 11 6 13 7 12 8 14 9 5 10 4 11 2 12 3 13
REMARK SMILES IDX 1 14
REMARK H PARENT
REMARK Flexibility Score: inf
ROOT
ATOM      1  C   UNL     1     -16.460  30.923  19.128  1.00  0.00    -0.077 C 
ATOM      2  C   UNL     1     -15.241  31.384  18.765  1.00  0.00    -0.028 C 
ATOM      3  C   UNL     1     -16.648  30.007  20.313  1.00  0.00     0.039 C 
ENDROOT
BRANCH   1   4
ATOM      4  C   UNL     1     -17.666  31.278  18.284  1.00  0.00     0.034 C 
BRANCH   4   5
ATOM      5  C   UNL     1     -17.619  32.736  17.807  1.00  0.00     0.032 C 
BRANCH   5   6
ATOM      6  C   UNL     1     -18.584  33.612  18.570  1.00  0.00    -0.028 C 
ATOM      7  C   UNL     1     -16.786  34.703  19.931  1.00  0.00     0.039 C 
ATOM      8  C   UNL     1     -18.223  34.521  19.503  1.00  0.00    -0.080 C 
ATOM      9  C   UNL     1     -19.300  35.357  20.144  1.00  0.00     0.039 C 
ENDBRANCH   5   6
ENDBRANCH   4   5
ENDBRANCH   1   4
BRANCH   2  10
ATOM     10  C   UNL     1     -13.964  31.124  19.528  1.00  0.00     0.035 C 
BRANCH  10  11
ATOM     11  C   UNL     1     -13.013  30.204  18.751  1.00  0.00     0.079 C 
BRANCH  11  12
ATOM     12  C   UNL     1     -13.423  28.760  18.858  1.00  0.00     0.130 C 
ATOM     13  O   UNL     1     -13.312  28.175  19.925  1.00  0.00    -0.300 OA
ATOM     14  C   UNL     1     -13.950  28.030  17.660  1.00  0.00     0.087 C 
ENDBRANCH  11  12
ENDBRANCH  10  11
ENDBRANCH   2  10
TORSDOF 6
ENDMDL
