MODEL 1
REMARK VINA RESULT:    -5.504      0.000      0.000
REMARK INTER + INTRA:          -6.189
REMARK INTER:                  -5.986
REMARK INTRA:                  -0.203
REMARK UNBOUND:                -0.203
REMARK SMILES O=C([O-])c1ccccc1O
REMARK SMILES IDX 4 1 9 2 5 3 8 4 6 5 7 6 2 7 1 8 3 9 10 10
REMARK H PARENT 10 11
REMARK Flexibility Score: inf
ROOT
ATOM      1  C   UNL     1      14.134 -26.180 -31.373  1.00  0.00     0.039 A 
ATOM      2  C   UNL     1      14.075 -24.997 -32.149  1.00  0.00     0.124 A 
ATOM      3  C   UNL     1      13.142 -26.404 -30.399  1.00  0.00     0.014 A 
ATOM      4  C   UNL     1      13.038 -24.075 -31.939  1.00  0.00     0.047 A 
ATOM      5  C   UNL     1      12.115 -25.477 -30.201  1.00  0.00     0.001 A 
ATOM      6  C   UNL     1      12.063 -24.315 -30.969  1.00  0.00     0.004 A 
ENDROOT
BRANCH   1   7
ATOM      7  C   UNL     1      15.211 -27.187 -31.556  1.00  0.00     0.075 C 
ATOM      8  O   UNL     1      15.866 -27.250 -32.628  1.00  0.00    -0.545 OA
ATOM      9  O   UNL     1      15.512 -28.084 -30.537  1.00  0.00    -0.545 OA
ENDBRANCH   1   7
BRANCH   2  10
ATOM     10  O   UNL     1      15.036 -24.735 -33.125  1.00  0.00    -0.507 OA
ATOM     11  H   UNL     1      15.554 -25.480 -33.576  1.00  0.00     0.293 HD
ENDBRANCH   2  10
TORSDOF 2
ENDMDL
MODEL 2
REMARK VINA RESULT:    -5.224      1.909      3.542
REMARK INTER + INTRA:          -5.885
REMARK INTER:                  -5.680
REMARK INTRA:                  -0.205
REMARK UNBOUND:                -0.203
REMARK SMILES O=C([O-])c1ccccc1O
REMARK SMILES IDX 4 1 9 2 5 3 8 4 6 5 7 6 2 7 1 8 3 9 10 10
REMARK H PARENT 10 11
REMARK Flexibility Score: inf
ROOT
ATOM      1  C   UNL     1      13.531 -25.523 -31.470  1.00  0.00     0.039 A 
ATOM      2  C   UNL     1      14.735 -25.412 -32.206  1.00  0.00     0.124 A 
ATOM      3  C   UNL     1      13.338 -26.651 -30.649  1.00  0.00     0.014 A 
ATOM      4  C   UNL     1      15.710 -26.417 -32.107  1.00  0.00     0.047 A 
ATOM      5  C   UNL     1      14.318 -27.644 -30.560  1.00  0.00     0.001 A 
ATOM      6  C   UNL     1      15.501 -27.527 -31.288  1.00  0.00     0.004 A 
ENDROOT
BRANCH   1   7
ATOM      7  C   UNL     1      12.468 -24.487 -31.541  1.00  0.00     0.075 C 
ATOM      8  O   UNL     1      11.626 -24.355 -30.615  1.00  0.00    -0.545 OA
ATOM      9  O   UNL     1      12.386 -23.642 -32.642  1.00  0.00    -0.545 OA
ENDBRANCH   1   7
BRANCH   2  10
ATOM     10  O   UNL     1      14.969 -24.312 -33.032  1.00  0.00    -0.507 OA
ATOM     11  H   UNL     1      15.506 -24.392 -33.887  1.00  0.00     0.293 HD
ENDBRANCH   2  10
TORSDOF 2
ENDMDL
MODEL 3
REMARK VINA RESULT:    -5.216      1.373      2.989
REMARK INTER + INTRA:          -5.876
REMARK INTER:                  -5.623
REMARK INTRA:                  -0.252
REMARK UNBOUND:                -0.203
REMARK SMILES O=C([O-])c1ccccc1O
REMARK SMILES IDX 4 1 9 2 5 3 8 4 6 5 7 6 2 7 1 8 3 9 10 10
REMARK H PARENT 10 11
REMARK Flexibility Score: inf
ROOT
ATOM      1  C   UNL     1      13.169 -25.327 -31.225  1.00  0.00     0.039 A 
ATOM      2  C   UNL     1      13.251 -26.712 -30.941  1.00  0.00     0.124 A 
ATOM      3  C   UNL     1      12.516 -24.483 -30.307  1.00  0.00     0.014 A 
ATOM      4  C   UNL     1      12.686 -27.217 -29.759  1.00  0.00     0.047 A 
ATOM      5  C   UNL     1      11.958 -25.000 -29.134  1.00  0.00     0.001 A 
ATOM      6  C   UNL     1      12.043 -26.365 -28.862  1.00  0.00     0.004 A 
ENDROOT
BRANCH   1   7
ATOM      7  C   UNL     1      13.750 -24.744 -32.462  1.00  0.00     0.075 C 
ATOM      8  O   UNL     1      13.127 -23.874 -33.125  1.00  0.00    -0.545 OA
ATOM      9  O   UNL     1      15.001 -25.154 -32.909  1.00  0.00    -0.545 OA
ENDBRANCH   1   7
BRANCH   2  10
ATOM     10  O   UNL     1      13.888 -27.586 -31.822  1.00  0.00    -0.507 OA
ATOM     11  H   UNL     1      14.810 -27.388 -32.195  1.00  0.00     0.293 HD
ENDBRANCH   2  10
TORSDOF 2
ENDMDL
MODEL 4
REMARK VINA RESULT:    -5.113      2.015      3.942
REMARK INTER + INTRA:          -5.764
REMARK INTER:                  -5.510
REMARK INTRA:                  -0.254
REMARK UNBOUND:                -0.203
REMARK SMILES O=C([O-])c1ccccc1O
REMARK SMILES IDX 4 1 9 2 5 3 8 4 6 5 7 6 2 7 1 8 3 9 10 10
REMARK H PARENT 10 11
REMARK Flexibility Score: inf
ROOT
ATOM      1  C   UNL     1      14.312 -25.858 -31.634  1.00  0.00     0.039 A 
ATOM      2  C   UNL     1      13.799 -26.848 -30.761  1.00  0.00     0.124 A 
ATOM      3  C   UNL     1      15.577 -26.059 -32.219  1.00  0.00     0.014 A 
ATOM      4  C   UNL     1      14.550 -28.004 -30.497  1.00  0.00     0.047 A 
ATOM      5  C   UNL     1      16.314 -27.215 -31.947  1.00  0.00     0.001 A 
ATOM      6  C   UNL     1      15.801 -28.185 -31.088  1.00  0.00     0.004 A 
ENDROOT
BRANCH   1   7
ATOM      7  C   UNL     1      13.557 -24.617 -31.945  1.00  0.00     0.075 C 
ATOM      8  O   UNL     1      13.473 -24.187 -33.125  1.00  0.00    -0.545 OA
ATOM      9  O   UNL     1      12.929 -23.906 -30.929  1.00  0.00    -0.545 OA
ENDBRANCH   1   7
BRANCH   2  10
ATOM     10  O   UNL     1      12.551 -26.691 -30.159  1.00  0.00    -0.507 OA
ATOM     11  H   UNL     1      11.837 -27.409 -30.217  1.00  0.00     0.293 HD
ENDBRANCH   2  10
TORSDOF 2
ENDMDL
MODEL 5
REMARK VINA RESULT:    -5.072      1.945      3.829
REMARK INTER + INTRA:          -5.719
REMARK INTER:                  -5.475
REMARK INTRA:                  -0.244
REMARK UNBOUND:                -0.203
REMARK SMILES O=C([O-])c1ccccc1O
REMARK SMILES IDX 4 1 9 2 5 3 8 4 6 5 7 6 2 7 1 8 3 9 10 10
REMARK H PARENT 10 11
REMARK Flexibility Score: inf
ROOT
ATOM      1  C   UNL     1      14.581 -27.032 -31.260  1.00  0.00     0.039 A 
ATOM      2  C   UNL     1      15.713 -27.001 -32.110  1.00  0.00     0.124 A 
ATOM      3  C   UNL     1      14.515 -28.014 -30.253  1.00  0.00     0.014 A 
ATOM      4  C   UNL     1      16.743 -27.939 -31.937  1.00  0.00     0.047 A 
ATOM      5  C   UNL     1      15.547 -28.942 -30.092  1.00  0.00     0.001 A 
ATOM      6  C   UNL     1      16.659 -28.904 -30.933  1.00  0.00     0.004 A 
ENDROOT
BRANCH   1   7
ATOM      7  C   UNL     1      13.465 -26.062 -31.402  1.00  0.00     0.075 C 
ATOM      8  O   UNL     1      12.865 -25.608 -30.393  1.00  0.00    -0.545 OA
ATOM      9  O   UNL     1      13.061 -25.639 -32.663  1.00  0.00    -0.545 OA
ENDBRANCH   1   7
BRANCH   2  10
ATOM     10  O   UNL     1      15.821 -26.045 -33.120  1.00  0.00    -0.507 OA
ATOM     11  H   UNL     1      15.674 -26.281 -34.095  1.00  0.00     0.293 HD
ENDBRANCH   2  10
TORSDOF 2
ENDMDL
MODEL 6
REMARK VINA RESULT:    -5.005      1.437      3.385
REMARK INTER + INTRA:          -5.647
REMARK INTER:                  -5.426
REMARK INTRA:                  -0.221
REMARK UNBOUND:                -0.203
REMARK SMILES O=C([O-])c1ccccc1O
REMARK SMILES IDX 4 1 9 2 5 3 8 4 6 5 7 6 2 7 1 8 3 9 10 10
REMARK H PARENT 10 11
REMARK Flexibility Score: inf
ROOT
ATOM      1  C   UNL     1      13.834 -26.043 -31.240  1.00  0.00     0.039 A 
ATOM      2  C   UNL     1      14.961 -26.795 -31.650  1.00  0.00     0.124 A 
ATOM      3  C   UNL     1      12.991 -26.572 -30.244  1.00  0.00     0.014 A 
ATOM      4  C   UNL     1      15.220 -28.043 -31.063  1.00  0.00     0.047 A 
ATOM      5  C   UNL     1      13.260 -27.816 -29.668  1.00  0.00     0.001 A 
ATOM      6  C   UNL     1      14.373 -28.550 -30.077  1.00  0.00     0.004 A 
ENDROOT
BRANCH   1   7
ATOM      7  C   UNL     1      13.517 -24.717 -31.831  1.00  0.00     0.075 C 
ATOM      8  O   UNL     1      12.878 -23.851 -31.178  1.00  0.00    -0.545 OA
ATOM      9  O   UNL     1      13.923 -24.412 -33.125  1.00  0.00    -0.545 OA
ENDBRANCH   1   7
BRANCH   2  10
ATOM     10  O   UNL     1      15.824 -26.310 -32.633  1.00  0.00    -0.507 OA
ATOM     11  H   UNL     1      15.822 -26.684 -33.576  1.00  0.00     0.293 HD
ENDBRANCH   2  10
TORSDOF 2
ENDMDL
MODEL 7
REMARK VINA RESULT:    -4.982      1.256      2.273
REMARK INTER + INTRA:          -5.622
REMARK INTER:                  -5.371
REMARK INTRA:                  -0.251
REMARK UNBOUND:                -0.203
REMARK SMILES O=C([O-])c1ccccc1O
REMARK SMILES IDX 4 1 9 2 5 3 8 4 6 5 7 6 2 7 1 8 3 9 10 10
REMARK H PARENT 10 11
REMARK Flexibility Score: inf
ROOT
ATOM      1  C   UNL     1      14.208 -26.515 -31.227  1.00  0.00     0.039 A 
ATOM      2  C   UNL     1      13.070 -26.438 -30.388  1.00  0.00     0.124 A 
ATOM      3  C   UNL     1      14.550 -25.397 -32.011  1.00  0.00     0.014 A 
ATOM      4  C   UNL     1      12.309 -25.259 -30.348  1.00  0.00     0.047 A 
ATOM      5  C   UNL     1      13.783 -24.229 -31.962  1.00  0.00     0.001 A 
ATOM      6  C   UNL     1      12.665 -24.161 -31.132  1.00  0.00     0.004 A 
ENDROOT
BRANCH   1   7
ATOM      7  C   UNL     1      15.045 -27.740 -31.306  1.00  0.00     0.075 C 
ATOM      8  O   UNL     1      15.491 -28.153 -32.408  1.00  0.00    -0.545 OA
ATOM      9  O   UNL     1      15.350 -28.455 -30.153  1.00  0.00    -0.545 OA
ENDBRANCH   1   7
BRANCH   2  10
ATOM     10  O   UNL     1      12.694 -27.522 -29.594  1.00  0.00    -0.507 OA
ATOM     11  H   UNL     1      11.722 -27.722 -29.391  1.00  0.00     0.293 HD
ENDBRANCH   2  10
TORSDOF 2
ENDMDL
MODEL 8
REMARK VINA RESULT:    -4.588     15.912     16.528
REMARK INTER + INTRA:          -5.193
REMARK INTER:                  -4.955
REMARK INTRA:                  -0.237
REMARK UNBOUND:                -0.203
REMARK SMILES O=C([O-])c1ccccc1O
REMARK SMILES IDX 4 1 9 2 5 3 8 4 6 5 7 6 2 7 1 8 3 9 10 10
REMARK H PARENT 10 11
REMARK Flexibility Score: inf
ROOT
ATOM      1  C   UNL     1      21.011 -23.777 -16.816  1.00  0.00     0.039 A 
ATOM      2  C   UNL     1      21.148 -22.437 -16.380  1.00  0.00     0.124 A 
ATOM      3  C   UNL     1      19.773 -24.198 -17.337  1.00  0.00     0.014 A 
ATOM      4  C   UNL     1      20.059 -21.557 -16.473  1.00  0.00     0.047 A 
ATOM      5  C   UNL     1      18.696 -23.310 -17.424  1.00  0.00     0.001 A 
ATOM      6  C   UNL     1      18.840 -21.993 -16.992  1.00  0.00     0.004 A 
ENDROOT
BRANCH   1   7
ATOM      7  C   UNL     1      22.133 -24.747 -16.739  1.00  0.00     0.075 C 
ATOM      8  O   UNL     1      22.563 -25.328 -17.769  1.00  0.00    -0.545 OA
ATOM      9  O   UNL     1      22.729 -25.032 -15.515  1.00  0.00    -0.545 OA
ENDBRANCH   1   7
BRANCH   2  10
ATOM     10  O   UNL     1      22.357 -21.977 -15.857  1.00  0.00    -0.507 OA
ATOM     11  H   UNL     1      22.766 -22.383 -15.024  1.00  0.00     0.293 HD
ENDBRANCH   2  10
TORSDOF 2
ENDMDL
MODEL 9
REMARK VINA RESULT:    -4.505     17.066     17.981
REMARK INTER + INTRA:          -5.102
REMARK INTER:                  -4.851
REMARK INTRA:                  -0.251
REMARK UNBOUND:                -0.203
REMARK SMILES O=C([O-])c1ccccc1O
REMARK SMILES IDX 4 1 9 2 5 3 8 4 6 5 7 6 2 7 1 8 3 9 10 10
REMARK H PARENT 10 11
REMARK Flexibility Score: inf
ROOT
ATOM      1  C   UNL     1      28.422 -15.560 -29.311  1.00  0.00     0.039 A 
ATOM      2  C   UNL     1      27.605 -16.691 -29.065  1.00  0.00     0.124 A 
ATOM      3  C   UNL     1      29.799 -15.643 -29.027  1.00  0.00     0.014 A 
ATOM      4  C   UNL     1      28.175 -17.866 -28.550  1.00  0.00     0.047 A 
ATOM      5  C   UNL     1      30.352 -16.820 -28.515  1.00  0.00     0.001 A 
ATOM      6  C   UNL     1      29.541 -17.929 -28.277  1.00  0.00     0.004 A 
ENDROOT
BRANCH   1   7
ATOM      7  C   UNL     1      27.868 -14.294 -29.854  1.00  0.00     0.075 C 
ATOM      8  O   UNL     1      28.369 -13.749 -30.872  1.00  0.00    -0.545 OA
ATOM      9  O   UNL     1      26.778 -13.686 -29.241  1.00  0.00    -0.545 OA
ENDBRANCH   1   7
BRANCH   2  10
ATOM     10  O   UNL     1      26.236 -16.654 -29.331  1.00  0.00    -0.507 OA
ATOM     11  H   UNL     1      25.616 -17.399 -29.035  1.00  0.00     0.293 HD
ENDBRANCH   2  10
TORSDOF 2
ENDMDL
