MODEL 1
REMARK VINA RESULT:    -0.926      0.000      0.000
REMARK INTER + INTRA:          -0.953
REMARK INTER:                  -0.953
REMARK INTRA:                   0.000
REMARK UNBOUND:                 0.000
REMARK SMILES C=C1[C@H](O)C[C@@]23C[C@@H]1C(C)(C)[C@@H]2CC[C@H]3C
REMARK SMILES IDX 16 1 15 2 14 3 13 4 12 5 6 6 7 7 8 8 9 9 10 10 11 11 2 12
REMARK SMILES IDX 1 13 3 14 5 15 4 16
REMARK H PARENT 4 17
REMARK Flexibility Score: inf
ROOT
ATOM      1  C   UNL     1     130.566 131.070 138.875  1.00  0.00     0.008 C 
ATOM      2  C   UNL     1     131.558 131.404 137.751  1.00  0.00    -0.008 C 
ATOM      3  C   UNL     1     132.411 130.196 137.374  1.00  0.00     0.004 C 
ATOM      4  C   UNL     1     133.615 130.785 136.661  1.00  0.00     0.005 C 
ATOM      5  C   UNL     1     133.922 132.076 137.436  1.00  0.00     0.002 C 
ATOM      6  C   UNL     1     132.576 132.551 138.038  1.00  0.00    -0.020 C 
ATOM      7  C   UNL     1     132.250 133.846 137.287  1.00  0.00     0.016 C 
ATOM      8  C   UNL     1     133.627 134.479 137.165  1.00  0.00     0.023 C 
ATOM      9  C   UNL     1     134.520 133.304 136.667  1.00  0.00    -0.025 C 
ATOM     10  C   UNL     1     134.417 133.204 135.121  1.00  0.00     0.012 C 
ATOM     11  C   UNL     1     136.020 133.500 137.000  1.00  0.00     0.012 C 
ATOM     12  C   UNL     1     134.025 134.964 138.558  1.00  0.00    -0.045 C 
ATOM     13  C   UNL     1     134.683 136.125 138.698  1.00  0.00     0.011 C 
ATOM     14  C   UNL     1     133.749 134.104 139.793  1.00  0.00     0.140 C 
ATOM     15  C   UNL     1     132.755 132.926 139.542  1.00  0.00     0.044 C 
ENDROOT
BRANCH  14  16
ATOM     16  O   UNL     1     134.967 133.609 140.287  1.00  0.00    -0.389 OA
ATOM     17  H   UNL     1     135.021 133.873 141.242  1.00  0.00     0.211 HD
ENDBRANCH  14  16
TORSDOF 1
ENDMDL
