MODEL 1
REMARK VINA RESULT:    -5.768      0.000      0.000
REMARK INTER + INTRA:         -12.592
REMARK INTER:                 -10.489
REMARK INTRA:                  -2.103
REMARK UNBOUND:                -2.103
REMARK SMILES CCCCCCCCCCCCCCCC(=O)[O-]
REMARK SMILES IDX 9 1 10 2 11 3 12 4 13 5 14 6 15 7 16 8 17 9 18 10 8 11 7 12
REMARK SMILES IDX 6 13 5 14 4 15 3 16 2 17 1 18
REMARK H PARENT
REMARK Flexibility Score: inf
ROOT
ATOM      1  C   UNL     1      17.602  -0.321  19.212  1.00  0.00     0.000 C 
ENDROOT
BRANCH   1   2
ATOM      2  C   UNL     1      17.657   0.782  18.142  1.00  0.00     0.000 C 
BRANCH   2   3
ATOM      3  C   UNL     1      18.363   0.324  16.855  1.00  0.00     0.000 C 
BRANCH   3   4
ATOM      4  C   UNL     1      17.600  -0.793  16.118  1.00  0.00     0.000 C 
BRANCH   4   5
ATOM      5  C   UNL     1      16.268  -0.363  15.477  1.00  0.00     0.000 C 
BRANCH   5   6
ATOM      6  C   UNL     1      16.452   0.636  14.322  1.00  0.00     0.006 C 
BRANCH   6   7
ATOM      7  C   UNL     1      15.112   1.177  13.805  1.00  0.00     0.053 C 
BRANCH   7   8
ATOM      8  C   UNL     1      15.298   2.132  12.666  1.00  0.00     0.041 C 
ATOM      9  O   UNL     1      15.237   3.375  12.865  1.00  0.00    -0.550 OA
ATOM     10  O   UNL     1      15.567   1.652  11.391  1.00  0.00    -0.550 OA
ENDBRANCH   7   8
ENDBRANCH   6   7
ENDBRANCH   5   6
ENDBRANCH   4   5
ENDBRANCH   3   4
ENDBRANCH   2   3
ENDBRANCH   1   2
BRANCH   1  11
ATOM     11  C   UNL     1      16.164  -0.740  19.559  1.00  0.00     0.000 C 
BRANCH  11  12
ATOM     12  C   UNL     1      15.523   0.262  20.532  1.00  0.00    -0.000 C 
BRANCH  12  13
ATOM     13  C   UNL     1      14.404   1.090  19.882  1.00  0.00    -0.000 C 
BRANCH  13  14
ATOM     14  C   UNL     1      13.882   0.459  18.578  1.00  0.00    -0.000 C 
BRANCH  14  15
ATOM     15  C   UNL     1      13.660   1.500  17.468  1.00  0.00    -0.000 C 
BRANCH  15  16
ATOM     16  C   UNL     1      13.333   2.897  18.027  1.00  0.00    -0.000 C 
BRANCH  16  17
ATOM     17  C   UNL     1      14.327   3.968  17.551  1.00  0.00    -0.003 C 
ATOM     18  C   UNL     1      15.502   3.382  16.769  1.00  0.00     0.004 C 
ENDBRANCH  16  17
ENDBRANCH  15  16
ENDBRANCH  14  15
ENDBRANCH  13  14
ENDBRANCH  12  13
ENDBRANCH  11  12
ENDBRANCH   1  11
TORSDOF 14
ENDMDL
MODEL 2
REMARK VINA RESULT:    -5.725      2.997      6.752
REMARK INTER + INTRA:         -12.513
REMARK INTER:                 -11.177
REMARK INTRA:                  -1.337
REMARK UNBOUND:                -2.103
REMARK SMILES CCCCCCCCCCCCCCCC(=O)[O-]
REMARK SMILES IDX 9 1 10 2 11 3 12 4 13 5 14 6 15 7 16 8 17 9 18 10 8 11 7 12
REMARK SMILES IDX 6 13 5 14 4 15 3 16 2 17 1 18
REMARK H PARENT
REMARK Flexibility Score: inf
ROOT
ATOM      1  C   UNL     1      14.153   1.939  14.410  1.00  0.00     0.000 C 
ENDROOT
BRANCH   1   2
ATOM      2  C   UNL     1      13.372   2.617  15.548  1.00  0.00     0.000 C 
BRANCH   2   3
ATOM      3  C   UNL     1      14.263   2.954  16.757  1.00  0.00     0.000 C 
BRANCH   3   4
ATOM      4  C   UNL     1      13.587   2.641  18.105  1.00  0.00     0.000 C 
BRANCH   4   5
ATOM      5  C   UNL     1      13.951   1.277  18.719  1.00  0.00     0.000 C 
BRANCH   5   6
ATOM      6  C   UNL     1      15.000   1.382  19.839  1.00  0.00     0.006 C 
BRANCH   6   7
ATOM      7  C   UNL     1      15.497   0.005  20.298  1.00  0.00     0.053 C 
BRANCH   7   8
ATOM      8  C   UNL     1      16.681  -0.454  19.504  1.00  0.00     0.041 C 
ATOM      9  O   UNL     1      17.636   0.335  19.276  1.00  0.00    -0.550 OA
ATOM     10  O   UNL     1      16.745  -1.762  19.041  1.00  0.00    -0.550 OA
ENDBRANCH   7   8
ENDBRANCH   6   7
ENDBRANCH   5   6
ENDBRANCH   4   5
ENDBRANCH   3   4
ENDBRANCH   2   3
ENDBRANCH   1   2
BRANCH   1  11
ATOM     11  C   UNL     1      15.424   2.709  14.021  1.00  0.00     0.000 C 
BRANCH  11  12
ATOM     12  C   UNL     1      15.517   2.877  12.496  1.00  0.00    -0.000 C 
BRANCH  12  13
ATOM     13  C   UNL     1      15.668   1.538  11.758  1.00  0.00    -0.000 C 
BRANCH  13  14
ATOM     14  C   UNL     1      17.019   1.412  11.031  1.00  0.00    -0.000 C 
BRANCH  14  15
ATOM     15  C   UNL     1      18.096   0.742  11.901  1.00  0.00    -0.000 C 
BRANCH  15  16
ATOM     16  C   UNL     1      17.510  -0.321  12.848  1.00  0.00    -0.000 C 
BRANCH  16  17
ATOM     17  C   UNL     1      18.240  -0.371  14.199  1.00  0.00    -0.003 C 
ATOM     18  C   UNL     1      17.337  -0.009  15.377  1.00  0.00     0.004 C 
ENDBRANCH  16  17
ENDBRANCH  15  16
ENDBRANCH  14  15
ENDBRANCH  13  14
ENDBRANCH  12  13
ENDBRANCH  11  12
ENDBRANCH   1  11
TORSDOF 14
ENDMDL
MODEL 3
REMARK VINA RESULT:    -5.723      2.080      4.814
REMARK INTER + INTRA:         -12.509
REMARK INTER:                 -10.618
REMARK INTRA:                  -1.891
REMARK UNBOUND:                -2.103
REMARK SMILES CCCCCCCCCCCCCCCC(=O)[O-]
REMARK SMILES IDX 9 1 10 2 11 3 12 4 13 5 14 6 15 7 16 8 17 9 18 10 8 11 7 12
REMARK SMILES IDX 6 13 5 14 4 15 3 16 2 17 1 18
REMARK H PARENT
REMARK Flexibility Score: inf
ROOT
ATOM      1  C   UNL     1      17.751   0.537  18.367  1.00  0.00     0.000 C 
ENDROOT
BRANCH   1   2
ATOM      2  C   UNL     1      17.585  -0.991  18.341  1.00  0.00     0.000 C 
BRANCH   2   3
ATOM      3  C   UNL     1      16.247  -1.451  18.945  1.00  0.00     0.000 C 
BRANCH   3   4
ATOM      4  C   UNL     1      15.642  -0.420  19.915  1.00  0.00     0.000 C 
BRANCH   4   5
ATOM      5  C   UNL     1      14.144  -0.126  19.709  1.00  0.00     0.000 C 
BRANCH   5   6
ATOM      6  C   UNL     1      13.876   0.837  18.541  1.00  0.00     0.006 C 
BRANCH   6   7
ATOM      7  C   UNL     1      14.380   2.257  18.832  1.00  0.00     0.053 C 
BRANCH   7   8
ATOM      8  C   UNL     1      13.912   3.238  17.802  1.00  0.00     0.041 C 
ATOM      9  O   UNL     1      12.976   2.933  17.016  1.00  0.00    -0.550 OA
ATOM     10  O   UNL     1      14.490   4.499  17.728  1.00  0.00    -0.550 OA
ENDBRANCH   7   8
ENDBRANCH   6   7
ENDBRANCH   5   6
ENDBRANCH   4   5
ENDBRANCH   3   4
ENDBRANCH   2   3
ENDBRANCH   1   2
BRANCH   1  11
ATOM     11  C   UNL     1      17.419   1.194  17.018  1.00  0.00     0.000 C 
BRANCH  11  12
ATOM     12  C   UNL     1      17.667   0.216  15.859  1.00  0.00    -0.000 C 
BRANCH  12  13
ATOM     13  C   UNL     1      16.411  -0.030  15.008  1.00  0.00    -0.000 C 
BRANCH  13  14
ATOM     14  C   UNL     1      15.377   1.103  15.139  1.00  0.00    -0.000 C 
BRANCH  14  15
ATOM     15  C   UNL     1      14.747   1.484  13.789  1.00  0.00    -0.000 C 
BRANCH  15  16
ATOM     16  C   UNL     1      15.621   2.466  12.988  1.00  0.00    -0.000 C 
BRANCH  16  17
ATOM     17  C   UNL     1      15.780   2.047  11.518  1.00  0.00    -0.003 C 
ATOM     18  C   UNL     1      17.224   1.710  11.149  1.00  0.00     0.004 C 
ENDBRANCH  16  17
ENDBRANCH  15  16
ENDBRANCH  14  15
ENDBRANCH  13  14
ENDBRANCH  12  13
ENDBRANCH  11  12
ENDBRANCH   1  11
TORSDOF 14
ENDMDL
MODEL 4
REMARK VINA RESULT:    -5.714      2.961      6.238
REMARK INTER + INTRA:         -12.494
REMARK INTER:                 -10.853
REMARK INTRA:                  -1.641
REMARK UNBOUND:                -2.103
REMARK SMILES CCCCCCCCCCCCCCCC(=O)[O-]
REMARK SMILES IDX 9 1 10 2 11 3 12 4 13 5 14 6 15 7 16 8 17 9 18 10 8 11 7 12
REMARK SMILES IDX 6 13 5 14 4 15 3 16 2 17 1 18
REMARK H PARENT
REMARK Flexibility Score: inf
ROOT
ATOM      1  C   UNL     1      15.100   2.618  15.441  1.00  0.00     0.000 C 
ENDROOT
BRANCH   1   2
ATOM      2  C   UNL     1      13.705   2.274  15.988  1.00  0.00     0.000 C 
BRANCH   2   3
ATOM      3  C   UNL     1      13.187   3.322  16.988  1.00  0.00     0.000 C 
BRANCH   3   4
ATOM      4  C   UNL     1      13.648   3.052  18.433  1.00  0.00     0.000 C 
BRANCH   4   5
ATOM      5  C   UNL     1      13.911   1.573  18.770  1.00  0.00     0.000 C 
BRANCH   5   6
ATOM      6  C   UNL     1      15.118   1.373  19.702  1.00  0.00     0.006 C 
BRANCH   6   7
ATOM      7  C   UNL     1      15.407  -0.110  19.967  1.00  0.00     0.053 C 
BRANCH   7   8
ATOM      8  C   UNL     1      16.687  -0.553  19.328  1.00  0.00     0.041 C 
ATOM      9  O   UNL     1      16.877  -1.770  19.066  1.00  0.00    -0.550 OA
ATOM     10  O   UNL     1      17.660   0.382  18.996  1.00  0.00    -0.550 OA
ENDBRANCH   7   8
ENDBRANCH   6   7
ENDBRANCH   5   6
ENDBRANCH   4   5
ENDBRANCH   3   4
ENDBRANCH   2   3
ENDBRANCH   1   2
BRANCH   1  11
ATOM     11  C   UNL     1      16.193   1.675  15.969  1.00  0.00     0.000 C 
BRANCH  11  12
ATOM     12  C   UNL     1      16.077   0.286  15.323  1.00  0.00    -0.000 C 
BRANCH  12  13
ATOM     13  C   UNL     1      17.400  -0.495  15.346  1.00  0.00    -0.000 C 
BRANCH  13  14
ATOM     14  C   UNL     1      18.166  -0.401  14.015  1.00  0.00    -0.000 C 
BRANCH  14  15
ATOM     15  C   UNL     1      17.254  -0.026  12.835  1.00  0.00    -0.000 C 
BRANCH  15  16
ATOM     16  C   UNL     1      17.986   0.803  11.765  1.00  0.00    -0.000 C 
BRANCH  16  17
ATOM     17  C   UNL     1      17.048   1.773  11.030  1.00  0.00    -0.003 C 
ATOM     18  C   UNL     1      15.774   2.079  11.817  1.00  0.00     0.004 C 
ENDBRANCH  16  17
ENDBRANCH  15  16
ENDBRANCH  14  15
ENDBRANCH  13  14
ENDBRANCH  12  13
ENDBRANCH  11  12
ENDBRANCH   1  11
TORSDOF 14
ENDMDL
MODEL 5
REMARK VINA RESULT:    -5.711      1.471      3.799
REMARK INTER + INTRA:         -12.487
REMARK INTER:                 -10.511
REMARK INTRA:                  -1.976
REMARK UNBOUND:                -2.103
REMARK SMILES CCCCCCCCCCCCCCCC(=O)[O-]
REMARK SMILES IDX 9 1 10 2 11 3 12 4 13 5 14 6 15 7 16 8 17 9 18 10 8 11 7 12
REMARK SMILES IDX 6 13 5 14 4 15 3 16 2 17 1 18
REMARK H PARENT
REMARK Flexibility Score: inf
ROOT
ATOM      1  C   UNL     1      13.762   2.159  17.677  1.00  0.00     0.000 C 
ENDROOT
BRANCH   1   2
ATOM      2  C   UNL     1      15.057   2.881  17.269  1.00  0.00     0.000 C 
BRANCH   2   3
ATOM      3  C   UNL     1      15.499   2.538  15.836  1.00  0.00     0.000 C 
BRANCH   3   4
ATOM      4  C   UNL     1      14.334   2.064  14.947  1.00  0.00     0.000 C 
BRANCH   4   5
ATOM      5  C   UNL     1      14.748   1.459  13.593  1.00  0.00     0.000 C 
BRANCH   5   6
ATOM      6  C   UNL     1      15.689   2.372  12.789  1.00  0.00     0.006 C 
BRANCH   6   7
ATOM      7  C   UNL     1      15.921   1.854  11.363  1.00  0.00     0.053 C 
BRANCH   7   8
ATOM      8  C   UNL     1      17.199   1.081  11.251  1.00  0.00     0.041 C 
ATOM      9  O   UNL     1      17.723   0.570  12.276  1.00  0.00    -0.550 OA
ATOM     10  O   UNL     1      17.797   0.900  10.010  1.00  0.00    -0.550 OA
ENDBRANCH   7   8
ENDBRANCH   6   7
ENDBRANCH   5   6
ENDBRANCH   4   5
ENDBRANCH   3   4
ENDBRANCH   2   3
ENDBRANCH   1   2
BRANCH   1  11
ATOM     11  C   UNL     1      14.022   0.925  18.555  1.00  0.00     0.000 C 
BRANCH  11  12
ATOM     12  C   UNL     1      14.971   1.268  19.714  1.00  0.00    -0.000 C 
BRANCH  12  13
ATOM     13  C   UNL     1      15.999   0.161  19.991  1.00  0.00    -0.000 C 
BRANCH  13  14
ATOM     14  C   UNL     1      17.335   0.399  19.266  1.00  0.00    -0.000 C 
BRANCH  14  15
ATOM     15  C   UNL     1      17.680  -0.730  18.280  1.00  0.00    -0.000 C 
BRANCH  15  16
ATOM     16  C   UNL     1      17.514  -0.301  16.811  1.00  0.00    -0.000 C 
BRANCH  16  17
ATOM     17  C   UNL     1      16.377  -1.054  16.104  1.00  0.00    -0.003 C 
ATOM     18  C   UNL     1      15.770  -2.160  16.967  1.00  0.00     0.004 C 
ENDBRANCH  16  17
ENDBRANCH  15  16
ENDBRANCH  14  15
ENDBRANCH  13  14
ENDBRANCH  12  13
ENDBRANCH  11  12
ENDBRANCH   1  11
TORSDOF 14
ENDMDL
MODEL 6
REMARK VINA RESULT:    -5.703      2.590      4.666
REMARK INTER + INTRA:         -12.474
REMARK INTER:                 -10.608
REMARK INTRA:                  -1.866
REMARK UNBOUND:                -2.103
REMARK SMILES CCCCCCCCCCCCCCCC(=O)[O-]
REMARK SMILES IDX 9 1 10 2 11 3 12 4 13 5 14 6 15 7 16 8 17 9 18 10 8 11 7 12
REMARK SMILES IDX 6 13 5 14 4 15 3 16 2 17 1 18
REMARK H PARENT
REMARK Flexibility Score: inf
ROOT
ATOM      1  C   UNL     1      15.391   2.634  14.408  1.00  0.00     0.000 C 
ENDROOT
BRANCH   1   2
ATOM      2  C   UNL     1      15.478   2.975  12.911  1.00  0.00     0.000 C 
BRANCH   2   3
ATOM      3  C   UNL     1      15.591   1.723  12.024  1.00  0.00     0.000 C 
BRANCH   3   4
ATOM      4  C   UNL     1      16.943   1.626  11.293  1.00  0.00     0.000 C 
BRANCH   4   5
ATOM      5  C   UNL     1      18.000   0.747  11.985  1.00  0.00     0.000 C 
BRANCH   5   6
ATOM      6  C   UNL     1      17.385  -0.350  12.870  1.00  0.00     0.006 C 
BRANCH   6   7
ATOM      7  C   UNL     1      17.791  -0.202  14.342  1.00  0.00     0.053 C 
BRANCH   7   8
ATOM      8  C   UNL     1      19.186  -0.688  14.588  1.00  0.00     0.041 C 
ATOM      9  O   UNL     1      19.981  -0.006  15.288  1.00  0.00    -0.550 OA
ATOM     10  O   UNL     1      19.601  -1.908  14.068  1.00  0.00    -0.550 OA
ENDBRANCH   7   8
ENDBRANCH   6   7
ENDBRANCH   5   6
ENDBRANCH   4   5
ENDBRANCH   3   4
ENDBRANCH   2   3
ENDBRANCH   1   2
BRANCH   1  11
ATOM     11  C   UNL     1      14.169   1.767  14.749  1.00  0.00     0.000 C 
BRANCH  11  12
ATOM     12  C   UNL     1      13.048   2.620  15.364  1.00  0.00    -0.000 C 
BRANCH  12  13
ATOM     13  C   UNL     1      13.509   3.406  16.601  1.00  0.00    -0.000 C 
BRANCH  13  14
ATOM     14  C   UNL     1      13.242   2.650  17.915  1.00  0.00    -0.000 C 
BRANCH  14  15
ATOM     15  C   UNL     1      14.393   2.798  18.924  1.00  0.00    -0.000 C 
BRANCH  15  16
ATOM     16  C   UNL     1      15.134   1.471  19.172  1.00  0.00    -0.000 C 
BRANCH  16  17
ATOM     17  C   UNL     1      15.771   0.906  17.893  1.00  0.00    -0.003 C 
ATOM     18  C   UNL     1      17.105   1.568  17.551  1.00  0.00     0.004 C 
ENDBRANCH  16  17
ENDBRANCH  15  16
ENDBRANCH  14  15
ENDBRANCH  13  14
ENDBRANCH  12  13
ENDBRANCH  11  12
ENDBRANCH   1  11
TORSDOF 14
ENDMDL
MODEL 7
REMARK VINA RESULT:    -5.657      2.420      4.924
REMARK INTER + INTRA:         -12.389
REMARK INTER:                 -10.976
REMARK INTRA:                  -1.413
REMARK UNBOUND:                -2.103
REMARK SMILES CCCCCCCCCCCCCCCC(=O)[O-]
REMARK SMILES IDX 9 1 10 2 11 3 12 4 13 5 14 6 15 7 16 8 17 9 18 10 8 11 7 12
REMARK SMILES IDX 6 13 5 14 4 15 3 16 2 17 1 18
REMARK H PARENT
REMARK Flexibility Score: inf
ROOT
ATOM      1  C   UNL     1      13.976   1.403  18.485  1.00  0.00     0.000 C 
ENDROOT
BRANCH   1   2
ATOM      2  C   UNL     1      14.859   1.567  19.733  1.00  0.00     0.000 C 
BRANCH   2   3
ATOM      3  C   UNL     1      15.471   0.236  20.203  1.00  0.00     0.000 C 
BRANCH   3   4
ATOM      4  C   UNL     1      16.414  -0.392  19.160  1.00  0.00     0.000 C 
BRANCH   4   5
ATOM      5  C   UNL     1      17.751   0.346  18.957  1.00  0.00     0.000 C 
BRANCH   5   6
ATOM      6  C   UNL     1      17.876   0.992  17.567  1.00  0.00     0.006 C 
BRANCH   6   7
ATOM      7  C   UNL     1      17.620  -0.012  16.436  1.00  0.00     0.053 C 
BRANCH   7   8
ATOM      8  C   UNL     1      18.877  -0.705  16.009  1.00  0.00     0.041 C 
ATOM      9  O   UNL     1      18.895  -1.957  15.874  1.00  0.00    -0.550 OA
ATOM     10  O   UNL     1      20.021   0.033  15.734  1.00  0.00    -0.550 OA
ENDBRANCH   7   8
ENDBRANCH   6   7
ENDBRANCH   5   6
ENDBRANCH   4   5
ENDBRANCH   3   4
ENDBRANCH   2   3
ENDBRANCH   1   2
BRANCH   1  11
ATOM     11  C   UNL     1      13.363   2.731  18.013  1.00  0.00     0.000 C 
BRANCH  11  12
ATOM     12  C   UNL     1      14.339   3.489  17.100  1.00  0.00    -0.000 C 
BRANCH  12  13
ATOM     13  C   UNL     1      14.977   2.587  16.031  1.00  0.00    -0.000 C 
BRANCH  13  14
ATOM     14  C   UNL     1      14.064   2.380  14.810  1.00  0.00    -0.000 C 
BRANCH  14  15
ATOM     15  C   UNL     1      14.775   1.645  13.661  1.00  0.00    -0.000 C 
BRANCH  15  16
ATOM     16  C   UNL     1      15.488   2.610  12.696  1.00  0.00    -0.000 C 
BRANCH  16  17
ATOM     17  C   UNL     1      15.860   1.941  11.364  1.00  0.00    -0.003 C 
ATOM     18  C   UNL     1      17.369   1.802  11.170  1.00  0.00     0.004 C 
ENDBRANCH  16  17
ENDBRANCH  15  16
ENDBRANCH  14  15
ENDBRANCH  13  14
ENDBRANCH  12  13
ENDBRANCH  11  12
ENDBRANCH   1  11
TORSDOF 14
ENDMDL
MODEL 8
REMARK VINA RESULT:    -5.637      1.624      2.989
REMARK INTER + INTRA:         -12.353
REMARK INTER:                 -10.614
REMARK INTRA:                  -1.739
REMARK UNBOUND:                -2.103
REMARK SMILES CCCCCCCCCCCCCCCC(=O)[O-]
REMARK SMILES IDX 9 1 10 2 11 3 12 4 13 5 14 6 15 7 16 8 17 9 18 10 8 11 7 12
REMARK SMILES IDX 6 13 5 14 4 15 3 16 2 17 1 18
REMARK H PARENT
REMARK Flexibility Score: inf
ROOT
ATOM      1  C   UNL     1      16.899   0.023  16.795  1.00  0.00     0.000 C 
ENDROOT
BRANCH   1   2
ATOM      2  C   UNL     1      16.022   0.357  15.577  1.00  0.00     0.000 C 
BRANCH   2   3
ATOM      3  C   UNL     1      15.913   1.870  15.323  1.00  0.00     0.000 C 
BRANCH   3   4
ATOM      4  C   UNL     1      14.772   2.235  14.356  1.00  0.00     0.000 C 
BRANCH   4   5
ATOM      5  C   UNL     1      15.212   2.933  13.056  1.00  0.00     0.000 C 
BRANCH   5   6
ATOM      6  C   UNL     1      15.505   1.946  11.913  1.00  0.00     0.006 C 
BRANCH   6   7
ATOM      7  C   UNL     1      16.997   1.896  11.558  1.00  0.00     0.053 C 
BRANCH   7   8
ATOM      8  C   UNL     1      17.520   0.493  11.539  1.00  0.00     0.041 C 
ATOM      9  O   UNL     1      17.331  -0.240  10.533  1.00  0.00    -0.550 OA
ATOM     10  O   UNL     1      18.240   0.003  12.621  1.00  0.00    -0.550 OA
ENDBRANCH   7   8
ENDBRANCH   6   7
ENDBRANCH   5   6
ENDBRANCH   4   5
ENDBRANCH   3   4
ENDBRANCH   2   3
ENDBRANCH   1   2
BRANCH   1  11
ATOM     11  C   UNL     1      16.642  -1.389  17.343  1.00  0.00     0.000 C 
BRANCH  11  12
ATOM     12  C   UNL     1      16.617  -1.383  18.880  1.00  0.00    -0.000 C 
BRANCH  12  13
ATOM     13  C   UNL     1      16.597   0.036  19.469  1.00  0.00    -0.000 C 
BRANCH  13  14
ATOM     14  C   UNL     1      15.232   0.403  20.079  1.00  0.00    -0.000 C 
BRANCH  14  15
ATOM     15  C   UNL     1      14.704   1.754  19.569  1.00  0.00    -0.000 C 
BRANCH  15  16
ATOM     16  C   UNL     1      13.766   1.601  18.359  1.00  0.00    -0.000 C 
BRANCH  16  17
ATOM     17  C   UNL     1      13.181   2.943  17.894  1.00  0.00    -0.003 C 
ATOM     18  C   UNL     1      14.243   4.032  17.740  1.00  0.00     0.004 C 
ENDBRANCH  16  17
ENDBRANCH  15  16
ENDBRANCH  14  15
ENDBRANCH  13  14
ENDBRANCH  12  13
ENDBRANCH  11  12
ENDBRANCH   1  11
TORSDOF 14
ENDMDL
MODEL 9
REMARK VINA RESULT:    -5.617      2.361      3.617
REMARK INTER + INTRA:         -12.317
REMARK INTER:                 -10.701
REMARK INTRA:                  -1.616
REMARK UNBOUND:                -2.103
REMARK SMILES CCCCCCCCCCCCCCCC(=O)[O-]
REMARK SMILES IDX 9 1 10 2 11 3 12 4 13 5 14 6 15 7 16 8 17 9 18 10 8 11 7 12
REMARK SMILES IDX 6 13 5 14 4 15 3 16 2 17 1 18
REMARK H PARENT
REMARK Flexibility Score: inf
ROOT
ATOM      1  C   UNL     1      15.473   0.199  20.501  1.00  0.00     0.000 C 
ENDROOT
BRANCH   1   2
ATOM      2  C   UNL     1      16.734   0.036  19.637  1.00  0.00     0.000 C 
BRANCH   2   3
ATOM      3  C   UNL     1      16.897  -1.393  19.091  1.00  0.00     0.000 C 
BRANCH   3   4
ATOM      4  C   UNL     1      15.804  -1.774  18.075  1.00  0.00     0.000 C 
BRANCH   4   5
ATOM      5  C   UNL     1      16.283  -1.906  16.617  1.00  0.00     0.000 C 
BRANCH   5   6
ATOM      6  C   UNL     1      16.346  -0.558  15.881  1.00  0.00     0.006 C 
BRANCH   6   7
ATOM      7  C   UNL     1      17.607  -0.429  15.015  1.00  0.00     0.053 C 
BRANCH   7   8
ATOM      8  C   UNL     1      18.805  -0.044  15.827  1.00  0.00     0.041 C 
ATOM      9  O   UNL     1      19.948  -0.464  15.508  1.00  0.00    -0.550 OA
ATOM     10  O   UNL     1      18.663   0.802  16.920  1.00  0.00    -0.550 OA
ENDBRANCH   7   8
ENDBRANCH   6   7
ENDBRANCH   5   6
ENDBRANCH   4   5
ENDBRANCH   3   4
ENDBRANCH   2   3
ENDBRANCH   1   2
BRANCH   1  11
ATOM     11  C   UNL     1      14.762   1.542  20.267  1.00  0.00     0.000 C 
BRANCH  11  12
ATOM     12  C   UNL     1      14.102   1.575  18.879  1.00  0.00    -0.000 C 
BRANCH  12  13
ATOM     13  C   UNL     1      14.437   2.851  18.091  1.00  0.00    -0.000 C 
BRANCH  13  14
ATOM     14  C   UNL     1      13.223   3.410  17.327  1.00  0.00    -0.000 C 
BRANCH  14  15
ATOM     15  C   UNL     1      13.197   2.963  15.856  1.00  0.00    -0.000 C 
BRANCH  15  16
ATOM     16  C   UNL     1      14.607   2.712  15.292  1.00  0.00    -0.000 C 
BRANCH  16  17
ATOM     17  C   UNL     1      14.578   1.983  13.939  1.00  0.00    -0.003 C 
ATOM     18  C   UNL     1      15.607   2.526  12.949  1.00  0.00     0.004 C 
ENDBRANCH  16  17
ENDBRANCH  15  16
ENDBRANCH  14  15
ENDBRANCH  13  14
ENDBRANCH  12  13
ENDBRANCH  11  12
ENDBRANCH   1  11
TORSDOF 14
ENDMDL
