MODEL 1
REMARK VINA RESULT:    -3.441      0.000      0.000
REMARK INTER + INTRA:          -4.086
REMARK INTER:                  -4.045
REMARK INTRA:                  -0.042
REMARK UNBOUND:                -0.042
REMARK SMILES CCCCC(=O)[O-]
REMARK SMILES IDX 4 1 5 2 6 3 7 4 3 5 2 6 1 7
REMARK H PARENT
REMARK Flexibility Score: inf
ROOT
ATOM      1  C   UNL     1       5.602 -29.084  -2.655  1.00  0.00     0.053 C 
ENDROOT
BRANCH   1   2
ATOM      2  C   UNL     1       5.045 -30.411  -3.068  1.00  0.00     0.041 C 
ATOM      3  O   UNL     1       5.264 -30.857  -4.224  1.00  0.00    -0.550 OA
ATOM      4  O   UNL     1       4.258 -31.140  -2.186  1.00  0.00    -0.550 OA
ENDBRANCH   1   2
BRANCH   1   5
ATOM      5  C   UNL     1       5.677 -28.940  -1.127  1.00  0.00     0.006 C 
BRANCH   5   6
ATOM      6  C   UNL     1       6.917 -28.178  -0.626  1.00  0.00    -0.003 C 
ATOM      7  C   UNL     1       7.855 -27.763  -1.759  1.00  0.00     0.004 C 
ENDBRANCH   5   6
ENDBRANCH   1   5
TORSDOF 3
ENDMDL
MODEL 2
REMARK VINA RESULT:    -3.332      2.137      2.700
REMARK INTER + INTRA:          -3.958
REMARK INTER:                  -3.878
REMARK INTRA:                  -0.080
REMARK UNBOUND:                -0.042
REMARK SMILES CCCCC(=O)[O-]
REMARK SMILES IDX 4 1 5 2 6 3 7 4 3 5 2 6 1 7
REMARK H PARENT
REMARK Flexibility Score: inf
ROOT
ATOM      1  C   UNL     1       4.326 -30.579  -1.970  1.00  0.00     0.053 C 
ENDROOT
BRANCH   1   2
ATOM      2  C   UNL     1       5.192 -30.113  -3.099  1.00  0.00     0.041 C 
ATOM      3  O   UNL     1       5.809 -29.019  -3.013  1.00  0.00    -0.550 OA
ATOM      4  O   UNL     1       5.293 -30.872  -4.258  1.00  0.00    -0.550 OA
ENDBRANCH   1   2
BRANCH   1   5
ATOM      5  C   UNL     1       4.953 -30.279  -0.600  1.00  0.00     0.006 C 
BRANCH   5   6
ATOM      6  C   UNL     1       4.339 -29.066   0.123  1.00  0.00    -0.003 C 
ATOM      7  C   UNL     1       3.039 -28.587  -0.523  1.00  0.00     0.004 C 
ENDBRANCH   5   6
ENDBRANCH   1   5
TORSDOF 3
ENDMDL
MODEL 3
REMARK VINA RESULT:    -3.223     17.930     18.773
REMARK INTER + INTRA:          -3.829
REMARK INTER:                  -3.762
REMARK INTRA:                  -0.068
REMARK UNBOUND:                -0.042
REMARK SMILES CCCCC(=O)[O-]
REMARK SMILES IDX 4 1 5 2 6 3 7 4 3 5 2 6 1 7
REMARK H PARENT
REMARK Flexibility Score: inf
ROOT
ATOM      1  C   UNL     1      13.407 -18.239 -14.180  1.00  0.00     0.053 C 
ENDROOT
BRANCH   1   2
ATOM      2  C   UNL     1      13.790 -16.810 -14.406  1.00  0.00     0.041 C 
ATOM      3  O   UNL     1      13.165 -15.887 -13.822  1.00  0.00    -0.550 OA
ATOM      4  O   UNL     1      14.816 -16.496 -15.288  1.00  0.00    -0.550 OA
ENDBRANCH   1   2
BRANCH   1   5
ATOM      5  C   UNL     1      11.948 -18.379 -13.718  1.00  0.00     0.006 C 
BRANCH   5   6
ATOM      6  C   UNL     1      11.034 -19.101 -14.724  1.00  0.00    -0.003 C 
ATOM      7  C   UNL     1      11.799 -19.661 -15.923  1.00  0.00     0.004 C 
ENDBRANCH   5   6
ENDBRANCH   1   5
TORSDOF 3
ENDMDL
MODEL 4
REMARK VINA RESULT:    -3.210     18.223     19.336
REMARK INTER + INTRA:          -3.815
REMARK INTER:                  -3.708
REMARK INTRA:                  -0.107
REMARK UNBOUND:                -0.042
REMARK SMILES CCCCC(=O)[O-]
REMARK SMILES IDX 4 1 5 2 6 3 7 4 3 5 2 6 1 7
REMARK H PARENT
REMARK Flexibility Score: inf
ROOT
ATOM      1  C   UNL     1      14.278 -18.648 -15.173  1.00  0.00     0.053 C 
ENDROOT
BRANCH   1   2
ATOM      2  C   UNL     1      14.609 -17.231 -14.822  1.00  0.00     0.041 C 
ATOM      3  O   UNL     1      13.736 -16.331 -14.932  1.00  0.00    -0.550 OA
ATOM      4  O   UNL     1      15.891 -16.899 -14.404  1.00  0.00    -0.550 OA
ENDBRANCH   1   2
BRANCH   1   5
ATOM      5  C   UNL     1      13.290 -18.735 -16.348  1.00  0.00     0.006 C 
BRANCH   5   6
ATOM      6  C   UNL     1      12.016 -19.543 -16.041  1.00  0.00    -0.003 C 
ATOM      7  C   UNL     1      11.323 -19.091 -14.756  1.00  0.00     0.004 C 
ENDBRANCH   5   6
ENDBRANCH   1   5
TORSDOF 3
ENDMDL
MODEL 5
REMARK VINA RESULT:    -3.203     14.328     14.872
REMARK INTER + INTRA:          -3.807
REMARK INTER:                  -3.786
REMARK INTRA:                  -0.020
REMARK UNBOUND:                -0.042
REMARK SMILES CCCCC(=O)[O-]
REMARK SMILES IDX 4 1 5 2 6 3 7 4 3 5 2 6 1 7
REMARK H PARENT
REMARK Flexibility Score: inf
ROOT
ATOM      1  C   UNL     1      12.873 -26.917 -14.422  1.00  0.00     0.053 C 
ENDROOT
BRANCH   1   2
ATOM      2  C   UNL     1      14.281 -27.366 -14.661  1.00  0.00     0.041 C 
ATOM      3  O   UNL     1      15.069 -26.651 -15.334  1.00  0.00    -0.550 OA
ATOM      4  O   UNL     1      14.714 -28.591 -14.168  1.00  0.00    -0.550 OA
ENDBRANCH   1   2
BRANCH   1   5
ATOM      5  C   UNL     1      12.802 -25.436 -14.016  1.00  0.00     0.006 C 
BRANCH   5   6
ATOM      6  C   UNL     1      11.397 -24.818 -14.131  1.00  0.00    -0.003 C 
ATOM      7  C   UNL     1      11.412 -23.292 -14.049  1.00  0.00     0.004 C 
ENDBRANCH   5   6
ENDBRANCH   1   5
TORSDOF 3
ENDMDL
MODEL 6
REMARK VINA RESULT:    -3.173     17.075     18.117
REMARK INTER + INTRA:          -3.772
REMARK INTER:                  -3.723
REMARK INTRA:                  -0.048
REMARK UNBOUND:                -0.042
REMARK SMILES CCCCC(=O)[O-]
REMARK SMILES IDX 4 1 5 2 6 3 7 4 3 5 2 6 1 7
REMARK H PARENT
REMARK Flexibility Score: inf
ROOT
ATOM      1  C   UNL     1      11.858 -19.950 -16.010  1.00  0.00     0.053 C 
ENDROOT
BRANCH   1   2
ATOM      2  C   UNL     1      12.857 -19.155 -16.790  1.00  0.00     0.041 C 
ATOM      3  O   UNL     1      13.676 -18.407 -16.194  1.00  0.00    -0.550 OA
ATOM      4  O   UNL     1      12.863 -19.213 -18.177  1.00  0.00    -0.550 OA
ENDBRANCH   1   2
BRANCH   1   5
ATOM      5  C   UNL     1      11.245 -19.137 -14.859  1.00  0.00     0.006 C 
BRANCH   5   6
ATOM      6  C   UNL     1      11.685 -19.596 -13.457  1.00  0.00    -0.003 C 
ATOM      7  C   UNL     1      11.049 -18.774 -12.337  1.00  0.00     0.004 C 
ENDBRANCH   5   6
ENDBRANCH   1   5
TORSDOF 3
ENDMDL
MODEL 7
REMARK VINA RESULT:    -3.162     18.554     19.376
REMARK INTER + INTRA:          -3.759
REMARK INTER:                  -3.726
REMARK INTRA:                  -0.032
REMARK UNBOUND:                -0.042
REMARK SMILES CCCCC(=O)[O-]
REMARK SMILES IDX 4 1 5 2 6 3 7 4 3 5 2 6 1 7
REMARK H PARENT
REMARK Flexibility Score: inf
ROOT
ATOM      1  C   UNL     1      13.700 -17.981 -15.558  1.00  0.00     0.053 C 
ENDROOT
BRANCH   1   2
ATOM      2  C   UNL     1      14.170 -16.867 -14.675  1.00  0.00     0.041 C 
ATOM      3  O   UNL     1      13.336 -16.105 -14.120  1.00  0.00    -0.550 OA
ATOM      4  O   UNL     1      15.529 -16.650 -14.493  1.00  0.00    -0.550 OA
ENDBRANCH   1   2
BRANCH   1   5
ATOM      5  C   UNL     1      12.478 -18.705 -14.972  1.00  0.00     0.006 C 
BRANCH   5   6
ATOM      6  C   UNL     1      11.778 -19.659 -15.957  1.00  0.00    -0.003 C 
ATOM      7  C   UNL     1      12.473 -19.722 -17.316  1.00  0.00     0.004 C 
ENDBRANCH   5   6
ENDBRANCH   1   5
TORSDOF 3
ENDMDL
MODEL 8
REMARK VINA RESULT:    -3.147     17.855     18.782
REMARK INTER + INTRA:          -3.740
REMARK INTER:                  -3.637
REMARK INTRA:                  -0.103
REMARK UNBOUND:                -0.042
REMARK SMILES CCCCC(=O)[O-]
REMARK SMILES IDX 4 1 5 2 6 3 7 4 3 5 2 6 1 7
REMARK H PARENT
REMARK Flexibility Score: inf
ROOT
ATOM      1  C   UNL     1      13.244 -16.493 -13.746  1.00  0.00     0.053 C 
ENDROOT
BRANCH   1   2
ATOM      2  C   UNL     1      14.451 -16.848 -14.558  1.00  0.00     0.041 C 
ATOM      3  O   UNL     1      14.322 -17.457 -15.651  1.00  0.00    -0.550 OA
ATOM      4  O   UNL     1      15.720 -16.534 -14.090  1.00  0.00    -0.550 OA
ENDBRANCH   1   2
BRANCH   1   5
ATOM      5  C   UNL     1      12.749 -17.678 -12.901  1.00  0.00     0.006 C 
BRANCH   5   6
ATOM      6  C   UNL     1      11.332 -18.161 -13.261  1.00  0.00    -0.003 C 
ATOM      7  C   UNL     1      11.302 -19.016 -14.528  1.00  0.00     0.004 C 
ENDBRANCH   5   6
ENDBRANCH   1   5
TORSDOF 3
ENDMDL
MODEL 9
REMARK VINA RESULT:    -3.144     14.103     14.823
REMARK INTER + INTRA:          -3.737
REMARK INTER:                  -3.698
REMARK INTRA:                  -0.039
REMARK UNBOUND:                -0.042
REMARK SMILES CCCCC(=O)[O-]
REMARK SMILES IDX 4 1 5 2 6 3 7 4 3 5 2 6 1 7
REMARK H PARENT
REMARK Flexibility Score: inf
ROOT
ATOM      1  C   UNL     1      11.318 -24.593 -14.133  1.00  0.00     0.053 C 
ENDROOT
BRANCH   1   2
ATOM      2  C   UNL     1      12.481 -25.533 -14.090  1.00  0.00     0.041 C 
ATOM      3  O   UNL     1      13.626 -25.111 -13.779  1.00  0.00    -0.550 OA
ATOM      4  O   UNL     1      12.309 -26.869 -14.426  1.00  0.00    -0.550 OA
ENDBRANCH   1   2
BRANCH   1   5
ATOM      5  C   UNL     1      11.736 -23.143 -13.838  1.00  0.00     0.006 C 
BRANCH   5   6
ATOM      6  C   UNL     1      11.434 -22.155 -14.979  1.00  0.00    -0.003 C 
ATOM      7  C   UNL     1      11.827 -20.718 -14.638  1.00  0.00     0.004 C 
ENDBRANCH   5   6
ENDBRANCH   1   5
TORSDOF 3
ENDMDL
