MODEL 1
REMARK VINA RESULT:    -3.200      0.000      0.000
REMARK INTER + INTRA:          -4.294
REMARK INTER:                  -4.136
REMARK INTRA:                  -0.158
REMARK UNBOUND:                -0.158
REMARK SMILES CCCCCCC(=O)[O-]
REMARK SMILES IDX 5 1 6 2 7 3 8 4 9 5 4 6 3 7 2 8 1 9
REMARK H PARENT
REMARK Flexibility Score: inf
ROOT
ATOM      1  C   UNL     1      35.192   7.485  -4.207  1.00  0.00     0.006 C 
ENDROOT
BRANCH   1   2
ATOM      2  C   UNL     1      35.732   8.693  -3.432  1.00  0.00     0.053 C 
BRANCH   2   3
ATOM      3  C   UNL     1      35.263   8.653  -2.012  1.00  0.00     0.041 C 
ATOM      4  O   UNL     1      35.990   9.114  -1.091  1.00  0.00    -0.550 OA
ATOM      5  O   UNL     1      34.046   8.065  -1.697  1.00  0.00    -0.550 OA
ENDBRANCH   2   3
ENDBRANCH   1   2
BRANCH   1   6
ATOM      6  C   UNL     1      35.906   7.277  -5.552  1.00  0.00     0.000 C 
BRANCH   6   7
ATOM      7  C   UNL     1      35.837   5.821  -6.039  1.00  0.00    -0.000 C 
BRANCH   7   8
ATOM      8  C   UNL     1      34.610   5.108  -5.461  1.00  0.00    -0.003 C 
ATOM      9  C   UNL     1      33.449   5.116  -6.451  1.00  0.00     0.004 C 
ENDBRANCH   7   8
ENDBRANCH   6   7
ENDBRANCH   1   6
TORSDOF 5
ENDMDL
MODEL 2
REMARK VINA RESULT:    -3.172      3.213      4.851
REMARK INTER + INTRA:          -4.257
REMARK INTER:                  -4.129
REMARK INTRA:                  -0.127
REMARK UNBOUND:                -0.158
REMARK SMILES CCCCCCC(=O)[O-]
REMARK SMILES IDX 5 1 6 2 7 3 8 4 9 5 4 6 3 7 2 8 1 9
REMARK H PARENT
REMARK Flexibility Score: inf
ROOT
ATOM      1  C   UNL     1      33.297   6.234  -6.942  1.00  0.00     0.006 C 
ENDROOT
BRANCH   1   2
ATOM      2  C   UNL     1      34.229   5.093  -6.514  1.00  0.00     0.053 C 
BRANCH   2   3
ATOM      3  C   UNL     1      34.646   5.267  -5.087  1.00  0.00     0.041 C 
ATOM      4  O   UNL     1      34.226   4.474  -4.203  1.00  0.00    -0.550 OA
ATOM      5  O   UNL     1      35.458   6.334  -4.725  1.00  0.00    -0.550 OA
ENDBRANCH   2   3
ENDBRANCH   1   2
BRANCH   1   6
ATOM      6  C   UNL     1      31.853   5.764  -7.174  1.00  0.00     0.000 C 
BRANCH   6   7
ATOM      7  C   UNL     1      30.972   6.849  -7.812  1.00  0.00    -0.000 C 
BRANCH   7   8
ATOM      8  C   UNL     1      29.595   6.901  -7.141  1.00  0.00    -0.003 C 
ATOM      9  C   UNL     1      29.508   8.057  -6.148  1.00  0.00     0.004 C 
ENDBRANCH   7   8
ENDBRANCH   6   7
ENDBRANCH   1   6
TORSDOF 5
ENDMDL
MODEL 3
REMARK VINA RESULT:    -3.152      3.548      5.052
REMARK INTER + INTRA:          -4.232
REMARK INTER:                  -4.158
REMARK INTRA:                  -0.074
REMARK UNBOUND:                -0.158
REMARK SMILES CCCCCCC(=O)[O-]
REMARK SMILES IDX 5 1 6 2 7 3 8 4 9 5 4 6 3 7 2 8 1 9
REMARK H PARENT
REMARK Flexibility Score: inf
ROOT
ATOM      1  C   UNL     1      33.082   6.299  -6.784  1.00  0.00     0.006 C 
ENDROOT
BRANCH   1   2
ATOM      2  C   UNL     1      33.815   4.989  -6.468  1.00  0.00     0.053 C 
BRANCH   2   3
ATOM      3  C   UNL     1      34.552   5.103  -5.171  1.00  0.00     0.041 C 
ATOM      4  O   UNL     1      35.557   5.857  -5.078  1.00  0.00    -0.550 OA
ATOM      5  O   UNL     1      34.158   4.342  -4.079  1.00  0.00    -0.550 OA
ENDBRANCH   2   3
ENDBRANCH   1   2
BRANCH   1   6
ATOM      6  C   UNL     1      31.625   6.074  -7.217  1.00  0.00     0.000 C 
BRANCH   6   7
ATOM      7  C   UNL     1      30.896   7.385  -7.548  1.00  0.00    -0.000 C 
BRANCH   7   8
ATOM      8  C   UNL     1      29.376   7.189  -7.519  1.00  0.00    -0.003 C 
ATOM      9  C   UNL     1      28.754   7.490  -8.879  1.00  0.00     0.004 C 
ENDBRANCH   7   8
ENDBRANCH   6   7
ENDBRANCH   1   6
TORSDOF 5
ENDMDL
MODEL 4
REMARK VINA RESULT:    -3.009      4.809      6.477
REMARK INTER + INTRA:          -4.047
REMARK INTER:                  -3.894
REMARK INTRA:                  -0.153
REMARK UNBOUND:                -0.158
REMARK SMILES CCCCCCC(=O)[O-]
REMARK SMILES IDX 5 1 6 2 7 3 8 4 9 5 4 6 3 7 2 8 1 9
REMARK H PARENT
REMARK Flexibility Score: inf
ROOT
ATOM      1  C   UNL     1      31.208   7.144  -7.185  1.00  0.00     0.006 C 
ENDROOT
BRANCH   1   2
ATOM      2  C   UNL     1      31.814   5.737  -7.272  1.00  0.00     0.053 C 
BRANCH   2   3
ATOM      3  C   UNL     1      33.162   5.709  -6.622  1.00  0.00     0.041 C 
ATOM      4  O   UNL     1      33.692   4.609  -6.312  1.00  0.00    -0.550 OA
ATOM      5  O   UNL     1      33.811   6.897  -6.314  1.00  0.00    -0.550 OA
ENDBRANCH   2   3
ENDBRANCH   1   2
BRANCH   1   6
ATOM      6  C   UNL     1      29.707   7.123  -6.856  1.00  0.00     0.000 C 
BRANCH   6   7
ATOM      7  C   UNL     1      28.887   8.038  -7.778  1.00  0.00    -0.000 C 
BRANCH   7   8
ATOM      8  C   UNL     1      28.752   7.426  -9.177  1.00  0.00    -0.003 C 
ATOM      9  C   UNL     1      27.930   8.325 -10.096  1.00  0.00     0.004 C 
ENDBRANCH   7   8
ENDBRANCH   6   7
ENDBRANCH   1   6
TORSDOF 5
ENDMDL
MODEL 5
REMARK VINA RESULT:    -2.784      9.101      9.815
REMARK INTER + INTRA:          -3.756
REMARK INTER:                  -3.579
REMARK INTRA:                  -0.178
REMARK UNBOUND:                -0.158
REMARK SMILES CCCCCCC(=O)[O-]
REMARK SMILES IDX 5 1 6 2 7 3 8 4 9 5 4 6 3 7 2 8 1 9
REMARK H PARENT
REMARK Flexibility Score: inf
ROOT
ATOM      1  C   UNL     1      32.937   0.755   2.077  1.00  0.00     0.006 C 
ENDROOT
BRANCH   1   2
ATOM      2  C   UNL     1      31.978   1.742   1.399  1.00  0.00     0.053 C 
BRANCH   2   3
ATOM      3  C   UNL     1      32.699   3.000   1.032  1.00  0.00     0.041 C 
ATOM      4  O   UNL     1      33.069   3.193  -0.157  1.00  0.00    -0.550 OA
ATOM      5  O   UNL     1      33.004   3.938   2.009  1.00  0.00    -0.550 OA
ENDBRANCH   2   3
ENDBRANCH   1   2
BRANCH   1   6
ATOM      6  C   UNL     1      32.278  -0.600   2.377  1.00  0.00     0.000 C 
BRANCH   6   7
ATOM      7  C   UNL     1      31.102  -0.483   3.359  1.00  0.00    -0.000 C 
BRANCH   7   8
ATOM      8  C   UNL     1      30.044  -1.555   3.077  1.00  0.00    -0.003 C 
ATOM      9  C   UNL     1      28.737  -0.929   2.600  1.00  0.00     0.004 C 
ENDBRANCH   7   8
ENDBRANCH   6   7
ENDBRANCH   1   6
TORSDOF 5
ENDMDL
MODEL 6
REMARK VINA RESULT:    -2.742      3.142      4.420
REMARK INTER + INTRA:          -3.701
REMARK INTER:                  -3.398
REMARK INTRA:                  -0.304
REMARK UNBOUND:                -0.158
REMARK SMILES CCCCCCC(=O)[O-]
REMARK SMILES IDX 5 1 6 2 7 3 8 4 9 5 4 6 3 7 2 8 1 9
REMARK H PARENT
REMARK Flexibility Score: inf
ROOT
ATOM      1  C   UNL     1      35.171   4.138  -7.226  1.00  0.00     0.006 C 
ENDROOT
BRANCH   1   2
ATOM      2  C   UNL     1      34.233   5.122  -6.514  1.00  0.00     0.053 C 
BRANCH   2   3
ATOM      3  C   UNL     1      34.630   5.274  -5.079  1.00  0.00     0.041 C 
ATOM      4  O   UNL     1      35.418   6.195  -4.735  1.00  0.00    -0.550 OA
ATOM      5  O   UNL     1      34.168   4.372  -4.130  1.00  0.00    -0.550 OA
ENDBRANCH   2   3
ENDBRANCH   1   2
BRANCH   1   6
ATOM      6  C   UNL     1      35.841   4.752  -8.465  1.00  0.00     0.000 C 
BRANCH   6   7
ATOM      7  C   UNL     1      37.064   5.612  -8.111  1.00  0.00    -0.000 C 
BRANCH   7   8
ATOM      8  C   UNL     1      37.878   4.969  -6.983  1.00  0.00    -0.003 C 
ATOM      9  C   UNL     1      39.158   4.333  -7.518  1.00  0.00     0.004 C 
ENDBRANCH   7   8
ENDBRANCH   6   7
ENDBRANCH   1   6
TORSDOF 5
ENDMDL
MODEL 7
REMARK VINA RESULT:    -2.733     13.555     14.687
REMARK INTER + INTRA:          -3.689
REMARK INTER:                  -3.529
REMARK INTRA:                  -0.161
REMARK UNBOUND:                -0.158
REMARK SMILES CCCCCCC(=O)[O-]
REMARK SMILES IDX 5 1 6 2 7 3 8 4 9 5 4 6 3 7 2 8 1 9
REMARK H PARENT
REMARK Flexibility Score: inf
ROOT
ATOM      1  C   UNL     1      27.118  -2.937   1.630  1.00  0.00     0.006 C 
ENDROOT
BRANCH   1   2
ATOM      2  C   UNL     1      28.286  -2.417   2.478  1.00  0.00     0.053 C 
BRANCH   2   3
ATOM      3  C   UNL     1      28.379  -0.927   2.380  1.00  0.00     0.041 C 
ATOM      4  O   UNL     1      27.376  -0.252   2.025  1.00  0.00    -0.550 OA
ATOM      5  O   UNL     1      29.585  -0.287   2.634  1.00  0.00    -0.550 OA
ENDBRANCH   2   3
ENDBRANCH   1   2
BRANCH   1   6
ATOM      6  C   UNL     1      25.903  -3.338   2.480  1.00  0.00     0.000 C 
BRANCH   6   7
ATOM      7  C   UNL     1      24.568  -3.053   1.774  1.00  0.00    -0.000 C 
BRANCH   7   8
ATOM      8  C   UNL     1      23.386  -3.290   2.722  1.00  0.00    -0.003 C 
ATOM      9  C   UNL     1      23.804  -3.117   4.179  1.00  0.00     0.004 C 
ENDBRANCH   7   8
ENDBRANCH   6   7
ENDBRANCH   1   6
TORSDOF 5
ENDMDL
MODEL 8
REMARK VINA RESULT:    -2.724      7.727      8.197
REMARK INTER + INTRA:          -3.679
REMARK INTER:                  -3.445
REMARK INTRA:                  -0.234
REMARK UNBOUND:                -0.158
REMARK SMILES CCCCCCC(=O)[O-]
REMARK SMILES IDX 5 1 6 2 7 3 8 4 9 5 4 6 3 7 2 8 1 9
REMARK H PARENT
REMARK Flexibility Score: inf
ROOT
ATOM      1  C   UNL     1      38.843   1.147  -7.780  1.00  0.00     0.006 C 
ENDROOT
BRANCH   1   2
ATOM      2  C   UNL     1      39.752   2.180  -7.102  1.00  0.00     0.053 C 
BRANCH   2   3
ATOM      3  C   UNL     1      40.455   1.567  -5.932  1.00  0.00     0.041 C 
ATOM      4  O   UNL     1      39.935   0.599  -5.316  1.00  0.00    -0.550 OA
ATOM      5  O   UNL     1      41.661   2.095  -5.491  1.00  0.00    -0.550 OA
ENDBRANCH   2   3
ENDBRANCH   1   2
BRANCH   1   6
ATOM      6  C   UNL     1      37.425   1.683  -8.033  1.00  0.00     0.000 C 
BRANCH   6   7
ATOM      7  C   UNL     1      36.342   0.612  -7.825  1.00  0.00    -0.000 C 
BRANCH   7   8
ATOM      8  C   UNL     1      36.937  -0.653  -7.197  1.00  0.00    -0.003 C 
ATOM      9  C   UNL     1      35.919  -1.358  -6.305  1.00  0.00     0.004 C 
ENDBRANCH   7   8
ENDBRANCH   6   7
ENDBRANCH   1   6
TORSDOF 5
ENDMDL
MODEL 9
REMARK VINA RESULT:    -2.714      5.904      7.047
REMARK INTER + INTRA:          -3.666
REMARK INTER:                  -3.518
REMARK INTRA:                  -0.148
REMARK UNBOUND:                -0.158
REMARK SMILES CCCCCCC(=O)[O-]
REMARK SMILES IDX 5 1 6 2 7 3 8 4 9 5 4 6 3 7 2 8 1 9
REMARK H PARENT
REMARK Flexibility Score: inf
ROOT
ATOM      1  C   UNL     1      39.028   2.727  -7.481  1.00  0.00     0.006 C 
ENDROOT
BRANCH   1   2
ATOM      2  C   UNL     1      40.153   3.156  -6.531  1.00  0.00     0.053 C 
BRANCH   2   3
ATOM      3  C   UNL     1      40.669   1.977  -5.768  1.00  0.00     0.041 C 
ATOM      4  O   UNL     1      41.874   1.937  -5.403  1.00  0.00    -0.550 OA
ATOM      5  O   UNL     1      39.834   0.899  -5.503  1.00  0.00    -0.550 OA
ENDBRANCH   2   3
ENDBRANCH   1   2
BRANCH   1   6
ATOM      6  C   UNL     1      38.391   3.915  -8.218  1.00  0.00     0.000 C 
BRANCH   6   7
ATOM      7  C   UNL     1      37.055   4.350  -7.596  1.00  0.00    -0.000 C 
BRANCH   7   8
ATOM      8  C   UNL     1      37.189   5.713  -6.908  1.00  0.00    -0.003 C 
ATOM      9  C   UNL     1      35.973   6.014  -6.036  1.00  0.00     0.004 C 
ENDBRANCH   7   8
ENDBRANCH   6   7
ENDBRANCH   1   6
TORSDOF 5
ENDMDL
