MODEL 1
REMARK VINA RESULT:    -4.728      0.000      0.000
REMARK INTER + INTRA:          -5.259
REMARK INTER:                  -5.004
REMARK INTRA:                  -0.255
REMARK UNBOUND:                -0.255
REMARK SMILES CC1=C[C@@H]2C(=C(C)CC[C@H]2C(C)C)CC1
REMARK SMILES IDX 1 1 2 2 3 3 4 4 10 5 9 6 8 7 6 8 5 9 14 10 15 11 7 12 11 13
REMARK SMILES IDX 12 14 13 15
REMARK H PARENT
REMARK Flexibility Score: inf
ROOT
ATOM      1  C   UNL     1      10.932   7.091  23.540  1.00  0.00     0.039 C 
ATOM      2  C   UNL     1      11.630   6.936  22.216  1.00  0.00    -0.076 C 
ATOM      3  C   UNL     1      12.070   5.728  21.822  1.00  0.00    -0.020 C 
ATOM      4  C   UNL     1      12.732   5.571  20.465  1.00  0.00     0.041 C 
ATOM      5  C   UNL     1      12.945   4.076  20.098  1.00  0.00     0.003 C 
ATOM      6  C   UNL     1      13.285   3.966  18.601  1.00  0.00     0.009 C 
ATOM      7  C   UNL     1      12.127   4.492  17.760  1.00  0.00     0.031 C 
ATOM      8  C   UNL     1      11.687   5.879  18.175  1.00  0.00    -0.073 C 
ATOM      9  C   UNL     1      11.910   6.354  19.434  1.00  0.00    -0.064 C 
ATOM     10  C   UNL     1      11.384   7.727  19.851  1.00  0.00     0.036 C 
ATOM     11  C   UNL     1      11.801   8.111  21.282  1.00  0.00     0.035 C 
ATOM     12  C   UNL     1      10.877   6.670  17.173  1.00  0.00     0.039 C 
ENDROOT
BRANCH   5  13
ATOM     13  C   UNL     1      14.008   3.373  21.011  1.00  0.00    -0.013 C 
ATOM     14  C   UNL     1      13.368   2.267  21.865  1.00  0.00     0.007 C 
ATOM     15  C   UNL     1      15.218   2.809  20.247  1.00  0.00     0.007 C 
ENDBRANCH   5  13
TORSDOF 1
ENDMDL
MODEL 2
REMARK VINA RESULT:    -4.612      2.441      5.227
REMARK INTER + INTRA:          -5.136
REMARK INTER:                  -4.866
REMARK INTRA:                  -0.270
REMARK UNBOUND:                -0.255
REMARK SMILES CC1=C[C@@H]2C(=C(C)CC[C@H]2C(C)C)CC1
REMARK SMILES IDX 1 1 2 2 3 3 4 4 10 5 9 6 8 7 6 8 5 9 14 10 15 11 7 12 11 13
REMARK SMILES IDX 12 14 13 15
REMARK H PARENT
REMARK Flexibility Score: inf
ROOT
ATOM      1  C   UNL     1      13.875   2.841  20.997  1.00  0.00     0.039 C 
ATOM      2  C   UNL     1      14.088   3.362  19.603  1.00  0.00    -0.076 C 
ATOM      3  C   UNL     1      13.446   4.470  19.190  1.00  0.00    -0.020 C 
ATOM      4  C   UNL     1      13.702   5.016  17.797  1.00  0.00     0.041 C 
ATOM      5  C   UNL     1      13.061   6.417  17.603  1.00  0.00     0.003 C 
ATOM      6  C   UNL     1      13.634   7.064  16.329  1.00  0.00     0.009 C 
ATOM      7  C   UNL     1      15.140   7.255  16.471  1.00  0.00     0.031 C 
ATOM      8  C   UNL     1      15.855   5.984  16.873  1.00  0.00    -0.073 C 
ATOM      9  C   UNL     1      15.213   4.979  17.534  1.00  0.00    -0.064 C 
ATOM     10  C   UNL     1      15.977   3.741  18.000  1.00  0.00     0.036 C 
ATOM     11  C   UNL     1      15.062   2.694  18.660  1.00  0.00     0.035 C 
ATOM     12  C   UNL     1      17.345   5.925  16.621  1.00  0.00     0.039 C 
ENDROOT
BRANCH   5  13
ATOM     13  C   UNL     1      11.494   6.374  17.603  1.00  0.00    -0.013 C 
ATOM     14  C   UNL     1      10.896   7.701  18.096  1.00  0.00     0.007 C 
ATOM     15  C   UNL     1      10.875   5.995  16.246  1.00  0.00     0.007 C 
ENDBRANCH   5  13
TORSDOF 1
ENDMDL
MODEL 3
REMARK VINA RESULT:    -4.570      1.539      4.353
REMARK INTER + INTRA:          -5.092
REMARK INTER:                  -4.850
REMARK INTRA:                  -0.242
REMARK UNBOUND:                -0.255
REMARK SMILES CC1=C[C@@H]2C(=C(C)CC[C@H]2C(C)C)CC1
REMARK SMILES IDX 1 1 2 2 3 3 4 4 10 5 9 6 8 7 6 8 5 9 14 10 15 11 7 12 11 13
REMARK SMILES IDX 12 14 13 15
REMARK H PARENT
REMARK Flexibility Score: inf
ROOT
ATOM      1  C   UNL     1      12.693   5.201  23.155  1.00  0.00     0.039 C 
ATOM      2  C   UNL     1      12.761   4.471  21.842  1.00  0.00    -0.076 C 
ATOM      3  C   UNL     1      12.634   5.147  20.686  1.00  0.00    -0.020 C 
ATOM      4  C   UNL     1      12.750   4.411  19.364  1.00  0.00     0.041 C 
ATOM      5  C   UNL     1      12.818   5.393  18.162  1.00  0.00     0.003 C 
ATOM      6  C   UNL     1      13.280   4.629  16.909  1.00  0.00     0.009 C 
ATOM      7  C   UNL     1      14.678   4.061  17.127  1.00  0.00     0.031 C 
ATOM      8  C   UNL     1      14.788   3.250  18.399  1.00  0.00    -0.073 C 
ATOM      9  C   UNL     1      13.942   3.449  19.450  1.00  0.00    -0.064 C 
ATOM     10  C   UNL     1      14.124   2.672  20.753  1.00  0.00     0.036 C 
ATOM     11  C   UNL     1      13.029   2.985  21.788  1.00  0.00     0.035 C 
ATOM     12  C   UNL     1      15.954   2.293  18.505  1.00  0.00     0.039 C 
ENDROOT
BRANCH   5  13
ATOM     13  C   UNL     1      11.474   6.167  17.934  1.00  0.00    -0.013 C 
ATOM     14  C   UNL     1      11.629   7.664  18.248  1.00  0.00     0.007 C 
ATOM     15  C   UNL     1      10.875   5.987  16.528  1.00  0.00     0.007 C 
ENDBRANCH   5  13
TORSDOF 1
ENDMDL
MODEL 4
REMARK VINA RESULT:    -4.506      1.164      3.989
REMARK INTER + INTRA:          -5.025
REMARK INTER:                  -4.767
REMARK INTRA:                  -0.258
REMARK UNBOUND:                -0.255
REMARK SMILES CC1=C[C@@H]2C(=C(C)CC[C@H]2C(C)C)CC1
REMARK SMILES IDX 1 1 2 2 3 3 4 4 10 5 9 6 8 7 6 8 5 9 14 10 15 11 7 12 11 13
REMARK SMILES IDX 12 14 13 15
REMARK H PARENT
REMARK Flexibility Score: inf
ROOT
ATOM      1  C   UNL     1      14.579   3.774  16.798  1.00  0.00     0.039 C 
ATOM      2  C   UNL     1      13.554   4.091  17.851  1.00  0.00    -0.076 C 
ATOM      3  C   UNL     1      13.741   3.684  19.120  1.00  0.00    -0.020 C 
ATOM      4  C   UNL     1      12.725   4.048  20.187  1.00  0.00     0.041 C 
ATOM      5  C   UNL     1      13.238   3.700  21.612  1.00  0.00     0.003 C 
ATOM      6  C   UNL     1      12.344   4.394  22.656  1.00  0.00     0.009 C 
ATOM      7  C   UNL     1      12.422   5.908  22.488  1.00  0.00     0.031 C 
ATOM      8  C   UNL     1      12.146   6.354  21.068  1.00  0.00    -0.073 C 
ATOM      9  C   UNL     1      12.340   5.522  20.006  1.00  0.00    -0.064 C 
ATOM     10  C   UNL     1      12.131   6.022  18.578  1.00  0.00     0.036 C 
ATOM     11  C   UNL     1      12.329   4.915  17.527  1.00  0.00     0.035 C 
ATOM     12  C   UNL     1      11.763   7.803  20.866  1.00  0.00     0.039 C 
ENDROOT
BRANCH   5  13
ATOM     13  C   UNL     1      13.357   2.156  21.854  1.00  0.00    -0.013 C 
ATOM     14  C   UNL     1      14.817   1.737  22.090  1.00  0.00     0.007 C 
ATOM     15  C   UNL     1      12.472   1.627  22.996  1.00  0.00     0.007 C 
ENDBRANCH   5  13
TORSDOF 1
ENDMDL
MODEL 5
REMARK VINA RESULT:    -4.472      0.963      3.950
REMARK INTER + INTRA:          -4.988
REMARK INTER:                  -4.738
REMARK INTRA:                  -0.251
REMARK UNBOUND:                -0.255
REMARK SMILES CC1=C[C@@H]2C(=C(C)CC[C@H]2C(C)C)CC1
REMARK SMILES IDX 1 1 2 2 3 3 4 4 10 5 9 6 8 7 6 8 5 9 14 10 15 11 7 12 11 13
REMARK SMILES IDX 12 14 13 15
REMARK H PARENT
REMARK Flexibility Score: inf
ROOT
ATOM      1  C   UNL     1      12.158   8.579  22.523  1.00  0.00     0.039 C 
ATOM      2  C   UNL     1      11.975   7.262  21.821  1.00  0.00    -0.076 C 
ATOM      3  C   UNL     1      12.135   7.178  20.488  1.00  0.00    -0.020 C 
ATOM      4  C   UNL     1      11.994   5.836  19.793  1.00  0.00     0.041 C 
ATOM      5  C   UNL     1      12.451   5.905  18.310  1.00  0.00     0.003 C 
ATOM      6  C   UNL     1      12.619   4.476  17.764  1.00  0.00     0.009 C 
ATOM      7  C   UNL     1      13.697   3.738  18.551  1.00  0.00     0.031 C 
ATOM      8  C   UNL     1      13.467   3.787  20.045  1.00  0.00    -0.073 C 
ATOM      9  C   UNL     1      12.736   4.781  20.625  1.00  0.00    -0.064 C 
ATOM     10  C   UNL     1      12.586   4.853  22.144  1.00  0.00     0.036 C 
ATOM     11  C   UNL     1      11.666   6.001  22.595  1.00  0.00     0.035 C 
ATOM     12  C   UNL     1      14.186   2.756  20.885  1.00  0.00     0.039 C 
ENDROOT
BRANCH   5  13
ATOM     13  C   UNL     1      11.501   6.781  17.422  1.00  0.00    -0.013 C 
ATOM     14  C   UNL     1      12.214   8.046  16.918  1.00  0.00     0.007 C 
ATOM     15  C   UNL     1      10.875   6.026  16.237  1.00  0.00     0.007 C 
ENDBRANCH   5  13
TORSDOF 1
ENDMDL
MODEL 6
REMARK VINA RESULT:    -4.391     10.760     13.185
REMARK INTER + INTRA:          -4.903
REMARK INTER:                  -4.646
REMARK INTRA:                  -0.257
REMARK UNBOUND:                -0.255
REMARK SMILES CC1=C[C@@H]2C(=C(C)CC[C@H]2C(C)C)CC1
REMARK SMILES IDX 1 1 2 2 3 3 4 4 10 5 9 6 8 7 6 8 5 9 14 10 15 11 7 12 11 13
REMARK SMILES IDX 12 14 13 15
REMARK H PARENT
REMARK Flexibility Score: inf
ROOT
ATOM      1  C   UNL     1      16.707   5.391  35.757  1.00  0.00     0.039 C 
ATOM      2  C   UNL     1      15.746   5.691  34.640  1.00  0.00    -0.076 C 
ATOM      3  C   UNL     1      15.188   4.686  33.941  1.00  0.00    -0.020 C 
ATOM      4  C   UNL     1      14.184   4.994  32.846  1.00  0.00     0.041 C 
ATOM      5  C   UNL     1      13.480   3.709  32.331  1.00  0.00     0.003 C 
ATOM      6  C   UNL     1      12.250   4.104  31.494  1.00  0.00     0.009 C 
ATOM      7  C   UNL     1      11.252   4.868  32.358  1.00  0.00     0.031 C 
ATOM      8  C   UNL     1      11.883   6.034  33.087  1.00  0.00    -0.073 C 
ATOM      9  C   UNL     1      13.218   6.067  33.365  1.00  0.00    -0.064 C 
ATOM     10  C   UNL     1      13.816   7.218  34.172  1.00  0.00     0.036 C 
ATOM     11  C   UNL     1      15.344   7.111  34.316  1.00  0.00     0.035 C 
ATOM     12  C   UNL     1      10.950   7.105  33.606  1.00  0.00     0.039 C 
ENDROOT
BRANCH   5  13
ATOM     13  C   UNL     1      14.453   2.753  31.557  1.00  0.00    -0.013 C 
ATOM     14  C   UNL     1      14.627   1.415  32.293  1.00  0.00     0.007 C 
ATOM     15  C   UNL     1      14.050   2.496  30.094  1.00  0.00     0.007 C 
ENDBRANCH   5  13
TORSDOF 1
ENDMDL
MODEL 7
REMARK VINA RESULT:    -4.359      9.886     12.162
REMARK INTER + INTRA:          -4.870
REMARK INTER:                  -4.578
REMARK INTRA:                  -0.291
REMARK UNBOUND:                -0.255
REMARK SMILES CC1=C[C@@H]2C(=C(C)CC[C@H]2C(C)C)CC1
REMARK SMILES IDX 1 1 2 2 3 3 4 4 10 5 9 6 8 7 6 8 5 9 14 10 15 11 7 12 11 13
REMARK SMILES IDX 12 14 13 15
REMARK H PARENT
REMARK Flexibility Score: inf
ROOT
ATOM      1  C   UNL     1      26.557   1.255  19.819  1.00  0.00     0.039 C 
ATOM      2  C   UNL     1      25.488   1.083  18.775  1.00  0.00    -0.076 C 
ATOM      3  C   UNL     1      24.310   0.519  19.099  1.00  0.00    -0.020 C 
ATOM      4  C   UNL     1      23.220   0.392  18.052  1.00  0.00     0.041 C 
ATOM      5  C   UNL     1      21.870  -0.056  18.678  1.00  0.00     0.003 C 
ATOM      6  C   UNL     1      20.740   0.167  17.658  1.00  0.00     0.009 C 
ATOM      7  C   UNL     1      20.627   1.649  17.316  1.00  0.00     0.031 C 
ATOM      8  C   UNL     1      21.948   2.253  16.891  1.00  0.00    -0.073 C 
ATOM      9  C   UNL     1      23.139   1.713  17.276  1.00  0.00    -0.064 C 
ATOM     10  C   UNL     1      24.457   2.388  16.900  1.00  0.00     0.036 C 
ATOM     11  C   UNL     1      25.686   1.587  17.364  1.00  0.00     0.035 C 
ATOM     12  C   UNL     1      21.892   3.554  16.123  1.00  0.00     0.039 C 
ENDROOT
BRANCH   5  13
ATOM     13  C   UNL     1      21.910  -1.526  19.220  1.00  0.00    -0.013 C 
ATOM     14  C   UNL     1      20.544  -1.955  19.778  1.00  0.00     0.007 C 
ATOM     15  C   UNL     1      22.404  -2.562  18.194  1.00  0.00     0.007 C 
ENDBRANCH   5  13
TORSDOF 1
ENDMDL
MODEL 8
REMARK VINA RESULT:    -4.306      2.006      4.856
REMARK INTER + INTRA:          -4.813
REMARK INTER:                  -4.544
REMARK INTRA:                  -0.269
REMARK UNBOUND:                -0.255
REMARK SMILES CC1=C[C@@H]2C(=C(C)CC[C@H]2C(C)C)CC1
REMARK SMILES IDX 1 1 2 2 3 3 4 4 10 5 9 6 8 7 6 8 5 9 14 10 15 11 7 12 11 13
REMARK SMILES IDX 12 14 13 15
REMARK H PARENT
REMARK Flexibility Score: inf
ROOT
ATOM      1  C   UNL     1      11.849   4.103  24.551  1.00  0.00     0.039 C 
ATOM      2  C   UNL     1      12.295   3.331  23.340  1.00  0.00    -0.076 C 
ATOM      3  C   UNL     1      12.669   3.983  22.223  1.00  0.00    -0.020 C 
ATOM      4  C   UNL     1      13.162   3.199  21.021  1.00  0.00     0.041 C 
ATOM      5  C   UNL     1      13.769   4.130  19.936  1.00  0.00     0.003 C 
ATOM      6  C   UNL     1      14.555   3.281  18.921  1.00  0.00     0.009 C 
ATOM      7  C   UNL     1      15.706   2.564  19.618  1.00  0.00     0.031 C 
ATOM      8  C   UNL     1      15.257   1.783  20.834  1.00  0.00    -0.073 C 
ATOM      9  C   UNL     1      14.122   2.109  21.515  1.00  0.00    -0.064 C 
ATOM     10  C   UNL     1      13.734   1.356  22.787  1.00  0.00     0.036 C 
ATOM     11  C   UNL     1      12.386   1.824  23.365  1.00  0.00     0.035 C 
ATOM     12  C   UNL     1      16.187   0.703  21.338  1.00  0.00     0.039 C 
ENDROOT
BRANCH   5  13
ATOM     13  C   UNL     1      12.696   5.046  19.253  1.00  0.00    -0.013 C 
ATOM     14  C   UNL     1      13.300   6.394  18.826  1.00  0.00     0.007 C 
ATOM     15  C   UNL     1      11.981   4.392  18.057  1.00  0.00     0.007 C 
ENDBRANCH   5  13
TORSDOF 1
ENDMDL
