MODEL 1
REMARK VINA RESULT:    -3.772      0.000      0.000
REMARK INTER + INTRA:         -16.198
REMARK INTER:                  -9.947
REMARK INTRA:                  -6.251
REMARK UNBOUND:                -6.251
REMARK SMILES CCCCCCCCCCCCCCCCCCCCCCCCCCCCCC(=O)[O-]
REMARK SMILES IDX 16 1 17 2 18 3 19 4 20 5 21 6 22 7 23 8 24 9 25 10 26 11
REMARK SMILES IDX 27 12 28 13 29 14 30 15 31 16 32 17 15 18 14 19 13 20 12 21
REMARK SMILES IDX 11 22 10 23 9 24 8 25 7 26 6 27 5 28 4 29 3 30 2 31 1 32
REMARK H PARENT
REMARK Flexibility Score: inf
ROOT
ATOM      1  C   UNL     1     175.054 174.850 178.825  1.00  0.00     0.000 C 
ENDROOT
BRANCH   1   2
ATOM      2  C   UNL     1     176.448 175.438 179.086  1.00  0.00     0.000 C 
BRANCH   2   3
ATOM      3  C   UNL     1     176.465 176.949 178.818  1.00  0.00     0.000 C 
BRANCH   3   4
ATOM      4  C   UNL     1     176.969 177.765 180.023  1.00  0.00     0.000 C 
BRANCH   4   5
ATOM      5  C   UNL     1     177.303 176.938 181.283  1.00  0.00     0.000 C 
BRANCH   5   6
ATOM      6  C   UNL     1     176.583 177.385 182.569  1.00  0.00     0.000 C 
BRANCH   6   7
ATOM      7  C   UNL     1     176.132 176.209 183.443  1.00  0.00     0.000 C 
BRANCH   7   8
ATOM      8  C   UNL     1     176.242 174.883 182.682  1.00  0.00     0.000 C 
BRANCH   8   9
ATOM      9  C   UNL     1     174.969 174.045 182.850  1.00  0.00     0.000 C 
BRANCH   9  10
ATOM     10  C   UNL     1     174.929 172.892 181.833  1.00  0.00     0.000 C 
BRANCH  10  11
ATOM     11  C   UNL     1     176.339 172.422 181.418  1.00  0.00     0.000 C 
BRANCH  11  12
ATOM     12  C   UNL     1     176.343 171.213 180.459  1.00  0.00     0.000 C 
BRANCH  12  13
ATOM     13  C   UNL     1     177.026 169.946 181.004  1.00  0.00     0.006 C 
BRANCH  13  14
ATOM     14  C   UNL     1     176.858 169.784 182.523  1.00  0.00     0.053 C 
BRANCH  14  15
ATOM     15  C   UNL     1     176.129 168.518 182.847  1.00  0.00     0.041 C 
ATOM     16  O   UNL     1     176.710 167.405 182.742  1.00  0.00    -0.550 OA
ATOM     17  O   UNL     1     174.818 168.571 183.311  1.00  0.00    -0.550 OA
ENDBRANCH  14  15
ENDBRANCH  13  14
ENDBRANCH  12  13
ENDBRANCH  11  12
ENDBRANCH  10  11
ENDBRANCH   9  10
ENDBRANCH   8   9
ENDBRANCH   7   8
ENDBRANCH   6   7
ENDBRANCH   5   6
ENDBRANCH   4   5
ENDBRANCH   3   4
ENDBRANCH   2   3
ENDBRANCH   1   2
BRANCH   1  18
ATOM     18  C   UNL     1     173.976 175.939 178.897  1.00  0.00     0.000 C 
BRANCH  18  19
ATOM     19  C   UNL     1     173.129 175.798 180.172  1.00  0.00     0.000 C 
BRANCH  19  20
ATOM     20  C   UNL     1     173.152 177.059 181.054  1.00  0.00     0.000 C 
BRANCH  20  21
ATOM     21  C   UNL     1     172.552 176.887 182.463  1.00  0.00     0.000 C 
BRANCH  21  22
ATOM     22  C   UNL     1     171.904 175.517 182.740  1.00  0.00     0.000 C 
BRANCH  22  23
ATOM     23  C   UNL     1     170.474 175.636 183.294  1.00  0.00     0.000 C 
BRANCH  23  24
ATOM     24  C   UNL     1     169.857 177.030 183.065  1.00  0.00    -0.000 C 
BRANCH  24  25
ATOM     25  C   UNL     1     168.804 177.103 181.944  1.00  0.00    -0.000 C 
BRANCH  25  26
ATOM     26  C   UNL     1     169.371 177.082 180.511  1.00  0.00    -0.000 C 
BRANCH  26  27
ATOM     27  C   UNL     1     168.900 175.875 179.673  1.00  0.00    -0.000 C 
BRANCH  27  28
ATOM     28  C   UNL     1     168.180 174.816 180.521  1.00  0.00    -0.000 C 
BRANCH  28  29
ATOM     29  C   UNL     1     168.980 173.505 180.557  1.00  0.00    -0.000 C 
BRANCH  29  30
ATOM     30  C   UNL     1     170.352 173.633 179.879  1.00  0.00    -0.000 C 
BRANCH  30  31
ATOM     31  C   UNL     1     171.380 172.627 180.421  1.00  0.00    -0.003 C 
ATOM     32  C   UNL     1     172.354 172.194 179.328  1.00  0.00     0.004 C 
ENDBRANCH  30  31
ENDBRANCH  29  30
ENDBRANCH  28  29
ENDBRANCH  27  28
ENDBRANCH  26  27
ENDBRANCH  25  26
ENDBRANCH  24  25
ENDBRANCH  23  24
ENDBRANCH  22  23
ENDBRANCH  21  22
ENDBRANCH  20  21
ENDBRANCH  19  20
ENDBRANCH  18  19
ENDBRANCH   1  18
TORSDOF 28
ENDMDL
MODEL 2
REMARK VINA RESULT:    -3.690      1.823      5.106
REMARK INTER + INTRA:         -15.982
REMARK INTER:                  -9.512
REMARK INTRA:                  -6.471
REMARK UNBOUND:                -6.251
REMARK SMILES CCCCCCCCCCCCCCCCCCCCCCCCCCCCCC(=O)[O-]
REMARK SMILES IDX 16 1 17 2 18 3 19 4 20 5 21 6 22 7 23 8 24 9 25 10 26 11
REMARK SMILES IDX 27 12 28 13 29 14 30 15 31 16 32 17 15 18 14 19 13 20 12 21
REMARK SMILES IDX 11 22 10 23 9 24 8 25 7 26 6 27 5 28 4 29 3 30 2 31 1 32
REMARK H PARENT
REMARK Flexibility Score: inf
ROOT
ATOM      1  C   UNL     1     173.685 175.580 182.212  1.00  0.00     0.000 C 
ENDROOT
BRANCH   1   2
ATOM      2  C   UNL     1     173.835 177.010 182.748  1.00  0.00     0.000 C 
BRANCH   2   3
ATOM      3  C   UNL     1     172.552 177.820 182.517  1.00  0.00     0.000 C 
BRANCH   3   4
ATOM      4  C   UNL     1     171.373 176.949 182.044  1.00  0.00     0.000 C 
BRANCH   4   5
ATOM      5  C   UNL     1     170.206 176.820 183.046  1.00  0.00     0.000 C 
BRANCH   5   6
ATOM      6  C   UNL     1     169.647 175.395 183.219  1.00  0.00     0.000 C 
BRANCH   6   7
ATOM      7  C   UNL     1     170.646 174.437 183.881  1.00  0.00     0.000 C 
BRANCH   7   8
ATOM      8  C   UNL     1     170.871 173.193 183.015  1.00  0.00     0.000 C 
BRANCH   8   9
ATOM      9  C   UNL     1     170.050 173.265 181.722  1.00  0.00     0.000 C 
BRANCH   9  10
ATOM     10  C   UNL     1     170.778 172.560 180.566  1.00  0.00     0.000 C 
BRANCH  10  11
ATOM     11  C   UNL     1     172.291 172.864 180.547  1.00  0.00     0.000 C 
BRANCH  11  12
ATOM     12  C   UNL     1     173.173 171.650 180.188  1.00  0.00     0.000 C 
BRANCH  12  13
ATOM     13  C   UNL     1     174.664 171.794 180.542  1.00  0.00     0.006 C 
BRANCH  13  14
ATOM     14  C   UNL     1     175.079 170.917 181.734  1.00  0.00     0.053 C 
BRANCH  14  15
ATOM     15  C   UNL     1     176.559 170.695 181.742  1.00  0.00     0.041 C 
ATOM     16  O   UNL     1     177.091 169.982 182.635  1.00  0.00    -0.550 OA
ATOM     17  O   UNL     1     177.349 171.239 180.734  1.00  0.00    -0.550 OA
ENDBRANCH  14  15
ENDBRANCH  13  14
ENDBRANCH  12  13
ENDBRANCH  11  12
ENDBRANCH  10  11
ENDBRANCH   9  10
ENDBRANCH   8   9
ENDBRANCH   7   8
ENDBRANCH   6   7
ENDBRANCH   5   6
ENDBRANCH   4   5
ENDBRANCH   3   4
ENDBRANCH   2   3
ENDBRANCH   1   2
BRANCH   1  18
ATOM     18  C   UNL     1     174.508 174.590 183.048  1.00  0.00     0.000 C 
BRANCH  18  19
ATOM     19  C   UNL     1     175.951 175.085 183.233  1.00  0.00     0.000 C 
BRANCH  19  20
ATOM     20  C   UNL     1     176.956 174.371 182.313  1.00  0.00     0.000 C 
BRANCH  20  21
ATOM     21  C   UNL     1     177.050 174.933 180.880  1.00  0.00     0.000 C 
BRANCH  21  22
ATOM     22  C   UNL     1     177.019 176.469 180.772  1.00  0.00     0.000 C 
BRANCH  22  23
ATOM     23  C   UNL     1     176.632 176.960 179.367  1.00  0.00     0.000 C 
BRANCH  23  24
ATOM     24  C   UNL     1     175.307 177.749 179.353  1.00  0.00    -0.000 C 
BRANCH  24  25
ATOM     25  C   UNL     1     174.072 176.948 178.902  1.00  0.00    -0.000 C 
BRANCH  25  26
ATOM     26  C   UNL     1     174.295 176.035 177.680  1.00  0.00    -0.000 C 
BRANCH  26  27
ATOM     27  C   UNL     1     174.288 174.530 178.018  1.00  0.00    -0.000 C 
BRANCH  27  28
ATOM     28  C   UNL     1     173.332 173.731 177.120  1.00  0.00    -0.000 C 
BRANCH  28  29
ATOM     29  C   UNL     1     172.413 174.672 176.324  1.00  0.00    -0.000 C 
BRANCH  29  30
ATOM     30  C   UNL     1     170.965 174.653 176.834  1.00  0.00    -0.000 C 
BRANCH  30  31
ATOM     31  C   UNL     1     170.541 175.986 177.470  1.00  0.00    -0.003 C 
ATOM     32  C   UNL     1     170.200 175.806 178.947  1.00  0.00     0.004 C 
ENDBRANCH  30  31
ENDBRANCH  29  30
ENDBRANCH  28  29
ENDBRANCH  27  28
ENDBRANCH  26  27
ENDBRANCH  25  26
ENDBRANCH  24  25
ENDBRANCH  23  24
ENDBRANCH  22  23
ENDBRANCH  21  22
ENDBRANCH  20  21
ENDBRANCH  19  20
ENDBRANCH  18  19
ENDBRANCH   1  18
TORSDOF 28
ENDMDL
MODEL 3
REMARK VINA RESULT:    -3.674      2.224      5.852
REMARK INTER + INTRA:         -15.939
REMARK INTER:                 -10.099
REMARK INTRA:                  -5.840
REMARK UNBOUND:                -6.251
REMARK SMILES CCCCCCCCCCCCCCCCCCCCCCCCCCCCCC(=O)[O-]
REMARK SMILES IDX 16 1 17 2 18 3 19 4 20 5 21 6 22 7 23 8 24 9 25 10 26 11
REMARK SMILES IDX 27 12 28 13 29 14 30 15 31 16 32 17 15 18 14 19 13 20 12 21
REMARK SMILES IDX 11 22 10 23 9 24 8 25 7 26 6 27 5 28 4 29 3 30 2 31 1 32
REMARK H PARENT
REMARK Flexibility Score: inf
ROOT
ATOM      1  C   UNL     1     172.260 177.172 182.458  1.00  0.00     0.000 C 
ENDROOT
BRANCH   1   2
ATOM      2  C   UNL     1     171.735 175.791 182.875  1.00  0.00     0.000 C 
BRANCH   2   3
ATOM      3  C   UNL     1     170.250 175.862 183.257  1.00  0.00     0.000 C 
BRANCH   3   4
ATOM      4  C   UNL     1     169.490 176.967 182.500  1.00  0.00     0.000 C 
BRANCH   4   5
ATOM      5  C   UNL     1     169.109 176.625 181.044  1.00  0.00     0.000 C 
BRANCH   5   6
ATOM      6  C   UNL     1     169.894 177.394 179.965  1.00  0.00     0.000 C 
BRANCH   6   7
ATOM      7  C   UNL     1     170.329 176.505 178.794  1.00  0.00     0.000 C 
BRANCH   7   8
ATOM      8  C   UNL     1     170.195 175.020 179.150  1.00  0.00     0.000 C 
BRANCH   8   9
ATOM      9  C   UNL     1     171.430 174.232 178.700  1.00  0.00     0.000 C 
BRANCH   9  10
ATOM     10  C   UNL     1     172.522 174.251 179.782  1.00  0.00     0.000 C 
BRANCH  10  11
ATOM     11  C   UNL     1     172.407 173.062 180.758  1.00  0.00     0.000 C 
BRANCH  11  12
ATOM     12  C   UNL     1     173.754 172.386 181.090  1.00  0.00     0.000 C 
BRANCH  12  13
ATOM     13  C   UNL     1     174.987 173.019 180.421  1.00  0.00     0.006 C 
BRANCH  13  14
ATOM     14  C   UNL     1     175.978 171.974 179.887  1.00  0.00     0.053 C 
BRANCH  14  15
ATOM     15  C   UNL     1     177.020 171.654 180.912  1.00  0.00     0.041 C 
ATOM     16  O   UNL     1     177.607 172.580 181.534  1.00  0.00    -0.550 OA
ATOM     17  O   UNL     1     177.311 170.327 181.216  1.00  0.00    -0.550 OA
ENDBRANCH  14  15
ENDBRANCH  13  14
ENDBRANCH  12  13
ENDBRANCH  11  12
ENDBRANCH  10  11
ENDBRANCH   9  10
ENDBRANCH   8   9
ENDBRANCH   7   8
ENDBRANCH   6   7
ENDBRANCH   5   6
ENDBRANCH   4   5
ENDBRANCH   3   4
ENDBRANCH   2   3
ENDBRANCH   1   2
BRANCH   1  18
ATOM     18  C   UNL     1     173.784 177.254 182.620  1.00  0.00     0.000 C 
BRANCH  18  19
ATOM     19  C   UNL     1     174.419 175.855 182.607  1.00  0.00     0.000 C 
BRANCH  19  20
ATOM     20  C   UNL     1     175.845 175.835 183.185  1.00  0.00     0.000 C 
BRANCH  20  21
ATOM     21  C   UNL     1     176.975 176.037 182.156  1.00  0.00     0.000 C 
BRANCH  21  22
ATOM     22  C   UNL     1     177.297 177.503 181.810  1.00  0.00     0.000 C 
BRANCH  22  23
ATOM     23  C   UNL     1     176.902 177.877 180.371  1.00  0.00     0.000 C 
BRANCH  23  24
ATOM     24  C   UNL     1     176.845 176.657 179.430  1.00  0.00    -0.000 C 
BRANCH  24  25
ATOM     25  C   UNL     1     175.432 176.241 178.984  1.00  0.00    -0.000 C 
BRANCH  25  26
ATOM     26  C   UNL     1     174.371 177.358 179.041  1.00  0.00    -0.000 C 
BRANCH  26  27
ATOM     27  C   UNL     1     173.582 177.536 177.728  1.00  0.00    -0.000 C 
BRANCH  27  28
ATOM     28  C   UNL     1     173.843 176.399 176.728  1.00  0.00    -0.000 C 
BRANCH  28  29
ATOM     29  C   UNL     1     172.945 176.543 175.489  1.00  0.00    -0.000 C 
BRANCH  29  30
ATOM     30  C   UNL     1     171.968 177.722 175.602  1.00  0.00    -0.000 C 
BRANCH  30  31
ATOM     31  C   UNL     1     170.506 177.307 175.373  1.00  0.00    -0.003 C 
ATOM     32  C   UNL     1     170.398 175.811 175.089  1.00  0.00     0.004 C 
ENDBRANCH  30  31
ENDBRANCH  29  30
ENDBRANCH  28  29
ENDBRANCH  27  28
ENDBRANCH  26  27
ENDBRANCH  25  26
ENDBRANCH  24  25
ENDBRANCH  23  24
ENDBRANCH  22  23
ENDBRANCH  21  22
ENDBRANCH  20  21
ENDBRANCH  19  20
ENDBRANCH  18  19
ENDBRANCH   1  18
TORSDOF 28
ENDMDL
MODEL 4
REMARK VINA RESULT:    -3.650      1.466      5.348
REMARK INTER + INTRA:         -15.876
REMARK INTER:                 -10.413
REMARK INTRA:                  -5.464
REMARK UNBOUND:                -6.251
REMARK SMILES CCCCCCCCCCCCCCCCCCCCCCCCCCCCCC(=O)[O-]
REMARK SMILES IDX 16 1 17 2 18 3 19 4 20 5 21 6 22 7 23 8 24 9 25 10 26 11
REMARK SMILES IDX 27 12 28 13 29 14 30 15 31 16 32 17 15 18 14 19 13 20 12 21
REMARK SMILES IDX 11 22 10 23 9 24 8 25 7 26 6 27 5 28 4 29 3 30 2 31 1 32
REMARK H PARENT
REMARK Flexibility Score: inf
ROOT
ATOM      1  C   UNL     1     170.228 177.203 183.302  1.00  0.00     0.000 C 
ENDROOT
BRANCH   1   2
ATOM      2  C   UNL     1     169.305 176.994 182.093  1.00  0.00     0.000 C 
BRANCH   2   3
ATOM      3  C   UNL     1     168.628 175.618 182.151  1.00  0.00     0.000 C 
BRANCH   3   4
ATOM      4  C   UNL     1     169.533 174.484 181.631  1.00  0.00     0.000 C 
BRANCH   4   5
ATOM      5  C   UNL     1     169.791 173.337 182.631  1.00  0.00     0.000 C 
BRANCH   5   6
ATOM      6  C   UNL     1     170.599 173.730 183.883  1.00  0.00     0.000 C 
BRANCH   6   7
ATOM      7  C   UNL     1     172.085 173.969 183.586  1.00  0.00     0.000 C 
BRANCH   7   8
ATOM      8  C   UNL     1     172.550 173.130 182.391  1.00  0.00     0.000 C 
BRANCH   8   9
ATOM      9  C   UNL     1     174.063 173.261 182.182  1.00  0.00     0.000 C 
BRANCH   9  10
ATOM     10  C   UNL     1     174.431 173.092 180.699  1.00  0.00     0.000 C 
BRANCH  10  11
ATOM     11  C   UNL     1     175.874 172.582 180.503  1.00  0.00     0.000 C 
BRANCH  11  12
ATOM     12  C   UNL     1     176.596 172.215 181.817  1.00  0.00     0.000 C 
BRANCH  12  13
ATOM     13  C   UNL     1     176.968 170.730 181.968  1.00  0.00     0.006 C 
BRANCH  13  14
ATOM     14  C   UNL     1     175.982 169.793 181.254  1.00  0.00     0.053 C 
BRANCH  14  15
ATOM     15  C   UNL     1     174.952 169.274 182.207  1.00  0.00     0.041 C 
ATOM     16  O   UNL     1     173.833 169.845 182.308  1.00  0.00    -0.550 OA
ATOM     17  O   UNL     1     175.211 168.128 182.953  1.00  0.00    -0.550 OA
ENDBRANCH  14  15
ENDBRANCH  13  14
ENDBRANCH  12  13
ENDBRANCH  11  12
ENDBRANCH  10  11
ENDBRANCH   9  10
ENDBRANCH   8   9
ENDBRANCH   7   8
ENDBRANCH   6   7
ENDBRANCH   5   6
ENDBRANCH   4   5
ENDBRANCH   3   4
ENDBRANCH   2   3
ENDBRANCH   1   2
BRANCH   1  18
ATOM     18  C   UNL     1     171.555 177.846 182.877  1.00  0.00     0.000 C 
BRANCH  18  19
ATOM     19  C   UNL     1     172.009 177.325 181.504  1.00  0.00     0.000 C 
BRANCH  19  20
ATOM     20  C   UNL     1     173.458 176.807 181.505  1.00  0.00     0.000 C 
BRANCH  20  21
ATOM     21  C   UNL     1     174.227 177.011 182.826  1.00  0.00     0.000 C 
BRANCH  21  22
ATOM     22  C   UNL     1     175.534 176.205 182.957  1.00  0.00     0.000 C 
BRANCH  22  23
ATOM     23  C   UNL     1     176.791 177.081 182.829  1.00  0.00     0.000 C 
BRANCH  23  24
ATOM     24  C   UNL     1     177.106 177.466 181.370  1.00  0.00    -0.000 C 
BRANCH  24  25
ATOM     25  C   UNL     1     176.978 176.321 180.349  1.00  0.00    -0.000 C 
BRANCH  25  26
ATOM     26  C   UNL     1     176.420 176.731 178.972  1.00  0.00    -0.000 C 
BRANCH  26  27
ATOM     27  C   UNL     1     175.464 175.691 178.352  1.00  0.00    -0.000 C 
BRANCH  27  28
ATOM     28  C   UNL     1     174.532 176.305 177.297  1.00  0.00    -0.000 C 
BRANCH  28  29
ATOM     29  C   UNL     1     173.672 177.422 177.909  1.00  0.00    -0.000 C 
BRANCH  29  30
ATOM     30  C   UNL     1     172.187 177.290 177.544  1.00  0.00    -0.000 C 
BRANCH  30  31
ATOM     31  C   UNL     1     171.525 176.058 178.183  1.00  0.00    -0.003 C 
ATOM     32  C   UNL     1     170.034 176.294 178.415  1.00  0.00     0.004 C 
ENDBRANCH  30  31
ENDBRANCH  29  30
ENDBRANCH  28  29
ENDBRANCH  27  28
ENDBRANCH  26  27
ENDBRANCH  25  26
ENDBRANCH  24  25
ENDBRANCH  23  24
ENDBRANCH  22  23
ENDBRANCH  21  22
ENDBRANCH  20  21
ENDBRANCH  19  20
ENDBRANCH  18  19
ENDBRANCH   1  18
TORSDOF 28
ENDMDL
MODEL 5
REMARK VINA RESULT:    -3.629      2.303      4.475
REMARK INTER + INTRA:         -15.822
REMARK INTER:                 -10.025
REMARK INTRA:                  -5.796
REMARK UNBOUND:                -6.251
REMARK SMILES CCCCCCCCCCCCCCCCCCCCCCCCCCCCCC(=O)[O-]
REMARK SMILES IDX 16 1 17 2 18 3 19 4 20 5 21 6 22 7 23 8 24 9 25 10 26 11
REMARK SMILES IDX 27 12 28 13 29 14 30 15 31 16 32 17 15 18 14 19 13 20 12 21
REMARK SMILES IDX 11 22 10 23 9 24 8 25 7 26 6 27 5 28 4 29 3 30 2 31 1 32
REMARK H PARENT
REMARK Flexibility Score: inf
ROOT
ATOM      1  C   UNL     1     170.528 173.673 182.387  1.00  0.00     0.000 C 
ENDROOT
BRANCH   1   2
ATOM      2  C   UNL     1     171.993 173.242 182.232  1.00  0.00     0.000 C 
BRANCH   2   3
ATOM      3  C   UNL     1     172.880 173.927 183.281  1.00  0.00     0.000 C 
BRANCH   3   4
ATOM      4  C   UNL     1     174.010 174.765 182.652  1.00  0.00     0.000 C 
BRANCH   4   5
ATOM      5  C   UNL     1     175.336 174.779 183.441  1.00  0.00     0.000 C 
BRANCH   5   6
ATOM      6  C   UNL     1     176.325 175.889 183.039  1.00  0.00     0.000 C 
BRANCH   6   7
ATOM      7  C   UNL     1     175.645 177.072 182.339  1.00  0.00     0.000 C 
BRANCH   7   8
ATOM      8  C   UNL     1     176.262 177.324 180.959  1.00  0.00     0.000 C 
BRANCH   8   9
ATOM      9  C   UNL     1     177.029 176.092 180.465  1.00  0.00     0.000 C 
BRANCH   9  10
ATOM     10  C   UNL     1     176.167 175.253 179.507  1.00  0.00     0.000 C 
BRANCH  10  11
ATOM     11  C   UNL     1     176.218 173.746 179.834  1.00  0.00     0.000 C 
BRANCH  11  12
ATOM     12  C   UNL     1     174.869 173.018 179.660  1.00  0.00     0.000 C 
BRANCH  12  13
ATOM     13  C   UNL     1     174.859 171.541 180.094  1.00  0.00     0.006 C 
BRANCH  13  14
ATOM     14  C   UNL     1     175.287 171.348 181.557  1.00  0.00     0.053 C 
BRANCH  14  15
ATOM     15  C   UNL     1     176.468 170.434 181.651  1.00  0.00     0.041 C 
ATOM     16  O   UNL     1     176.516 169.546 182.544  1.00  0.00    -0.550 OA
ATOM     17  O   UNL     1     177.498 170.532 180.720  1.00  0.00    -0.550 OA
ENDBRANCH  14  15
ENDBRANCH  13  14
ENDBRANCH  12  13
ENDBRANCH  11  12
ENDBRANCH  10  11
ENDBRANCH   9  10
ENDBRANCH   8   9
ENDBRANCH   7   8
ENDBRANCH   6   7
ENDBRANCH   5   6
ENDBRANCH   4   5
ENDBRANCH   3   4
ENDBRANCH   2   3
ENDBRANCH   1   2
BRANCH   1  18
ATOM     18  C   UNL     1     170.372 174.692 183.525  1.00  0.00     0.000 C 
BRANCH  18  19
ATOM     19  C   UNL     1     169.633 175.951 183.044  1.00  0.00     0.000 C 
BRANCH  19  20
ATOM     20  C   UNL     1     170.300 177.256 183.514  1.00  0.00     0.000 C 
BRANCH  20  21
ATOM     21  C   UNL     1     171.540 177.688 182.707  1.00  0.00     0.000 C 
BRANCH  21  22
ATOM     22  C   UNL     1     171.372 177.660 181.176  1.00  0.00     0.000 C 
BRANCH  22  23
ATOM     23  C   UNL     1     172.570 177.018 180.456  1.00  0.00     0.000 C 
BRANCH  23  24
ATOM     24  C   UNL     1     172.157 175.865 179.520  1.00  0.00    -0.000 C 
BRANCH  24  25
ATOM     25  C   UNL     1     172.755 175.925 178.103  1.00  0.00    -0.000 C 
BRANCH  25  26
ATOM     26  C   UNL     1     173.476 177.242 177.753  1.00  0.00    -0.000 C 
BRANCH  26  27
ATOM     27  C   UNL     1     172.804 178.036 176.613  1.00  0.00    -0.000 C 
BRANCH  27  28
ATOM     28  C   UNL     1     172.717 177.230 175.308  1.00  0.00    -0.000 C 
BRANCH  28  29
ATOM     29  C   UNL     1     171.284 177.239 174.754  1.00  0.00    -0.000 C 
BRANCH  29  30
ATOM     30  C   UNL     1     170.234 177.525 175.837  1.00  0.00    -0.000 C 
BRANCH  30  31
ATOM     31  C   UNL     1     169.328 176.317 176.121  1.00  0.00    -0.003 C 
ATOM     32  C   UNL     1     170.006 175.012 175.707  1.00  0.00     0.004 C 
ENDBRANCH  30  31
ENDBRANCH  29  30
ENDBRANCH  28  29
ENDBRANCH  27  28
ENDBRANCH  26  27
ENDBRANCH  25  26
ENDBRANCH  24  25
ENDBRANCH  23  24
ENDBRANCH  22  23
ENDBRANCH  21  22
ENDBRANCH  20  21
ENDBRANCH  19  20
ENDBRANCH  18  19
ENDBRANCH   1  18
TORSDOF 28
ENDMDL
MODEL 6
REMARK VINA RESULT:    -3.623      3.832      6.393
REMARK INTER + INTRA:         -15.806
REMARK INTER:                 -10.304
REMARK INTRA:                  -5.502
REMARK UNBOUND:                -6.251
REMARK SMILES CCCCCCCCCCCCCCCCCCCCCCCCCCCCCC(=O)[O-]
REMARK SMILES IDX 16 1 17 2 18 3 19 4 20 5 21 6 22 7 23 8 24 9 25 10 26 11
REMARK SMILES IDX 27 12 28 13 29 14 30 15 31 16 32 17 15 18 14 19 13 20 12 21
REMARK SMILES IDX 11 22 10 23 9 24 8 25 7 26 6 27 5 28 4 29 3 30 2 31 1 32
REMARK H PARENT
REMARK Flexibility Score: inf
ROOT
ATOM      1  C   UNL     1     173.519 175.525 182.535  1.00  0.00     0.000 C 
ENDROOT
BRANCH   1   2
ATOM      2  C   UNL     1     174.606 174.503 182.895  1.00  0.00     0.000 C 
BRANCH   2   3
ATOM      3  C   UNL     1     175.979 175.179 183.006  1.00  0.00     0.000 C 
BRANCH   3   4
ATOM      4  C   UNL     1     176.983 174.672 181.954  1.00  0.00     0.000 C 
BRANCH   4   5
ATOM      5  C   UNL     1     176.914 175.379 180.584  1.00  0.00     0.000 C 
BRANCH   5   6
ATOM      6  C   UNL     1     176.985 176.916 180.636  1.00  0.00     0.000 C 
BRANCH   6   7
ATOM      7  C   UNL     1     176.179 177.591 179.520  1.00  0.00     0.000 C 
BRANCH   7   8
ATOM      8  C   UNL     1     174.790 176.958 179.383  1.00  0.00     0.000 C 
BRANCH   8   9
ATOM      9  C   UNL     1     174.240 177.138 177.963  1.00  0.00     0.000 C 
BRANCH   9  10
ATOM     10  C   UNL     1     174.849 176.104 177.000  1.00  0.00     0.000 C 
BRANCH  10  11
ATOM     11  C   UNL     1     173.928 175.803 175.799  1.00  0.00     0.000 C 
BRANCH  11  12
ATOM     12  C   UNL     1     174.006 176.850 174.668  1.00  0.00     0.000 C 
BRANCH  12  13
ATOM     13  C   UNL     1     172.741 177.707 174.479  1.00  0.00     0.006 C 
BRANCH  13  14
ATOM     14  C   UNL     1     171.463 176.863 174.353  1.00  0.00     0.053 C 
BRANCH  14  15
ATOM     15  C   UNL     1     170.463 177.250 175.396  1.00  0.00     0.041 C 
ATOM     16  O   UNL     1     170.802 177.321 176.608  1.00  0.00    -0.550 OA
ATOM     17  O   UNL     1     169.163 177.579 175.024  1.00  0.00    -0.550 OA
ENDBRANCH  14  15
ENDBRANCH  13  14
ENDBRANCH  12  13
ENDBRANCH  11  12
ENDBRANCH  10  11
ENDBRANCH   9  10
ENDBRANCH   8   9
ENDBRANCH   7   8
ENDBRANCH   6   7
ENDBRANCH   5   6
ENDBRANCH   4   5
ENDBRANCH   3   4
ENDBRANCH   2   3
ENDBRANCH   1   2
BRANCH   1  18
ATOM     18  C   UNL     1     174.013 176.959 182.766  1.00  0.00     0.000 C 
BRANCH  18  19
ATOM     19  C   UNL     1     172.837 177.945 182.854  1.00  0.00     0.000 C 
BRANCH  19  20
ATOM     20  C   UNL     1     171.587 177.459 182.100  1.00  0.00     0.000 C 
BRANCH  20  21
ATOM     21  C   UNL     1     170.370 177.131 182.988  1.00  0.00     0.000 C 
BRANCH  21  22
ATOM     22  C   UNL     1     169.391 176.094 182.406  1.00  0.00     0.000 C 
BRANCH  22  23
ATOM     23  C   UNL     1     169.721 174.654 182.835  1.00  0.00     0.000 C 
BRANCH  23  24
ATOM     24  C   UNL     1     170.593 173.908 181.806  1.00  0.00    -0.000 C 
BRANCH  24  25
ATOM     25  C   UNL     1     170.281 174.224 180.332  1.00  0.00    -0.000 C 
BRANCH  25  26
ATOM     26  C   UNL     1     171.425 174.901 179.552  1.00  0.00    -0.000 C 
BRANCH  26  27
ATOM     27  C   UNL     1     172.266 173.922 178.706  1.00  0.00    -0.000 C 
BRANCH  27  28
ATOM     28  C   UNL     1     173.605 173.570 179.374  1.00  0.00    -0.000 C 
BRANCH  28  29
ATOM     29  C   UNL     1     173.694 172.063 179.660  1.00  0.00    -0.000 C 
BRANCH  29  30
ATOM     30  C   UNL     1     175.118 171.614 180.018  1.00  0.00    -0.000 C 
BRANCH  30  31
ATOM     31  C   UNL     1     175.292 171.332 181.519  1.00  0.00    -0.003 C 
ATOM     32  C   UNL     1     176.733 170.941 181.840  1.00  0.00     0.004 C 
ENDBRANCH  30  31
ENDBRANCH  29  30
ENDBRANCH  28  29
ENDBRANCH  27  28
ENDBRANCH  26  27
ENDBRANCH  25  26
ENDBRANCH  24  25
ENDBRANCH  23  24
ENDBRANCH  22  23
ENDBRANCH  21  22
ENDBRANCH  20  21
ENDBRANCH  19  20
ENDBRANCH  18  19
ENDBRANCH   1  18
TORSDOF 28
ENDMDL
MODEL 7
REMARK VINA RESULT:    -3.578      5.273     10.243
REMARK INTER + INTRA:         -15.685
REMARK INTER:                 -12.276
REMARK INTRA:                  -3.410
REMARK UNBOUND:                -6.251
REMARK SMILES CCCCCCCCCCCCCCCCCCCCCCCCCCCCCC(=O)[O-]
REMARK SMILES IDX 16 1 17 2 18 3 19 4 20 5 21 6 22 7 23 8 24 9 25 10 26 11
REMARK SMILES IDX 27 12 28 13 29 14 30 15 31 16 32 17 15 18 14 19 13 20 12 21
REMARK SMILES IDX 11 22 10 23 9 24 8 25 7 26 6 27 5 28 4 29 3 30 2 31 1 32
REMARK H PARENT
REMARK Flexibility Score: inf
ROOT
ATOM      1  C   UNL     1     171.853 175.361 182.245  1.00  0.00     0.000 C 
ENDROOT
BRANCH   1   2
ATOM      2  C   UNL     1     170.464 175.254 182.889  1.00  0.00     0.000 C 
BRANCH   2   3
ATOM      3  C   UNL     1     169.925 176.642 183.264  1.00  0.00     0.000 C 
BRANCH   3   4
ATOM      4  C   UNL     1     168.779 177.107 182.344  1.00  0.00     0.000 C 
BRANCH   4   5
ATOM      5  C   UNL     1     167.953 175.974 181.699  1.00  0.00     0.000 C 
BRANCH   5   6
ATOM      6  C   UNL     1     166.641 176.423 181.027  1.00  0.00     0.000 C 
BRANCH   6   7
ATOM      7  C   UNL     1     166.239 177.856 181.396  1.00  0.00     0.000 C 
BRANCH   7   8
ATOM      8  C   UNL     1     164.719 177.978 181.553  1.00  0.00     0.000 C 
BRANCH   8   9
ATOM      9  C   UNL     1     164.245 177.316 182.852  1.00  0.00     0.000 C 
BRANCH   9  10
ATOM     10  C   UNL     1     162.710 177.326 182.948  1.00  0.00     0.000 C 
BRANCH  10  11
ATOM     11  C   UNL     1     162.083 175.980 182.527  1.00  0.00     0.000 C 
BRANCH  11  12
ATOM     12  C   UNL     1     160.558 175.901 182.744  1.00  0.00     0.000 C 
BRANCH  12  13
ATOM     13  C   UNL     1     159.866 174.684 182.103  1.00  0.00     0.006 C 
BRANCH  13  14
ATOM     14  C   UNL     1     159.863 173.450 183.018  1.00  0.00     0.053 C 
BRANCH  14  15
ATOM     15  C   UNL     1     160.122 172.203 182.233  1.00  0.00     0.041 C 
ATOM     16  O   UNL     1     161.124 171.484 182.493  1.00  0.00    -0.550 OA
ATOM     17  O   UNL     1     159.228 171.807 181.243  1.00  0.00    -0.550 OA
ENDBRANCH  14  15
ENDBRANCH  13  14
ENDBRANCH  12  13
ENDBRANCH  11  12
ENDBRANCH  10  11
ENDBRANCH   9  10
ENDBRANCH   8   9
ENDBRANCH   7   8
ENDBRANCH   6   7
ENDBRANCH   5   6
ENDBRANCH   4   5
ENDBRANCH   3   4
ENDBRANCH   2   3
ENDBRANCH   1   2
BRANCH   1  18
ATOM     18  C   UNL     1     172.544 176.673 182.641  1.00  0.00     0.000 C 
BRANCH  18  19
ATOM     19  C   UNL     1     173.197 177.347 181.424  1.00  0.00     0.000 C 
BRANCH  19  20
ATOM     20  C   UNL     1     173.178 176.463 180.165  1.00  0.00     0.000 C 
BRANCH  20  21
ATOM     21  C   UNL     1     174.536 176.304 179.452  1.00  0.00     0.000 C 
BRANCH  21  22
ATOM     22  C   UNL     1     175.554 177.428 179.719  1.00  0.00     0.000 C 
BRANCH  22  23
ATOM     23  C   UNL     1     176.837 176.923 180.400  1.00  0.00     0.000 C 
BRANCH  23  24
ATOM     24  C   UNL     1     177.069 177.559 181.785  1.00  0.00    -0.000 C 
BRANCH  24  25
ATOM     25  C   UNL     1     176.487 176.771 182.973  1.00  0.00    -0.000 C 
BRANCH  25  26
ATOM     26  C   UNL     1     176.714 175.248 182.922  1.00  0.00    -0.000 C 
BRANCH  26  27
ATOM     27  C   UNL     1     175.412 174.422 182.970  1.00  0.00    -0.000 C 
BRANCH  27  28
ATOM     28  C   UNL     1     175.171 173.629 181.677  1.00  0.00    -0.000 C 
BRANCH  28  29
ATOM     29  C   UNL     1     174.172 172.486 181.913  1.00  0.00    -0.000 C 
BRANCH  29  30
ATOM     30  C   UNL     1     174.692 171.134 181.404  1.00  0.00    -0.000 C 
BRANCH  30  31
ATOM     31  C   UNL     1     176.216 171.121 181.202  1.00  0.00    -0.003 C 
ATOM     32  C   UNL     1     176.901 170.241 182.244  1.00  0.00     0.004 C 
ENDBRANCH  30  31
ENDBRANCH  29  30
ENDBRANCH  28  29
ENDBRANCH  27  28
ENDBRANCH  26  27
ENDBRANCH  25  26
ENDBRANCH  24  25
ENDBRANCH  23  24
ENDBRANCH  22  23
ENDBRANCH  21  22
ENDBRANCH  20  21
ENDBRANCH  19  20
ENDBRANCH  18  19
ENDBRANCH   1  18
TORSDOF 28
ENDMDL
MODEL 8
REMARK VINA RESULT:    -3.548      1.767      3.091
REMARK INTER + INTRA:         -15.606
REMARK INTER:                  -9.397
REMARK INTRA:                  -6.209
REMARK UNBOUND:                -6.251
REMARK SMILES CCCCCCCCCCCCCCCCCCCCCCCCCCCCCC(=O)[O-]
REMARK SMILES IDX 16 1 17 2 18 3 19 4 20 5 21 6 22 7 23 8 24 9 25 10 26 11
REMARK SMILES IDX 27 12 28 13 29 14 30 15 31 16 32 17 15 18 14 19 13 20 12 21
REMARK SMILES IDX 11 22 10 23 9 24 8 25 7 26 6 27 5 28 4 29 3 30 2 31 1 32
REMARK H PARENT
REMARK Flexibility Score: inf
ROOT
ATOM      1  C   UNL     1     173.169 174.195 178.770  1.00  0.00     0.000 C 
ENDROOT
BRANCH   1   2
ATOM      2  C   UNL     1     174.619 173.826 179.113  1.00  0.00     0.000 C 
BRANCH   2   3
ATOM      3  C   UNL     1     175.552 175.029 178.916  1.00  0.00     0.000 C 
BRANCH   3   4
ATOM      4  C   UNL     1     174.796 176.370 178.868  1.00  0.00     0.000 C 
BRANCH   4   5
ATOM      5  C   UNL     1     174.811 177.181 180.181  1.00  0.00     0.000 C 
BRANCH   5   6
ATOM      6  C   UNL     1     173.552 177.031 181.057  1.00  0.00     0.000 C 
BRANCH   6   7
ATOM      7  C   UNL     1     173.874 176.631 182.502  1.00  0.00     0.000 C 
BRANCH   7   8
ATOM      8  C   UNL     1     175.387 176.606 182.743  1.00  0.00     0.000 C 
BRANCH   8   9
ATOM      9  C   UNL     1     175.911 175.167 182.802  1.00  0.00     0.000 C 
BRANCH   9  10
ATOM     10  C   UNL     1     177.292 175.055 182.136  1.00  0.00     0.000 C 
BRANCH  10  11
ATOM     11  C   UNL     1     177.609 173.618 181.671  1.00  0.00     0.000 C 
BRANCH  11  12
ATOM     12  C   UNL     1     176.470 172.608 181.925  1.00  0.00     0.000 C 
BRANCH  12  13
ATOM     13  C   UNL     1     176.532 171.323 181.081  1.00  0.00     0.006 C 
BRANCH  13  14
ATOM     14  C   UNL     1     176.077 170.078 181.857  1.00  0.00     0.053 C 
BRANCH  14  15
ATOM     15  C   UNL     1     177.205 169.109 182.021  1.00  0.00     0.041 C 
ATOM     16  O   UNL     1     177.376 168.509 183.117  1.00  0.00    -0.550 OA
ATOM     17  O   UNL     1     178.044 168.831 180.946  1.00  0.00    -0.550 OA
ENDBRANCH  14  15
ENDBRANCH  13  14
ENDBRANCH  12  13
ENDBRANCH  11  12
ENDBRANCH  10  11
ENDBRANCH   9  10
ENDBRANCH   8   9
ENDBRANCH   7   8
ENDBRANCH   6   7
ENDBRANCH   5   6
ENDBRANCH   4   5
ENDBRANCH   3   4
ENDBRANCH   2   3
ENDBRANCH   1   2
BRANCH   1  18
ATOM     18  C   UNL     1     172.215 173.784 179.900  1.00  0.00     0.000 C 
BRANCH  18  19
ATOM     19  C   UNL     1     172.992 173.380 181.163  1.00  0.00     0.000 C 
BRANCH  19  20
ATOM     20  C   UNL     1     172.086 172.813 182.270  1.00  0.00     0.000 C 
BRANCH  20  21
ATOM     21  C   UNL     1     172.007 173.663 183.554  1.00  0.00     0.000 C 
BRANCH  21  22
ATOM     22  C   UNL     1     170.650 174.345 183.810  1.00  0.00     0.000 C 
BRANCH  22  23
ATOM     23  C   UNL     1     170.479 175.649 183.014  1.00  0.00     0.000 C 
BRANCH  23  24
ATOM     24  C   UNL     1     169.113 175.743 182.305  1.00  0.00    -0.000 C 
BRANCH  24  25
ATOM     25  C   UNL     1     168.879 174.703 181.193  1.00  0.00    -0.000 C 
BRANCH  25  26
ATOM     26  C   UNL     1     168.870 175.270 179.760  1.00  0.00    -0.000 C 
BRANCH  26  27
ATOM     27  C   UNL     1     169.662 176.585 179.605  1.00  0.00    -0.000 C 
BRANCH  27  28
ATOM     28  C   UNL     1     170.407 176.667 178.264  1.00  0.00    -0.000 C 
BRANCH  28  29
ATOM     29  C   UNL     1     171.306 177.913 178.212  1.00  0.00    -0.000 C 
BRANCH  29  30
ATOM     30  C   UNL     1     172.175 177.960 176.947  1.00  0.00    -0.000 C 
BRANCH  30  31
ATOM     31  C   UNL     1     172.171 176.632 176.173  1.00  0.00    -0.003 C 
ATOM     32  C   UNL     1     173.444 176.476 175.345  1.00  0.00     0.004 C 
ENDBRANCH  30  31
ENDBRANCH  29  30
ENDBRANCH  28  29
ENDBRANCH  27  28
ENDBRANCH  26  27
ENDBRANCH  25  26
ENDBRANCH  24  25
ENDBRANCH  23  24
ENDBRANCH  22  23
ENDBRANCH  21  22
ENDBRANCH  20  21
ENDBRANCH  19  20
ENDBRANCH  18  19
ENDBRANCH   1  18
TORSDOF 28
ENDMDL
MODEL 9
REMARK VINA RESULT:    -3.548      1.806      3.837
REMARK INTER + INTRA:         -15.606
REMARK INTER:                  -9.458
REMARK INTRA:                  -6.148
REMARK UNBOUND:                -6.251
REMARK SMILES CCCCCCCCCCCCCCCCCCCCCCCCCCCCCC(=O)[O-]
REMARK SMILES IDX 16 1 17 2 18 3 19 4 20 5 21 6 22 7 23 8 24 9 25 10 26 11
REMARK SMILES IDX 27 12 28 13 29 14 30 15 31 16 32 17 15 18 14 19 13 20 12 21
REMARK SMILES IDX 11 22 10 23 9 24 8 25 7 26 6 27 5 28 4 29 3 30 2 31 1 32
REMARK H PARENT
REMARK Flexibility Score: inf
ROOT
ATOM      1  C   UNL     1     172.236 173.677 182.823  1.00  0.00     0.000 C 
ENDROOT
BRANCH   1   2
ATOM      2  C   UNL     1     173.560 174.441 182.967  1.00  0.00     0.000 C 
BRANCH   2   3
ATOM      3  C   UNL     1     173.489 175.799 182.254  1.00  0.00     0.000 C 
BRANCH   3   4
ATOM      4  C   UNL     1     174.514 176.813 182.797  1.00  0.00     0.000 C 
BRANCH   4   5
ATOM      5  C   UNL     1     175.993 176.462 182.528  1.00  0.00     0.000 C 
BRANCH   5   6
ATOM      6  C   UNL     1     176.873 177.642 182.074  1.00  0.00     0.000 C 
BRANCH   6   7
ATOM      7  C   UNL     1     177.380 177.490 180.635  1.00  0.00     0.000 C 
BRANCH   7   8
ATOM      8  C   UNL     1     176.217 177.275 179.661  1.00  0.00     0.000 C 
BRANCH   8   9
ATOM      9  C   UNL     1     176.478 176.069 178.750  1.00  0.00     0.000 C 
BRANCH   9  10
ATOM     10  C   UNL     1     175.225 175.187 178.630  1.00  0.00     0.000 C 
BRANCH  10  11
ATOM     11  C   UNL     1     175.174 174.083 179.707  1.00  0.00     0.000 C 
BRANCH  11  12
ATOM     12  C   UNL     1     176.561 173.575 180.153  1.00  0.00     0.000 C 
BRANCH  12  13
ATOM     13  C   UNL     1     176.606 172.930 181.550  1.00  0.00     0.006 C 
BRANCH  13  14
ATOM     14  C   UNL     1     175.922 171.556 181.594  1.00  0.00     0.053 C 
BRANCH  14  15
ATOM     15  C   UNL     1     176.460 170.657 180.525  1.00  0.00     0.041 C 
ATOM     16  O   UNL     1     177.635 170.208 180.603  1.00  0.00    -0.550 OA
ATOM     17  O   UNL     1     175.646 170.276 179.463  1.00  0.00    -0.550 OA
ENDBRANCH  14  15
ENDBRANCH  13  14
ENDBRANCH  12  13
ENDBRANCH  11  12
ENDBRANCH  10  11
ENDBRANCH   9  10
ENDBRANCH   8   9
ENDBRANCH   7   8
ENDBRANCH   6   7
ENDBRANCH   5   6
ENDBRANCH   4   5
ENDBRANCH   3   4
ENDBRANCH   2   3
ENDBRANCH   1   2
BRANCH   1  18
ATOM     18  C   UNL     1     171.220 174.132 183.879  1.00  0.00     0.000 C 
BRANCH  18  19
ATOM     19  C   UNL     1     169.988 174.776 183.223  1.00  0.00     0.000 C 
BRANCH  19  20
ATOM     20  C   UNL     1     170.000 176.312 183.297  1.00  0.00     0.000 C 
BRANCH  20  21
ATOM     21  C   UNL     1     168.993 177.024 182.372  1.00  0.00     0.000 C 
BRANCH  21  22
ATOM     22  C   UNL     1     169.312 176.945 180.867  1.00  0.00     0.000 C 
BRANCH  22  23
ATOM     23  C   UNL     1     170.738 177.416 180.534  1.00  0.00     0.000 C 
BRANCH  23  24
ATOM     24  C   UNL     1     170.911 177.797 179.051  1.00  0.00    -0.000 C 
BRANCH  24  25
ATOM     25  C   UNL     1     172.307 177.522 178.463  1.00  0.00    -0.000 C 
BRANCH  25  26
ATOM     26  C   UNL     1     172.312 176.838 177.082  1.00  0.00    -0.000 C 
BRANCH  26  27
ATOM     27  C   UNL     1     171.396 175.600 176.997  1.00  0.00    -0.000 C 
BRANCH  27  28
ATOM     28  C   UNL     1     172.185 174.297 176.794  1.00  0.00    -0.000 C 
BRANCH  28  29
ATOM     29  C   UNL     1     171.904 173.303 177.931  1.00  0.00    -0.000 C 
BRANCH  29  30
ATOM     30  C   UNL     1     171.388 173.992 179.202  1.00  0.00    -0.000 C 
BRANCH  30  31
ATOM     31  C   UNL     1     170.219 173.236 179.855  1.00  0.00    -0.003 C 
ATOM     32  C   UNL     1     168.879 173.712 179.298  1.00  0.00     0.004 C 
ENDBRANCH  30  31
ENDBRANCH  29  30
ENDBRANCH  28  29
ENDBRANCH  27  28
ENDBRANCH  26  27
ENDBRANCH  25  26
ENDBRANCH  24  25
ENDBRANCH  23  24
ENDBRANCH  22  23
ENDBRANCH  21  22
ENDBRANCH  20  21
ENDBRANCH  19  20
ENDBRANCH  18  19
ENDBRANCH   1  18
TORSDOF 28
ENDMDL
