MODEL 1
REMARK VINA RESULT:    -3.135      0.000      0.000
REMARK INTER + INTRA:          -4.741
REMARK INTER:                  -4.235
REMARK INTRA:                  -0.506
REMARK UNBOUND:                -0.506
REMARK SMILES O=C[C@@H](O)[C@H](O)[C@H](O)CO
REMARK SMILES IDX 7 1 9 2 10 3 5 5 3 6 2 7 1 8 4 9 6 11 8 13
REMARK H PARENT 10 4 4 10 6 12 8 14
REMARK Flexibility Score: inf
ROOT
ATOM      1  C   UNL     1     -12.752  -2.284  -2.291  1.00  0.00     0.171 C 
ENDROOT
BRANCH   1   2
ATOM      2  C   UNL     1     -12.370  -2.212  -0.803  1.00  0.00     0.190 C 
BRANCH   2   3
ATOM      3  O   UNL     1     -11.193  -1.468  -0.633  1.00  0.00    -0.394 OA
ATOM      4  H   UNL     1     -10.578  -1.733  -1.365  1.00  0.00     0.210 HD
ENDBRANCH   2   3
ENDBRANCH   1   2
BRANCH   1   5
ATOM      5  C   UNL     1     -12.458  -3.689  -2.874  1.00  0.00     0.181 C 
BRANCH   5   6
ATOM      6  C   UNL     1     -11.187  -3.699  -3.759  1.00  0.00     0.209 C 
BRANCH   6   7
ATOM      7  C   UNL     1      -9.951  -3.923  -2.930  1.00  0.00     0.258 C 
ATOM      8  O   UNL     1      -9.318  -2.979  -2.482  1.00  0.00    -0.300 OA
ENDBRANCH   6   7
BRANCH   6   9
ATOM      9  O   UNL     1     -11.287  -4.694  -4.746  1.00  0.00    -0.383 OA
ATOM     10  H   UNL     1     -11.109  -5.563  -4.298  1.00  0.00     0.211 HD
ENDBRANCH   6   9
ENDBRANCH   5   6
BRANCH   5  11
ATOM     11  O   UNL     1     -13.567  -4.183  -3.587  1.00  0.00    -0.387 OA
ATOM     12  H   UNL     1     -14.387  -3.898  -3.106  1.00  0.00     0.211 HD
ENDBRANCH   5  11
ENDBRANCH   1   5
BRANCH   1  13
ATOM     13  O   UNL     1     -12.016  -1.321  -3.006  1.00  0.00    -0.388 OA
ATOM     14  H   UNL     1     -11.126  -1.717  -3.197  1.00  0.00     0.211 HD
ENDBRANCH   1  13
TORSDOF 8
ENDMDL
MODEL 2
REMARK VINA RESULT:    -3.113      1.510      3.855
REMARK INTER + INTRA:          -4.711
REMARK INTER:                  -4.024
REMARK INTRA:                  -0.687
REMARK UNBOUND:                -0.506
REMARK SMILES O=C[C@@H](O)[C@H](O)[C@H](O)CO
REMARK SMILES IDX 7 1 9 2 10 3 5 5 3 6 2 7 1 8 4 9 6 11 8 13
REMARK H PARENT 10 4 4 10 6 12 8 14
REMARK Flexibility Score: inf
ROOT
ATOM      1  C   UNL     1     -11.676  -3.865  -2.494  1.00  0.00     0.171 C 
ENDROOT
BRANCH   1   2
ATOM      2  C   UNL     1     -11.249  -5.025  -3.410  1.00  0.00     0.190 C 
BRANCH   2   3
ATOM      3  O   UNL     1     -11.491  -4.704  -4.754  1.00  0.00    -0.394 OA
ATOM      4  H   UNL     1     -10.702  -5.013  -5.270  1.00  0.00     0.210 HD
ENDBRANCH   2   3
ENDBRANCH   1   2
BRANCH   1   5
ATOM      5  C   UNL     1     -10.636  -2.718  -2.526  1.00  0.00     0.181 C 
BRANCH   5   6
ATOM      6  C   UNL     1     -11.189  -1.411  -1.905  1.00  0.00     0.209 C 
BRANCH   6   7
ATOM      7  C   UNL     1     -12.532  -1.060  -2.489  1.00  0.00     0.258 C 
ATOM      8  O   UNL     1     -12.616  -0.435  -3.534  1.00  0.00    -0.300 OA
ENDBRANCH   6   7
BRANCH   6   9
ATOM      9  O   UNL     1     -11.292  -1.539  -0.510  1.00  0.00    -0.383 OA
ATOM     10  H   UNL     1     -10.544  -1.015  -0.117  1.00  0.00     0.211 HD
ENDBRANCH   6   9
ENDBRANCH   5   6
BRANCH   5  11
ATOM     11  O   UNL     1     -10.173  -2.491  -3.837  1.00  0.00    -0.387 OA
ATOM     12  H   UNL     1     -10.905  -2.735  -4.462  1.00  0.00     0.211 HD
ENDBRANCH   5  11
ENDBRANCH   1   5
BRANCH   1  13
ATOM     13  O   UNL     1     -11.805  -4.339  -1.176  1.00  0.00    -0.388 OA
ATOM     14  H   UNL     1     -12.772  -4.496  -1.016  1.00  0.00     0.211 HD
ENDBRANCH   1  13
TORSDOF 8
ENDMDL
MODEL 3
REMARK VINA RESULT:    -3.096      1.636      3.047
REMARK INTER + INTRA:          -4.688
REMARK INTER:                  -3.840
REMARK INTRA:                  -0.848
REMARK UNBOUND:                -0.506
REMARK SMILES O=C[C@@H](O)[C@H](O)[C@H](O)CO
REMARK SMILES IDX 7 1 9 2 10 3 5 5 3 6 2 7 1 8 4 9 6 11 8 13
REMARK H PARENT 10 4 4 10 6 12 8 14
REMARK Flexibility Score: inf
ROOT
ATOM      1  C   UNL     1     -12.925  -2.995  -2.335  1.00  0.00     0.171 C 
ENDROOT
BRANCH   1   2
ATOM      2  C   UNL     1     -13.364  -4.165  -3.232  1.00  0.00     0.190 C 
BRANCH   2   3
ATOM      3  O   UNL     1     -12.337  -4.514  -4.122  1.00  0.00    -0.394 OA
ATOM      4  H   UNL     1     -11.480  -4.375  -3.640  1.00  0.00     0.210 HD
ENDBRANCH   2   3
ENDBRANCH   1   2
BRANCH   1   5
ATOM      5  C   UNL     1     -11.983  -3.483  -1.206  1.00  0.00     0.181 C 
BRANCH   5   6
ATOM      6  C   UNL     1     -10.733  -2.580  -1.058  1.00  0.00     0.209 C 
BRANCH   6   7
ATOM      7  C   UNL     1      -9.946  -2.530  -2.341  1.00  0.00     0.258 C 
ATOM      8  O   UNL     1      -9.616  -3.557  -2.912  1.00  0.00    -0.300 OA
ENDBRANCH   6   7
BRANCH   6   9
ATOM      9  O   UNL     1     -11.111  -1.281  -0.678  1.00  0.00    -0.383 OA
ATOM     10  H   UNL     1     -12.067  -1.327  -0.412  1.00  0.00     0.211 HD
ENDBRANCH   6   9
ENDBRANCH   5   6
BRANCH   5  11
ATOM     11  O   UNL     1     -11.609  -4.826  -1.404  1.00  0.00    -0.387 OA
ATOM     12  H   UNL     1     -11.766  -5.313  -0.554  1.00  0.00     0.211 HD
ENDBRANCH   5  11
ENDBRANCH   1   5
BRANCH   1  13
ATOM     13  O   UNL     1     -14.062  -2.395  -1.766  1.00  0.00    -0.388 OA
ATOM     14  H   UNL     1     -13.856  -2.229  -0.808  1.00  0.00     0.211 HD
ENDBRANCH   1  13
TORSDOF 8
ENDMDL
MODEL 4
REMARK VINA RESULT:    -3.088      1.357      3.699
REMARK INTER + INTRA:          -4.676
REMARK INTER:                  -3.956
REMARK INTRA:                  -0.720
REMARK UNBOUND:                -0.506
REMARK SMILES O=C[C@@H](O)[C@H](O)[C@H](O)CO
REMARK SMILES IDX 7 1 9 2 10 3 5 5 3 6 2 7 1 8 4 9 6 11 8 13
REMARK H PARENT 10 4 4 10 6 12 8 14
REMARK Flexibility Score: inf
ROOT
ATOM      1  C   UNL     1     -10.854  -3.626  -2.562  1.00  0.00     0.171 C 
ENDROOT
BRANCH   1   2
ATOM      2  C   UNL     1     -11.125  -4.881  -3.409  1.00  0.00     0.190 C 
BRANCH   2   3
ATOM      3  O   UNL     1     -11.346  -4.531  -4.750  1.00  0.00    -0.394 OA
ATOM      4  H   UNL     1     -10.456  -4.356  -5.152  1.00  0.00     0.210 HD
ENDBRANCH   2   3
ENDBRANCH   1   2
BRANCH   1   5
ATOM      5  C   UNL     1     -12.115  -2.731  -2.475  1.00  0.00     0.181 C 
BRANCH   5   6
ATOM      6  C   UNL     1     -12.289  -2.103  -1.069  1.00  0.00     0.209 C 
BRANCH   6   7
ATOM      7  C   UNL     1     -12.621  -3.153  -0.044  1.00  0.00     0.258 C 
ATOM      8  O   UNL     1     -13.695  -3.733  -0.067  1.00  0.00    -0.300 OA
ENDBRANCH   6   7
BRANCH   6   9
ATOM      9  O   UNL     1     -11.121  -1.419  -0.693  1.00  0.00    -0.383 OA
ATOM     10  H   UNL     1     -10.672  -1.975  -0.002  1.00  0.00     0.211 HD
ENDBRANCH   6   9
ENDBRANCH   5   6
BRANCH   5  11
ATOM     11  O   UNL     1     -13.270  -3.446  -2.848  1.00  0.00    -0.387 OA
ATOM     12  H   UNL     1     -13.053  -3.965  -3.666  1.00  0.00     0.211 HD
ENDBRANCH   5  11
ENDBRANCH   1   5
BRANCH   1  13
ATOM     13  O   UNL     1      -9.803  -2.893  -3.142  1.00  0.00    -0.388 OA
ATOM     14  H   UNL     1      -9.454  -3.432  -3.899  1.00  0.00     0.211 HD
ENDBRANCH   1  13
TORSDOF 8
ENDMDL
MODEL 5
REMARK VINA RESULT:    -3.075      1.625      3.783
REMARK INTER + INTRA:          -4.659
REMARK INTER:                  -3.674
REMARK INTRA:                  -0.985
REMARK UNBOUND:                -0.506
REMARK SMILES O=C[C@@H](O)[C@H](O)[C@H](O)CO
REMARK SMILES IDX 7 1 9 2 10 3 5 5 3 6 2 7 1 8 4 9 6 11 8 13
REMARK H PARENT 10 4 4 10 6 12 8 14
REMARK Flexibility Score: inf
ROOT
ATOM      1  C   UNL     1      -9.879  -2.936  -1.576  1.00  0.00     0.171 C 
ENDROOT
BRANCH   1   2
ATOM      2  C   UNL     1      -9.786  -2.718  -3.096  1.00  0.00     0.190 C 
BRANCH   2   3
ATOM      3  O   UNL     1     -10.910  -3.257  -3.740  1.00  0.00    -0.394 OA
ATOM      4  H   UNL     1     -11.681  -2.679  -3.502  1.00  0.00     0.210 HD
ENDBRANCH   2   3
ENDBRANCH   1   2
BRANCH   1   5
ATOM      5  C   UNL     1     -10.929  -1.989  -0.942  1.00  0.00     0.181 C 
BRANCH   5   6
ATOM      6  C   UNL     1     -12.283  -2.700  -0.697  1.00  0.00     0.209 C 
BRANCH   6   7
ATOM      7  C   UNL     1     -13.383  -2.065  -1.505  1.00  0.00     0.258 C 
ATOM      8  O   UNL     1     -13.456  -2.244  -2.711  1.00  0.00    -0.300 OA
ENDBRANCH   6   7
BRANCH   6   9
ATOM      9  O   UNL     1     -12.182  -4.065  -1.015  1.00  0.00    -0.383 OA
ATOM     10  H   UNL     1     -11.580  -4.474  -0.339  1.00  0.00     0.211 HD
ENDBRANCH   6   9
ENDBRANCH   5   6
BRANCH   5  11
ATOM     11  O   UNL     1     -11.106  -0.833  -1.726  1.00  0.00    -0.387 OA
ATOM     12  H   UNL     1     -11.945  -0.392  -1.430  1.00  0.00     0.211 HD
ENDBRANCH   5  11
ENDBRANCH   1   5
BRANCH   1  13
ATOM     13  O   UNL     1      -8.622  -2.693  -0.994  1.00  0.00    -0.388 OA
ATOM     14  H   UNL     1      -8.719  -2.841  -0.017  1.00  0.00     0.211 HD
ENDBRANCH   1  13
TORSDOF 8
ENDMDL
MODEL 6
REMARK VINA RESULT:    -3.075      1.580      3.153
REMARK INTER + INTRA:          -4.659
REMARK INTER:                  -3.680
REMARK INTRA:                  -0.979
REMARK UNBOUND:                -0.506
REMARK SMILES O=C[C@@H](O)[C@H](O)[C@H](O)CO
REMARK SMILES IDX 7 1 9 2 10 3 5 5 3 6 2 7 1 8 4 9 6 11 8 13
REMARK H PARENT 10 4 4 10 6 12 8 14
REMARK Flexibility Score: inf
ROOT
ATOM      1  C   UNL     1     -11.246  -4.406  -3.424  1.00  0.00     0.171 C 
ENDROOT
BRANCH   1   2
ATOM      2  C   UNL     1     -12.167  -5.368  -2.653  1.00  0.00     0.190 C 
BRANCH   2   3
ATOM      3  O   UNL     1     -11.878  -5.331  -1.281  1.00  0.00    -0.394 OA
ATOM      4  H   UNL     1     -11.178  -6.015  -1.116  1.00  0.00     0.210 HD
ENDBRANCH   2   3
ENDBRANCH   1   2
BRANCH   1   5
ATOM      5  C   UNL     1     -11.648  -2.931  -3.175  1.00  0.00     0.181 C 
BRANCH   5   6
ATOM      6  C   UNL     1     -10.749  -2.253  -2.112  1.00  0.00     0.209 C 
BRANCH   6   7
ATOM      7  C   UNL     1     -11.553  -1.829  -0.912  1.00  0.00     0.258 C 
ATOM      8  O   UNL     1     -12.065  -2.659  -0.177  1.00  0.00    -0.300 OA
ENDBRANCH   6   7
BRANCH   6   9
ATOM      9  O   UNL     1      -9.720  -3.124  -1.715  1.00  0.00    -0.383 OA
ATOM     10  H   UNL     1      -9.472  -3.659  -2.515  1.00  0.00     0.211 HD
ENDBRANCH   6   9
ENDBRANCH   5   6
BRANCH   5  11
ATOM     11  O   UNL     1     -13.007  -2.831  -2.817  1.00  0.00    -0.387 OA
ATOM     12  H   UNL     1     -13.053  -2.711  -1.833  1.00  0.00     0.211 HD
ENDBRANCH   5  11
ENDBRANCH   1   5
BRANCH   1  13
ATOM     13  O   UNL     1     -11.330  -4.686  -4.799  1.00  0.00    -0.388 OA
ATOM     14  H   UNL     1     -12.257  -4.996  -4.978  1.00  0.00     0.211 HD
ENDBRANCH   1  13
TORSDOF 8
ENDMDL
MODEL 7
REMARK VINA RESULT:    -3.050      1.612      2.892
REMARK INTER + INTRA:          -4.626
REMARK INTER:                  -3.742
REMARK INTRA:                  -0.884
REMARK UNBOUND:                -0.506
REMARK SMILES O=C[C@@H](O)[C@H](O)[C@H](O)CO
REMARK SMILES IDX 7 1 9 2 10 3 5 5 3 6 2 7 1 8 4 9 6 11 8 13
REMARK H PARENT 10 4 4 10 6 12 8 14
REMARK Flexibility Score: inf
ROOT
ATOM      1  C   UNL     1     -10.010  -3.842  -2.530  1.00  0.00     0.171 C 
ENDROOT
BRANCH   1   2
ATOM      2  C   UNL     1      -9.613  -2.750  -1.523  1.00  0.00     0.190 C 
BRANCH   2   3
ATOM      3  O   UNL     1     -10.442  -1.627  -1.662  1.00  0.00    -0.394 OA
ATOM      4  H   UNL     1     -11.220  -1.769  -1.061  1.00  0.00     0.210 HD
ENDBRANCH   2   3
ENDBRANCH   1   2
BRANCH   1   5
ATOM      5  C   UNL     1     -11.284  -4.591  -2.066  1.00  0.00     0.181 C 
BRANCH   5   6
ATOM      6  C   UNL     1     -12.335  -4.711  -3.197  1.00  0.00     0.209 C 
BRANCH   6   7
ATOM      7  C   UNL     1     -13.378  -3.631  -3.085  1.00  0.00     0.258 C 
ATOM      8  O   UNL     1     -13.055  -2.456  -3.010  1.00  0.00    -0.300 OA
ENDBRANCH   6   7
BRANCH   6   9
ATOM      9  O   UNL     1     -11.710  -4.643  -4.453  1.00  0.00    -0.383 OA
ATOM     10  H   UNL     1     -11.595  -5.579  -4.768  1.00  0.00     0.211 HD
ENDBRANCH   6   9
ENDBRANCH   5   6
BRANCH   5  11
ATOM     11  O   UNL     1     -11.843  -3.979  -0.927  1.00  0.00    -0.387 OA
ATOM     12  H   UNL     1     -12.830  -4.056  -0.996  1.00  0.00     0.211 HD
ENDBRANCH   5  11
ENDBRANCH   1   5
BRANCH   1  13
ATOM     13  O   UNL     1      -8.952  -4.760  -2.660  1.00  0.00    -0.388 OA
ATOM     14  H   UNL     1      -9.351  -5.669  -2.641  1.00  0.00     0.211 HD
ENDBRANCH   1  13
TORSDOF 8
ENDMDL
MODEL 8
REMARK VINA RESULT:    -3.039      1.489      3.275
REMARK INTER + INTRA:          -4.611
REMARK INTER:                  -4.337
REMARK INTRA:                  -0.274
REMARK UNBOUND:                -0.506
REMARK SMILES O=C[C@@H](O)[C@H](O)[C@H](O)CO
REMARK SMILES IDX 7 1 9 2 10 3 5 5 3 6 2 7 1 8 4 9 6 11 8 13
REMARK H PARENT 10 4 4 10 6 12 8 14
REMARK Flexibility Score: inf
ROOT
ATOM      1  C   UNL     1     -11.209  -4.495  -3.435  1.00  0.00     0.171 C 
ENDROOT
BRANCH   1   2
ATOM      2  C   UNL     1     -12.588  -4.714  -2.790  1.00  0.00     0.190 C 
BRANCH   2   3
ATOM      3  O   UNL     1     -13.611  -4.412  -3.702  1.00  0.00    -0.394 OA
ATOM      4  H   UNL     1     -13.229  -3.774  -4.360  1.00  0.00     0.210 HD
ENDBRANCH   2   3
ENDBRANCH   1   2
BRANCH   1   5
ATOM      5  C   UNL     1     -10.654  -3.088  -3.097  1.00  0.00     0.181 C 
BRANCH   5   6
ATOM      6  C   UNL     1     -10.000  -3.041  -1.694  1.00  0.00     0.209 C 
BRANCH   6   7
ATOM      7  C   UNL     1      -8.499  -3.090  -1.794  1.00  0.00     0.258 C 
ATOM      8  O   UNL     1      -7.800  -2.898  -0.811  1.00  0.00    -0.300 OA
ENDBRANCH   6   7
BRANCH   6   9
ATOM      9  O   UNL     1     -10.397  -1.880  -1.010  1.00  0.00    -0.383 OA
ATOM     10  H   UNL     1      -9.728  -1.728  -0.290  1.00  0.00     0.211 HD
ENDBRANCH   6   9
ENDBRANCH   5   6
BRANCH   5  11
ATOM     11  O   UNL     1     -11.658  -2.108  -3.214  1.00  0.00    -0.387 OA
ATOM     12  H   UNL     1     -12.130  -2.053  -2.342  1.00  0.00     0.211 HD
ENDBRANCH   5  11
ENDBRANCH   1   5
BRANCH   1  13
ATOM     13  O   UNL     1     -11.323  -4.627  -4.830  1.00  0.00    -0.388 OA
ATOM     14  H   UNL     1     -11.237  -3.716  -5.218  1.00  0.00     0.211 HD
ENDBRANCH   1  13
TORSDOF 8
ENDMDL
MODEL 9
REMARK VINA RESULT:    -3.030      1.566      2.172
REMARK INTER + INTRA:          -4.598
REMARK INTER:                  -3.862
REMARK INTRA:                  -0.736
REMARK UNBOUND:                -0.506
REMARK SMILES O=C[C@@H](O)[C@H](O)[C@H](O)CO
REMARK SMILES IDX 7 1 9 2 10 3 5 5 3 6 2 7 1 8 4 9 6 11 8 13
REMARK H PARENT 10 4 4 10 6 12 8 14
REMARK Flexibility Score: inf
ROOT
ATOM      1  C   UNL     1     -12.008  -3.195  -2.049  1.00  0.00     0.171 C 
ENDROOT
BRANCH   1   2
ATOM      2  C   UNL     1     -11.828  -2.590  -0.646  1.00  0.00     0.190 C 
BRANCH   2   3
ATOM      3  O   UNL     1     -11.120  -1.382  -0.719  1.00  0.00    -0.394 OA
ATOM      4  H   UNL     1     -10.839  -1.270  -1.665  1.00  0.00     0.210 HD
ENDBRANCH   2   3
ENDBRANCH   1   2
BRANCH   1   5
ATOM      5  C   UNL     1     -10.639  -3.542  -2.685  1.00  0.00     0.181 C 
BRANCH   5   6
ATOM      6  C   UNL     1     -10.707  -4.823  -3.554  1.00  0.00     0.209 C 
BRANCH   6   7
ATOM      7  C   UNL     1     -11.185  -6.000  -2.747  1.00  0.00     0.258 C 
ATOM      8  O   UNL     1     -10.529  -6.423  -1.808  1.00  0.00    -0.300 OA
ENDBRANCH   6   7
BRANCH   6   9
ATOM      9  O   UNL     1     -11.555  -4.621  -4.655  1.00  0.00    -0.383 OA
ATOM     10  H   UNL     1     -11.967  -3.724  -4.541  1.00  0.00     0.211 HD
ENDBRANCH   6   9
ENDBRANCH   5   6
BRANCH   5  11
ATOM     11  O   UNL     1      -9.639  -3.658  -1.701  1.00  0.00    -0.387 OA
ATOM     12  H   UNL     1      -9.827  -2.984  -0.997  1.00  0.00     0.211 HD
ENDBRANCH   5  11
ENDBRANCH   1   5
BRANCH   1  13
ATOM     13  O   UNL     1     -12.681  -2.273  -2.869  1.00  0.00    -0.388 OA
ATOM     14  H   UNL     1     -13.129  -2.793  -3.588  1.00  0.00     0.211 HD
ENDBRANCH   1  13
TORSDOF 8
ENDMDL
