MODEL 1
REMARK VINA RESULT:    70.683      0.000      0.000
REMARK INTER + INTRA:         104.838
REMARK INTER:                 103.740
REMARK INTRA:                   1.097
REMARK UNBOUND:                 1.097
REMARK SMILES O=c1c(O[C@@H]2O[C@H](CO)[C@@H](O)[C@H](O)[C@@H]2O)c(-c2ccc(O)c(O)c2)oc2cc(O)cc(O)c12
REMARK SMILES IDX 4 1 3 2 16 3 25 4 2 5 26 6 1 7 33 8 27 9 31 10 28 11 30 12
REMARK SMILES IDX 17 13 18 14 19 15 20 16 24 17 22 18 21 19 23 21 32 23 29 25
REMARK SMILES IDX 5 27 14 28 6 29 12 30 7 31 10 32 15 33 13 35 8 37 9 38 11 40
REMARK H PARENT 21 20 23 22 32 24 29 26 15 34 13 36 9 39 11 41
REMARK Flexibility Score: inf
ROOT
ATOM      1  O   UNL     1      -0.481  -0.223   1.857  1.00  0.00    -0.454 OA
ENDROOT
BRANCH   1   2
ATOM      2  C   UNL     1       0.885  -0.536   1.647  1.00  0.00     0.214 A 
ATOM      3  C   UNL     1       1.234  -1.273   0.494  1.00  0.00     0.180 A 
ATOM      4  O   UNL     1       2.509  -1.530   0.221  1.00  0.00    -0.452 OA
ATOM      5  C   UNL     1       1.929  -0.114   2.505  1.00  0.00     0.239 A 
ATOM      6  C   UNL     1       3.516  -1.143   0.994  1.00  0.00     0.146 A 
ATOM      7  O   UNL     1       1.669   0.548   3.545  1.00  0.00    -0.285 OA
ATOM      8  C   UNL     1       3.271  -0.416   2.179  1.00  0.00     0.111 A 
ATOM      9  C   UNL     1       4.825  -1.464   0.619  1.00  0.00     0.094 A 
ATOM     10  C   UNL     1       4.373  -0.009   2.974  1.00  0.00     0.134 A 
ATOM     11  C   UNL     1       5.906  -1.063   1.405  1.00  0.00     0.123 A 
ATOM     12  C   UNL     1       5.679  -0.335   2.579  1.00  0.00     0.093 A 
BRANCH   3  13
ATOM     13  C   UNL     1       0.209  -1.771  -0.449  1.00  0.00     0.025 A 
ATOM     14  C   UNL     1       0.461  -1.839  -1.827  1.00  0.00     0.016 A 
ATOM     15  C   UNL     1      -0.523  -2.296  -2.705  1.00  0.00     0.051 A 
ATOM     16  C   UNL     1      -1.779  -2.675  -2.223  1.00  0.00     0.157 A 
ATOM     17  C   UNL     1      -1.057  -2.131   0.031  1.00  0.00     0.062 A 
ATOM     18  C   UNL     1      -2.050  -2.589  -0.847  1.00  0.00     0.158 A 
BRANCH  16  19
ATOM     19  O   UNL     1      -2.746  -3.124  -3.122  1.00  0.00    -0.504 OA
ATOM     20  H   UNL     1      -3.631  -3.509  -2.816  1.00  0.00     0.293 HD
ENDBRANCH  16  19
BRANCH  18  21
ATOM     21  O   UNL     1      -3.305  -2.954  -0.360  1.00  0.00    -0.504 OA
ATOM     22  H   UNL     1      -4.151  -2.486  -0.665  1.00  0.00     0.293 HD
ENDBRANCH  18  21
ENDBRANCH   3  13
BRANCH  10  23
ATOM     23  O   UNL     1       4.182   0.717   4.148  1.00  0.00    -0.507 OA
ATOM     24  H   UNL     1       3.419   1.380   4.251  1.00  0.00     0.293 HD
ENDBRANCH  10  23
BRANCH  11  25
ATOM     25  O   UNL     1       7.203  -1.393   1.012  1.00  0.00    -0.508 OA
ATOM     26  H   UNL     1       7.786  -2.013   1.561  1.00  0.00     0.293 HD
ENDBRANCH  11  25
ENDBRANCH   1   2
BRANCH   1  27
ATOM     27  C   UNL     1      -1.074   1.074   1.804  1.00  0.00     0.339 C 
ATOM     28  C   UNL     1      -0.547   1.851   0.573  1.00  0.00     0.214 C 
ATOM     29  O   UNL     1      -2.477   0.946   1.706  1.00  0.00    -0.332 OA
ATOM     30  C   UNL     1      -1.563   2.943   0.112  1.00  0.00     0.180 C 
ATOM     31  C   UNL     1      -3.117   2.180   2.002  1.00  0.00     0.179 C 
ATOM     32  C   UNL     1      -2.452   3.403   1.289  1.00  0.00     0.177 C 
BRANCH  28  33
ATOM     33  O   UNL     1      -0.209   0.983  -0.490  1.00  0.00    -0.384 OA
ATOM     34  H   UNL     1       0.737   0.701  -0.360  1.00  0.00     0.211 HD
ENDBRANCH  28  33
BRANCH  30  35
ATOM     35  O   UNL     1      -2.398   2.461  -0.920  1.00  0.00    -0.387 OA
ATOM     36  H   UNL     1      -3.274   2.913  -0.813  1.00  0.00     0.211 HD
ENDBRANCH  30  35
BRANCH  31  37
ATOM     37  C   UNL     1      -4.592   2.059   1.611  1.00  0.00     0.191 C 
BRANCH  37  38
ATOM     38  O   UNL     1      -5.077   0.801   1.987  1.00  0.00    -0.394 OA
ATOM     39  H   UNL     1      -5.968   0.965   2.396  1.00  0.00     0.210 HD
ENDBRANCH  37  38
ENDBRANCH  31  37
BRANCH  32  40
ATOM     40  O   UNL     1      -1.674   4.113   2.221  1.00  0.00    -0.387 OA
ATOM     41  H   UNL     1      -1.594   3.541   3.028  1.00  0.00     0.211 HD
ENDBRANCH  32  40
ENDBRANCH   1  27
TORSDOF 12
ENDMDL
MODEL 2
REMARK VINA RESULT:    73.590      1.098      2.014
REMARK INTER + INTRA:         109.104
REMARK INTER:                 107.841
REMARK INTRA:                   1.263
REMARK UNBOUND:                 1.097
REMARK SMILES O=c1c(O[C@@H]2O[C@H](CO)[C@@H](O)[C@H](O)[C@@H]2O)c(-c2ccc(O)c(O)c2)oc2cc(O)cc(O)c12
REMARK SMILES IDX 4 1 3 2 16 3 25 4 2 5 26 6 1 7 33 8 27 9 31 10 28 11 30 12
REMARK SMILES IDX 17 13 18 14 19 15 20 16 24 17 22 18 21 19 23 21 32 23 29 25
REMARK SMILES IDX 5 27 14 28 6 29 12 30 7 31 10 32 15 33 13 35 8 37 9 38 11 40
REMARK H PARENT 21 20 23 22 32 24 29 26 15 34 13 36 9 39 11 41
REMARK Flexibility Score: inf
ROOT
ATOM      1  O   UNL     1      -0.913  -0.056   1.904  1.00  0.00    -0.454 OA
ENDROOT
BRANCH   1   2
ATOM      2  C   UNL     1       0.465  -0.344   1.742  1.00  0.00     0.214 A 
ATOM      3  C   UNL     1       0.865  -1.087   0.610  1.00  0.00     0.180 A 
ATOM      4  O   UNL     1       2.153  -1.321   0.381  1.00  0.00    -0.452 OA
ATOM      5  C   UNL     1       1.472   0.110   2.626  1.00  0.00     0.239 A 
ATOM      6  C   UNL     1       3.127  -0.904   1.180  1.00  0.00     0.146 A 
ATOM      7  O   UNL     1       1.166   0.779   3.649  1.00  0.00    -0.285 OA
ATOM      8  C   UNL     1       2.830  -0.168   2.347  1.00  0.00     0.111 A 
ATOM      9  C   UNL     1       4.454  -1.202   0.852  1.00  0.00     0.094 A 
ATOM     10  C   UNL     1       3.897   0.272   3.172  1.00  0.00     0.134 A 
ATOM     11  C   UNL     1       5.500  -0.769   1.666  1.00  0.00     0.123 A 
ATOM     12  C   UNL     1       5.221  -0.032   2.823  1.00  0.00     0.093 A 
BRANCH   3  13
ATOM     13  C   UNL     1      -0.118  -1.617  -0.358  1.00  0.00     0.025 A 
ATOM     14  C   UNL     1       0.272  -2.029  -1.641  1.00  0.00     0.016 A 
ATOM     15  C   UNL     1      -0.672  -2.511  -2.548  1.00  0.00     0.051 A 
ATOM     16  C   UNL     1      -2.022  -2.574  -2.196  1.00  0.00     0.157 A 
ATOM     17  C   UNL     1      -1.476  -1.661  -0.013  1.00  0.00     0.062 A 
ATOM     18  C   UNL     1      -2.429  -2.144  -0.922  1.00  0.00     0.158 A 
BRANCH  16  19
ATOM     19  O   UNL     1      -2.946  -3.057  -3.123  1.00  0.00    -0.504 OA
ATOM     20  H   UNL     1      -3.943  -2.911  -3.019  1.00  0.00     0.293 HD
ENDBRANCH  16  19
BRANCH  18  21
ATOM     21  O   UNL     1      -3.777  -2.193  -0.567  1.00  0.00    -0.504 OA
ATOM     22  H   UNL     1      -4.512  -2.081  -1.256  1.00  0.00     0.293 HD
ENDBRANCH  18  21
ENDBRANCH   3  13
BRANCH  10  23
ATOM     23  O   UNL     1       3.653   1.007   4.330  1.00  0.00    -0.507 OA
ATOM     24  H   UNL     1       3.074   0.648   5.083  1.00  0.00     0.293 HD
ENDBRANCH  10  23
BRANCH  11  25
ATOM     25  O   UNL     1       6.815  -1.077   1.319  1.00  0.00    -0.508 OA
ATOM     26  H   UNL     1       7.571  -1.028   1.991  1.00  0.00     0.293 HD
ENDBRANCH  11  25
ENDBRANCH   1   2
BRANCH   1  27
ATOM     27  C   UNL     1      -1.599   1.108   1.444  1.00  0.00     0.339 C 
ATOM     28  C   UNL     1      -1.681   2.161   2.577  1.00  0.00     0.214 C 
ATOM     29  O   UNL     1      -0.904   1.661   0.346  1.00  0.00    -0.332 OA
ATOM     30  C   UNL     1      -1.823   3.605   2.003  1.00  0.00     0.180 C 
ATOM     31  C   UNL     1      -1.722   2.592  -0.350  1.00  0.00     0.179 C 
ATOM     32  C   UNL     1      -2.473   3.581   0.601  1.00  0.00     0.177 C 
BRANCH  28  33
ATOM     33  O   UNL     1      -0.582   2.066   3.461  1.00  0.00    -0.384 OA
ATOM     34  H   UNL     1      -0.884   1.564   4.266  1.00  0.00     0.211 HD
ENDBRANCH  28  33
BRANCH  30  35
ATOM     35  O   UNL     1      -0.567   4.242   1.903  1.00  0.00    -0.387 OA
ATOM     36  H   UNL     1      -0.136   3.897   1.079  1.00  0.00     0.211 HD
ENDBRANCH  30  35
BRANCH  31  37
ATOM     37  C   UNL     1      -0.839   3.356  -1.340  1.00  0.00     0.191 C 
BRANCH  37  38
ATOM     38  O   UNL     1      -1.216   3.037  -2.649  1.00  0.00    -0.394 OA
ATOM     39  H   UNL     1      -1.153   2.048  -2.717  1.00  0.00     0.210 HD
ENDBRANCH  37  38
ENDBRANCH  31  37
BRANCH  32  40
ATOM     40  O   UNL     1      -3.818   3.183   0.710  1.00  0.00    -0.387 OA
ATOM     41  H   UNL     1      -4.374   3.964   0.457  1.00  0.00     0.211 HD
ENDBRANCH  32  40
ENDBRANCH   1  27
TORSDOF 12
ENDMDL
