MODEL 1
REMARK VINA RESULT:    -5.585      0.000      0.000
REMARK INTER + INTRA:          -8.223
REMARK INTER:                  -7.544
REMARK INTRA:                  -0.679
REMARK UNBOUND:                -0.679
REMARK SMILES CC(=O)CCC=C(C)CCC=C(C)C
REMARK SMILES IDX 7 1 6 2 8 3 9 4 10 5 11 6 13 7 12 8 14 9 5 10 4 11 2 12 3 13
REMARK SMILES IDX 1 14
REMARK H PARENT
REMARK Flexibility Score: inf
ROOT
ATOM      1  C   UNL     1      87.335  37.130  24.757  1.00  0.00    -0.077 C 
ATOM      2  C   UNL     1      88.466  37.871  24.755  1.00  0.00    -0.028 C 
ATOM      3  C   UNL     1      87.165  36.084  23.684  1.00  0.00     0.039 C 
ENDROOT
BRANCH   1   4
ATOM      4  C   UNL     1      86.243  37.297  25.799  1.00  0.00     0.034 C 
BRANCH   4   5
ATOM      5  C   UNL     1      86.652  36.730  27.165  1.00  0.00     0.032 C 
BRANCH   5   6
ATOM      6  C   UNL     1      85.837  37.339  28.282  1.00  0.00    -0.028 C 
ATOM      7  C   UNL     1      87.752  38.670  29.198  1.00  0.00     0.039 C 
ATOM      8  C   UNL     1      86.321  38.188  29.216  1.00  0.00    -0.080 C 
ATOM      9  C   UNL     1      85.394  38.657  30.307  1.00  0.00     0.039 C 
ENDBRANCH   5   6
ENDBRANCH   4   5
ENDBRANCH   1   4
BRANCH   2  10
ATOM     10  C   UNL     1      88.752  38.967  25.753  1.00  0.00     0.035 C 
BRANCH  10  11
ATOM     11  C   UNL     1      90.034  38.677  26.541  1.00  0.00     0.079 C 
BRANCH  11  12
ATOM     12  C   UNL     1      90.896  39.908  26.628  1.00  0.00     0.130 C 
ATOM     13  O   UNL     1      91.968  39.851  27.211  1.00  0.00    -0.300 OA
ATOM     14  C   UNL     1      90.463  41.211  26.023  1.00  0.00     0.087 C 
ENDBRANCH  11  12
ENDBRANCH  10  11
ENDBRANCH   2  10
TORSDOF 6
ENDMDL
MODEL 2
REMARK VINA RESULT:    -5.563      2.767      4.019
REMARK INTER + INTRA:          -8.194
REMARK INTER:                  -7.552
REMARK INTRA:                  -0.642
REMARK UNBOUND:                -0.679
REMARK SMILES CC(=O)CCC=C(C)CCC=C(C)C
REMARK SMILES IDX 7 1 6 2 8 3 9 4 10 5 11 6 13 7 12 8 14 9 5 10 4 11 2 12 3 13
REMARK SMILES IDX 1 14
REMARK H PARENT
REMARK Flexibility Score: inf
ROOT
ATOM      1  C   UNL     1      86.868  37.940  29.273  1.00  0.00    -0.077 C 
ATOM      2  C   UNL     1      87.801  38.820  28.847  1.00  0.00    -0.028 C 
ATOM      3  C   UNL     1      85.751  38.451  30.147  1.00  0.00     0.039 C 
ENDROOT
BRANCH   1   4
ATOM      4  C   UNL     1      86.890  36.469  28.895  1.00  0.00     0.034 C 
BRANCH   4   5
ATOM      5  C   UNL     1      86.171  35.592  29.930  1.00  0.00     0.032 C 
BRANCH   5   6
ATOM      6  C   UNL     1      87.155  34.902  30.846  1.00  0.00    -0.028 C 
ATOM      7  C   UNL     1      85.785  35.294  32.908  1.00  0.00     0.039 C 
ATOM      8  C   UNL     1      87.009  34.785  32.185  1.00  0.00    -0.080 C 
ATOM      9  C   UNL     1      88.113  34.126  32.971  1.00  0.00     0.039 C 
ENDBRANCH   5   6
ENDBRANCH   4   5
ENDBRANCH   1   4
BRANCH   2  10
ATOM     10  C   UNL     1      88.985  38.438  27.990  1.00  0.00     0.035 C 
BRANCH  10  11
ATOM     11  C   UNL     1      88.993  39.225  26.675  1.00  0.00     0.079 C 
BRANCH  11  12
ATOM     12  C   UNL     1      90.255  40.035  26.547  1.00  0.00     0.130 C 
ATOM     13  O   UNL     1      90.189  41.191  26.155  1.00  0.00    -0.300 OA
ATOM     14  C   UNL     1      91.597  39.452  26.879  1.00  0.00     0.087 C 
ENDBRANCH  11  12
ENDBRANCH  10  11
ENDBRANCH   2  10
TORSDOF 6
ENDMDL
MODEL 3
REMARK VINA RESULT:    -5.517      2.435      4.638
REMARK INTER + INTRA:          -8.132
REMARK INTER:                  -7.469
REMARK INTRA:                  -0.663
REMARK UNBOUND:                -0.679
REMARK SMILES CC(=O)CCC=C(C)CCC=C(C)C
REMARK SMILES IDX 7 1 6 2 8 3 9 4 10 5 11 6 13 7 12 8 14 9 5 10 4 11 2 12 3 13
REMARK SMILES IDX 1 14
REMARK H PARENT
REMARK Flexibility Score: inf
ROOT
ATOM      1  C   UNL     1      87.484  36.801  24.103  1.00  0.00    -0.077 C 
ATOM      2  C   UNL     1      88.581  37.544  24.371  1.00  0.00    -0.028 C 
ATOM      3  C   UNL     1      87.649  35.561  23.262  1.00  0.00     0.039 C 
ENDROOT
BRANCH   1   4
ATOM      4  C   UNL     1      86.103  37.154  24.627  1.00  0.00     0.034 C 
BRANCH   4   5
ATOM      5  C   UNL     1      84.989  36.729  23.661  1.00  0.00     0.032 C 
BRANCH   5   6
ATOM      6  C   UNL     1      84.569  37.872  22.766  1.00  0.00    -0.028 C 
ATOM      7  C   UNL     1      84.209  36.408  20.764  1.00  0.00     0.039 C 
ATOM      8  C   UNL     1      84.244  37.748  21.459  1.00  0.00    -0.080 C 
ATOM      9  C   UNL     1      83.911  38.995  20.683  1.00  0.00     0.039 C 
ENDBRANCH   5   6
ENDBRANCH   4   5
ENDBRANCH   1   4
BRANCH   2  10
ATOM     10  C   UNL     1      88.554  38.820  25.177  1.00  0.00     0.035 C 
BRANCH  10  11
ATOM     11  C   UNL     1      89.252  38.636  26.529  1.00  0.00     0.079 C 
BRANCH  11  12
ATOM     12  C   UNL     1      90.500  39.474  26.603  1.00  0.00     0.130 C 
ATOM     13  O   UNL     1      91.542  38.968  26.991  1.00  0.00    -0.300 OA
ATOM     14  C   UNL     1      90.493  40.925  26.220  1.00  0.00     0.087 C 
ENDBRANCH  11  12
ENDBRANCH  10  11
ENDBRANCH   2  10
TORSDOF 6
ENDMDL
MODEL 4
REMARK VINA RESULT:    -5.491      1.348      3.737
REMARK INTER + INTRA:          -8.096
REMARK INTER:                  -6.880
REMARK INTRA:                  -1.216
REMARK UNBOUND:                -0.679
REMARK SMILES CC(=O)CCC=C(C)CCC=C(C)C
REMARK SMILES IDX 7 1 6 2 8 3 9 4 10 5 11 6 13 7 12 8 14 9 5 10 4 11 2 12 3 13
REMARK SMILES IDX 1 14
REMARK H PARENT
REMARK Flexibility Score: inf
ROOT
ATOM      1  C   UNL     1      86.786  37.983  29.252  1.00  0.00    -0.077 C 
ATOM      2  C   UNL     1      87.680  38.892  28.800  1.00  0.00    -0.028 C 
ATOM      3  C   UNL     1      85.554  38.484  29.961  1.00  0.00     0.039 C 
ENDROOT
BRANCH   1   4
ATOM      4  C   UNL     1      86.965  36.487  29.060  1.00  0.00     0.034 C 
BRANCH   4   5
ATOM      5  C   UNL     1      86.027  35.923  27.984  1.00  0.00     0.032 C 
BRANCH   5   6
ATOM      6  C   UNL     1      86.428  36.390  26.604  1.00  0.00    -0.028 C 
ATOM      7  C   UNL     1      84.291  37.639  26.210  1.00  0.00     0.039 C 
ATOM      8  C   UNL     1      85.650  37.136  25.787  1.00  0.00    -0.080 C 
ATOM      9  C   UNL     1      86.167  37.465  24.410  1.00  0.00     0.039 C 
ENDBRANCH   5   6
ENDBRANCH   4   5
ENDBRANCH   1   4
BRANCH   2  10
ATOM     10  C   UNL     1      88.965  38.527  28.097  1.00  0.00     0.035 C 
BRANCH  10  11
ATOM     11  C   UNL     1      89.010  39.115  26.684  1.00  0.00     0.079 C 
BRANCH  11  12
ATOM     12  C   UNL     1      90.188  40.039  26.527  1.00  0.00     0.130 C 
ATOM     13  O   UNL     1      90.008  41.180  26.127  1.00  0.00    -0.300 OA
ATOM     14  C   UNL     1      91.584  39.588  26.842  1.00  0.00     0.087 C 
ENDBRANCH  11  12
ENDBRANCH  10  11
ENDBRANCH   2  10
TORSDOF 6
ENDMDL
MODEL 5
REMARK VINA RESULT:    -5.405      2.554      4.514
REMARK INTER + INTRA:          -7.980
REMARK INTER:                  -7.314
REMARK INTRA:                  -0.667
REMARK UNBOUND:                -0.679
REMARK SMILES CC(=O)CCC=C(C)CCC=C(C)C
REMARK SMILES IDX 7 1 6 2 8 3 9 4 10 5 11 6 13 7 12 8 14 9 5 10 4 11 2 12 3 13
REMARK SMILES IDX 1 14
REMARK H PARENT
REMARK Flexibility Score: inf
ROOT
ATOM      1  C   UNL     1      87.370  37.101  24.241  1.00  0.00    -0.077 C 
ATOM      2  C   UNL     1      87.652  38.003  25.209  1.00  0.00    -0.028 C 
ATOM      3  C   UNL     1      85.929  36.903  23.847  1.00  0.00     0.039 C 
ENDROOT
BRANCH   1   4
ATOM      4  C   UNL     1      88.443  36.298  23.529  1.00  0.00     0.034 C 
BRANCH   4   5
ATOM      5  C   UNL     1      87.876  35.044  22.850  1.00  0.00     0.032 C 
BRANCH   5   6
ATOM      6  C   UNL     1      88.263  33.789  23.597  1.00  0.00    -0.028 C 
ATOM      7  C   UNL     1      85.902  33.192  24.184  1.00  0.00     0.039 C 
ATOM      8  C   UNL     1      87.394  32.965  24.223  1.00  0.00    -0.080 C 
ATOM      9  C   UNL     1      87.944  31.787  24.984  1.00  0.00     0.039 C 
ENDBRANCH   5   6
ENDBRANCH   4   5
ENDBRANCH   1   4
BRANCH   2  10
ATOM     10  C   UNL     1      89.046  38.281  25.717  1.00  0.00     0.035 C 
BRANCH  10  11
ATOM     11  C   UNL     1      89.108  39.621  26.457  1.00  0.00     0.079 C 
BRANCH  11  12
ATOM     12  C   UNL     1      90.505  40.182  26.428  1.00  0.00     0.130 C 
ATOM     13  O   UNL     1      90.702  41.276  25.921  1.00  0.00    -0.300 OA
ATOM     14  C   UNL     1      91.666  39.422  26.998  1.00  0.00     0.087 C 
ENDBRANCH  11  12
ENDBRANCH  10  11
ENDBRANCH   2  10
TORSDOF 6
ENDMDL
MODEL 6
REMARK VINA RESULT:    -5.376      2.300      5.463
REMARK INTER + INTRA:          -7.941
REMARK INTER:                  -7.423
REMARK INTRA:                  -0.517
REMARK UNBOUND:                -0.679
REMARK SMILES CC(=O)CCC=C(C)CCC=C(C)C
REMARK SMILES IDX 7 1 6 2 8 3 9 4 10 5 11 6 13 7 12 8 14 9 5 10 4 11 2 12 3 13
REMARK SMILES IDX 1 14
REMARK H PARENT
REMARK Flexibility Score: inf
ROOT
ATOM      1  C   UNL     1      89.581  38.954  26.879  1.00  0.00    -0.077 C 
ATOM      2  C   UNL     1      89.131  38.598  28.103  1.00  0.00    -0.028 C 
ATOM      3  C   UNL     1      91.043  39.286  26.723  1.00  0.00     0.039 C 
ENDROOT
BRANCH   1   4
ATOM      4  C   UNL     1      88.680  39.018  25.657  1.00  0.00     0.034 C 
BRANCH   4   5
ATOM      5  C   UNL     1      88.769  37.746  24.804  1.00  0.00     0.032 C 
BRANCH   5   6
ATOM      6  C   UNL     1      87.401  37.286  24.356  1.00  0.00    -0.028 C 
ATOM      7  C   UNL     1      88.285  35.341  23.046  1.00  0.00     0.039 C 
ATOM      8  C   UNL     1      87.170  36.228  23.546  1.00  0.00    -0.080 C 
ATOM      9  C   UNL     1      85.750  35.937  23.135  1.00  0.00     0.039 C 
ENDBRANCH   5   6
ENDBRANCH   4   5
ENDBRANCH   1   4
BRANCH   2  10
ATOM     10  C   UNL     1      87.689  38.267  28.403  1.00  0.00     0.035 C 
BRANCH  10  11
ATOM     11  C   UNL     1      87.127  39.181  29.497  1.00  0.00     0.079 C 
BRANCH  11  12
ATOM     12  C   UNL     1      85.866  38.602  30.080  1.00  0.00     0.130 C 
ATOM     13  O   UNL     1      85.657  37.402  29.988  1.00  0.00    -0.300 OA
ATOM     14  C   UNL     1      84.849  39.470  30.762  1.00  0.00     0.087 C 
ENDBRANCH  11  12
ENDBRANCH  10  11
ENDBRANCH   2  10
TORSDOF 6
ENDMDL
MODEL 7
REMARK VINA RESULT:    -5.344      2.543      4.315
REMARK INTER + INTRA:          -7.898
REMARK INTER:                  -7.401
REMARK INTRA:                  -0.497
REMARK UNBOUND:                -0.679
REMARK SMILES CC(=O)CCC=C(C)CCC=C(C)C
REMARK SMILES IDX 7 1 6 2 8 3 9 4 10 5 11 6 13 7 12 8 14 9 5 10 4 11 2 12 3 13
REMARK SMILES IDX 1 14
REMARK H PARENT
REMARK Flexibility Score: inf
ROOT
ATOM      1  C   UNL     1      88.705  38.668  26.218  1.00  0.00    -0.077 C 
ATOM      2  C   UNL     1      88.670  38.375  24.898  1.00  0.00    -0.028 C 
ATOM      3  C   UNL     1      89.625  39.769  26.681  1.00  0.00     0.039 C 
ENDROOT
BRANCH   1   4
ATOM      4  C   UNL     1      87.848  37.947  27.244  1.00  0.00     0.034 C 
BRANCH   4   5
ATOM      5  C   UNL     1      88.221  38.328  28.683  1.00  0.00     0.032 C 
BRANCH   5   6
ATOM      6  C   UNL     1      87.116  39.115  29.349  1.00  0.00    -0.028 C 
ATOM      7  C   UNL     1      85.869  37.075  30.098  1.00  0.00     0.039 C 
ATOM      8  C   UNL     1      86.043  38.569  29.963  1.00  0.00    -0.080 C 
ATOM      9  C   UNL     1      84.991  39.491  30.521  1.00  0.00     0.039 C 
ENDBRANCH   5   6
ENDBRANCH   4   5
ENDBRANCH   1   4
BRANCH   2  10
ATOM     10  C   UNL     1      87.816  37.281  24.304  1.00  0.00     0.035 C 
BRANCH  10  11
ATOM     11  C   UNL     1      88.680  36.198  23.650  1.00  0.00     0.079 C 
BRANCH  11  12
ATOM     12  C   UNL     1      87.820  35.189  22.937  1.00  0.00     0.130 C 
ATOM     13  O   UNL     1      88.328  34.442  22.114  1.00  0.00    -0.300 OA
ATOM     14  C   UNL     1      86.348  35.085  23.207  1.00  0.00     0.087 C 
ENDBRANCH  11  12
ENDBRANCH  10  11
ENDBRANCH   2  10
TORSDOF 6
ENDMDL
MODEL 8
REMARK VINA RESULT:    -5.192      2.482      4.284
REMARK INTER + INTRA:          -7.693
REMARK INTER:                  -6.824
REMARK INTRA:                  -0.869
REMARK UNBOUND:                -0.679
REMARK SMILES CC(=O)CCC=C(C)CCC=C(C)C
REMARK SMILES IDX 7 1 6 2 8 3 9 4 10 5 11 6 13 7 12 8 14 9 5 10 4 11 2 12 3 13
REMARK SMILES IDX 1 14
REMARK H PARENT
REMARK Flexibility Score: inf
ROOT
ATOM      1  C   UNL     1      89.137  39.139  26.365  1.00  0.00    -0.077 C 
ATOM      2  C   UNL     1      88.535  38.637  25.263  1.00  0.00    -0.028 C 
ATOM      3  C   UNL     1      89.891  40.438  26.240  1.00  0.00     0.039 C 
ENDROOT
BRANCH   1   4
ATOM      4  C   UNL     1      89.069  38.458  27.721  1.00  0.00     0.034 C 
BRANCH   4   5
ATOM      5  C   UNL     1      87.910  38.983  28.578  1.00  0.00     0.032 C 
BRANCH   5   6
ATOM      6  C   UNL     1      87.079  37.851  29.137  1.00  0.00    -0.028 C 
ATOM      7  C   UNL     1      85.544  39.366  30.412  1.00  0.00     0.039 C 
ATOM      8  C   UNL     1      86.034  38.005  29.980  1.00  0.00    -0.080 C 
ATOM      9  C   UNL     1      85.348  36.770  30.503  1.00  0.00     0.039 C 
ENDBRANCH   5   6
ENDBRANCH   4   5
ENDBRANCH   1   4
BRANCH   2  10
ATOM     10  C   UNL     1      87.772  37.335  25.243  1.00  0.00     0.035 C 
BRANCH  10  11
ATOM     11  C   UNL     1      86.708  37.335  24.140  1.00  0.00     0.079 C 
BRANCH  11  12
ATOM     12  C   UNL     1      85.338  37.566  24.720  1.00  0.00     0.130 C 
ATOM     13  O   UNL     1      84.480  38.107  24.039  1.00  0.00    -0.300 OA
ATOM     14  C   UNL     1      85.004  37.157  26.125  1.00  0.00     0.087 C 
ENDBRANCH  11  12
ENDBRANCH  10  11
ENDBRANCH   2  10
TORSDOF 6
ENDMDL
MODEL 9
REMARK VINA RESULT:    -5.164      3.328      6.487
REMARK INTER + INTRA:          -7.655
REMARK INTER:                  -7.078
REMARK INTRA:                  -0.577
REMARK UNBOUND:                -0.679
REMARK SMILES CC(=O)CCC=C(C)CCC=C(C)C
REMARK SMILES IDX 7 1 6 2 8 3 9 4 10 5 11 6 13 7 12 8 14 9 5 10 4 11 2 12 3 13
REMARK SMILES IDX 1 14
REMARK H PARENT
REMARK Flexibility Score: inf
ROOT
ATOM      1  C   UNL     1      86.151  38.099  30.028  1.00  0.00    -0.077 C 
ATOM      2  C   UNL     1      85.192  37.477  30.750  1.00  0.00    -0.028 C 
ATOM      3  C   UNL     1      86.131  39.604  29.960  1.00  0.00     0.039 C 
ENDROOT
BRANCH   1   4
ATOM      4  C   UNL     1      87.251  37.345  29.301  1.00  0.00     0.034 C 
BRANCH   4   5
ATOM      5  C   UNL     1      87.481  37.880  27.881  1.00  0.00     0.032 C 
BRANCH   5   6
ATOM      6  C   UNL     1      88.792  38.625  27.778  1.00  0.00    -0.028 C 
ATOM      7  C   UNL     1      88.808  38.613  25.272  1.00  0.00     0.039 C 
ATOM      8  C   UNL     1      89.412  38.936  26.618  1.00  0.00    -0.080 C 
ATOM      9  C   UNL     1      90.751  39.625  26.683  1.00  0.00     0.039 C 
ENDBRANCH   5   6
ENDBRANCH   4   5
ENDBRANCH   1   4
BRANCH   2  10
ATOM     10  C   UNL     1      85.079  35.977  30.881  1.00  0.00     0.035 C 
BRANCH  10  11
ATOM     11  C   UNL     1      85.659  35.493  32.214  1.00  0.00     0.079 C 
BRANCH  11  12
ATOM     12  C   UNL     1      86.878  34.639  31.987  1.00  0.00     0.130 C 
ATOM     13  O   UNL     1      87.113  34.214  30.866  1.00  0.00    -0.300 OA
ATOM     14  C   UNL     1      87.808  34.288  33.111  1.00  0.00     0.087 C 
ENDBRANCH  11  12
ENDBRANCH  10  11
ENDBRANCH   2  10
TORSDOF 6
ENDMDL
