MODEL 1
REMARK VINA RESULT:    -5.154      0.000      0.000
REMARK INTER + INTRA:          -5.606
REMARK INTER:                  -5.606
REMARK INTRA:                   0.000
REMARK UNBOUND:                 0.000
REMARK SMILES Cc1cc(O)c2c(c1)C(=O)c1cc(O)cc(O)c1C2=O
REMARK SMILES IDX 1 1 2 2 8 3 7 4 6 5 4 6 3 7 19 8 20 9 18 10 11 11 9 12 10 13
REMARK SMILES IDX 12 14 13 15 15 16 16 17 5 18 17 20 14 22
REMARK H PARENT 5 19 17 21 14 23
REMARK Flexibility Score: inf
ROOT
ATOM      1  C   UNL     1      37.102  15.666 215.029  1.00  0.00     0.044 C 
ATOM      2  C   UNL     1      37.914  16.305 213.940  1.00  0.00    -0.047 A 
ATOM      3  C   UNL     1      38.990  15.617 213.368  1.00  0.00     0.016 A 
ATOM      4  C   UNL     1      39.739  16.196 212.330  1.00  0.00     0.038 A 
ATOM      5  C   UNL     1      39.405  17.484 211.856  1.00  0.00     0.076 A 
ATOM      6  C   UNL     1      38.263  18.140 212.381  1.00  0.00     0.127 A 
ATOM      7  C   UNL     1      37.545  17.553 213.428  1.00  0.00     0.050 A 
ATOM      8  C   UNL     1      40.308  18.122 210.862  1.00  0.00     0.201 C 
ATOM      9  O   UNL     1      40.421  19.376 210.833  1.00  0.00    -0.288 OA
ATOM     10  C   UNL     1      41.212  17.279 210.038  1.00  0.00     0.076 A 
ATOM     11  C   UNL     1      41.542  15.989 210.514  1.00  0.00     0.041 A 
ATOM     12  C   UNL     1      40.873  15.457 211.726  1.00  0.00     0.194 C 
ATOM     13  O   UNL     1      41.253  14.362 212.226  1.00  0.00    -0.289 OA
ATOM     14  C   UNL     1      42.499  15.217 209.835  1.00  0.00     0.059 A 
ATOM     15  C   UNL     1      43.117  15.708 208.681  1.00  0.00     0.120 A 
ATOM     16  C   UNL     1      42.765  16.962 208.186  1.00  0.00     0.093 A 
ATOM     17  C   UNL     1      41.800  17.742 208.832  1.00  0.00     0.131 A 
ENDROOT
BRANCH   6  18
ATOM     18  O   UNL     1      37.786  19.349 211.871  1.00  0.00    -0.507 OA
ATOM     19  H   UNL     1      38.265  19.883 211.158  1.00  0.00     0.293 HD
ENDBRANCH   6  18
BRANCH  17  20
ATOM     20  O   UNL     1      41.434  18.947 208.226  1.00  0.00    -0.507 OA
ATOM     21  H   UNL     1      41.293  19.051 207.232  1.00  0.00     0.293 HD
ENDBRANCH  17  20
BRANCH  15  22
ATOM     22  O   UNL     1      44.075  14.949 208.013  1.00  0.00    -0.508 OA
ATOM     23  H   UNL     1      43.815  14.235 207.343  1.00  0.00     0.293 HD
ENDBRANCH  15  22
TORSDOF 3
ENDMDL
MODEL 2
REMARK VINA RESULT:    -5.136      5.335      6.988
REMARK INTER + INTRA:          -5.586
REMARK INTER:                  -5.586
REMARK INTRA:                   0.000
REMARK UNBOUND:                 0.000
REMARK SMILES Cc1cc(O)c2c(c1)C(=O)c1cc(O)cc(O)c1C2=O
REMARK SMILES IDX 1 1 2 2 8 3 7 4 6 5 4 6 3 7 19 8 20 9 18 10 11 11 9 12 10 13
REMARK SMILES IDX 12 14 13 15 15 16 16 17 5 18 17 20 14 22
REMARK H PARENT 5 19 17 21 14 23
REMARK Flexibility Score: inf
ROOT
ATOM      1  C   UNL     1      45.320  18.392 219.315  1.00  0.00     0.044 C 
ATOM      2  C   UNL     1      43.924  18.420 218.765  1.00  0.00    -0.047 A 
ATOM      3  C   UNL     1      43.635  17.799 217.545  1.00  0.00     0.016 A 
ATOM      4  C   UNL     1      42.326  17.796 217.035  1.00  0.00     0.038 A 
ATOM      5  C   UNL     1      41.288  18.424 217.758  1.00  0.00     0.076 A 
ATOM      6  C   UNL     1      41.571  18.977 219.034  1.00  0.00     0.127 A 
ATOM      7  C   UNL     1      42.884  18.987 219.510  1.00  0.00     0.050 A 
ATOM      8  C   UNL     1      39.950  18.528 217.120  1.00  0.00     0.201 C 
ATOM      9  O   UNL     1      39.198  19.500 217.397  1.00  0.00    -0.288 OA
ATOM     10  C   UNL     1      39.582  17.597 216.022  1.00  0.00     0.076 A 
ATOM     11  C   UNL     1      40.623  16.968 215.301  1.00  0.00     0.041 A 
ATOM     12  C   UNL     1      42.028  17.129 215.745  1.00  0.00     0.194 C 
ATOM     13  O   UNL     1      42.969  16.675 215.036  1.00  0.00    -0.289 OA
ATOM     14  C   UNL     1      40.320  16.191 214.171  1.00  0.00     0.059 A 
ATOM     15  C   UNL     1      38.994  16.020 213.763  1.00  0.00     0.120 A 
ATOM     16  C   UNL     1      37.963  16.606 214.494  1.00  0.00     0.093 A 
ATOM     17  C   UNL     1      38.235  17.368 215.635  1.00  0.00     0.131 A 
ENDROOT
BRANCH   6  18
ATOM     18  O   UNL     1      40.577  19.491 219.870  1.00  0.00    -0.507 OA
ATOM     19  H   UNL     1      39.971  18.913 220.437  1.00  0.00     0.293 HD
ENDBRANCH   6  18
BRANCH  17  20
ATOM     20  O   UNL     1      37.146  17.846 216.367  1.00  0.00    -0.507 OA
ATOM     21  H   UNL     1      37.199  18.634 216.996  1.00  0.00     0.293 HD
ENDBRANCH  17  20
BRANCH  15  22
ATOM     22  O   UNL     1      38.692  15.260 212.635  1.00  0.00    -0.508 OA
ATOM     23  H   UNL     1      37.880  15.459 212.062  1.00  0.00     0.293 HD
ENDBRANCH  15  22
TORSDOF 3
ENDMDL
MODEL 3
REMARK VINA RESULT:    -5.007     12.117     13.011
REMARK INTER + INTRA:          -5.446
REMARK INTER:                  -5.446
REMARK INTRA:                   0.000
REMARK UNBOUND:                 0.000
REMARK SMILES Cc1cc(O)c2c(c1)C(=O)c1cc(O)cc(O)c1C2=O
REMARK SMILES IDX 1 1 2 2 8 3 7 4 6 5 4 6 3 7 19 8 20 9 18 10 11 11 9 12 10 13
REMARK SMILES IDX 12 14 13 15 15 16 16 17 5 18 17 20 14 22
REMARK H PARENT 5 19 17 21 14 23
REMARK Flexibility Score: inf
ROOT
ATOM      1  C   UNL     1      50.893  15.997 224.938  1.00  0.00     0.044 C 
ATOM      2  C   UNL     1      50.321  16.683 223.732  1.00  0.00    -0.047 A 
ATOM      3  C   UNL     1      49.267  16.097 223.023  1.00  0.00     0.016 A 
ATOM      4  C   UNL     1      48.706  16.744 221.909  1.00  0.00     0.038 A 
ATOM      5  C   UNL     1      49.209  17.998 221.498  1.00  0.00     0.076 A 
ATOM      6  C   UNL     1      50.220  18.626 222.271  1.00  0.00     0.127 A 
ATOM      7  C   UNL     1      50.776  17.953 223.363  1.00  0.00     0.050 A 
ATOM      8  C   UNL     1      48.692  18.582 220.233  1.00  0.00     0.201 C 
ATOM      9  O   UNL     1      49.434  19.326 219.537  1.00  0.00    -0.288 OA
ATOM     10  C   UNL     1      47.379  18.139 219.697  1.00  0.00     0.076 A 
ATOM     11  C   UNL     1      46.878  16.883 220.112  1.00  0.00     0.041 A 
ATOM     12  C   UNL     1      47.585  16.119 221.168  1.00  0.00     0.194 C 
ATOM     13  O   UNL     1      47.215  14.946 221.452  1.00  0.00    -0.289 OA
ATOM     14  C   UNL     1      45.710  16.368 219.525  1.00  0.00     0.059 A 
ATOM     15  C   UNL     1      45.030  17.096 218.544  1.00  0.00     0.120 A 
ATOM     16  C   UNL     1      45.499  18.350 218.161  1.00  0.00     0.093 A 
ATOM     17  C   UNL     1      46.648  18.895 218.745  1.00  0.00     0.131 A 
ENDROOT
BRANCH   6  18
ATOM     18  O   UNL     1      50.671  19.922 222.014  1.00  0.00    -0.507 OA
ATOM     19  H   UNL     1      51.179  20.182 221.180  1.00  0.00     0.293 HD
ENDBRANCH   6  18
BRANCH  17  20
ATOM     20  O   UNL     1      47.004  20.195 218.377  1.00  0.00    -0.507 OA
ATOM     21  H   UNL     1      46.374  20.982 218.430  1.00  0.00     0.293 HD
ENDBRANCH  17  20
BRANCH  15  22
ATOM     22  O   UNL     1      43.879  16.581 217.951  1.00  0.00    -0.508 OA
ATOM     23  H   UNL     1      43.536  16.933 217.065  1.00  0.00     0.293 HD
ENDBRANCH  15  22
TORSDOF 3
ENDMDL
MODEL 4
REMARK VINA RESULT:    -4.933      5.229      7.933
REMARK INTER + INTRA:          -5.366
REMARK INTER:                  -5.366
REMARK INTRA:                   0.000
REMARK UNBOUND:                 0.000
REMARK SMILES Cc1cc(O)c2c(c1)C(=O)c1cc(O)cc(O)c1C2=O
REMARK SMILES IDX 1 1 2 2 8 3 7 4 6 5 4 6 3 7 19 8 20 9 18 10 11 11 9 12 10 13
REMARK SMILES IDX 12 14 13 15 15 16 16 17 5 18 17 20 14 22
REMARK H PARENT 5 19 17 21 14 23
REMARK Flexibility Score: inf
ROOT
ATOM      1  C   UNL     1      38.800  15.955 212.214  1.00  0.00     0.044 C 
ATOM      2  C   UNL     1      39.645  16.317 213.401  1.00  0.00    -0.047 A 
ATOM      3  C   UNL     1      39.355  17.464 214.148  1.00  0.00     0.016 A 
ATOM      4  C   UNL     1      40.122  17.797 215.277  1.00  0.00     0.038 A 
ATOM      5  C   UNL     1      41.197  16.967 215.665  1.00  0.00     0.076 A 
ATOM      6  C   UNL     1      41.434  15.762 214.954  1.00  0.00     0.127 A 
ATOM      7  C   UNL     1      40.670  15.464 213.822  1.00  0.00     0.050 A 
ATOM      8  C   UNL     1      42.076  17.427 216.772  1.00  0.00     0.201 C 
ATOM      9  O   UNL     1      43.290  17.091 216.790  1.00  0.00    -0.288 OA
ATOM     10  C   UNL     1      41.572  18.430 217.745  1.00  0.00     0.076 A 
ATOM     11  C   UNL     1      40.493  19.258 217.355  1.00  0.00     0.041 A 
ATOM     12  C   UNL     1      39.803  19.009 216.066  1.00  0.00     0.194 C 
ATOM     13  O   UNL     1      38.925  19.818 215.656  1.00  0.00    -0.289 OA
ATOM     14  C   UNL     1      40.079  20.307 218.191  1.00  0.00     0.059 A 
ATOM     15  C   UNL     1      40.715  20.531 219.416  1.00  0.00     0.120 A 
ATOM     16  C   UNL     1      41.752  19.693 219.822  1.00  0.00     0.093 A 
ATOM     17  C   UNL     1      42.170  18.628 219.017  1.00  0.00     0.131 A 
ENDROOT
BRANCH   6  18
ATOM     18  O   UNL     1      42.385  14.822 215.357  1.00  0.00    -0.507 OA
ATOM     19  H   UNL     1      42.150  13.892 215.675  1.00  0.00     0.293 HD
ENDBRANCH   6  18
BRANCH  17  20
ATOM     20  O   UNL     1      43.151  17.778 219.532  1.00  0.00    -0.507 OA
ATOM     21  H   UNL     1      43.374  16.877 219.133  1.00  0.00     0.293 HD
ENDBRANCH  17  20
BRANCH  15  22
ATOM     22  O   UNL     1      40.314  21.579 220.242  1.00  0.00    -0.508 OA
ATOM     23  H   UNL     1      39.336  21.806 220.375  1.00  0.00     0.293 HD
ENDBRANCH  15  22
TORSDOF 3
ENDMDL
MODEL 5
REMARK VINA RESULT:    -4.932      1.578      5.556
REMARK INTER + INTRA:          -5.364
REMARK INTER:                  -5.364
REMARK INTRA:                   0.000
REMARK UNBOUND:                 0.000
REMARK SMILES Cc1cc(O)c2c(c1)C(=O)c1cc(O)cc(O)c1C2=O
REMARK SMILES IDX 1 1 2 2 8 3 7 4 6 5 4 6 3 7 19 8 20 9 18 10 11 11 9 12 10 13
REMARK SMILES IDX 12 14 13 15 15 16 16 17 5 18 17 20 14 22
REMARK H PARENT 5 19 17 21 14 23
REMARK Flexibility Score: inf
ROOT
ATOM      1  C   UNL     1      44.208  16.428 208.967  1.00  0.00     0.044 C 
ATOM      2  C   UNL     1      42.914  16.916 209.551  1.00  0.00    -0.047 A 
ATOM      3  C   UNL     1      42.229  16.140 210.492  1.00  0.00     0.016 A 
ATOM      4  C   UNL     1      41.031  16.601 211.065  1.00  0.00     0.038 A 
ATOM      5  C   UNL     1      40.512  17.859 210.690  1.00  0.00     0.076 A 
ATOM      6  C   UNL     1      41.254  18.678 209.800  1.00  0.00     0.127 A 
ATOM      7  C   UNL     1      42.432  18.189 209.228  1.00  0.00     0.050 A 
ATOM      8  C   UNL     1      39.172  18.247 211.204  1.00  0.00     0.201 C 
ATOM      9  O   UNL     1      38.432  19.002 210.518  1.00  0.00    -0.288 OA
ATOM     10  C   UNL     1      38.634  17.598 212.427  1.00  0.00     0.076 A 
ATOM     11  C   UNL     1      39.158  16.339 212.801  1.00  0.00     0.041 A 
ATOM     12  C   UNL     1      40.316  15.775 212.066  1.00  0.00     0.194 C 
ATOM     13  O   UNL     1      40.708  14.600 212.313  1.00  0.00    -0.289 OA
ATOM     14  C   UNL     1      38.583  15.631 213.869  1.00  0.00     0.059 A 
ATOM     15  C   UNL     1      37.504  16.170 214.577  1.00  0.00     0.120 A 
ATOM     16  C   UNL     1      37.010  17.427 214.237  1.00  0.00     0.093 A 
ATOM     17  C   UNL     1      37.579  18.162 213.191  1.00  0.00     0.131 A 
ENDROOT
BRANCH   6  18
ATOM     18  O   UNL     1      40.880  19.987 209.489  1.00  0.00    -0.507 OA
ATOM     19  H   UNL     1      40.576  20.277 208.570  1.00  0.00     0.293 HD
ENDBRANCH   6  18
BRANCH  17  20
ATOM     20  O   UNL     1      37.091  19.452 212.969  1.00  0.00    -0.507 OA
ATOM     21  H   UNL     1      37.489  20.279 213.389  1.00  0.00     0.293 HD
ENDBRANCH  17  20
BRANCH  15  22
ATOM     22  O   UNL     1      36.923  15.464 215.629  1.00  0.00    -0.508 OA
ATOM     23  H   UNL     1      36.663  14.490 215.534  1.00  0.00     0.293 HD
ENDBRANCH  15  22
TORSDOF 3
ENDMDL
MODEL 6
REMARK VINA RESULT:    -4.867      2.719      5.964
REMARK INTER + INTRA:          -5.294
REMARK INTER:                  -5.294
REMARK INTRA:                   0.000
REMARK UNBOUND:                 0.000
REMARK SMILES Cc1cc(O)c2c(c1)C(=O)c1cc(O)cc(O)c1C2=O
REMARK SMILES IDX 1 1 2 2 8 3 7 4 6 5 4 6 3 7 19 8 20 9 18 10 11 11 9 12 10 13
REMARK SMILES IDX 12 14 13 15 15 16 16 17 5 18 17 20 14 22
REMARK H PARENT 5 19 17 21 14 23
REMARK Flexibility Score: inf
ROOT
ATOM      1  C   UNL     1      42.758  15.176 207.940  1.00  0.00     0.044 C 
ATOM      2  C   UNL     1      42.575  15.936 209.221  1.00  0.00    -0.047 A 
ATOM      3  C   UNL     1      41.476  15.674 210.046  1.00  0.00     0.016 A 
ATOM      4  C   UNL     1      41.311  16.361 211.260  1.00  0.00     0.038 A 
ATOM      5  C   UNL     1      42.262  17.326 211.656  1.00  0.00     0.076 A 
ATOM      6  C   UNL     1      43.418  17.527 210.858  1.00  0.00     0.127 A 
ATOM      7  C   UNL     1      43.550  16.847 209.644  1.00  0.00     0.050 A 
ATOM      8  C   UNL     1      41.979  18.136 212.870  1.00  0.00     0.201 C 
ATOM      9  O   UNL     1      42.422  19.312 212.957  1.00  0.00    -0.288 OA
ATOM     10  C   UNL     1      41.022  17.629 213.888  1.00  0.00     0.076 A 
ATOM     11  C   UNL     1      40.072  16.661 213.488  1.00  0.00     0.041 A 
ATOM     12  C   UNL     1      40.146  16.072 212.130  1.00  0.00     0.194 C 
ATOM     13  O   UNL     1      39.230  15.303 211.725  1.00  0.00    -0.289 OA
ATOM     14  C   UNL     1      39.065  16.260 214.382  1.00  0.00     0.059 A 
ATOM     15  C   UNL     1      39.005  16.798 215.671  1.00  0.00     0.120 A 
ATOM     16  C   UNL     1      39.963  17.723 216.081  1.00  0.00     0.093 A 
ATOM     17  C   UNL     1      40.988  18.124 215.218  1.00  0.00     0.131 A 
ENDROOT
BRANCH   6  18
ATOM     18  O   UNL     1      44.470  18.358 211.249  1.00  0.00    -0.507 OA
ATOM     19  H   UNL     1      45.408  18.026 211.425  1.00  0.00     0.293 HD
ENDBRANCH   6  18
BRANCH  17  20
ATOM     20  O   UNL     1      41.963  18.983 215.730  1.00  0.00    -0.507 OA
ATOM     21  H   UNL     1      42.928  18.716 215.861  1.00  0.00     0.293 HD
ENDBRANCH  17  20
BRANCH  15  22
ATOM     22  O   UNL     1      38.000  16.411 216.554  1.00  0.00    -0.508 OA
ATOM     23  H   UNL     1      37.471  17.091 217.087  1.00  0.00     0.293 HD
ENDBRANCH  15  22
TORSDOF 3
ENDMDL
MODEL 7
REMARK VINA RESULT:    -4.819      5.143      6.599
REMARK INTER + INTRA:          -5.242
REMARK INTER:                  -5.242
REMARK INTRA:                   0.000
REMARK UNBOUND:                 0.000
REMARK SMILES Cc1cc(O)c2c(c1)C(=O)c1cc(O)cc(O)c1C2=O
REMARK SMILES IDX 1 1 2 2 8 3 7 4 6 5 4 6 3 7 19 8 20 9 18 10 11 11 9 12 10 13
REMARK SMILES IDX 12 14 13 15 15 16 16 17 5 18 17 20 14 22
REMARK H PARENT 5 19 17 21 14 23
REMARK Flexibility Score: inf
ROOT
ATOM      1  C   UNL     1      38.662  15.989 211.973  1.00  0.00     0.044 C 
ATOM      2  C   UNL     1      39.185  16.640 213.220  1.00  0.00    -0.047 A 
ATOM      3  C   UNL     1      40.305  16.114 213.873  1.00  0.00     0.016 A 
ATOM      4  C   UNL     1      40.819  16.732 215.025  1.00  0.00     0.038 A 
ATOM      5  C   UNL     1      40.203  17.897 215.532  1.00  0.00     0.076 A 
ATOM      6  C   UNL     1      39.121  18.474 214.819  1.00  0.00     0.127 A 
ATOM      7  C   UNL     1      38.614  17.829 213.687  1.00  0.00     0.050 A 
ATOM      8  C   UNL     1      40.682  18.437 216.831  1.00  0.00     0.201 C 
ATOM      9  O   UNL     1      39.883  19.051 217.587  1.00  0.00    -0.288 OA
ATOM     10  C   UNL     1      42.042  18.090 217.317  1.00  0.00     0.076 A 
ATOM     11  C   UNL     1      42.658  16.924 216.806  1.00  0.00     0.041 A 
ATOM     12  C   UNL     1      42.011  16.171 215.705  1.00  0.00     0.194 C 
ATOM     13  O   UNL     1      42.490  15.065 215.331  1.00  0.00    -0.289 OA
ATOM     14  C   UNL     1      43.882  16.488 217.341  1.00  0.00     0.059 A 
ATOM     15  C   UNL     1      44.505  17.207 218.365  1.00  0.00     0.120 A 
ATOM     16  C   UNL     1      43.921  18.378 218.844  1.00  0.00     0.093 A 
ATOM     17  C   UNL     1      42.713  18.846 218.315  1.00  0.00     0.131 A 
ENDROOT
BRANCH   6  18
ATOM     18  O   UNL     1      38.548  19.696 215.175  1.00  0.00    -0.507 OA
ATOM     19  H   UNL     1      38.222  20.378 214.503  1.00  0.00     0.293 HD
ENDBRANCH   6  18
BRANCH  17  20
ATOM     20  O   UNL     1      42.237  20.073 218.781  1.00  0.00    -0.507 OA
ATOM     21  H   UNL     1      41.318  20.434 218.565  1.00  0.00     0.293 HD
ENDBRANCH  17  20
BRANCH  15  22
ATOM     22  O   UNL     1      45.712  16.770 218.905  1.00  0.00    -0.508 OA
ATOM     23  H   UNL     1      46.603  17.085 218.539  1.00  0.00     0.293 HD
ENDBRANCH  15  22
TORSDOF 3
ENDMDL
MODEL 8
REMARK VINA RESULT:    -4.793      4.823      8.321
REMARK INTER + INTRA:          -5.213
REMARK INTER:                  -5.213
REMARK INTRA:                   0.000
REMARK UNBOUND:                 0.000
REMARK SMILES Cc1cc(O)c2c(c1)C(=O)c1cc(O)cc(O)c1C2=O
REMARK SMILES IDX 1 1 2 2 8 3 7 4 6 5 4 6 3 7 19 8 20 9 18 10 11 11 9 12 10 13
REMARK SMILES IDX 12 14 13 15 15 16 16 17 5 18 17 20 14 22
REMARK H PARENT 5 19 17 21 14 23
REMARK Flexibility Score: inf
ROOT
ATOM      1  C   UNL     1      39.001  15.411 212.351  1.00  0.00     0.044 C 
ATOM      2  C   UNL     1      39.316  16.198 213.591  1.00  0.00    -0.047 A 
ATOM      3  C   UNL     1      38.370  17.080 214.124  1.00  0.00     0.016 A 
ATOM      4  C   UNL     1      38.645  17.800 215.299  1.00  0.00     0.038 A 
ATOM      5  C   UNL     1      39.886  17.633 215.951  1.00  0.00     0.076 A 
ATOM      6  C   UNL     1      40.806  16.675 215.454  1.00  0.00     0.127 A 
ATOM      7  C   UNL     1      40.520  15.986 214.272  1.00  0.00     0.050 A 
ATOM      8  C   UNL     1      40.198  18.517 217.105  1.00  0.00     0.201 C 
ATOM      9  O   UNL     1      41.394  18.830 217.349  1.00  0.00    -0.288 OA
ATOM     10  C   UNL     1      39.094  19.178 217.847  1.00  0.00     0.076 A 
ATOM     11  C   UNL     1      37.852  19.342 217.192  1.00  0.00     0.041 A 
ATOM     12  C   UNL     1      37.634  18.727 215.860  1.00  0.00     0.194 C 
ATOM     13  O   UNL     1      36.575  18.973 215.218  1.00  0.00    -0.289 OA
ATOM     14  C   UNL     1      36.829  20.082 217.807  1.00  0.00     0.059 A 
ATOM     15  C   UNL     1      37.024  20.646 219.071  1.00  0.00     0.120 A 
ATOM     16  C   UNL     1      38.233  20.454 219.737  1.00  0.00     0.093 A 
ATOM     17  C   UNL     1      39.260  19.704 219.155  1.00  0.00     0.131 A 
ENDROOT
BRANCH   6  18
ATOM     18  O   UNL     1      41.992  16.351 216.117  1.00  0.00    -0.507 OA
ATOM     19  H   UNL     1      42.801  16.956 216.142  1.00  0.00     0.293 HD
ENDBRANCH   6  18
BRANCH  17  20
ATOM     20  O   UNL     1      40.407  19.477 219.921  1.00  0.00    -0.507 OA
ATOM     21  H   UNL     1      40.459  19.656 220.913  1.00  0.00     0.293 HD
ENDBRANCH  17  20
BRANCH  15  22
ATOM     22  O   UNL     1      36.015  21.392 219.678  1.00  0.00    -0.508 OA
ATOM     23  H   UNL     1      36.148  22.367 219.918  1.00  0.00     0.293 HD
ENDBRANCH  15  22
TORSDOF 3
ENDMDL
MODEL 9
REMARK VINA RESULT:    -4.712      2.093      6.584
REMARK INTER + INTRA:          -5.125
REMARK INTER:                  -5.125
REMARK INTRA:                   0.000
REMARK UNBOUND:                 0.000
REMARK SMILES Cc1cc(O)c2c(c1)C(=O)c1cc(O)cc(O)c1C2=O
REMARK SMILES IDX 1 1 2 2 8 3 7 4 6 5 4 6 3 7 19 8 20 9 18 10 11 11 9 12 10 13
REMARK SMILES IDX 12 14 13 15 15 16 16 17 5 18 17 20 14 22
REMARK H PARENT 5 19 17 21 14 23
REMARK Flexibility Score: inf
ROOT
ATOM      1  C   UNL     1      42.390  16.885 208.522  1.00  0.00     0.044 C 
ATOM      2  C   UNL     1      41.796  16.741 209.893  1.00  0.00    -0.047 A 
ATOM      3  C   UNL     1      41.079  17.797 210.464  1.00  0.00     0.016 A 
ATOM      4  C   UNL     1      40.495  17.662 211.735  1.00  0.00     0.038 A 
ATOM      5  C   UNL     1      40.630  16.449 212.445  1.00  0.00     0.076 A 
ATOM      6  C   UNL     1      41.285  15.354 211.826  1.00  0.00     0.127 A 
ATOM      7  C   UNL     1      41.876  15.519 210.570  1.00  0.00     0.050 A 
ATOM      8  C   UNL     1      40.127  16.393 213.843  1.00  0.00     0.201 C 
ATOM      9  O   UNL     1      40.684  15.634 214.679  1.00  0.00    -0.288 OA
ATOM     10  C   UNL     1      39.100  17.366 214.297  1.00  0.00     0.076 A 
ATOM     11  C   UNL     1      38.966  18.579 213.582  1.00  0.00     0.041 A 
ATOM     12  C   UNL     1      39.731  18.785 212.330  1.00  0.00     0.194 C 
ATOM     13  O   UNL     1      39.711  19.910 211.757  1.00  0.00    -0.289 OA
ATOM     14  C   UNL     1      38.104  19.580 214.060  1.00  0.00     0.059 A 
ATOM     15  C   UNL     1      37.365  19.380 215.230  1.00  0.00     0.120 A 
ATOM     16  C   UNL     1      37.465  18.171 215.915  1.00  0.00     0.093 A 
ATOM     17  C   UNL     1      38.300  17.150 215.449  1.00  0.00     0.131 A 
ENDROOT
BRANCH   6  18
ATOM     18  O   UNL     1      41.339  14.083 212.402  1.00  0.00    -0.507 OA
ATOM     19  H   UNL     1      40.539  13.470 212.479  1.00  0.00     0.293 HD
ENDBRANCH   6  18
BRANCH  17  20
ATOM     20  O   UNL     1      38.278  15.934 216.137  1.00  0.00    -0.507 OA
ATOM     21  H   UNL     1      39.107  15.474 216.484  1.00  0.00     0.293 HD
ENDBRANCH  17  20
BRANCH  15  22
ATOM     22  O   UNL     1      36.519  20.376 215.713  1.00  0.00    -0.508 OA
ATOM     23  H   UNL     1      35.973  20.957 215.089  1.00  0.00     0.293 HD
ENDBRANCH  15  22
TORSDOF 3
ENDMDL
