MODEL 1
REMARK VINA RESULT:    -5.930      0.000      0.000
REMARK INTER + INTRA:         -12.346
REMARK INTER:                 -11.131
REMARK INTRA:                  -1.215
REMARK UNBOUND:                -1.215
REMARK SMILES O=C([O-])CCCCCCCCCCCCCCC(=O)[O-]
REMARK SMILES IDX 10 1 9 2 8 3 7 4 6 5 5 6 4 7 2 8 1 9 3 10 11 11 12 12 13 13
REMARK SMILES IDX 14 14 15 15 16 16 17 17 18 18 19 19 20 20
REMARK H PARENT
REMARK Flexibility Score: inf
ROOT
ATOM      1  C   UNL     1      50.348 -46.131 164.981  1.00  0.00     0.000 C 
ENDROOT
BRANCH   1   2
ATOM      2  C   UNL     1      50.420 -47.659 165.125  1.00  0.00     0.000 C 
BRANCH   2   3
ATOM      3  C   UNL     1      51.711 -48.080 165.845  1.00  0.00     0.000 C 
BRANCH   3   4
ATOM      4  C   UNL     1      52.629 -46.888 166.159  1.00  0.00     0.000 C 
BRANCH   4   5
ATOM      5  C   UNL     1      54.076 -47.117 165.694  1.00  0.00     0.000 C 
BRANCH   5   6
ATOM      6  C   UNL     1      54.788 -45.783 165.437  1.00  0.00     0.006 C 
BRANCH   6   7
ATOM      7  C   UNL     1      53.933 -44.605 165.911  1.00  0.00     0.053 C 
BRANCH   7   8
ATOM      8  C   UNL     1      53.989 -43.483 164.922  1.00  0.00     0.041 C 
ATOM      9  O   UNL     1      54.705 -43.584 163.891  1.00  0.00    -0.550 OA
ATOM     10  O   UNL     1      53.215 -42.346 165.116  1.00  0.00    -0.550 OA
ENDBRANCH   7   8
ENDBRANCH   6   7
ENDBRANCH   5   6
ENDBRANCH   4   5
ENDBRANCH   3   4
ENDBRANCH   2   3
ENDBRANCH   1   2
BRANCH   1  11
ATOM     11  C   UNL     1      49.014 -45.653 164.384  1.00  0.00     0.000 C 
BRANCH  11  12
ATOM     12  C   UNL     1      47.833 -46.556 164.779  1.00  0.00     0.000 C 
BRANCH  12  13
ATOM     13  C   UNL     1      46.787 -45.820 165.634  1.00  0.00     0.000 C 
BRANCH  13  14
ATOM     14  C   UNL     1      45.367 -45.932 165.054  1.00  0.00     0.000 C 
BRANCH  14  15
ATOM     15  C   UNL     1      45.357 -46.147 163.529  1.00  0.00     0.000 C 
BRANCH  15  16
ATOM     16  C   UNL     1      44.362 -47.209 163.026  1.00  0.00     0.006 C 
BRANCH  16  17
ATOM     17  C   UNL     1      45.033 -48.312 162.196  1.00  0.00     0.053 C 
BRANCH  17  18
ATOM     18  C   UNL     1      45.831 -49.218 163.079  1.00  0.00     0.041 C 
ATOM     19  O   UNL     1      45.400 -49.533 164.218  1.00  0.00    -0.550 OA
ATOM     20  O   UNL     1      47.076 -49.674 162.663  1.00  0.00    -0.550 OA
ENDBRANCH  17  18
ENDBRANCH  16  17
ENDBRANCH  15  16
ENDBRANCH  14  15
ENDBRANCH  13  14
ENDBRANCH  12  13
ENDBRANCH  11  12
ENDBRANCH   1  11
TORSDOF 15
ENDMDL
MODEL 2
REMARK VINA RESULT:    -5.925      2.972      3.604
REMARK INTER + INTRA:         -12.336
REMARK INTER:                 -11.266
REMARK INTRA:                  -1.069
REMARK UNBOUND:                -1.215
REMARK SMILES O=C([O-])CCCCCCCCCCCCCCC(=O)[O-]
REMARK SMILES IDX 10 1 9 2 8 3 7 4 6 5 5 6 4 7 2 8 1 9 3 10 11 11 12 12 13 13
REMARK SMILES IDX 14 14 15 15 16 16 17 17 18 18 19 19 20 20
REMARK H PARENT
REMARK Flexibility Score: inf
ROOT
ATOM      1  C   UNL     1      49.974 -47.579 165.120  1.00  0.00     0.000 C 
ENDROOT
BRANCH   1   2
ATOM      2  C   UNL     1      50.654 -46.201 165.086  1.00  0.00     0.000 C 
BRANCH   2   3
ATOM      3  C   UNL     1      52.061 -46.271 165.701  1.00  0.00     0.000 C 
BRANCH   3   4
ATOM      4  C   UNL     1      52.571 -47.712 165.852  1.00  0.00     0.000 C 
BRANCH   4   5
ATOM      5  C   UNL     1      54.055 -47.857 165.477  1.00  0.00     0.000 C 
BRANCH   5   6
ATOM      6  C   UNL     1      54.858 -48.459 166.637  1.00  0.00     0.006 C 
BRANCH   6   7
ATOM      7  C   UNL     1      54.367 -49.871 166.968  1.00  0.00     0.053 C 
BRANCH   7   8
ATOM      8  C   UNL     1      54.179 -50.028 168.444  1.00  0.00     0.041 C 
ATOM      9  O   UNL     1      54.237 -49.023 169.201  1.00  0.00    -0.550 OA
ATOM     10  O   UNL     1      53.892 -51.278 168.979  1.00  0.00    -0.550 OA
ENDBRANCH   7   8
ENDBRANCH   6   7
ENDBRANCH   5   6
ENDBRANCH   4   5
ENDBRANCH   3   4
ENDBRANCH   2   3
ENDBRANCH   1   2
BRANCH   1  11
ATOM     11  C   UNL     1      48.454 -47.497 164.907  1.00  0.00     0.000 C 
BRANCH  11  12
ATOM     12  C   UNL     1      47.954 -46.048 164.771  1.00  0.00     0.000 C 
BRANCH  12  13
ATOM     13  C   UNL     1      46.815 -45.722 165.752  1.00  0.00     0.000 C 
BRANCH  13  14
ATOM     14  C   UNL     1      45.424 -45.884 165.115  1.00  0.00     0.000 C 
BRANCH  14  15
ATOM     15  C   UNL     1      45.484 -46.113 163.593  1.00  0.00     0.000 C 
BRANCH  15  16
ATOM     16  C   UNL     1      44.502 -47.167 163.051  1.00  0.00     0.006 C 
BRANCH  16  17
ATOM     17  C   UNL     1      45.184 -48.232 162.184  1.00  0.00     0.053 C 
BRANCH  17  18
ATOM     18  C   UNL     1      45.871 -49.245 163.044  1.00  0.00     0.041 C 
ATOM     19  O   UNL     1      45.402 -49.540 164.173  1.00  0.00    -0.550 OA
ATOM     20  O   UNL     1      47.060 -49.827 162.619  1.00  0.00    -0.550 OA
ENDBRANCH  17  18
ENDBRANCH  16  17
ENDBRANCH  15  16
ENDBRANCH  14  15
ENDBRANCH  13  14
ENDBRANCH  12  13
ENDBRANCH  11  12
ENDBRANCH   1  11
TORSDOF 15
ENDMDL
MODEL 3
REMARK VINA RESULT:    -5.888      6.434     12.595
REMARK INTER + INTRA:         -12.265
REMARK INTER:                 -10.953
REMARK INTRA:                  -1.313
REMARK UNBOUND:                -1.215
REMARK SMILES O=C([O-])CCCCCCCCCCCCCCC(=O)[O-]
REMARK SMILES IDX 10 1 9 2 8 3 7 4 6 5 5 6 4 7 2 8 1 9 3 10 11 11 12 12 13 13
REMARK SMILES IDX 14 14 15 15 16 16 17 17 18 18 19 19 20 20
REMARK H PARENT
REMARK Flexibility Score: inf
ROOT
ATOM      1  C   UNL     1      40.686 -47.661 162.136  1.00  0.00     0.000 C 
ENDROOT
BRANCH   1   2
ATOM      2  C   UNL     1      40.242 -48.915 162.904  1.00  0.00     0.000 C 
BRANCH   2   3
ATOM      3  C   UNL     1      38.776 -49.256 162.594  1.00  0.00     0.000 C 
BRANCH   3   4
ATOM      4  C   UNL     1      38.228 -48.476 161.389  1.00  0.00     0.000 C 
BRANCH   4   5
ATOM      5  C   UNL     1      36.692 -48.487 161.325  1.00  0.00     0.000 C 
BRANCH   5   6
ATOM      6  C   UNL     1      36.100 -49.277 162.498  1.00  0.00     0.006 C 
BRANCH   6   7
ATOM      7  C   UNL     1      35.149 -50.368 161.999  1.00  0.00     0.053 C 
BRANCH   7   8
ATOM      8  C   UNL     1      35.761 -51.722 162.181  1.00  0.00     0.041 C 
ATOM      9  O   UNL     1      35.583 -52.618 161.316  1.00  0.00    -0.550 OA
ATOM     10  O   UNL     1      36.566 -51.977 163.284  1.00  0.00    -0.550 OA
ENDBRANCH   7   8
ENDBRANCH   6   7
ENDBRANCH   5   6
ENDBRANCH   4   5
ENDBRANCH   3   4
ENDBRANCH   2   3
ENDBRANCH   1   2
BRANCH   1  11
ATOM     11  C   UNL     1      42.214 -47.545 162.019  1.00  0.00     0.000 C 
BRANCH  11  12
ATOM     12  C   UNL     1      42.719 -47.817 160.591  1.00  0.00     0.000 C 
BRANCH  12  13
ATOM     13  C   UNL     1      44.245 -48.002 160.530  1.00  0.00     0.000 C 
BRANCH  13  14
ATOM     14  C   UNL     1      44.936 -47.646 161.857  1.00  0.00     0.000 C 
BRANCH  14  15
ATOM     15  C   UNL     1      45.704 -48.832 162.470  1.00  0.00     0.000 C 
BRANCH  15  16
ATOM     16  C   UNL     1      45.686 -48.898 164.008  1.00  0.00     0.006 C 
BRANCH  16  17
ATOM     17  C   UNL     1      44.319 -49.303 164.574  1.00  0.00     0.053 C 
BRANCH  17  18
ATOM     18  C   UNL     1      43.687 -48.150 165.287  1.00  0.00     0.041 C 
ATOM     19  O   UNL     1      42.586 -48.297 165.879  1.00  0.00    -0.550 OA
ATOM     20  O   UNL     1      44.289 -46.897 165.255  1.00  0.00    -0.550 OA
ENDBRANCH  17  18
ENDBRANCH  16  17
ENDBRANCH  15  16
ENDBRANCH  14  15
ENDBRANCH  13  14
ENDBRANCH  12  13
ENDBRANCH  11  12
ENDBRANCH   1  11
TORSDOF 15
ENDMDL
MODEL 4
REMARK VINA RESULT:    -5.884      0.749      8.759
REMARK INTER + INTRA:         -12.259
REMARK INTER:                 -11.182
REMARK INTRA:                  -1.077
REMARK UNBOUND:                -1.215
REMARK SMILES O=C([O-])CCCCCCCCCCCCCCC(=O)[O-]
REMARK SMILES IDX 10 1 9 2 8 3 7 4 6 5 5 6 4 7 2 8 1 9 3 10 11 11 12 12 13 13
REMARK SMILES IDX 14 14 15 15 16 16 17 17 18 18 19 19 20 20
REMARK H PARENT
REMARK Flexibility Score: inf
ROOT
ATOM      1  C   UNL     1      49.002 -45.729 164.779  1.00  0.00     0.000 C 
ENDROOT
BRANCH   1   2
ATOM      2  C   UNL     1      47.717 -46.571 164.765  1.00  0.00     0.000 C 
BRANCH   2   3
ATOM      3  C   UNL     1      46.597 -45.872 165.551  1.00  0.00     0.000 C 
BRANCH   3   4
ATOM      4  C   UNL     1      45.227 -45.993 164.864  1.00  0.00     0.000 C 
BRANCH   4   5
ATOM      5  C   UNL     1      45.342 -46.182 163.343  1.00  0.00     0.000 C 
BRANCH   5   6
ATOM      6  C   UNL     1      44.268 -47.149 162.828  1.00  0.00     0.006 C 
BRANCH   6   7
ATOM      7  C   UNL     1      44.901 -48.315 162.065  1.00  0.00     0.053 C 
BRANCH   7   8
ATOM      8  C   UNL     1      45.717 -49.165 162.987  1.00  0.00     0.041 C 
ATOM      9  O   UNL     1      45.202 -49.635 164.036  1.00  0.00    -0.550 OA
ATOM     10  O   UNL     1      47.032 -49.477 162.665  1.00  0.00    -0.550 OA
ENDBRANCH   7   8
ENDBRANCH   6   7
ENDBRANCH   5   6
ENDBRANCH   4   5
ENDBRANCH   3   4
ENDBRANCH   2   3
ENDBRANCH   1   2
BRANCH   1  11
ATOM     11  C   UNL     1      50.271 -46.576 164.590  1.00  0.00     0.000 C 
BRANCH  11  12
ATOM     12  C   UNL     1      51.250 -46.445 165.769  1.00  0.00     0.000 C 
BRANCH  12  13
ATOM     13  C   UNL     1      52.312 -47.557 165.781  1.00  0.00     0.000 C 
BRANCH  13  14
ATOM     14  C   UNL     1      53.739 -47.008 165.957  1.00  0.00     0.000 C 
BRANCH  14  15
ATOM     15  C   UNL     1      53.776 -45.664 166.709  1.00  0.00     0.000 C 
BRANCH  15  16
ATOM     16  C   UNL     1      54.665 -44.582 166.069  1.00  0.00     0.006 C 
BRANCH  16  17
ATOM     17  C   UNL     1      54.097 -44.043 164.750  1.00  0.00     0.053 C 
BRANCH  17  18
ATOM     18  C   UNL     1      53.990 -42.552 164.799  1.00  0.00     0.041 C 
ATOM     19  O   UNL     1      54.162 -41.870 163.755  1.00  0.00    -0.550 OA
ATOM     20  O   UNL     1      53.751 -41.910 166.008  1.00  0.00    -0.550 OA
ENDBRANCH  17  18
ENDBRANCH  16  17
ENDBRANCH  15  16
ENDBRANCH  14  15
ENDBRANCH  13  14
ENDBRANCH  12  13
ENDBRANCH  11  12
ENDBRANCH   1  11
TORSDOF 15
ENDMDL
MODEL 5
REMARK VINA RESULT:    -5.884      6.536     12.518
REMARK INTER + INTRA:         -12.258
REMARK INTER:                 -11.046
REMARK INTRA:                  -1.212
REMARK UNBOUND:                -1.215
REMARK SMILES O=C([O-])CCCCCCCCCCCCCCC(=O)[O-]
REMARK SMILES IDX 10 1 9 2 8 3 7 4 6 5 5 6 4 7 2 8 1 9 3 10 11 11 12 12 13 13
REMARK SMILES IDX 14 14 15 15 16 16 17 17 18 18 19 19 20 20
REMARK H PARENT
REMARK Flexibility Score: inf
ROOT
ATOM      1  C   UNL     1      39.975 -48.000 162.190  1.00  0.00     0.000 C 
ENDROOT
BRANCH   1   2
ATOM      2  C   UNL     1      39.099 -49.195 162.598  1.00  0.00     0.000 C 
BRANCH   2   3
ATOM      3  C   UNL     1      37.641 -48.975 162.169  1.00  0.00     0.000 C 
BRANCH   3   4
ATOM      4  C   UNL     1      37.520 -48.142 160.883  1.00  0.00     0.000 C 
BRANCH   4   5
ATOM      5  C   UNL     1      36.449 -48.685 159.924  1.00  0.00     0.000 C 
BRANCH   5   6
ATOM      6  C   UNL     1      35.602 -47.545 159.344  1.00  0.00     0.006 C 
BRANCH   6   7
ATOM      7  C   UNL     1      35.960 -46.208 160.000  1.00  0.00     0.053 C 
BRANCH   7   8
ATOM      8  C   UNL     1      36.042 -45.125 158.971  1.00  0.00     0.041 C 
ATOM      9  O   UNL     1      35.823 -43.928 159.294  1.00  0.00    -0.550 OA
ATOM     10  O   UNL     1      36.408 -45.431 157.666  1.00  0.00    -0.550 OA
ENDBRANCH   7   8
ENDBRANCH   6   7
ENDBRANCH   5   6
ENDBRANCH   4   5
ENDBRANCH   3   4
ENDBRANCH   2   3
ENDBRANCH   1   2
BRANCH   1  11
ATOM     11  C   UNL     1      41.446 -48.174 162.601  1.00  0.00     0.000 C 
BRANCH  11  12
ATOM     12  C   UNL     1      41.618 -49.135 163.790  1.00  0.00     0.000 C 
BRANCH  12  13
ATOM     13  C   UNL     1      41.770 -48.397 165.130  1.00  0.00     0.000 C 
BRANCH  13  14
ATOM     14  C   UNL     1      43.230 -48.016 165.431  1.00  0.00     0.000 C 
BRANCH  14  15
ATOM     15  C   UNL     1      44.233 -49.108 165.014  1.00  0.00     0.000 C 
BRANCH  15  16
ATOM     16  C   UNL     1      45.477 -48.600 164.263  1.00  0.00     0.006 C 
BRANCH  16  17
ATOM     17  C   UNL     1      45.395 -48.827 162.748  1.00  0.00     0.053 C 
BRANCH  17  18
ATOM     18  C   UNL     1      44.909 -47.591 162.060  1.00  0.00     0.041 C 
ATOM     19  O   UNL     1      44.546 -47.637 160.856  1.00  0.00    -0.550 OA
ATOM     20  O   UNL     1      44.904 -46.376 162.735  1.00  0.00    -0.550 OA
ENDBRANCH  17  18
ENDBRANCH  16  17
ENDBRANCH  15  16
ENDBRANCH  14  15
ENDBRANCH  13  14
ENDBRANCH  12  13
ENDBRANCH  11  12
ENDBRANCH   1  11
TORSDOF 15
ENDMDL
MODEL 6
REMARK VINA RESULT:    -5.868      1.736      2.657
REMARK INTER + INTRA:         -12.228
REMARK INTER:                 -11.270
REMARK INTRA:                  -0.958
REMARK UNBOUND:                -1.215
REMARK SMILES O=C([O-])CCCCCCCCCCCCCCC(=O)[O-]
REMARK SMILES IDX 10 1 9 2 8 3 7 4 6 5 5 6 4 7 2 8 1 9 3 10 11 11 12 12 13 13
REMARK SMILES IDX 14 14 15 15 16 16 17 17 18 18 19 19 20 20
REMARK H PARENT
REMARK Flexibility Score: inf
ROOT
ATOM      1  C   UNL     1      50.519 -48.338 165.547  1.00  0.00     0.000 C 
ENDROOT
BRANCH   1   2
ATOM      2  C   UNL     1      50.517 -46.861 165.123  1.00  0.00     0.000 C 
BRANCH   2   3
ATOM      3  C   UNL     1      51.727 -46.121 165.713  1.00  0.00     0.000 C 
BRANCH   3   4
ATOM      4  C   UNL     1      52.976 -47.010 165.810  1.00  0.00     0.000 C 
BRANCH   4   5
ATOM      5  C   UNL     1      54.266 -46.199 166.013  1.00  0.00     0.000 C 
BRANCH   5   6
ATOM      6  C   UNL     1      53.976 -44.693 165.995  1.00  0.00     0.006 C 
BRANCH   6   7
ATOM      7  C   UNL     1      54.318 -44.085 164.632  1.00  0.00     0.053 C 
BRANCH   7   8
ATOM      8  C   UNL     1      54.070 -42.609 164.639  1.00  0.00     0.041 C 
ATOM      9  O   UNL     1      54.207 -41.940 163.581  1.00  0.00    -0.550 OA
ATOM     10  O   UNL     1      53.641 -41.982 165.802  1.00  0.00    -0.550 OA
ENDBRANCH   7   8
ENDBRANCH   6   7
ENDBRANCH   5   6
ENDBRANCH   4   5
ENDBRANCH   3   4
ENDBRANCH   2   3
ENDBRANCH   1   2
BRANCH   1  11
ATOM     11  C   UNL     1      49.120 -48.974 165.494  1.00  0.00     0.000 C 
BRANCH  11  12
ATOM     12  C   UNL     1      48.228 -48.347 164.408  1.00  0.00     0.000 C 
BRANCH  12  13
ATOM     13  C   UNL     1      47.916 -49.326 163.263  1.00  0.00     0.000 C 
BRANCH  13  14
ATOM     14  C   UNL     1      46.412 -49.411 162.952  1.00  0.00     0.000 C 
BRANCH  14  15
ATOM     15  C   UNL     1      45.538 -49.429 164.221  1.00  0.00     0.000 C 
BRANCH  15  16
ATOM     16  C   UNL     1      44.215 -48.650 164.114  1.00  0.00     0.006 C 
BRANCH  16  17
ATOM     17  C   UNL     1      44.132 -47.473 165.095  1.00  0.00     0.053 C 
BRANCH  17  18
ATOM     18  C   UNL     1      45.089 -46.394 164.698  1.00  0.00     0.041 C 
ATOM     19  O   UNL     1      45.733 -45.764 165.577  1.00  0.00    -0.550 OA
ATOM     20  O   UNL     1      45.234 -46.050 163.360  1.00  0.00    -0.550 OA
ENDBRANCH  17  18
ENDBRANCH  16  17
ENDBRANCH  15  16
ENDBRANCH  14  15
ENDBRANCH  13  14
ENDBRANCH  12  13
ENDBRANCH  11  12
ENDBRANCH   1  11
TORSDOF 15
ENDMDL
MODEL 7
REMARK VINA RESULT:    -5.855      3.352      8.499
REMARK INTER + INTRA:         -12.204
REMARK INTER:                 -11.292
REMARK INTRA:                  -0.912
REMARK UNBOUND:                -1.215
REMARK SMILES O=C([O-])CCCCCCCCCCCCCCC(=O)[O-]
REMARK SMILES IDX 10 1 9 2 8 3 7 4 6 5 5 6 4 7 2 8 1 9 3 10 11 11 12 12 13 13
REMARK SMILES IDX 14 14 15 15 16 16 17 17 18 18 19 19 20 20
REMARK H PARENT
REMARK Flexibility Score: inf
ROOT
ATOM      1  C   UNL     1      50.082 -46.180 164.847  1.00  0.00     0.000 C 
ENDROOT
BRANCH   1   2
ATOM      2  C   UNL     1      48.689 -45.668 164.447  1.00  0.00     0.000 C 
BRANCH   2   3
ATOM      3  C   UNL     1      47.591 -46.611 164.962  1.00  0.00     0.000 C 
BRANCH   3   4
ATOM      4  C   UNL     1      46.352 -45.856 165.470  1.00  0.00     0.000 C 
BRANCH   4   5
ATOM      5  C   UNL     1      45.077 -46.224 164.695  1.00  0.00     0.000 C 
BRANCH   5   6
ATOM      6  C   UNL     1      45.396 -46.534 163.227  1.00  0.00     0.006 C 
BRANCH   6   7
ATOM      7  C   UNL     1      44.722 -47.835 162.783  1.00  0.00     0.053 C 
BRANCH   7   8
ATOM      8  C   UNL     1      45.512 -49.020 163.243  1.00  0.00     0.041 C 
ATOM      9  O   UNL     1      45.140 -49.675 164.252  1.00  0.00    -0.550 OA
ATOM     10  O   UNL     1      46.632 -49.427 162.531  1.00  0.00    -0.550 OA
ENDBRANCH   7   8
ENDBRANCH   6   7
ENDBRANCH   5   6
ENDBRANCH   4   5
ENDBRANCH   3   4
ENDBRANCH   2   3
ENDBRANCH   1   2
BRANCH   1  11
ATOM     11  C   UNL     1      50.105 -47.693 165.115  1.00  0.00     0.000 C 
BRANCH  11  12
ATOM     12  C   UNL     1      51.392 -48.148 165.824  1.00  0.00     0.000 C 
BRANCH  12  13
ATOM     13  C   UNL     1      52.561 -47.172 165.608  1.00  0.00     0.000 C 
BRANCH  13  14
ATOM     14  C   UNL     1      53.904 -47.895 165.405  1.00  0.00     0.000 C 
BRANCH  14  15
ATOM     15  C   UNL     1      54.572 -48.300 166.732  1.00  0.00     0.000 C 
BRANCH  15  16
ATOM     16  C   UNL     1      54.675 -49.816 166.976  1.00  0.00     0.006 C 
BRANCH  16  17
ATOM     17  C   UNL     1      54.139 -50.240 168.350  1.00  0.00     0.053 C 
BRANCH  17  18
ATOM     18  C   UNL     1      53.787 -51.694 168.347  1.00  0.00     0.041 C 
ATOM     19  O   UNL     1      54.436 -52.504 169.057  1.00  0.00    -0.550 OA
ATOM     20  O   UNL     1      52.772 -52.162 167.520  1.00  0.00    -0.550 OA
ENDBRANCH  17  18
ENDBRANCH  16  17
ENDBRANCH  15  16
ENDBRANCH  14  15
ENDBRANCH  13  14
ENDBRANCH  12  13
ENDBRANCH  11  12
ENDBRANCH   1  11
TORSDOF 15
ENDMDL
MODEL 8
REMARK VINA RESULT:    -5.826      3.507      8.660
REMARK INTER + INTRA:         -12.149
REMARK INTER:                 -10.893
REMARK INTRA:                  -1.256
REMARK UNBOUND:                -1.215
REMARK SMILES O=C([O-])CCCCCCCCCCCCCCC(=O)[O-]
REMARK SMILES IDX 10 1 9 2 8 3 7 4 6 5 5 6 4 7 2 8 1 9 3 10 11 11 12 12 13 13
REMARK SMILES IDX 14 14 15 15 16 16 17 17 18 18 19 19 20 20
REMARK H PARENT
REMARK Flexibility Score: inf
ROOT
ATOM      1  C   UNL     1      48.859 -46.212 164.642  1.00  0.00     0.000 C 
ENDROOT
BRANCH   1   2
ATOM      2  C   UNL     1      47.701 -45.575 165.427  1.00  0.00     0.000 C 
BRANCH   2   3
ATOM      3  C   UNL     1      46.400 -46.365 165.221  1.00  0.00     0.000 C 
BRANCH   3   4
ATOM      4  C   UNL     1      45.864 -46.260 163.784  1.00  0.00     0.000 C 
BRANCH   4   5
ATOM      5  C   UNL     1      45.534 -47.631 163.174  1.00  0.00     0.000 C 
BRANCH   5   6
ATOM      6  C   UNL     1      45.562 -48.730 164.244  1.00  0.00     0.006 C 
BRANCH   6   7
ATOM      7  C   UNL     1      44.248 -49.516 164.258  1.00  0.00     0.053 C 
BRANCH   7   8
ATOM      8  C   UNL     1      43.088 -48.595 164.475  1.00  0.00     0.041 C 
ATOM      9  O   UNL     1      42.189 -48.492 163.600  1.00  0.00    -0.550 OA
ATOM     10  O   UNL     1      42.977 -47.887 165.665  1.00  0.00    -0.550 OA
ENDBRANCH   7   8
ENDBRANCH   6   7
ENDBRANCH   5   6
ENDBRANCH   4   5
ENDBRANCH   3   4
ENDBRANCH   2   3
ENDBRANCH   1   2
BRANCH   1  11
ATOM     11  C   UNL     1      49.058 -47.698 164.978  1.00  0.00     0.000 C 
BRANCH  11  12
ATOM     12  C   UNL     1      50.467 -47.998 165.518  1.00  0.00     0.000 C 
BRANCH  12  13
ATOM     13  C   UNL     1      51.349 -46.741 165.598  1.00  0.00     0.000 C 
BRANCH  13  14
ATOM     14  C   UNL     1      52.800 -47.062 165.995  1.00  0.00     0.000 C 
BRANCH  14  15
ATOM     15  C   UNL     1      53.043 -48.567 166.212  1.00  0.00     0.000 C 
BRANCH  15  16
ATOM     16  C   UNL     1      54.252 -48.913 167.099  1.00  0.00     0.006 C 
BRANCH  16  17
ATOM     17  C   UNL     1      53.969 -50.059 168.078  1.00  0.00     0.053 C 
BRANCH  17  18
ATOM     18  C   UNL     1      53.925 -51.367 167.353  1.00  0.00     0.041 C 
ATOM     19  O   UNL     1      52.967 -52.162 167.539  1.00  0.00    -0.550 OA
ATOM     20  O   UNL     1      54.967 -51.730 166.509  1.00  0.00    -0.550 OA
ENDBRANCH  17  18
ENDBRANCH  16  17
ENDBRANCH  15  16
ENDBRANCH  14  15
ENDBRANCH  13  14
ENDBRANCH  12  13
ENDBRANCH  11  12
ENDBRANCH   1  11
TORSDOF 15
ENDMDL
MODEL 9
REMARK VINA RESULT:    -5.824      1.698      8.395
REMARK INTER + INTRA:         -12.146
REMARK INTER:                 -10.992
REMARK INTRA:                  -1.153
REMARK UNBOUND:                -1.215
REMARK SMILES O=C([O-])CCCCCCCCCCCCCCC(=O)[O-]
REMARK SMILES IDX 10 1 9 2 8 3 7 4 6 5 5 6 4 7 2 8 1 9 3 10 11 11 12 12 13 13
REMARK SMILES IDX 14 14 15 15 16 16 17 17 18 18 19 19 20 20
REMARK H PARENT
REMARK Flexibility Score: inf
ROOT
ATOM      1  C   UNL     1      49.591 -48.250 165.192  1.00  0.00     0.000 C 
ENDROOT
BRANCH   1   2
ATOM      2  C   UNL     1      48.237 -48.771 164.687  1.00  0.00     0.000 C 
BRANCH   2   3
ATOM      3  C   UNL     1      48.410 -49.573 163.388  1.00  0.00     0.000 C 
BRANCH   3   4
ATOM      4  C   UNL     1      47.126 -49.622 162.545  1.00  0.00     0.000 C 
BRANCH   4   5
ATOM      5  C   UNL     1      45.858 -49.408 163.387  1.00  0.00     0.000 C 
BRANCH   5   6
ATOM      6  C   UNL     1      44.925 -48.387 162.723  1.00  0.00     0.006 C 
BRANCH   6   7
ATOM      7  C   UNL     1      45.237 -46.967 163.202  1.00  0.00     0.053 C 
BRANCH   7   8
ATOM      8  C   UNL     1      45.002 -46.847 164.675  1.00  0.00     0.041 C 
ATOM      9  O   UNL     1      45.830 -46.235 165.400  1.00  0.00    -0.550 OA
ATOM     10  O   UNL     1      43.845 -47.369 165.240  1.00  0.00    -0.550 OA
ENDBRANCH   7   8
ENDBRANCH   6   7
ENDBRANCH   5   6
ENDBRANCH   4   5
ENDBRANCH   3   4
ENDBRANCH   2   3
ENDBRANCH   1   2
BRANCH   1  11
ATOM     11  C   UNL     1      49.748 -46.731 165.014  1.00  0.00     0.000 C 
BRANCH  11  12
ATOM     12  C   UNL     1      51.213 -46.273 165.114  1.00  0.00     0.000 C 
BRANCH  12  13
ATOM     13  C   UNL     1      52.155 -47.402 165.564  1.00  0.00     0.000 C 
BRANCH  13  14
ATOM     14  C   UNL     1      53.409 -46.874 166.282  1.00  0.00     0.000 C 
BRANCH  14  15
ATOM     15  C   UNL     1      53.397 -45.345 166.461  1.00  0.00     0.000 C 
BRANCH  15  16
ATOM     16  C   UNL     1      54.597 -44.605 165.843  1.00  0.00     0.006 C 
BRANCH  16  17
ATOM     17  C   UNL     1      54.205 -43.714 164.658  1.00  0.00     0.053 C 
BRANCH  17  18
ATOM     18  C   UNL     1      53.526 -42.472 165.141  1.00  0.00     0.041 C 
ATOM     19  O   UNL     1      52.634 -41.925 164.442  1.00  0.00    -0.550 OA
ATOM     20  O   UNL     1      53.913 -41.889 166.342  1.00  0.00    -0.550 OA
ENDBRANCH  17  18
ENDBRANCH  16  17
ENDBRANCH  15  16
ENDBRANCH  14  15
ENDBRANCH  13  14
ENDBRANCH  12  13
ENDBRANCH  11  12
ENDBRANCH   1  11
TORSDOF 15
ENDMDL
