MODEL 1
REMARK VINA RESULT:    -3.706      0.000      0.000
REMARK INTER + INTRA:          -4.838
REMARK INTER:                  -4.573
REMARK INTRA:                  -0.266
REMARK UNBOUND:                -0.266
REMARK SMILES CCCCC=CC(C)=O
REMARK SMILES IDX 4 1 3 2 2 3 1 4 5 5 6 6 7 7 9 8 8 9
REMARK H PARENT
REMARK Flexibility Score: inf
ROOT
ATOM      1  C   UNL     1      55.551  18.411  -4.501  1.00  0.00     0.027 C 
ENDROOT
BRANCH   1   2
ATOM      2  C   UNL     1      54.641  17.535  -3.628  1.00  0.00     0.004 C 
BRANCH   2   3
ATOM      3  C   UNL     1      54.942  17.683  -2.129  1.00  0.00    -0.003 C 
ATOM      4  C   UNL     1      55.128  19.140  -1.706  1.00  0.00     0.004 C 
ENDBRANCH   2   3
ENDBRANCH   1   2
BRANCH   1   5
ATOM      5  C   UNL     1      54.745  19.361  -5.341  1.00  0.00    -0.023 C 
ATOM      6  C   UNL     1      53.431  19.524  -5.141  1.00  0.00     0.042 C 
BRANCH   6   7
ATOM      7  C   UNL     1      52.596  20.436  -5.949  1.00  0.00     0.152 C 
ATOM      8  O   UNL     1      52.976  21.627  -6.100  1.00  0.00    -0.295 OA
ATOM      9  C   UNL     1      51.316  19.995  -6.594  1.00  0.00     0.093 C 
ENDBRANCH   6   7
ENDBRANCH   1   5
TORSDOF 4
ENDMDL
MODEL 2
REMARK VINA RESULT:    -3.696      1.119      1.440
REMARK INTER + INTRA:          -4.827
REMARK INTER:                  -4.571
REMARK INTRA:                  -0.256
REMARK UNBOUND:                -0.266
REMARK SMILES CCCCC=CC(C)=O
REMARK SMILES IDX 4 1 3 2 2 3 1 4 5 5 6 6 7 7 9 8 8 9
REMARK H PARENT
REMARK Flexibility Score: inf
ROOT
ATOM      1  C   UNL     1      54.508  18.225  -5.434  1.00  0.00     0.027 C 
ENDROOT
BRANCH   1   2
ATOM      2  C   UNL     1      55.473  18.626  -4.309  1.00  0.00     0.004 C 
BRANCH   2   3
ATOM      3  C   UNL     1      55.007  18.136  -2.930  1.00  0.00    -0.003 C 
ATOM      4  C   UNL     1      55.103  19.218  -1.854  1.00  0.00     0.004 C 
ENDBRANCH   2   3
ENDBRANCH   1   2
BRANCH   1   5
ATOM      5  C   UNL     1      53.269  19.074  -5.412  1.00  0.00    -0.023 C 
ATOM      6  C   UNL     1      53.315  20.381  -5.699  1.00  0.00     0.042 C 
BRANCH   6   7
ATOM      7  C   UNL     1      52.126  21.258  -5.679  1.00  0.00     0.152 C 
ATOM      8  O   UNL     1      51.736  21.771  -6.762  1.00  0.00    -0.295 OA
ATOM      9  C   UNL     1      51.369  21.558  -4.421  1.00  0.00     0.093 C 
ENDBRANCH   6   7
ENDBRANCH   1   5
TORSDOF 4
ENDMDL
MODEL 3
REMARK VINA RESULT:    -3.642      2.465      3.825
REMARK INTER + INTRA:          -4.760
REMARK INTER:                  -4.527
REMARK INTRA:                  -0.233
REMARK UNBOUND:                -0.266
REMARK SMILES CCCCC=CC(C)=O
REMARK SMILES IDX 4 1 3 2 2 3 1 4 5 5 6 6 7 7 9 8 8 9
REMARK H PARENT
REMARK Flexibility Score: inf
ROOT
ATOM      1  C   UNL     1      54.769  15.922  -2.525  1.00  0.00     0.027 C 
ENDROOT
BRANCH   1   2
ATOM      2  C   UNL     1      54.875  14.870  -3.639  1.00  0.00     0.004 C 
BRANCH   2   3
ATOM      3  C   UNL     1      55.892  13.765  -3.311  1.00  0.00    -0.003 C 
ATOM      4  C   UNL     1      56.247  13.712  -1.826  1.00  0.00     0.004 C 
ENDBRANCH   2   3
ENDBRANCH   1   2
BRANCH   1   5
ATOM      5  C   UNL     1      55.083  17.295  -3.047  1.00  0.00    -0.023 C 
ATOM      6  C   UNL     1      54.986  17.585  -4.351  1.00  0.00     0.042 C 
BRANCH   6   7
ATOM      7  C   UNL     1      55.296  18.916  -4.910  1.00  0.00     0.152 C 
ATOM      8  O   UNL     1      54.347  19.627  -5.336  1.00  0.00    -0.295 OA
ATOM      9  C   UNL     1      56.695  19.450  -4.990  1.00  0.00     0.093 C 
ENDBRANCH   6   7
ENDBRANCH   1   5
TORSDOF 4
ENDMDL
MODEL 4
REMARK VINA RESULT:    -3.592      3.744      5.515
REMARK INTER + INTRA:          -4.698
REMARK INTER:                  -4.478
REMARK INTRA:                  -0.220
REMARK UNBOUND:                -0.266
REMARK SMILES CCCCC=CC(C)=O
REMARK SMILES IDX 4 1 3 2 2 3 1 4 5 5 6 6 7 7 9 8 8 9
REMARK H PARENT
REMARK Flexibility Score: inf
ROOT
ATOM      1  C   UNL     1      54.191  17.227  -4.985  1.00  0.00     0.027 C 
ENDROOT
BRANCH   1   2
ATOM      2  C   UNL     1      54.770  18.611  -5.313  1.00  0.00     0.004 C 
BRANCH   2   3
ATOM      3  C   UNL     1      55.917  19.008  -4.371  1.00  0.00    -0.003 C 
ATOM      4  C   UNL     1      57.131  19.558  -5.118  1.00  0.00     0.004 C 
ENDBRANCH   2   3
ENDBRANCH   1   2
BRANCH   1   5
ATOM      5  C   UNL     1      54.846  16.642  -3.766  1.00  0.00    -0.023 C 
ATOM      6  C   UNL     1      54.918  15.317  -3.582  1.00  0.00     0.042 C 
BRANCH   6   7
ATOM      7  C   UNL     1      55.540  14.697  -2.395  1.00  0.00     0.152 C 
ATOM      8  O   UNL     1      56.332  13.731  -2.564  1.00  0.00    -0.295 OA
ATOM      9  C   UNL     1      55.265  15.173  -1.000  1.00  0.00     0.093 C 
ENDBRANCH   6   7
ENDBRANCH   1   5
TORSDOF 4
ENDMDL
MODEL 5
REMARK VINA RESULT:    -3.560      2.291      3.524
REMARK INTER + INTRA:          -4.658
REMARK INTER:                  -4.454
REMARK INTRA:                  -0.204
REMARK UNBOUND:                -0.266
REMARK SMILES CCCCC=CC(C)=O
REMARK SMILES IDX 4 1 3 2 2 3 1 4 5 5 6 6 7 7 9 8 8 9
REMARK H PARENT
REMARK Flexibility Score: inf
ROOT
ATOM      1  C   UNL     1      54.645  17.378  -1.370  1.00  0.00     0.027 C 
ENDROOT
BRANCH   1   2
ATOM      2  C   UNL     1      54.941  15.967  -1.898  1.00  0.00     0.004 C 
BRANCH   2   3
ATOM      3  C   UNL     1      55.175  14.953  -0.768  1.00  0.00    -0.003 C 
ATOM      4  C   UNL     1      55.489  15.621   0.570  1.00  0.00     0.004 C 
ENDBRANCH   2   3
ENDBRANCH   1   2
BRANCH   1   5
ATOM      5  C   UNL     1      54.943  18.419  -2.411  1.00  0.00    -0.023 C 
ATOM      6  C   UNL     1      55.122  18.089  -3.697  1.00  0.00     0.042 C 
BRANCH   6   7
ATOM      7  C   UNL     1      55.428  19.075  -4.752  1.00  0.00     0.152 C 
ATOM      8  O   UNL     1      54.472  19.628  -5.358  1.00  0.00    -0.295 OA
ATOM      9  C   UNL     1      56.833  19.441  -5.128  1.00  0.00     0.093 C 
ENDBRANCH   6   7
ENDBRANCH   1   5
TORSDOF 4
ENDMDL
MODEL 6
REMARK VINA RESULT:    -3.466      3.078      5.143
REMARK INTER + INTRA:          -4.542
REMARK INTER:                  -4.275
REMARK INTRA:                  -0.268
REMARK UNBOUND:                -0.266
REMARK SMILES CCCCC=CC(C)=O
REMARK SMILES IDX 4 1 3 2 2 3 1 4 5 5 6 6 7 7 9 8 8 9
REMARK H PARENT
REMARK Flexibility Score: inf
ROOT
ATOM      1  C   UNL     1      55.120  18.763  -3.182  1.00  0.00     0.027 C 
ENDROOT
BRANCH   1   2
ATOM      2  C   UNL     1      55.408  18.945  -4.679  1.00  0.00     0.004 C 
BRANCH   2   3
ATOM      3  C   UNL     1      54.293  19.715  -5.404  1.00  0.00    -0.003 C 
ATOM      4  C   UNL     1      53.023  18.884  -5.586  1.00  0.00     0.004 C 
ENDBRANCH   2   3
ENDBRANCH   1   2
BRANCH   1   5
ATOM      5  C   UNL     1      54.907  17.315  -2.844  1.00  0.00    -0.023 C 
ATOM      6  C   UNL     1      55.143  16.348  -3.739  1.00  0.00     0.042 C 
BRANCH   6   7
ATOM      7  C   UNL     1      54.936  14.914  -3.457  1.00  0.00     0.152 C 
ATOM      8  O   UNL     1      53.906  14.350  -3.914  1.00  0.00    -0.295 OA
ATOM      9  C   UNL     1      55.906  14.106  -2.647  1.00  0.00     0.093 C 
ENDBRANCH   6   7
ENDBRANCH   1   5
TORSDOF 4
ENDMDL
MODEL 7
REMARK VINA RESULT:    -3.384      2.614      4.972
REMARK INTER + INTRA:          -4.440
REMARK INTER:                  -4.235
REMARK INTRA:                  -0.205
REMARK UNBOUND:                -0.266
REMARK SMILES CCCCC=CC(C)=O
REMARK SMILES IDX 4 1 3 2 2 3 1 4 5 5 6 6 7 7 9 8 8 9
REMARK H PARENT
REMARK Flexibility Score: inf
ROOT
ATOM      1  C   UNL     1      55.620  19.064  -3.960  1.00  0.00     0.027 C 
ENDROOT
BRANCH   1   2
ATOM      2  C   UNL     1      55.015  18.967  -5.368  1.00  0.00     0.004 C 
BRANCH   2   3
ATOM      3  C   UNL     1      53.482  19.066  -5.359  1.00  0.00    -0.003 C 
ATOM      4  C   UNL     1      52.979  20.466  -5.709  1.00  0.00     0.004 C 
ENDBRANCH   2   3
ENDBRANCH   1   2
BRANCH   1   5
ATOM      5  C   UNL     1      55.114  17.960  -3.076  1.00  0.00    -0.023 C 
ATOM      6  C   UNL     1      54.732  18.196  -1.815  1.00  0.00     0.042 C 
BRANCH   6   7
ATOM      7  C   UNL     1      54.240  17.141  -0.906  1.00  0.00     0.152 C 
ATOM      8  O   UNL     1      53.053  17.210  -0.489  1.00  0.00    -0.295 OA
ATOM      9  C   UNL     1      55.099  15.995  -0.463  1.00  0.00     0.093 C 
ENDBRANCH   6   7
ENDBRANCH   1   5
TORSDOF 4
ENDMDL
MODEL 8
REMARK VINA RESULT:    -3.362      4.641      6.523
REMARK INTER + INTRA:          -4.414
REMARK INTER:                  -4.306
REMARK INTRA:                  -0.109
REMARK UNBOUND:                -0.266
REMARK SMILES CCCCC=CC(C)=O
REMARK SMILES IDX 4 1 3 2 2 3 1 4 5 5 6 6 7 7 9 8 8 9
REMARK H PARENT
REMARK Flexibility Score: inf
ROOT
ATOM      1  C   UNL     1      54.546  16.216  -3.813  1.00  0.00     0.027 C 
ENDROOT
BRANCH   1   2
ATOM      2  C   UNL     1      55.108  17.631  -3.615  1.00  0.00     0.004 C 
BRANCH   2   3
ATOM      3  C   UNL     1      55.223  18.409  -4.936  1.00  0.00    -0.003 C 
ATOM      4  C   UNL     1      56.463  19.302  -4.988  1.00  0.00     0.004 C 
ENDBRANCH   2   3
ENDBRANCH   1   2
BRANCH   1   5
ATOM      5  C   UNL     1      55.366  15.199  -3.072  1.00  0.00    -0.023 C 
ATOM      6  C   UNL     1      55.480  13.939  -3.512  1.00  0.00     0.042 C 
BRANCH   6   7
ATOM      7  C   UNL     1      56.264  12.903  -2.811  1.00  0.00     0.152 C 
ATOM      8  O   UNL     1      56.599  13.107  -1.613  1.00  0.00    -0.295 OA
ATOM      9  C   UNL     1      56.676  11.621  -3.471  1.00  0.00     0.093 C 
ENDBRANCH   6   7
ENDBRANCH   1   5
TORSDOF 4
ENDMDL
MODEL 9
REMARK VINA RESULT:    -3.303      3.026      4.938
REMARK INTER + INTRA:          -4.341
REMARK INTER:                  -4.087
REMARK INTRA:                  -0.254
REMARK UNBOUND:                -0.266
REMARK SMILES CCCCC=CC(C)=O
REMARK SMILES IDX 4 1 3 2 2 3 1 4 5 5 6 6 7 7 9 8 8 9
REMARK H PARENT
REMARK Flexibility Score: inf
ROOT
ATOM      1  C   UNL     1      55.504  18.965  -4.103  1.00  0.00     0.027 C 
ENDROOT
BRANCH   1   2
ATOM      2  C   UNL     1      54.742  19.414  -5.358  1.00  0.00     0.004 C 
BRANCH   2   3
ATOM      3  C   UNL     1      53.253  19.039  -5.308  1.00  0.00    -0.003 C 
ATOM      4  C   UNL     1      52.490  19.794  -4.220  1.00  0.00     0.004 C 
ENDBRANCH   2   3
ENDBRANCH   1   2
BRANCH   1   5
ATOM      5  C   UNL     1      55.365  17.485  -3.885  1.00  0.00    -0.023 C 
ATOM      6  C   UNL     1      54.924  16.990  -2.722  1.00  0.00     0.042 C 
BRANCH   6   7
ATOM      7  C   UNL     1      54.782  15.544  -2.458  1.00  0.00     0.152 C 
ATOM      8  O   UNL     1      54.016  15.172  -1.529  1.00  0.00    -0.295 OA
ATOM      9  C   UNL     1      55.514  14.505  -3.254  1.00  0.00     0.093 C 
ENDBRANCH   6   7
ENDBRANCH   1   5
TORSDOF 4
ENDMDL
