MODEL 1
REMARK VINA RESULT:    -3.264      0.000      0.000
REMARK INTER + INTRA:          -4.097
REMARK INTER:                  -4.027
REMARK INTRA:                  -0.070
REMARK UNBOUND:                -0.070
REMARK SMILES CCCCCC(=O)[O-]
REMARK SMILES IDX 4 1 5 2 6 3 7 4 8 5 3 6 2 7 1 8
REMARK H PARENT
REMARK Flexibility Score: inf
ROOT
ATOM      1  C   UNL     1      19.724 -18.581  21.848  1.00  0.00     0.006 C 
ENDROOT
BRANCH   1   2
ATOM      2  C   UNL     1      20.790 -18.023  20.888  1.00  0.00     0.053 C 
BRANCH   2   3
ATOM      3  C   UNL     1      20.290 -16.867  20.076  1.00  0.00     0.041 C 
ATOM      4  O   UNL     1      20.965 -15.805  19.998  1.00  0.00    -0.550 OA
ATOM      5  O   UNL     1      19.064 -16.949  19.430  1.00  0.00    -0.550 OA
ENDBRANCH   2   3
ENDBRANCH   1   2
BRANCH   1   6
ATOM      6  C   UNL     1      20.298 -19.439  22.989  1.00  0.00     0.000 C 
BRANCH   6   7
ATOM      7  C   UNL     1      21.359 -20.441  22.514  1.00  0.00    -0.003 C 
ATOM      8  C   UNL     1      21.612 -21.516  23.567  1.00  0.00     0.004 C 
ENDBRANCH   6   7
ENDBRANCH   1   6
TORSDOF 4
ENDMDL
MODEL 2
REMARK VINA RESULT:    -3.185      3.045      4.582
REMARK INTER + INTRA:          -4.000
REMARK INTER:                  -3.923
REMARK INTRA:                  -0.077
REMARK UNBOUND:                -0.070
REMARK SMILES CCCCCC(=O)[O-]
REMARK SMILES IDX 4 1 5 2 6 3 7 4 8 5 3 6 2 7 1 8
REMARK H PARENT
REMARK Flexibility Score: inf
ROOT
ATOM      1  C   UNL     1      20.658 -18.482  21.337  1.00  0.00     0.006 C 
ENDROOT
BRANCH   1   2
ATOM      2  C   UNL     1      19.897 -18.901  22.608  1.00  0.00     0.053 C 
BRANCH   2   3
ATOM      3  C   UNL     1      20.326 -20.241  23.124  1.00  0.00     0.041 C 
ATOM      4  O   UNL     1      21.540 -20.577  23.089  1.00  0.00    -0.550 OA
ATOM      5  O   UNL     1      19.381 -21.133  23.614  1.00  0.00    -0.550 OA
ENDBRANCH   2   3
ENDBRANCH   1   2
BRANCH   1   6
ATOM      6  C   UNL     1      19.871 -17.524  20.425  1.00  0.00     0.000 C 
BRANCH   6   7
ATOM      7  C   UNL     1      20.656 -16.256  20.063  1.00  0.00    -0.003 C 
ATOM      8  C   UNL     1      22.103 -16.587  19.707  1.00  0.00     0.004 C 
ENDBRANCH   6   7
ENDBRANCH   1   6
TORSDOF 4
ENDMDL
MODEL 3
REMARK VINA RESULT:    -3.157     12.546     13.416
REMARK INTER + INTRA:          -3.965
REMARK INTER:                  -3.747
REMARK INTRA:                  -0.218
REMARK UNBOUND:                -0.070
REMARK SMILES CCCCCC(=O)[O-]
REMARK SMILES IDX 4 1 5 2 6 3 7 4 8 5 3 6 2 7 1 8
REMARK H PARENT
REMARK Flexibility Score: inf
ROOT
ATOM      1  C   UNL     1       7.297 -16.087  22.758  1.00  0.00     0.006 C 
ENDROOT
BRANCH   1   2
ATOM      2  C   UNL     1       7.630 -14.705  23.350  1.00  0.00     0.053 C 
BRANCH   2   3
ATOM      3  C   UNL     1       8.833 -14.732  24.242  1.00  0.00     0.041 C 
ATOM      4  O   UNL     1       9.975 -14.470  23.778  1.00  0.00    -0.550 OA
ATOM      5  O   UNL     1       8.700 -15.078  25.580  1.00  0.00    -0.550 OA
ENDBRANCH   2   3
ENDBRANCH   1   2
BRANCH   1   6
ATOM      6  C   UNL     1       6.357 -16.933  23.636  1.00  0.00     0.000 C 
BRANCH   6   7
ATOM      7  C   UNL     1       7.063 -18.123  24.302  1.00  0.00    -0.003 C 
ATOM      8  C   UNL     1       6.817 -18.136  25.808  1.00  0.00     0.004 C 
ENDBRANCH   6   7
ENDBRANCH   1   6
TORSDOF 4
ENDMDL
MODEL 4
REMARK VINA RESULT:    -3.132      3.506      4.309
REMARK INTER + INTRA:          -3.935
REMARK INTER:                  -3.830
REMARK INTRA:                  -0.105
REMARK UNBOUND:                -0.070
REMARK SMILES CCCCCC(=O)[O-]
REMARK SMILES IDX 4 1 5 2 6 3 7 4 8 5 3 6 2 7 1 8
REMARK H PARENT
REMARK Flexibility Score: inf
ROOT
ATOM      1  C   UNL     1      18.599 -18.958  22.489  1.00  0.00     0.006 C 
ENDROOT
BRANCH   1   2
ATOM      2  C   UNL     1      17.773 -20.022  23.234  1.00  0.00     0.053 C 
BRANCH   2   3
ATOM      3  C   UNL     1      16.369 -19.577  23.509  1.00  0.00     0.041 C 
ATOM      4  O   UNL     1      15.813 -18.728  22.763  1.00  0.00    -0.550 OA
ATOM      5  O   UNL     1      15.684 -20.076  24.609  1.00  0.00    -0.550 OA
ENDBRANCH   2   3
ENDBRANCH   1   2
BRANCH   1   6
ATOM      6  C   UNL     1      20.118 -19.080  22.708  1.00  0.00     0.000 C 
BRANCH   6   7
ATOM      7  C   UNL     1      20.534 -20.431  23.306  1.00  0.00    -0.003 C 
ATOM      8  C   UNL     1      21.680 -21.055  22.514  1.00  0.00     0.004 C 
ENDBRANCH   6   7
ENDBRANCH   1   6
TORSDOF 4
ENDMDL
MODEL 5
REMARK VINA RESULT:    -3.110     11.435     12.277
REMARK INTER + INTRA:          -3.907
REMARK INTER:                  -3.740
REMARK INTRA:                  -0.167
REMARK UNBOUND:                -0.070
REMARK SMILES CCCCCC(=O)[O-]
REMARK SMILES IDX 4 1 5 2 6 3 7 4 8 5 3 6 2 7 1 8
REMARK H PARENT
REMARK Flexibility Score: inf
ROOT
ATOM      1  C   UNL     1      10.210 -15.029  23.876  1.00  0.00     0.006 C 
ENDROOT
BRANCH   1   2
ATOM      2  C   UNL     1       8.853 -14.643  24.491  1.00  0.00     0.053 C 
BRANCH   2   3
ATOM      3  C   UNL     1       7.691 -15.088  23.656  1.00  0.00     0.041 C 
ATOM      4  O   UNL     1       7.256 -14.353  22.729  1.00  0.00    -0.550 OA
ATOM      5  O   UNL     1       7.068 -16.300  23.920  1.00  0.00    -0.550 OA
ENDBRANCH   2   3
ENDBRANCH   1   2
BRANCH   1   6
ATOM      6  C   UNL     1      10.886 -16.231  24.558  1.00  0.00     0.000 C 
BRANCH   6   7
ATOM      7  C   UNL     1      10.311 -16.538  25.948  1.00  0.00    -0.003 C 
ATOM      8  C   UNL     1      10.436 -18.022  26.281  1.00  0.00     0.004 C 
ENDBRANCH   6   7
ENDBRANCH   1   6
TORSDOF 4
ENDMDL
MODEL 6
REMARK VINA RESULT:    -3.108     10.243     11.349
REMARK INTER + INTRA:          -3.905
REMARK INTER:                  -3.814
REMARK INTRA:                  -0.091
REMARK UNBOUND:                -0.070
REMARK SMILES CCCCCC(=O)[O-]
REMARK SMILES IDX 4 1 5 2 6 3 7 4 8 5 3 6 2 7 1 8
REMARK H PARENT
REMARK Flexibility Score: inf
ROOT
ATOM      1  C   UNL     1      10.998 -15.628  23.941  1.00  0.00     0.006 C 
ENDROOT
BRANCH   1   2
ATOM      2  C   UNL     1       9.892 -14.564  23.824  1.00  0.00     0.053 C 
BRANCH   2   3
ATOM      3  C   UNL     1       8.614 -14.983  24.484  1.00  0.00     0.041 C 
ATOM      4  O   UNL     1       8.582 -15.207  25.724  1.00  0.00    -0.550 OA
ATOM      5  O   UNL     1       7.464 -15.157  23.726  1.00  0.00    -0.550 OA
ENDBRANCH   2   3
ENDBRANCH   1   2
BRANCH   1   6
ATOM      6  C   UNL     1      11.895 -15.736  22.695  1.00  0.00     0.000 C 
BRANCH   6   7
ATOM      7  C   UNL     1      13.328 -15.243  22.939  1.00  0.00    -0.003 C 
ATOM      8  C   UNL     1      13.593 -13.934  22.201  1.00  0.00     0.004 C 
ENDBRANCH   6   7
ENDBRANCH   1   6
TORSDOF 4
ENDMDL
MODEL 7
REMARK VINA RESULT:    -3.108     12.642     13.511
REMARK INTER + INTRA:          -3.905
REMARK INTER:                  -3.808
REMARK INTRA:                  -0.097
REMARK UNBOUND:                -0.070
REMARK SMILES CCCCCC(=O)[O-]
REMARK SMILES IDX 4 1 5 2 6 3 7 4 8 5 3 6 2 7 1 8
REMARK H PARENT
REMARK Flexibility Score: inf
ROOT
ATOM      1  C   UNL     1       7.290 -16.431  22.901  1.00  0.00     0.006 C 
ENDROOT
BRANCH   1   2
ATOM      2  C   UNL     1       7.508 -14.981  23.371  1.00  0.00     0.053 C 
BRANCH   2   3
ATOM      3  C   UNL     1       8.690 -14.840  24.281  1.00  0.00     0.041 C 
ATOM      4  O   UNL     1       8.579 -15.091  25.511  1.00  0.00    -0.550 OA
ATOM      5  O   UNL     1       9.906 -14.399  23.778  1.00  0.00    -0.550 OA
ENDBRANCH   2   3
ENDBRANCH   1   2
BRANCH   1   6
ATOM      6  C   UNL     1       6.302 -17.228  23.771  1.00  0.00     0.000 C 
BRANCH   6   7
ATOM      7  C   UNL     1       6.780 -18.656  24.071  1.00  0.00    -0.003 C 
ATOM      8  C   UNL     1       6.289 -19.636  23.009  1.00  0.00     0.004 C 
ENDBRANCH   6   7
ENDBRANCH   1   6
TORSDOF 4
ENDMDL
MODEL 8
REMARK VINA RESULT:    -3.096     12.486     13.296
REMARK INTER + INTRA:          -3.890
REMARK INTER:                  -3.647
REMARK INTRA:                  -0.243
REMARK UNBOUND:                -0.070
REMARK SMILES CCCCCC(=O)[O-]
REMARK SMILES IDX 4 1 5 2 6 3 7 4 8 5 3 6 2 7 1 8
REMARK H PARENT
REMARK Flexibility Score: inf
ROOT
ATOM      1  C   UNL     1       7.969 -15.197  23.306  1.00  0.00     0.006 C 
ENDROOT
BRANCH   1   2
ATOM      2  C   UNL     1       8.948 -14.686  24.379  1.00  0.00     0.053 C 
BRANCH   2   3
ATOM      3  C   UNL     1       9.025 -15.591  25.570  1.00  0.00     0.041 C 
ATOM      4  O   UNL     1       8.001 -15.806  26.273  1.00  0.00    -0.550 OA
ATOM      5  O   UNL     1      10.235 -16.173  25.925  1.00  0.00    -0.550 OA
ENDBRANCH   2   3
ENDBRANCH   1   2
BRANCH   1   6
ATOM      6  C   UNL     1       8.333 -16.579  22.735  1.00  0.00     0.000 C 
BRANCH   6   7
ATOM      7  C   UNL     1       7.108 -17.474  22.495  1.00  0.00    -0.003 C 
ATOM      8  C   UNL     1       6.317 -17.681  23.783  1.00  0.00     0.004 C 
ENDBRANCH   6   7
ENDBRANCH   1   6
TORSDOF 4
ENDMDL
MODEL 9
REMARK VINA RESULT:    -3.067     14.070     14.686
REMARK INTER + INTRA:          -3.855
REMARK INTER:                  -3.811
REMARK INTRA:                  -0.044
REMARK UNBOUND:                -0.070
REMARK SMILES CCCCCC(=O)[O-]
REMARK SMILES IDX 4 1 5 2 6 3 7 4 8 5 3 6 2 7 1 8
REMARK H PARENT
REMARK Flexibility Score: inf
ROOT
ATOM      1  C   UNL     1       6.777 -19.887  26.532  1.00  0.00     0.006 C 
ENDROOT
BRANCH   1   2
ATOM      2  C   UNL     1       7.156 -19.283  25.167  1.00  0.00     0.053 C 
BRANCH   2   3
ATOM      3  C   UNL     1       6.827 -17.825  25.068  1.00  0.00     0.041 C 
ATOM      4  O   UNL     1       7.345 -17.000  25.868  1.00  0.00    -0.550 OA
ATOM      5  O   UNL     1       5.923 -17.379  24.113  1.00  0.00    -0.550 OA
ENDBRANCH   2   3
ENDBRANCH   1   2
BRANCH   1   6
ATOM      6  C   UNL     1       6.431 -21.386  26.477  1.00  0.00     0.000 C 
BRANCH   6   7
ATOM      7  C   UNL     1       6.429 -22.054  27.859  1.00  0.00    -0.003 C 
ATOM      8  C   UNL     1       6.741 -23.544  27.751  1.00  0.00     0.004 C 
ENDBRANCH   6   7
ENDBRANCH   1   6
TORSDOF 4
ENDMDL
