MODEL 1
REMARK VINA RESULT:    -3.957      0.000      0.000
REMARK INTER + INTRA:          -4.122
REMARK INTER:                  -4.882
REMARK INTRA:                   0.760
REMARK UNBOUND:                 0.760
REMARK SMILES CC1=CC=CC(C)(C)CC1=O
REMARK SMILES IDX 1 1 2 2 3 3 10 4 11 5 9 6 4 8 5 9 6 10 7 11 8 12
REMARK H PARENT
REMARK Flexibility Score: 80.00
ROOT
ATOM      1  C   UNL     1      33.130  10.252  27.978  1.00  0.00     0.048 C 
ATOM      2  C   UNL     1      34.616  10.473  27.820  1.00  0.00    -0.008 C 
ATOM      3  C   UNL     1      35.210  11.351  28.659  1.00  0.00     0.007 C 
ENDROOT
BRANCH   2   4
ATOM      4  C   UNL     1      35.319   9.649  26.805  1.00  0.00     0.159 C 
ATOM      5  O   UNL     1      34.698   8.695  26.261  1.00  0.00    -0.295 OA
BRANCH   4   6
ATOM      6  C   UNL     1      36.732   9.895  26.376  1.00  0.00     0.091 CG0
ATOM      7  G   UNL     1      37.746   9.810  27.538  1.00  0.00     0.000 G0
ENDBRANCH   4   6
ENDBRANCH   2   4
BRANCH   3   8
ATOM      8  C   UNL     1      36.634  11.751  28.763  1.00  0.00    -0.003 C 
ATOM      9  C   UNL     1      37.724  11.121  28.310  1.00  0.00    -0.020 C 
BRANCH   9  10
ATOM     10  C   UNL     1      37.754   9.824  27.535  1.00  0.00    -0.010 CG0
ATOM     11  C   UNL     1      39.162   9.659  26.920  1.00  0.00     0.016 C 
ATOM     12  C   UNL     1      37.507   8.633  28.490  1.00  0.00     0.016 C 
ATOM     13  G   UNL     1      36.729   9.884  26.380  1.00  0.00     0.000 G0
ENDBRANCH   9  10
ENDBRANCH   3   8
TORSDOF 0
ENDMDL
MODEL 2
REMARK VINA RESULT:    -3.855      1.797      3.189
REMARK INTER + INTRA:          -3.996
REMARK INTER:                  -4.747
REMARK INTRA:                   0.751
REMARK UNBOUND:                 0.760
REMARK SMILES CC1=CC=CC(C)(C)CC1=O
REMARK SMILES IDX 1 1 2 2 3 3 10 4 11 5 9 6 4 8 5 9 6 10 7 11 8 12
REMARK H PARENT
REMARK Flexibility Score: 80.00
ROOT
ATOM      1  C   UNL     1      37.582  13.389  28.882  1.00  0.00     0.048 C 
ATOM      2  C   UNL     1      36.824  12.098  28.681  1.00  0.00    -0.008 C 
ATOM      3  C   UNL     1      35.476  12.147  28.758  1.00  0.00     0.007 C 
ENDROOT
BRANCH   2   4
ATOM      4  C   UNL     1      37.619  10.892  28.338  1.00  0.00     0.159 C 
ATOM      5  O   UNL     1      38.836  11.033  28.036  1.00  0.00    -0.295 OA
BRANCH   4   6
ATOM      6  C   UNL     1      37.058   9.504  28.344  1.00  0.00     0.091 CG0
ATOM      7  G   UNL     1      35.869   9.323  27.375  1.00  0.00     0.000 G0
ENDBRANCH   4   6
ENDBRANCH   2   4
BRANCH   3   8
ATOM      8  C   UNL     1      34.474  11.069  28.581  1.00  0.00    -0.003 C 
ATOM      9  C   UNL     1      34.613   9.874  27.994  1.00  0.00    -0.020 C 
BRANCH   9  10
ATOM     10  C   UNL     1      35.876   9.319  27.378  1.00  0.00    -0.010 CG0
ATOM     11  C   UNL     1      35.683   7.801  27.162  1.00  0.00     0.016 C 
ATOM     12  C   UNL     1      36.120   9.970  25.997  1.00  0.00     0.016 C 
ATOM     13  G   UNL     1      37.061   9.520  28.349  1.00  0.00     0.000 G0
ENDBRANCH   9  10
ENDBRANCH   3   8
TORSDOF 0
ENDMDL
MODEL 3
REMARK VINA RESULT:    -3.659      1.788      2.894
REMARK INTER + INTRA:          -3.754
REMARK INTER:                  -4.503
REMARK INTRA:                   0.749
REMARK UNBOUND:                 0.760
REMARK SMILES CC1=CC=CC(C)(C)CC1=O
REMARK SMILES IDX 1 1 2 2 3 3 10 4 11 5 9 6 4 8 5 9 6 10 7 11 8 12
REMARK H PARENT
REMARK Flexibility Score: 80.00
ROOT
ATOM      1  C   UNL     1      35.324  12.123  28.711  1.00  0.00     0.048 C 
ATOM      2  C   UNL     1      35.582  10.836  27.964  1.00  0.00    -0.008 C 
ATOM      3  C   UNL     1      34.541  10.269  27.317  1.00  0.00     0.007 C 
ENDROOT
BRANCH   2   4
ATOM      4  C   UNL     1      36.980  10.338  27.937  1.00  0.00     0.159 C 
ATOM      5  O   UNL     1      37.904  11.099  28.335  1.00  0.00    -0.295 OA
BRANCH   4   6
ATOM      6  C   UNL     1      37.360   8.966  27.473  1.00  0.00     0.091 CG0
ATOM      7  G   UNL     1      36.973   8.691  26.003  1.00  0.00     0.000 G0
ENDBRANCH   4   6
ENDBRANCH   2   4
BRANCH   3   8
ATOM      8  C   UNL     1      34.491   9.040  26.490  1.00  0.00    -0.003 C 
ATOM      9  C   UNL     1      35.495   8.364  25.919  1.00  0.00    -0.020 C 
BRANCH   9  10
ATOM     10  C   UNL     1      36.966   8.695  26.013  1.00  0.00    -0.010 CG0
ATOM     11  C   UNL     1      37.772   7.463  25.541  1.00  0.00     0.016 C 
ATOM     12  C   UNL     1      37.303   9.874  25.070  1.00  0.00     0.016 C 
ATOM     13  G   UNL     1      37.343   8.982  27.483  1.00  0.00     0.000 G0
ENDBRANCH   9  10
ENDBRANCH   3   8
TORSDOF 0
ENDMDL
MODEL 4
REMARK VINA RESULT:    -3.465      8.944     10.484
REMARK INTER + INTRA:          -3.515
REMARK INTER:                  -4.271
REMARK INTRA:                   0.756
REMARK UNBOUND:                 0.760
REMARK SMILES CC1=CC=CC(C)(C)CC1=O
REMARK SMILES IDX 1 1 2 2 3 3 10 4 11 5 9 6 4 8 5 9 6 10 7 11 8 12
REMARK H PARENT
REMARK Flexibility Score: 80.00
ROOT
ATOM      1  C   UNL     1      28.961   7.023  26.599  1.00  0.00     0.048 C 
ATOM      2  C   UNL     1      28.859   5.639  26.003  1.00  0.00    -0.008 C 
ATOM      3  C   UNL     1      29.683   5.337  24.976  1.00  0.00     0.007 C 
ENDROOT
BRANCH   2   4
ATOM      4  C   UNL     1      27.911   4.694  26.646  1.00  0.00     0.159 C 
ATOM      5  O   UNL     1      27.396   5.009  27.753  1.00  0.00    -0.295 OA
BRANCH   4   6
ATOM      6  C   UNL     1      27.517   3.381  26.043  1.00  0.00     0.091 CG0
ATOM      7  G   UNL     1      28.716   2.435  25.807  1.00  0.00     0.000 G0
ENDBRANCH   4   6
ENDBRANCH   2   4
BRANCH   3   8
ATOM      8  C   UNL     1      29.832   4.074  24.216  1.00  0.00    -0.003 C 
ATOM      9  C   UNL     1      29.441   2.837  24.547  1.00  0.00    -0.020 C 
BRANCH   9  10
ATOM     10  C   UNL     1      28.705   2.436  25.804  1.00  0.00    -0.010 CG0
ATOM     11  C   UNL     1      28.141   1.011  25.602  1.00  0.00     0.016 C 
ATOM     12  C   UNL     1      29.686   2.395  26.999  1.00  0.00     0.016 C 
ATOM     13  G   UNL     1      27.517   3.394  26.041  1.00  0.00     0.000 G0
ENDBRANCH   9  10
ENDBRANCH   3   8
TORSDOF 0
ENDMDL
MODEL 5
REMARK VINA RESULT:    -3.459      1.346      1.723
REMARK INTER + INTRA:          -3.508
REMARK INTER:                  -4.268
REMARK INTRA:                   0.760
REMARK UNBOUND:                 0.760
REMARK SMILES CC1=CC=CC(C)(C)CC1=O
REMARK SMILES IDX 1 1 2 2 3 3 10 4 11 5 9 6 4 8 5 9 6 10 7 11 8 12
REMARK H PARENT
REMARK Flexibility Score: 80.00
ROOT
ATOM      1  C   UNL     1      34.740   9.865  27.852  1.00  0.00     0.048 C 
ATOM      2  C   UNL     1      36.183  10.116  27.481  1.00  0.00    -0.008 C 
ATOM      3  C   UNL     1      36.947  10.792  28.366  1.00  0.00     0.007 C 
ENDROOT
BRANCH   2   4
ATOM      4  C   UNL     1      36.665   9.531  26.204  1.00  0.00     0.159 C 
ATOM      5  O   UNL     1      35.923   8.714  25.592  1.00  0.00    -0.295 OA
BRANCH   4   6
ATOM      6  C   UNL     1      37.987   9.869  25.588  1.00  0.00     0.091 CG0
ATOM      7  G   UNL     1      39.186   9.554  26.509  1.00  0.00     0.000 G0
ENDBRANCH   4   6
ENDBRANCH   2   4
BRANCH   3   8
ATOM      8  C   UNL     1      38.381  11.161  28.296  1.00  0.00    -0.003 C 
ATOM      9  C   UNL     1      39.350  10.647  27.529  1.00  0.00    -0.020 C 
BRANCH   9  10
ATOM     10  C   UNL     1      39.193   9.551  26.501  1.00  0.00    -0.010 CG0
ATOM     11  C   UNL     1      40.465   9.523  25.624  1.00  0.00     0.016 C 
ATOM     12  C   UNL     1      39.069   8.180  27.206  1.00  0.00     0.016 C 
ATOM     13  G   UNL     1      37.986   9.862  25.588  1.00  0.00     0.000 G0
ENDBRANCH   9  10
ENDBRANCH   3   8
TORSDOF 0
ENDMDL
MODEL 6
REMARK VINA RESULT:    -3.365      9.736     10.822
REMARK INTER + INTRA:          -3.392
REMARK INTER:                  -4.156
REMARK INTRA:                   0.764
REMARK UNBOUND:                 0.760
REMARK SMILES CC1=CC=CC(C)(C)CC1=O
REMARK SMILES IDX 1 1 2 2 3 3 10 4 11 5 9 6 4 8 5 9 6 10 7 11 8 12
REMARK H PARENT
REMARK Flexibility Score: 80.00
ROOT
ATOM      1  C   UNL     1      26.385   2.002  28.705  1.00  0.00     0.048 C 
ATOM      2  C   UNL     1      27.027   2.881  27.658  1.00  0.00    -0.008 C 
ATOM      3  C   UNL     1      27.286   4.164  27.993  1.00  0.00     0.007 C 
ENDROOT
BRANCH   2   4
ATOM      4  C   UNL     1      27.394   2.242  26.369  1.00  0.00     0.159 C 
ATOM      5  O   UNL     1      27.339   0.985  26.278  1.00  0.00    -0.295 OA
BRANCH   4   6
ATOM      6  C   UNL     1      27.817   3.011  25.156  1.00  0.00     0.091 CG0
ATOM      7  G   UNL     1      29.077   3.873  25.390  1.00  0.00     0.000 G0
ENDBRANCH   4   6
ENDBRANCH   2   4
BRANCH   3   8
ATOM      8  C   UNL     1      27.924   5.243  27.201  1.00  0.00    -0.003 C 
ATOM      9  C   UNL     1      28.693   5.148  26.109  1.00  0.00    -0.020 C 
BRANCH   9  10
ATOM     10  C   UNL     1      29.077   3.876  25.391  1.00  0.00    -0.010 CG0
ATOM     11  C   UNL     1      29.664   4.256  24.012  1.00  0.00     0.016 C 
ATOM     12  C   UNL     1      30.174   3.131  26.187  1.00  0.00     0.016 C 
ATOM     13  G   UNL     1      27.820   3.010  25.157  1.00  0.00     0.000 G0
ENDBRANCH   9  10
ENDBRANCH   3   8
TORSDOF 0
ENDMDL
MODEL 7
REMARK VINA RESULT:    -3.305      1.519      2.920
REMARK INTER + INTRA:          -3.317
REMARK INTER:                  -4.073
REMARK INTRA:                   0.756
REMARK UNBOUND:                 0.760
REMARK SMILES CC1=CC=CC(C)(C)CC1=O
REMARK SMILES IDX 1 1 2 2 3 3 10 4 11 5 9 6 4 8 5 9 6 10 7 11 8 12
REMARK H PARENT
REMARK Flexibility Score: 80.00
ROOT
ATOM      1  C   UNL     1      36.085   6.412  25.769  1.00  0.00     0.048 C 
ATOM      2  C   UNL     1      36.612   7.464  26.717  1.00  0.00    -0.008 C 
ATOM      3  C   UNL     1      37.541   7.082  27.620  1.00  0.00     0.007 C 
ENDROOT
BRANCH   2   4
ATOM      4  C   UNL     1      36.122   8.852  26.527  1.00  0.00     0.159 C 
ATOM      5  O   UNL     1      35.445   9.122  25.497  1.00  0.00    -0.295 OA
BRANCH   4   6
ATOM      6  C   UNL     1      36.375   9.958  27.505  1.00  0.00     0.091 CG0
ATOM      7  G   UNL     1      37.877  10.229  27.742  1.00  0.00     0.000 G0
ENDBRANCH   4   6
ENDBRANCH   2   4
BRANCH   3   8
ATOM      8  C   UNL     1      38.254   7.880  28.646  1.00  0.00    -0.003 C 
ATOM      9  C   UNL     1      38.420   9.206  28.720  1.00  0.00    -0.020 C 
BRANCH   9  10
ATOM     10  C   UNL     1      37.876  10.233  27.755  1.00  0.00    -0.010 CG0
ATOM     11  C   UNL     1      38.000  11.628  28.410  1.00  0.00     0.016 C 
ATOM     12  C   UNL     1      38.720  10.238  26.459  1.00  0.00     0.016 C 
ATOM     13  G   UNL     1      36.379   9.958  27.489  1.00  0.00     0.000 G0
ENDBRANCH   9  10
ENDBRANCH   3   8
TORSDOF 0
ENDMDL
MODEL 8
REMARK VINA RESULT:    -3.272      9.089     10.457
REMARK INTER + INTRA:          -3.277
REMARK INTER:                  -4.029
REMARK INTRA:                   0.752
REMARK UNBOUND:                 0.760
REMARK SMILES CC1=CC=CC(C)(C)CC1=O
REMARK SMILES IDX 1 1 2 2 3 3 10 4 11 5 9 6 4 8 5 9 6 10 7 11 8 12
REMARK H PARENT
REMARK Flexibility Score: 80.00
ROOT
ATOM      1  C   UNL     1      28.201   6.948  26.125  1.00  0.00     0.048 C 
ATOM      2  C   UNL     1      28.344   5.495  26.516  1.00  0.00    -0.008 C 
ATOM      3  C   UNL     1      27.508   5.018  27.464  1.00  0.00     0.007 C 
ENDROOT
BRANCH   2   4
ATOM      4  C   UNL     1      29.341   4.688  25.769  1.00  0.00     0.159 C 
ATOM      5  O   UNL     1      29.871   5.181  24.735  1.00  0.00    -0.295 OA
BRANCH   4   6
ATOM      6  C   UNL     1      29.769   3.314  26.183  1.00  0.00     0.091 CG0
ATOM      7  G   UNL     1      28.600   2.307  26.251  1.00  0.00     0.000 G0
ENDBRANCH   4   6
ENDBRANCH   2   4
BRANCH   3   8
ATOM      8  C   UNL     1      27.390   3.652  28.028  1.00  0.00    -0.003 C 
ATOM      9  C   UNL     1      27.829   2.491  27.527  1.00  0.00    -0.020 C 
BRANCH   9  10
ATOM     10  C   UNL     1      28.596   2.302  26.239  1.00  0.00    -0.010 CG0
ATOM     11  C   UNL     1      29.202   0.880  26.240  1.00  0.00     0.016 C 
ATOM     12  C   UNL     1      27.635   2.410  25.032  1.00  0.00     0.016 C 
ATOM     13  G   UNL     1      29.756   3.320  26.169  1.00  0.00     0.000 G0
ENDBRANCH   9  10
ENDBRANCH   3   8
TORSDOF 0
ENDMDL
MODEL 9
REMARK VINA RESULT:    -3.241      9.274     11.001
REMARK INTER + INTRA:          -3.238
REMARK INTER:                  -4.001
REMARK INTRA:                   0.763
REMARK UNBOUND:                 0.760
REMARK SMILES CC1=CC=CC(C)(C)CC1=O
REMARK SMILES IDX 1 1 2 2 3 3 10 4 11 5 9 6 4 8 5 9 6 10 7 11 8 12
REMARK H PARENT
REMARK Flexibility Score: 80.00
ROOT
ATOM      1  C   UNL     1      25.874   1.989  27.982  1.00  0.00     0.048 C 
ATOM      2  C   UNL     1      27.006   2.232  27.012  1.00  0.00    -0.008 C 
ATOM      3  C   UNL     1      26.797   1.918  25.715  1.00  0.00     0.007 C 
ENDROOT
BRANCH   2   4
ATOM      4  C   UNL     1      28.234   2.871  27.551  1.00  0.00     0.159 C 
ATOM      5  O   UNL     1      28.202   3.364  28.712  1.00  0.00    -0.295 OA
BRANCH   4   6
ATOM      6  C   UNL     1      29.523   2.953  26.794  1.00  0.00     0.091 CG0
ATOM      7  G   UNL     1      29.398   3.721  25.459  1.00  0.00     0.000 G0
ENDBRANCH   4   6
ENDBRANCH   2   4
BRANCH   3   8
ATOM      8  C   UNL     1      27.694   2.066  24.544  1.00  0.00    -0.003 C 
ATOM      9  C   UNL     1      28.788   2.825  24.409  1.00  0.00    -0.020 C 
BRANCH   9  10
ATOM     10  C   UNL     1      29.398   3.716  25.465  1.00  0.00    -0.010 CG0
ATOM     11  C   UNL     1      30.819   4.113  25.004  1.00  0.00     0.016 C 
ATOM     12  C   UNL     1      28.564   5.011  25.609  1.00  0.00     0.016 C 
ATOM     13  G   UNL     1      29.523   2.938  26.794  1.00  0.00     0.000 G0
ENDBRANCH   9  10
ENDBRANCH   3   8
TORSDOF 0
ENDMDL
