MODEL 1
REMARK VINA RESULT:    -3.531      0.000      0.000
REMARK INTER + INTRA:          -5.357
REMARK INTER:                  -4.976
REMARK INTRA:                  -0.381
REMARK UNBOUND:                -0.381
REMARK SMILES CCCCCCCCC(=O)[O-]
REMARK SMILES IDX 6 1 7 2 8 3 9 4 10 5 11 6 5 7 4 8 3 9 2 10 1 11
REMARK H PARENT
REMARK Flexibility Score: inf
ROOT
ATOM      1  C   UNL     1      61.183  31.605  61.050  1.00  0.00     0.000 C 
ENDROOT
BRANCH   1   2
ATOM      2  C   UNL     1      61.795  30.331  61.652  1.00  0.00     0.006 C 
BRANCH   2   3
ATOM      3  C   UNL     1      63.300  30.261  61.376  1.00  0.00     0.053 C 
BRANCH   3   4
ATOM      4  C   UNL     1      63.748  28.839  61.266  1.00  0.00     0.041 C 
ATOM      5  O   UNL     1      62.913  27.902  61.375  1.00  0.00    -0.550 OA
ATOM      6  O   UNL     1      65.079  28.547  60.996  1.00  0.00    -0.550 OA
ENDBRANCH   3   4
ENDBRANCH   2   3
ENDBRANCH   1   2
BRANCH   1   7
ATOM      7  C   UNL     1      62.246  32.609  60.581  1.00  0.00     0.000 C 
BRANCH   7   8
ATOM      8  C   UNL     1      61.653  33.988  60.253  1.00  0.00    -0.000 C 
BRANCH   8   9
ATOM      9  C   UNL     1      62.615  35.111  60.661  1.00  0.00    -0.000 C 
BRANCH   9  10
ATOM     10  C   UNL     1      64.009  34.555  60.973  1.00  0.00    -0.003 C 
ATOM     11  C   UNL     1      64.845  35.566  61.751  1.00  0.00     0.004 C 
ENDBRANCH   9  10
ENDBRANCH   8   9
ENDBRANCH   7   8
ENDBRANCH   1   7
TORSDOF 7
ENDMDL
MODEL 2
REMARK VINA RESULT:    -3.518      1.122      1.496
REMARK INTER + INTRA:          -5.338
REMARK INTER:                  -5.032
REMARK INTRA:                  -0.306
REMARK UNBOUND:                -0.381
REMARK SMILES CCCCCCCCC(=O)[O-]
REMARK SMILES IDX 6 1 7 2 8 3 9 4 10 5 11 6 5 7 4 8 3 9 2 10 1 11
REMARK H PARENT
REMARK Flexibility Score: inf
ROOT
ATOM      1  C   UNL     1      61.237  32.036  60.312  1.00  0.00     0.000 C 
ENDROOT
BRANCH   1   2
ATOM      2  C   UNL     1      61.020  31.038  61.459  1.00  0.00     0.006 C 
BRANCH   2   3
ATOM      3  C   UNL     1      61.055  29.595  60.946  1.00  0.00     0.053 C 
BRANCH   3   4
ATOM      4  C   UNL     1      62.241  28.871  61.499  1.00  0.00     0.041 C 
ATOM      5  O   UNL     1      63.339  29.471  61.640  1.00  0.00    -0.550 OA
ATOM      6  O   UNL     1      62.122  27.548  61.903  1.00  0.00    -0.550 OA
ENDBRANCH   3   4
ENDBRANCH   2   3
ENDBRANCH   1   2
BRANCH   1   7
ATOM      7  C   UNL     1      62.313  33.084  60.632  1.00  0.00     0.000 C 
BRANCH   7   8
ATOM      8  C   UNL     1      61.799  34.524  60.488  1.00  0.00    -0.000 C 
BRANCH   8   9
ATOM      9  C   UNL     1      62.813  35.528  61.050  1.00  0.00    -0.000 C 
BRANCH   9  10
ATOM     10  C   UNL     1      64.172  34.861  61.294  1.00  0.00    -0.003 C 
ATOM     11  C   UNL     1      65.244  35.896  61.617  1.00  0.00     0.004 C 
ENDBRANCH   9  10
ENDBRANCH   8   9
ENDBRANCH   7   8
ENDBRANCH   1   7
TORSDOF 7
ENDMDL
MODEL 3
REMARK VINA RESULT:    -3.482     12.708     13.851
REMARK INTER + INTRA:          -5.287
REMARK INTER:                  -4.911
REMARK INTRA:                  -0.376
REMARK UNBOUND:                -0.381
REMARK SMILES CCCCCCCCC(=O)[O-]
REMARK SMILES IDX 6 1 7 2 8 3 9 4 10 5 11 6 5 7 4 8 3 9 2 10 1 11
REMARK H PARENT
REMARK Flexibility Score: inf
ROOT
ATOM      1  C   UNL     1      57.569  28.641  51.285  1.00  0.00     0.000 C 
ENDROOT
BRANCH   1   2
ATOM      2  C   UNL     1      58.872  29.254  50.752  1.00  0.00     0.006 C 
BRANCH   2   3
ATOM      3  C   UNL     1      59.123  28.834  49.301  1.00  0.00     0.053 C 
BRANCH   3   4
ATOM      4  C   UNL     1      59.996  27.621  49.250  1.00  0.00     0.041 C 
ATOM      5  O   UNL     1      59.483  26.472  49.226  1.00  0.00    -0.550 OA
ATOM      6  O   UNL     1      61.377  27.760  49.180  1.00  0.00    -0.550 OA
ENDBRANCH   3   4
ENDBRANCH   2   3
ENDBRANCH   1   2
BRANCH   1   7
ATOM      7  C   UNL     1      56.538  28.381  50.176  1.00  0.00     0.000 C 
BRANCH   7   8
ATOM      8  C   UNL     1      55.119  28.820  50.572  1.00  0.00    -0.000 C 
BRANCH   8   9
ATOM      9  C   UNL     1      54.077  27.802  50.095  1.00  0.00    -0.000 C 
BRANCH   9  10
ATOM     10  C   UNL     1      54.740  26.476  49.704  1.00  0.00    -0.003 C 
ATOM     11  C   UNL     1      53.757  25.559  48.982  1.00  0.00     0.004 C 
ENDBRANCH   9  10
ENDBRANCH   8   9
ENDBRANCH   7   8
ENDBRANCH   1   7
TORSDOF 7
ENDMDL
MODEL 4
REMARK VINA RESULT:    -3.374      1.652      2.617
REMARK INTER + INTRA:          -5.135
REMARK INTER:                  -4.687
REMARK INTRA:                  -0.448
REMARK UNBOUND:                -0.381
REMARK SMILES CCCCCCCCC(=O)[O-]
REMARK SMILES IDX 6 1 7 2 8 3 9 4 10 5 11 6 5 7 4 8 3 9 2 10 1 11
REMARK H PARENT
REMARK Flexibility Score: inf
ROOT
ATOM      1  C   UNL     1      61.432  33.843  59.786  1.00  0.00     0.000 C 
ENDROOT
BRANCH   1   2
ATOM      2  C   UNL     1      62.295  32.918  60.658  1.00  0.00     0.006 C 
BRANCH   2   3
ATOM      3  C   UNL     1      62.065  31.449  60.293  1.00  0.00     0.053 C 
BRANCH   3   4
ATOM      4  C   UNL     1      61.587  30.681  61.484  1.00  0.00     0.041 C 
ATOM      5  O   UNL     1      60.513  31.005  62.056  1.00  0.00    -0.550 OA
ATOM      6  O   UNL     1      62.302  29.578  61.934  1.00  0.00    -0.550 OA
ENDBRANCH   3   4
ENDBRANCH   2   3
ENDBRANCH   1   2
BRANCH   1   7
ATOM      7  C   UNL     1      61.279  35.250  60.385  1.00  0.00     0.000 C 
BRANCH   7   8
ATOM      8  C   UNL     1      62.526  36.122  60.176  1.00  0.00    -0.000 C 
BRANCH   8   9
ATOM      9  C   UNL     1      62.868  36.905  61.449  1.00  0.00    -0.000 C 
BRANCH   9  10
ATOM     10  C   UNL     1      64.360  36.789  61.783  1.00  0.00    -0.003 C 
ATOM     11  C   UNL     1      64.835  35.343  61.690  1.00  0.00     0.004 C 
ENDBRANCH   9  10
ENDBRANCH   8   9
ENDBRANCH   7   8
ENDBRANCH   1   7
TORSDOF 7
ENDMDL
MODEL 5
REMARK VINA RESULT:    -3.328     13.125     14.098
REMARK INTER + INTRA:          -5.071
REMARK INTER:                  -4.495
REMARK INTRA:                  -0.575
REMARK UNBOUND:                -0.381
REMARK SMILES CCCCCCCCC(=O)[O-]
REMARK SMILES IDX 6 1 7 2 8 3 9 4 10 5 11 6 5 7 4 8 3 9 2 10 1 11
REMARK H PARENT
REMARK Flexibility Score: inf
ROOT
ATOM      1  C   UNL     1      57.351  28.420  50.813  1.00  0.00     0.000 C 
ENDROOT
BRANCH   1   2
ATOM      2  C   UNL     1      55.899  28.124  50.410  1.00  0.00     0.006 C 
BRANCH   2   3
ATOM      3  C   UNL     1      55.699  26.632  50.132  1.00  0.00     0.053 C 
BRANCH   3   4
ATOM      4  C   UNL     1      54.359  26.388  49.514  1.00  0.00     0.041 C 
ATOM      5  O   UNL     1      54.029  25.227  49.156  1.00  0.00    -0.550 OA
ATOM      6  O   UNL     1      53.455  27.434  49.378  1.00  0.00    -0.550 OA
ENDBRANCH   3   4
ENDBRANCH   2   3
ENDBRANCH   1   2
BRANCH   1   7
ATOM      7  C   UNL     1      58.103  29.248  49.761  1.00  0.00     0.000 C 
BRANCH   7   8
ATOM      8  C   UNL     1      59.442  28.614  49.354  1.00  0.00    -0.000 C 
BRANCH   8   9
ATOM      9  C   UNL     1      59.856  27.521  50.347  1.00  0.00    -0.000 C 
BRANCH   9  10
ATOM     10  C   UNL     1      59.871  26.143  49.675  1.00  0.00    -0.003 C 
ATOM     11  C   UNL     1      59.091  25.120  50.496  1.00  0.00     0.004 C 
ENDBRANCH   9  10
ENDBRANCH   8   9
ENDBRANCH   7   8
ENDBRANCH   1   7
TORSDOF 7
ENDMDL
MODEL 6
REMARK VINA RESULT:    -3.322      3.779      5.963
REMARK INTER + INTRA:          -5.062
REMARK INTER:                  -4.684
REMARK INTRA:                  -0.378
REMARK UNBOUND:                -0.381
REMARK SMILES CCCCCCCCC(=O)[O-]
REMARK SMILES IDX 6 1 7 2 8 3 9 4 10 5 11 6 5 7 4 8 3 9 2 10 1 11
REMARK H PARENT
REMARK Flexibility Score: inf
ROOT
ATOM      1  C   UNL     1      62.712  32.233  60.376  1.00  0.00     0.000 C 
ENDROOT
BRANCH   1   2
ATOM      2  C   UNL     1      63.115  33.696  60.612  1.00  0.00     0.006 C 
BRANCH   2   3
ATOM      3  C   UNL     1      61.892  34.617  60.567  1.00  0.00     0.053 C 
BRANCH   3   4
ATOM      4  C   UNL     1      62.249  35.987  61.049  1.00  0.00     0.041 C 
ATOM      5  O   UNL     1      63.407  36.223  61.484  1.00  0.00    -0.550 OA
ATOM      6  O   UNL     1      61.319  37.016  60.973  1.00  0.00    -0.550 OA
ENDBRANCH   3   4
ENDBRANCH   2   3
ENDBRANCH   1   2
BRANCH   1   7
ATOM      7  C   UNL     1      61.216  31.983  60.620  1.00  0.00     0.000 C 
BRANCH   7   8
ATOM      8  C   UNL     1      60.960  30.799  61.566  1.00  0.00    -0.000 C 
BRANCH   8   9
ATOM      9  C   UNL     1      62.247  30.002  61.808  1.00  0.00    -0.000 C 
BRANCH   9  10
ATOM     10  C   UNL     1      62.054  28.524  61.450  1.00  0.00    -0.003 C 
ATOM     11  C   UNL     1      63.365  27.891  60.992  1.00  0.00     0.004 C 
ENDBRANCH   9  10
ENDBRANCH   8   9
ENDBRANCH   7   8
ENDBRANCH   1   7
TORSDOF 7
ENDMDL
MODEL 7
REMARK VINA RESULT:    -3.318     13.015     14.228
REMARK INTER + INTRA:          -5.057
REMARK INTER:                  -4.493
REMARK INTRA:                  -0.564
REMARK UNBOUND:                -0.381
REMARK SMILES CCCCCCCCC(=O)[O-]
REMARK SMILES IDX 6 1 7 2 8 3 9 4 10 5 11 6 5 7 4 8 3 9 2 10 1 11
REMARK H PARENT
REMARK Flexibility Score: inf
ROOT
ATOM      1  C   UNL     1      56.019  28.608  51.735  1.00  0.00     0.000 C 
ENDROOT
BRANCH   1   2
ATOM      2  C   UNL     1      56.869  28.900  50.488  1.00  0.00     0.006 C 
BRANCH   2   3
ATOM      3  C   UNL     1      57.925  27.811  50.277  1.00  0.00     0.053 C 
BRANCH   3   4
ATOM      4  C   UNL     1      59.012  28.303  49.376  1.00  0.00     0.041 C 
ATOM      5  O   UNL     1      58.946  29.457  48.877  1.00  0.00    -0.550 OA
ATOM      6  O   UNL     1      60.122  27.506  49.125  1.00  0.00    -0.550 OA
ENDBRANCH   3   4
ENDBRANCH   2   3
ENDBRANCH   1   2
BRANCH   1   7
ATOM      7  C   UNL     1      54.514  28.784  51.481  1.00  0.00     0.000 C 
BRANCH   7   8
ATOM      8  C   UNL     1      54.114  28.448  50.036  1.00  0.00    -0.000 C 
BRANCH   8   9
ATOM      9  C   UNL     1      52.981  27.415  50.007  1.00  0.00    -0.000 C 
BRANCH   9  10
ATOM     10  C   UNL     1      53.338  26.231  49.100  1.00  0.00    -0.003 C 
ATOM     11  C   UNL     1      54.794  25.814  49.286  1.00  0.00     0.004 C 
ENDBRANCH   9  10
ENDBRANCH   8   9
ENDBRANCH   7   8
ENDBRANCH   1   7
TORSDOF 7
ENDMDL
MODEL 8
REMARK VINA RESULT:    -3.279      3.546      5.295
REMARK INTER + INTRA:          -5.001
REMARK INTER:                  -4.442
REMARK INTRA:                  -0.559
REMARK UNBOUND:                -0.381
REMARK SMILES CCCCCCCCC(=O)[O-]
REMARK SMILES IDX 6 1 7 2 8 3 9 4 10 5 11 6 5 7 4 8 3 9 2 10 1 11
REMARK H PARENT
REMARK Flexibility Score: inf
ROOT
ATOM      1  C   UNL     1      61.979  33.601  60.608  1.00  0.00     0.000 C 
ENDROOT
BRANCH   1   2
ATOM      2  C   UNL     1      63.304  34.236  60.159  1.00  0.00     0.006 C 
BRANCH   2   3
ATOM      3  C   UNL     1      64.300  34.306  61.320  1.00  0.00     0.053 C 
BRANCH   3   4
ATOM      4  C   UNL     1      64.939  35.657  61.381  1.00  0.00     0.041 C 
ATOM      5  O   UNL     1      64.639  36.459  62.304  1.00  0.00    -0.550 OA
ATOM      6  O   UNL     1      65.903  36.013  60.446  1.00  0.00    -0.550 OA
ENDBRANCH   3   4
ENDBRANCH   2   3
ENDBRANCH   1   2
BRANCH   1   7
ATOM      7  C   UNL     1      61.285  32.816  59.484  1.00  0.00     0.000 C 
BRANCH   7   8
ATOM      8  C   UNL     1      60.982  31.362  59.877  1.00  0.00    -0.000 C 
BRANCH   8   9
ATOM      9  C   UNL     1      61.029  31.183  61.399  1.00  0.00    -0.000 C 
BRANCH   9  10
ATOM     10  C   UNL     1      61.906  29.987  61.786  1.00  0.00    -0.003 C 
ATOM     11  C   UNL     1      63.370  30.240  61.438  1.00  0.00     0.004 C 
ENDBRANCH   9  10
ENDBRANCH   8   9
ENDBRANCH   7   8
ENDBRANCH   1   7
TORSDOF 7
ENDMDL
MODEL 9
REMARK VINA RESULT:    -3.209      3.622      5.588
REMARK INTER + INTRA:          -4.902
REMARK INTER:                  -4.310
REMARK INTRA:                  -0.592
REMARK UNBOUND:                -0.381
REMARK SMILES CCCCCCCCC(=O)[O-]
REMARK SMILES IDX 6 1 7 2 8 3 9 4 10 5 11 6 5 7 4 8 3 9 2 10 1 11
REMARK H PARENT
REMARK Flexibility Score: inf
ROOT
ATOM      1  C   UNL     1      64.254  32.376  59.708  1.00  0.00     0.000 C 
ENDROOT
BRANCH   1   2
ATOM      2  C   UNL     1      63.990  33.419  60.804  1.00  0.00     0.006 C 
BRANCH   2   3
ATOM      3  C   UNL     1      62.625  34.086  60.611  1.00  0.00     0.053 C 
BRANCH   3   4
ATOM      4  C   UNL     1      62.677  35.520  61.031  1.00  0.00     0.041 C 
ATOM      5  O   UNL     1      61.649  36.242  60.949  1.00  0.00    -0.550 OA
ATOM      6  O   UNL     1      63.849  36.048  61.558  1.00  0.00    -0.550 OA
ENDBRANCH   3   4
ENDBRANCH   2   3
ENDBRANCH   1   2
BRANCH   1   7
ATOM      7  C   UNL     1      64.903  31.094  60.251  1.00  0.00     0.000 C 
BRANCH   7   8
ATOM      8  C   UNL     1      63.916  29.920  60.335  1.00  0.00    -0.000 C 
BRANCH   8   9
ATOM      9  C   UNL     1      63.169  29.925  61.674  1.00  0.00    -0.000 C 
BRANCH   9  10
ATOM     10  C   UNL     1      61.668  29.692  61.469  1.00  0.00    -0.003 C 
ATOM     11  C   UNL     1      60.871  30.968  61.719  1.00  0.00     0.004 C 
ENDBRANCH   9  10
ENDBRANCH   8   9
ENDBRANCH   7   8
ENDBRANCH   1   7
TORSDOF 7
ENDMDL
