MODEL 1
REMARK VINA RESULT:    -3.118      0.000      0.000
REMARK INTER + INTRA:          -3.978
REMARK INTER:                  -3.756
REMARK INTRA:                  -0.222
REMARK UNBOUND:                -0.222
REMARK SMILES OCC(O)CO
REMARK SMILES IDX 3 1 5 2 6 3 2 5 1 6 4 8
REMARK H PARENT 6 4 1 7 4 9
REMARK Flexibility Score: inf
ROOT
ATOM      1  C   UNL     1     110.028 134.950 121.536  1.00  0.00     0.165 C 
ENDROOT
BRANCH   1   2
ATOM      2  C   UNL     1     109.923 136.134 122.509  1.00  0.00     0.190 C 
BRANCH   2   3
ATOM      3  O   UNL     1     109.299 137.221 121.881  1.00  0.00    -0.394 OA
ATOM      4  H   UNL     1     108.557 137.497 122.479  1.00  0.00     0.210 HD
ENDBRANCH   2   3
ENDBRANCH   1   2
BRANCH   1   5
ATOM      5  C   UNL     1     108.733 134.123 121.504  1.00  0.00     0.190 C 
BRANCH   5   6
ATOM      6  O   UNL     1     107.653 134.950 121.167  1.00  0.00    -0.394 OA
ATOM      7  H   UNL     1     108.046 135.825 120.910  1.00  0.00     0.210 HD
ENDBRANCH   5   6
ENDBRANCH   1   5
BRANCH   1   8
ATOM      8  O   UNL     1     111.125 134.138 121.872  1.00  0.00    -0.388 OA
ATOM      9  H   UNL     1     111.600 133.912 121.030  1.00  0.00     0.211 HD
ENDBRANCH   1   8
TORSDOF 5
ENDMDL
MODEL 2
REMARK VINA RESULT:    -3.113      0.884      2.374
REMARK INTER + INTRA:          -3.972
REMARK INTER:                  -3.749
REMARK INTRA:                  -0.224
REMARK UNBOUND:                -0.222
REMARK SMILES OCC(O)CO
REMARK SMILES IDX 3 1 5 2 6 3 2 5 1 6 4 8
REMARK H PARENT 6 4 1 7 4 9
REMARK Flexibility Score: inf
ROOT
ATOM      1  C   UNL     1     110.467 135.051 122.065  1.00  0.00     0.165 C 
ENDROOT
BRANCH   1   2
ATOM      2  C   UNL     1     109.296 134.062 122.160  1.00  0.00     0.190 C 
BRANCH   2   3
ATOM      3  O   UNL     1     108.187 134.557 121.459  1.00  0.00    -0.394 OA
ATOM      4  H   UNL     1     107.930 135.401 121.911  1.00  0.00     0.210 HD
ENDBRANCH   2   3
ENDBRANCH   1   2
BRANCH   1   5
ATOM      5  C   UNL     1     110.153 136.377 122.775  1.00  0.00     0.190 C 
BRANCH   5   6
ATOM      6  O   UNL     1     109.376 137.188 121.937  1.00  0.00    -0.394 OA
ATOM      7  H   UNL     1     109.912 137.326 121.114  1.00  0.00     0.210 HD
ENDBRANCH   5   6
ENDBRANCH   1   5
BRANCH   1   8
ATOM      8  O   UNL     1     110.804 135.279 120.719  1.00  0.00    -0.388 OA
ATOM      9  H   UNL     1     109.979 135.572 120.249  1.00  0.00     0.211 HD
ENDBRANCH   1   8
TORSDOF 5
ENDMDL
MODEL 3
REMARK VINA RESULT:    -3.075      1.515      3.100
REMARK INTER + INTRA:          -3.926
REMARK INTER:                  -3.924
REMARK INTRA:                  -0.003
REMARK UNBOUND:                -0.222
REMARK SMILES OCC(O)CO
REMARK SMILES IDX 3 1 5 2 6 3 2 5 1 6 4 8
REMARK H PARENT 6 4 1 7 4 9
REMARK Flexibility Score: inf
ROOT
ATOM      1  C   UNL     1     109.873 136.125 122.023  1.00  0.00     0.165 C 
ENDROOT
BRANCH   1   2
ATOM      2  C   UNL     1     109.175 134.797 121.689  1.00  0.00     0.190 C 
BRANCH   2   3
ATOM      3  O   UNL     1     107.835 135.029 121.348  1.00  0.00    -0.394 OA
ATOM      4  H   UNL     1     107.848 135.716 120.633  1.00  0.00     0.210 HD
ENDBRANCH   2   3
ENDBRANCH   1   2
BRANCH   1   5
ATOM      5  C   UNL     1     110.464 136.116 123.441  1.00  0.00     0.190 C 
BRANCH   5   6
ATOM      6  O   UNL     1     110.298 137.377 124.029  1.00  0.00    -0.394 OA
ATOM      7  H   UNL     1     109.409 137.361 124.470  1.00  0.00     0.210 HD
ENDBRANCH   5   6
ENDBRANCH   1   5
BRANCH   1   8
ATOM      8  O   UNL     1     108.979 137.198 121.867  1.00  0.00    -0.388 OA
ATOM      9  H   UNL     1     108.267 137.099 122.553  1.00  0.00     0.211 HD
ENDBRANCH   1   8
TORSDOF 5
ENDMDL
MODEL 4
REMARK VINA RESULT:    -3.060      2.015      2.459
REMARK INTER + INTRA:          -3.909
REMARK INTER:                  -3.686
REMARK INTRA:                  -0.222
REMARK UNBOUND:                -0.222
REMARK SMILES OCC(O)CO
REMARK SMILES IDX 3 1 5 2 6 3 2 5 1 6 4 8
REMARK H PARENT 6 4 1 7 4 9
REMARK Flexibility Score: inf
ROOT
ATOM      1  C   UNL     1     110.843 136.000 122.374  1.00  0.00     0.165 C 
ENDROOT
BRANCH   1   2
ATOM      2  C   UNL     1     110.753 135.637 123.865  1.00  0.00     0.190 C 
BRANCH   2   3
ATOM      3  O   UNL     1     110.289 136.735 124.602  1.00  0.00    -0.394 OA
ATOM      4  H   UNL     1     111.096 137.231 124.895  1.00  0.00     0.210 HD
ENDBRANCH   2   3
ENDBRANCH   1   2
BRANCH   1   5
ATOM      5  C   UNL     1     109.558 136.679 121.876  1.00  0.00     0.190 C 
BRANCH   5   6
ATOM      6  O   UNL     1     109.632 138.058 122.113  1.00  0.00    -0.394 OA
ATOM      7  H   UNL     1     109.115 138.492 121.385  1.00  0.00     0.210 HD
ENDBRANCH   5   6
ENDBRANCH   1   5
BRANCH   1   8
ATOM      8  O   UNL     1     111.125 134.854 121.610  1.00  0.00    -0.388 OA
ATOM      9  H   UNL     1     111.857 134.362 122.066  1.00  0.00     0.211 HD
ENDBRANCH   1   8
TORSDOF 5
ENDMDL
MODEL 5
REMARK VINA RESULT:    -2.997      2.019      2.776
REMARK INTER + INTRA:          -3.832
REMARK INTER:                  -3.609
REMARK INTRA:                  -0.223
REMARK UNBOUND:                -0.222
REMARK SMILES OCC(O)CO
REMARK SMILES IDX 3 1 5 2 6 3 2 5 1 6 4 8
REMARK H PARENT 6 4 1 7 4 9
REMARK Flexibility Score: inf
ROOT
ATOM      1  C   UNL     1     110.293 135.830 122.787  1.00  0.00     0.165 C 
ENDROOT
BRANCH   1   2
ATOM      2  C   UNL     1     109.857 136.891 121.764  1.00  0.00     0.190 C 
BRANCH   2   3
ATOM      3  O   UNL     1     109.729 138.140 122.389  1.00  0.00    -0.394 OA
ATOM      4  H   UNL     1     109.251 137.973 123.242  1.00  0.00     0.210 HD
ENDBRANCH   2   3
ENDBRANCH   1   2
BRANCH   1   5
ATOM      5  C   UNL     1     111.029 136.459 123.980  1.00  0.00     0.190 C 
BRANCH   5   6
ATOM      6  O   UNL     1     110.101 136.836 124.960  1.00  0.00    -0.394 OA
ATOM      7  H   UNL     1     110.185 137.820 125.055  1.00  0.00     0.210 HD
ENDBRANCH   5   6
ENDBRANCH   1   5
BRANCH   1   8
ATOM      8  O   UNL     1     111.095 134.857 122.167  1.00  0.00    -0.388 OA
ATOM      9  H   UNL     1     110.491 134.225 121.696  1.00  0.00     0.211 HD
ENDBRANCH   1   8
TORSDOF 5
ENDMDL
MODEL 6
REMARK VINA RESULT:    -2.941      2.068      3.043
REMARK INTER + INTRA:          -3.765
REMARK INTER:                  -3.753
REMARK INTRA:                  -0.012
REMARK UNBOUND:                -0.222
REMARK SMILES OCC(O)CO
REMARK SMILES IDX 3 1 5 2 6 3 2 5 1 6 4 8
REMARK H PARENT 6 4 1 7 4 9
REMARK Flexibility Score: inf
ROOT
ATOM      1  C   UNL     1     109.984 136.111 123.136  1.00  0.00     0.165 C 
ENDROOT
BRANCH   1   2
ATOM      2  C   UNL     1     111.125 135.122 122.856  1.00  0.00     0.190 C 
BRANCH   2   3
ATOM      3  O   UNL     1     111.118 134.747 121.505  1.00  0.00    -0.394 OA
ATOM      4  H   UNL     1     110.450 134.018 121.424  1.00  0.00     0.210 HD
ENDBRANCH   2   3
ENDBRANCH   1   2
BRANCH   1   5
ATOM      5  C   UNL     1     109.649 136.959 121.899  1.00  0.00     0.190 C 
BRANCH   5   6
ATOM      6  O   UNL     1     109.633 138.316 122.248  1.00  0.00    -0.394 OA
ATOM      7  H   UNL     1     108.680 138.553 122.389  1.00  0.00     0.210 HD
ENDBRANCH   5   6
ENDBRANCH   1   5
BRANCH   1   8
ATOM      8  O   UNL     1     110.310 136.935 124.227  1.00  0.00    -0.388 OA
ATOM      9  H   UNL     1     111.283 137.126 124.178  1.00  0.00     0.211 HD
ENDBRANCH   1   8
TORSDOF 5
ENDMDL
MODEL 7
REMARK VINA RESULT:    -2.899     10.585     11.325
REMARK INTER + INTRA:          -3.714
REMARK INTER:                  -3.684
REMARK INTRA:                  -0.031
REMARK UNBOUND:                -0.222
REMARK SMILES OCC(O)CO
REMARK SMILES IDX 3 1 5 2 6 3 2 5 1 6 4 8
REMARK H PARENT 6 4 1 7 4 9
REMARK Flexibility Score: inf
ROOT
ATOM      1  C   UNL     1     100.144 134.850 114.913  1.00  0.00     0.165 C 
ENDROOT
BRANCH   1   2
ATOM      2  C   UNL     1     100.701 135.282 113.548  1.00  0.00     0.190 C 
BRANCH   2   3
ATOM      3  O   UNL     1     102.043 135.667 113.674  1.00  0.00    -0.394 OA
ATOM      4  H   UNL     1     102.192 136.374 112.995  1.00  0.00     0.210 HD
ENDBRANCH   2   3
ENDBRANCH   1   2
BRANCH   1   5
ATOM      5  C   UNL     1     100.912 135.500 116.073  1.00  0.00     0.190 C 
BRANCH   5   6
ATOM      6  O   UNL     1     100.149 136.541 116.619  1.00  0.00    -0.394 OA
ATOM      7  H   UNL     1     100.259 136.476 117.604  1.00  0.00     0.210 HD
ENDBRANCH   5   6
ENDBRANCH   1   5
BRANCH   1   8
ATOM      8  O   UNL     1     100.168 133.449 115.027  1.00  0.00    -0.388 OA
ATOM      9  H   UNL     1     101.090 133.146 114.815  1.00  0.00     0.211 HD
ENDBRANCH   1   8
TORSDOF 5
ENDMDL
MODEL 8
REMARK VINA RESULT:    -2.792      1.741      2.227
REMARK INTER + INTRA:          -3.586
REMARK INTER:                  -3.395
REMARK INTRA:                  -0.191
REMARK UNBOUND:                -0.222
REMARK SMILES OCC(O)CO
REMARK SMILES IDX 3 1 5 2 6 3 2 5 1 6 4 8
REMARK H PARENT 6 4 1 7 4 9
REMARK Flexibility Score: inf
ROOT
ATOM      1  C   UNL     1     110.861 136.064 123.160  1.00  0.00     0.165 C 
ENDROOT
BRANCH   1   2
ATOM      2  C   UNL     1     110.444 137.530 123.353  1.00  0.00     0.190 C 
BRANCH   2   3
ATOM      3  O   UNL     1     109.751 137.987 122.224  1.00  0.00    -0.394 OA
ATOM      4  H   UNL     1     109.813 137.262 121.550  1.00  0.00     0.210 HD
ENDBRANCH   2   3
ENDBRANCH   1   2
BRANCH   1   5
ATOM      5  C   UNL     1     110.029 135.375 122.068  1.00  0.00     0.190 C 
BRANCH   5   6
ATOM      6  O   UNL     1     110.756 135.345 120.870  1.00  0.00    -0.394 OA
ATOM      7  H   UNL     1     111.554 135.917 121.018  1.00  0.00     0.210 HD
ENDBRANCH   5   6
ENDBRANCH   1   5
BRANCH   1   8
ATOM      8  O   UNL     1     110.759 135.364 124.375  1.00  0.00    -0.388 OA
ATOM      9  H   UNL     1     111.681 135.140 124.671  1.00  0.00     0.211 HD
ENDBRANCH   1   8
TORSDOF 5
ENDMDL
