MODEL 1
REMARK VINA RESULT:    26.437      0.000      0.000
REMARK INTER + INTRA:          67.387
REMARK INTER:                  69.711
REMARK INTRA:                  -2.323
REMARK UNBOUND:                -2.323
REMARK SMILES CCCCCCCCCCCCCCCCCCCCCCCCCCCCCC(=O)[O-]
REMARK SMILES IDX 16 1 17 2 18 3 19 4 20 5 21 6 22 7 23 8 24 9 25 10 26 11
REMARK SMILES IDX 27 12 28 13 29 14 30 15 31 16 32 17 15 18 14 19 13 20 12 21
REMARK SMILES IDX 11 22 10 23 9 24 8 25 7 26 6 27 5 28 4 29 3 30 2 31 1 32
REMARK H PARENT
REMARK Flexibility Score: inf
ROOT
ATOM      1  C   UNL     1     -12.083   3.169 -17.486  1.00  0.00     0.000 C 
ENDROOT
BRANCH   1   2
ATOM      2  C   UNL     1     -11.758   1.783 -16.900  1.00  0.00     0.000 C 
BRANCH   2   3
ATOM      3  C   UNL     1     -12.453   0.645 -17.666  1.00  0.00     0.000 C 
BRANCH   3   4
ATOM      4  C   UNL     1     -11.517  -0.550 -17.916  1.00  0.00     0.000 C 
BRANCH   4   5
ATOM      5  C   UNL     1     -12.127  -1.891 -17.468  1.00  0.00     0.000 C 
BRANCH   5   6
ATOM      6  C   UNL     1     -13.636  -1.857 -17.167  1.00  0.00     0.000 C 
BRANCH   6   7
ATOM      7  C   UNL     1     -13.962  -2.198 -15.702  1.00  0.00     0.000 C 
BRANCH   7   8
ATOM      8  C   UNL     1     -14.382  -3.665 -15.518  1.00  0.00     0.000 C 
BRANCH   8   9
ATOM      9  C   UNL     1     -14.231  -4.144 -14.063  1.00  0.00     0.000 C 
BRANCH   9  10
ATOM     10  C   UNL     1     -14.755  -3.121 -13.044  1.00  0.00     0.000 C 
BRANCH  10  11
ATOM     11  C   UNL     1     -14.845  -3.695 -11.622  1.00  0.00     0.000 C 
BRANCH  11  12
ATOM     12  C   UNL     1     -15.091  -2.584 -10.593  1.00  0.00     0.000 C 
BRANCH  12  13
ATOM     13  C   UNL     1     -13.763  -1.976 -10.118  1.00  0.00     0.006 C 
BRANCH  13  14
ATOM     14  C   UNL     1     -13.951  -0.594  -9.478  1.00  0.00     0.053 C 
BRANCH  14  15
ATOM     15  C   UNL     1     -13.954   0.503 -10.498  1.00  0.00     0.041 C 
ATOM     16  O   UNL     1     -13.006   1.332 -10.540  1.00  0.00    -0.550 OA
ATOM     17  O   UNL     1     -15.004   0.613 -11.402  1.00  0.00    -0.550 OA
ENDBRANCH  14  15
ENDBRANCH  13  14
ENDBRANCH  12  13
ENDBRANCH  11  12
ENDBRANCH  10  11
ENDBRANCH   9  10
ENDBRANCH   8   9
ENDBRANCH   7   8
ENDBRANCH   6   7
ENDBRANCH   5   6
ENDBRANCH   4   5
ENDBRANCH   3   4
ENDBRANCH   2   3
ENDBRANCH   1   2
BRANCH   1  18
ATOM     18  C   UNL     1     -13.180   3.113 -18.562  1.00  0.00     0.000 C 
BRANCH  18  19
ATOM     19  C   UNL     1     -14.594   3.254 -17.977  1.00  0.00     0.000 C 
BRANCH  19  20
ATOM     20  C   UNL     1     -15.375   4.362 -18.700  1.00  0.00     0.000 C 
BRANCH  20  21
ATOM     21  C   UNL     1     -14.459   5.418 -19.338  1.00  0.00     0.000 C 
BRANCH  21  22
ATOM     22  C   UNL     1     -15.221   6.376 -20.271  1.00  0.00     0.000 C 
BRANCH  22  23
ATOM     23  C   UNL     1     -14.596   7.783 -20.322  1.00  0.00     0.000 C 
BRANCH  23  24
ATOM     24  C   UNL     1     -14.965   8.706 -19.143  1.00  0.00    -0.000 C 
BRANCH  24  25
ATOM     25  C   UNL     1     -16.304   8.385 -18.450  1.00  0.00    -0.000 C 
BRANCH  25  26
ATOM     26  C   UNL     1     -16.390   8.793 -16.968  1.00  0.00    -0.000 C 
BRANCH  26  27
ATOM     27  C   UNL     1     -15.083   9.412 -16.444  1.00  0.00    -0.000 C 
BRANCH  27  28
ATOM     28  C   UNL     1     -14.611   8.781 -15.122  1.00  0.00    -0.000 C 
BRANCH  28  29
ATOM     29  C   UNL     1     -13.714   7.535 -15.271  1.00  0.00    -0.000 C 
BRANCH  29  30
ATOM     30  C   UNL     1     -12.926   7.448 -16.594  1.00  0.00    -0.000 C 
BRANCH  30  31
ATOM     31  C   UNL     1     -11.693   8.365 -16.673  1.00  0.00    -0.003 C 
ATOM     32  C   UNL     1     -11.880   9.528 -17.648  1.00  0.00     0.004 C 
ENDBRANCH  30  31
ENDBRANCH  29  30
ENDBRANCH  28  29
ENDBRANCH  27  28
ENDBRANCH  26  27
ENDBRANCH  25  26
ENDBRANCH  24  25
ENDBRANCH  23  24
ENDBRANCH  22  23
ENDBRANCH  21  22
ENDBRANCH  20  21
ENDBRANCH  19  20
ENDBRANCH  18  19
ENDBRANCH   1  18
TORSDOF 28
ENDMDL
MODEL 2
REMARK VINA RESULT:    26.741      0.745      1.809
REMARK INTER + INTRA:          68.188
REMARK INTER:                  69.625
REMARK INTRA:                  -1.437
REMARK UNBOUND:                -2.323
REMARK SMILES CCCCCCCCCCCCCCCCCCCCCCCCCCCCCC(=O)[O-]
REMARK SMILES IDX 16 1 17 2 18 3 19 4 20 5 21 6 22 7 23 8 24 9 25 10 26 11
REMARK SMILES IDX 27 12 28 13 29 14 30 15 31 16 32 17 15 18 14 19 13 20 12 21
REMARK SMILES IDX 11 22 10 23 9 24 8 25 7 26 6 27 5 28 4 29 3 30 2 31 1 32
REMARK H PARENT
REMARK Flexibility Score: inf
ROOT
ATOM      1  C   UNL     1     -12.754   0.993 -18.128  1.00  0.00     0.000 C 
ENDROOT
BRANCH   1   2
ATOM      2  C   UNL     1     -11.976  -0.235 -18.633  1.00  0.00     0.000 C 
BRANCH   2   3
ATOM      3  C   UNL     1     -12.021  -1.407 -17.638  1.00  0.00     0.000 C 
BRANCH   3   4
ATOM      4  C   UNL     1     -13.460  -1.830 -17.295  1.00  0.00     0.000 C 
BRANCH   4   5
ATOM      5  C   UNL     1     -13.622  -2.264 -15.826  1.00  0.00     0.000 C 
BRANCH   5   6
ATOM      6  C   UNL     1     -14.789  -3.229 -15.554  1.00  0.00     0.000 C 
BRANCH   6   7
ATOM      7  C   UNL     1     -14.338  -4.544 -14.893  1.00  0.00     0.000 C 
BRANCH   7   8
ATOM      8  C   UNL     1     -13.975  -4.364 -13.411  1.00  0.00     0.000 C 
BRANCH   8   9
ATOM      9  C   UNL     1     -14.739  -3.202 -12.752  1.00  0.00     0.000 C 
BRANCH   9  10
ATOM     10  C   UNL     1     -15.439  -3.615 -11.448  1.00  0.00     0.000 C 
BRANCH  10  11
ATOM     11  C   UNL     1     -14.460  -3.767 -10.274  1.00  0.00     0.000 C 
BRANCH  11  12
ATOM     12  C   UNL     1     -13.597  -2.510 -10.107  1.00  0.00     0.000 C 
BRANCH  12  13
ATOM     13  C   UNL     1     -14.473  -1.279  -9.831  1.00  0.00     0.006 C 
BRANCH  13  14
ATOM     14  C   UNL     1     -13.666   0.026  -9.847  1.00  0.00     0.053 C 
BRANCH  14  15
ATOM     15  C   UNL     1     -14.023   0.895 -11.014  1.00  0.00     0.041 C 
ATOM     16  O   UNL     1     -15.189   0.867 -11.491  1.00  0.00    -0.550 OA
ATOM     17  O   UNL     1     -13.068   1.735 -11.576  1.00  0.00    -0.550 OA
ENDBRANCH  14  15
ENDBRANCH  13  14
ENDBRANCH  12  13
ENDBRANCH  11  12
ENDBRANCH  10  11
ENDBRANCH   9  10
ENDBRANCH   8   9
ENDBRANCH   7   8
ENDBRANCH   6   7
ENDBRANCH   5   6
ENDBRANCH   4   5
ENDBRANCH   3   4
ENDBRANCH   2   3
ENDBRANCH   1   2
BRANCH   1  18
ATOM     18  C   UNL     1     -11.936   1.848 -17.146  1.00  0.00     0.000 C 
BRANCH  18  19
ATOM     19  C   UNL     1     -12.073   3.355 -17.413  1.00  0.00     0.000 C 
BRANCH  19  20
ATOM     20  C   UNL     1     -13.547   3.744 -17.605  1.00  0.00     0.000 C 
BRANCH  20  21
ATOM     21  C   UNL     1     -13.879   4.127 -19.055  1.00  0.00     0.000 C 
BRANCH  21  22
ATOM     22  C   UNL     1     -14.923   5.255 -19.146  1.00  0.00     0.000 C 
BRANCH  22  23
ATOM     23  C   UNL     1     -14.555   6.326 -20.188  1.00  0.00     0.000 C 
BRANCH  23  24
ATOM     24  C   UNL     1     -15.384   7.625 -20.112  1.00  0.00    -0.000 C 
BRANCH  24  25
ATOM     25  C   UNL     1     -15.214   8.439 -18.814  1.00  0.00    -0.000 C 
BRANCH  25  26
ATOM     26  C   UNL     1     -16.504   8.660 -18.005  1.00  0.00    -0.000 C 
BRANCH  26  27
ATOM     27  C   UNL     1     -16.237   9.220 -16.598  1.00  0.00    -0.000 C 
BRANCH  27  28
ATOM     28  C   UNL     1     -14.741   9.235 -16.234  1.00  0.00    -0.000 C 
BRANCH  28  29
ATOM     29  C   UNL     1     -14.325   8.245 -15.127  1.00  0.00    -0.000 C 
BRANCH  29  30
ATOM     30  C   UNL     1     -13.475   7.048 -15.603  1.00  0.00    -0.000 C 
BRANCH  30  31
ATOM     31  C   UNL     1     -12.103   7.424 -16.190  1.00  0.00    -0.003 C 
ATOM     32  C   UNL     1     -12.175   8.610 -17.152  1.00  0.00     0.004 C 
ENDBRANCH  30  31
ENDBRANCH  29  30
ENDBRANCH  28  29
ENDBRANCH  27  28
ENDBRANCH  26  27
ENDBRANCH  25  26
ENDBRANCH  24  25
ENDBRANCH  23  24
ENDBRANCH  22  23
ENDBRANCH  21  22
ENDBRANCH  20  21
ENDBRANCH  19  20
ENDBRANCH  18  19
ENDBRANCH   1  18
TORSDOF 28
ENDMDL
MODEL 3
REMARK VINA RESULT:    26.814      2.320     10.115
REMARK INTER + INTRA:          68.383
REMARK INTER:                  69.336
REMARK INTRA:                  -0.953
REMARK UNBOUND:                -2.323
REMARK SMILES CCCCCCCCCCCCCCCCCCCCCCCCCCCCCC(=O)[O-]
REMARK SMILES IDX 16 1 17 2 18 3 19 4 20 5 21 6 22 7 23 8 24 9 25 10 26 11
REMARK SMILES IDX 27 12 28 13 29 14 30 15 31 16 32 17 15 18 14 19 13 20 12 21
REMARK SMILES IDX 11 22 10 23 9 24 8 25 7 26 6 27 5 28 4 29 3 30 2 31 1 32
REMARK H PARENT
REMARK Flexibility Score: inf
ROOT
ATOM      1  C   UNL     1     -12.672   0.362 -18.288  1.00  0.00     0.000 C 
ENDROOT
BRANCH   1   2
ATOM      2  C   UNL     1     -12.747   1.366 -17.123  1.00  0.00     0.000 C 
BRANCH   2   3
ATOM      3  C   UNL     1     -11.660   2.450 -17.213  1.00  0.00     0.000 C 
BRANCH   3   4
ATOM      4  C   UNL     1     -12.250   3.870 -17.249  1.00  0.00     0.000 C 
BRANCH   4   5
ATOM      5  C   UNL     1     -13.660   3.917 -17.869  1.00  0.00     0.000 C 
BRANCH   5   6
ATOM      6  C   UNL     1     -13.746   4.593 -19.249  1.00  0.00     0.000 C 
BRANCH   6   7
ATOM      7  C   UNL     1     -15.066   5.356 -19.460  1.00  0.00     0.000 C 
BRANCH   7   8
ATOM      8  C   UNL     1     -15.013   6.301 -20.670  1.00  0.00     0.000 C 
BRANCH   8   9
ATOM      9  C   UNL     1     -14.486   7.701 -20.303  1.00  0.00     0.000 C 
BRANCH   9  10
ATOM     10  C   UNL     1     -15.349   8.400 -19.243  1.00  0.00     0.000 C 
BRANCH  10  11
ATOM     11  C   UNL     1     -14.787   8.243 -17.823  1.00  0.00     0.000 C 
BRANCH  11  12
ATOM     12  C   UNL     1     -13.344   8.759 -17.739  1.00  0.00     0.000 C 
BRANCH  12  13
ATOM     13  C   UNL     1     -12.550   7.992 -16.672  1.00  0.00     0.006 C 
BRANCH  13  14
ATOM     14  C   UNL     1     -13.462   7.348 -15.619  1.00  0.00     0.053 C 
BRANCH  14  15
ATOM     15  C   UNL     1     -14.122   8.370 -14.745  1.00  0.00     0.041 C 
ATOM     16  O   UNL     1     -13.829   8.443 -13.522  1.00  0.00    -0.550 OA
ATOM     17  O   UNL     1     -15.063   9.243 -15.281  1.00  0.00    -0.550 OA
ENDBRANCH  14  15
ENDBRANCH  13  14
ENDBRANCH  12  13
ENDBRANCH  11  12
ENDBRANCH  10  11
ENDBRANCH   9  10
ENDBRANCH   8   9
ENDBRANCH   7   8
ENDBRANCH   6   7
ENDBRANCH   5   6
ENDBRANCH   4   5
ENDBRANCH   3   4
ENDBRANCH   2   3
ENDBRANCH   1   2
BRANCH   1  18
ATOM     18  C   UNL     1     -11.522  -0.645 -18.127  1.00  0.00     0.000 C 
BRANCH  18  19
ATOM     19  C   UNL     1     -11.973  -1.964 -17.482  1.00  0.00     0.000 C 
BRANCH  19  20
ATOM     20  C   UNL     1     -13.484  -1.949 -17.206  1.00  0.00     0.000 C 
BRANCH  20  21
ATOM     21  C   UNL     1     -13.825  -2.257 -15.739  1.00  0.00     0.000 C 
BRANCH  21  22
ATOM     22  C   UNL     1     -14.812  -3.429 -15.595  1.00  0.00     0.000 C 
BRANCH  22  23
ATOM     23  C   UNL     1     -14.231  -4.602 -14.785  1.00  0.00     0.000 C 
BRANCH  23  24
ATOM     24  C   UNL     1     -13.958  -4.299 -13.297  1.00  0.00    -0.000 C 
BRANCH  24  25
ATOM     25  C   UNL     1     -14.894  -3.255 -12.657  1.00  0.00    -0.000 C 
BRANCH  25  26
ATOM     26  C   UNL     1     -15.114  -3.414 -11.141  1.00  0.00    -0.000 C 
BRANCH  26  27
ATOM     27  C   UNL     1     -13.929  -2.896 -10.310  1.00  0.00    -0.000 C 
BRANCH  27  28
ATOM     28  C   UNL     1     -14.340  -1.829  -9.280  1.00  0.00    -0.000 C 
BRANCH  28  29
ATOM     29  C   UNL     1     -13.441  -0.576  -9.237  1.00  0.00    -0.000 C 
BRANCH  29  30
ATOM     30  C   UNL     1     -13.492   0.312 -10.497  1.00  0.00    -0.000 C 
BRANCH  30  31
ATOM     31  C   UNL     1     -14.856   0.348 -11.207  1.00  0.00    -0.003 C 
ATOM     32  C   UNL     1     -15.159   1.706 -11.842  1.00  0.00     0.004 C 
ENDBRANCH  30  31
ENDBRANCH  29  30
ENDBRANCH  28  29
ENDBRANCH  27  28
ENDBRANCH  26  27
ENDBRANCH  25  26
ENDBRANCH  24  25
ENDBRANCH  23  24
ENDBRANCH  22  23
ENDBRANCH  21  22
ENDBRANCH  20  21
ENDBRANCH  19  20
ENDBRANCH  18  19
ENDBRANCH   1  18
TORSDOF 28
ENDMDL
MODEL 4
REMARK VINA RESULT:    26.973      2.256     10.203
REMARK INTER + INTRA:          68.801
REMARK INTER:                  70.275
REMARK INTRA:                  -1.474
REMARK UNBOUND:                -2.323
REMARK SMILES CCCCCCCCCCCCCCCCCCCCCCCCCCCCCC(=O)[O-]
REMARK SMILES IDX 16 1 17 2 18 3 19 4 20 5 21 6 22 7 23 8 24 9 25 10 26 11
REMARK SMILES IDX 27 12 28 13 29 14 30 15 31 16 32 17 15 18 14 19 13 20 12 21
REMARK SMILES IDX 11 22 10 23 9 24 8 25 7 26 6 27 5 28 4 29 3 30 2 31 1 32
REMARK H PARENT
REMARK Flexibility Score: inf
ROOT
ATOM      1  C   UNL     1     -12.418   0.891 -17.319  1.00  0.00     0.000 C 
ENDROOT
BRANCH   1   2
ATOM      2  C   UNL     1     -11.481   2.085 -17.063  1.00  0.00     0.000 C 
BRANCH   2   3
ATOM      3  C   UNL     1     -12.197   3.437 -17.220  1.00  0.00     0.000 C 
BRANCH   3   4
ATOM      4  C   UNL     1     -13.579   3.295 -17.881  1.00  0.00     0.000 C 
BRANCH   4   5
ATOM      5  C   UNL     1     -13.699   4.090 -19.194  1.00  0.00     0.000 C 
BRANCH   5   6
ATOM      6  C   UNL     1     -14.757   5.209 -19.187  1.00  0.00     0.000 C 
BRANCH   6   7
ATOM      7  C   UNL     1     -14.395   6.380 -20.117  1.00  0.00     0.000 C 
BRANCH   7   8
ATOM      8  C   UNL     1     -15.459   7.489 -20.111  1.00  0.00     0.000 C 
BRANCH   8   9
ATOM      9  C   UNL     1     -15.311   8.442 -18.911  1.00  0.00     0.000 C 
BRANCH   9  10
ATOM     10  C   UNL     1     -16.543   8.433 -17.993  1.00  0.00     0.000 C 
BRANCH  10  11
ATOM     11  C   UNL     1     -16.278   9.113 -16.641  1.00  0.00     0.000 C 
BRANCH  11  12
ATOM     12  C   UNL     1     -14.795   9.476 -16.486  1.00  0.00     0.000 C 
BRANCH  12  13
ATOM     13  C   UNL     1     -14.204   8.829 -15.226  1.00  0.00     0.006 C 
BRANCH  13  14
ATOM     14  C   UNL     1     -13.816   7.362 -15.451  1.00  0.00     0.053 C 
BRANCH  14  15
ATOM     15  C   UNL     1     -12.450   7.226 -16.051  1.00  0.00     0.041 C 
ATOM     16  O   UNL     1     -11.829   6.133 -15.970  1.00  0.00    -0.550 OA
ATOM     17  O   UNL     1     -11.862   8.306 -16.699  1.00  0.00    -0.550 OA
ENDBRANCH  14  15
ENDBRANCH  13  14
ENDBRANCH  12  13
ENDBRANCH  11  12
ENDBRANCH  10  11
ENDBRANCH   9  10
ENDBRANCH   8   9
ENDBRANCH   7   8
ENDBRANCH   6   7
ENDBRANCH   5   6
ENDBRANCH   4   5
ENDBRANCH   3   4
ENDBRANCH   2   3
ENDBRANCH   1   2
BRANCH   1  18
ATOM     18  C   UNL     1     -11.761  -0.203 -18.176  1.00  0.00     0.000 C 
BRANCH  18  19
ATOM     19  C   UNL     1     -12.169  -1.620 -17.745  1.00  0.00     0.000 C 
BRANCH  19  20
ATOM     20  C   UNL     1     -13.133  -1.571 -16.549  1.00  0.00     0.000 C 
BRANCH  20  21
ATOM     21  C   UNL     1     -14.261  -2.611 -16.650  1.00  0.00     0.000 C 
BRANCH  21  22
ATOM     22  C   UNL     1     -14.768  -3.069 -15.272  1.00  0.00     0.000 C 
BRANCH  22  23
ATOM     23  C   UNL     1     -14.054  -4.334 -14.762  1.00  0.00     0.000 C 
BRANCH  23  24
ATOM     24  C   UNL     1     -13.954  -4.456 -13.228  1.00  0.00    -0.000 C 
BRANCH  24  25
ATOM     25  C   UNL     1     -14.829  -3.467 -12.431  1.00  0.00    -0.000 C 
BRANCH  25  26
ATOM     26  C   UNL     1     -15.177  -3.908 -10.998  1.00  0.00    -0.000 C 
BRANCH  26  27
ATOM     27  C   UNL     1     -14.145  -3.436  -9.961  1.00  0.00    -0.000 C 
BRANCH  27  28
ATOM     28  C   UNL     1     -14.460  -2.040  -9.396  1.00  0.00    -0.000 C 
BRANCH  28  29
ATOM     29  C   UNL     1     -14.375  -0.884 -10.414  1.00  0.00    -0.000 C 
BRANCH  29  30
ATOM     30  C   UNL     1     -13.526   0.324  -9.967  1.00  0.00    -0.000 C 
BRANCH  30  31
ATOM     31  C   UNL     1     -13.507   1.501 -10.957  1.00  0.00    -0.003 C 
ATOM     32  C   UNL     1     -14.721   1.515 -11.886  1.00  0.00     0.004 C 
ENDBRANCH  30  31
ENDBRANCH  29  30
ENDBRANCH  28  29
ENDBRANCH  27  28
ENDBRANCH  26  27
ENDBRANCH  25  26
ENDBRANCH  24  25
ENDBRANCH  23  24
ENDBRANCH  22  23
ENDBRANCH  21  22
ENDBRANCH  20  21
ENDBRANCH  19  20
ENDBRANCH  18  19
ENDBRANCH   1  18
TORSDOF 28
ENDMDL
MODEL 5
REMARK VINA RESULT:    27.077      2.750     10.298
REMARK INTER + INTRA:          69.075
REMARK INTER:                  70.318
REMARK INTRA:                  -1.244
REMARK UNBOUND:                -2.323
REMARK SMILES CCCCCCCCCCCCCCCCCCCCCCCCCCCCCC(=O)[O-]
REMARK SMILES IDX 16 1 17 2 18 3 19 4 20 5 21 6 22 7 23 8 24 9 25 10 26 11
REMARK SMILES IDX 27 12 28 13 29 14 30 15 31 16 32 17 15 18 14 19 13 20 12 21
REMARK SMILES IDX 11 22 10 23 9 24 8 25 7 26 6 27 5 28 4 29 3 30 2 31 1 32
REMARK H PARENT
REMARK Flexibility Score: inf
ROOT
ATOM      1  C   UNL     1     -11.491  -0.102 -17.904  1.00  0.00     0.000 C 
ENDROOT
BRANCH   1   2
ATOM      2  C   UNL     1     -12.623   0.617 -18.660  1.00  0.00     0.000 C 
BRANCH   2   3
ATOM      3  C   UNL     1     -13.136   1.856 -17.907  1.00  0.00     0.000 C 
BRANCH   3   4
ATOM      4  C   UNL     1     -11.998   2.652 -17.245  1.00  0.00     0.000 C 
BRANCH   4   5
ATOM      5  C   UNL     1     -12.380   4.116 -16.960  1.00  0.00     0.000 C 
BRANCH   5   6
ATOM      6  C   UNL     1     -11.308   4.940 -16.223  1.00  0.00     0.000 C 
BRANCH   6   7
ATOM      7  C   UNL     1     -11.757   6.384 -15.933  1.00  0.00     0.000 C 
BRANCH   7   8
ATOM      8  C   UNL     1     -13.286   6.524 -15.872  1.00  0.00     0.000 C 
BRANCH   8   9
ATOM      9  C   UNL     1     -13.741   7.586 -14.854  1.00  0.00     0.000 C 
BRANCH   9  10
ATOM     10  C   UNL     1     -14.474   8.764 -15.514  1.00  0.00     0.000 C 
BRANCH  10  11
ATOM     11  C   UNL     1     -14.441   8.698 -17.047  1.00  0.00     0.000 C 
BRANCH  11  12
ATOM     12  C   UNL     1     -15.859   8.637 -17.629  1.00  0.00     0.000 C 
BRANCH  12  13
ATOM     13  C   UNL     1     -15.818   8.481 -19.156  1.00  0.00     0.006 C 
BRANCH  13  14
ATOM     14  C   UNL     1     -14.647   7.603 -19.619  1.00  0.00     0.053 C 
BRANCH  14  15
ATOM     15  C   UNL     1     -15.098   6.238 -20.039  1.00  0.00     0.041 C 
ATOM     16  O   UNL     1     -15.635   6.066 -21.165  1.00  0.00    -0.550 OA
ATOM     17  O   UNL     1     -14.927   5.154 -19.185  1.00  0.00    -0.550 OA
ENDBRANCH  14  15
ENDBRANCH  13  14
ENDBRANCH  12  13
ENDBRANCH  11  12
ENDBRANCH  10  11
ENDBRANCH   9  10
ENDBRANCH   8   9
ENDBRANCH   7   8
ENDBRANCH   6   7
ENDBRANCH   5   6
ENDBRANCH   4   5
ENDBRANCH   3   4
ENDBRANCH   2   3
ENDBRANCH   1   2
BRANCH   1  18
ATOM     18  C   UNL     1     -11.872  -1.534 -17.494  1.00  0.00     0.000 C 
BRANCH  18  19
ATOM     19  C   UNL     1     -13.391  -1.741 -17.399  1.00  0.00     0.000 C 
BRANCH  19  20
ATOM     20  C   UNL     1     -13.804  -2.108 -15.965  1.00  0.00     0.000 C 
BRANCH  20  21
ATOM     21  C   UNL     1     -14.880  -3.204 -15.917  1.00  0.00     0.000 C 
BRANCH  21  22
ATOM     22  C   UNL     1     -14.518  -4.348 -14.953  1.00  0.00     0.000 C 
BRANCH  22  23
ATOM     23  C   UNL     1     -14.012  -3.842 -13.590  1.00  0.00     0.000 C 
BRANCH  23  24
ATOM     24  C   UNL     1     -14.806  -4.349 -12.368  1.00  0.00    -0.000 C 
BRANCH  24  25
ATOM     25  C   UNL     1     -15.107  -3.286 -11.293  1.00  0.00    -0.000 C 
BRANCH  25  26
ATOM     26  C   UNL     1     -14.014  -3.105 -10.225  1.00  0.00    -0.000 C 
BRANCH  26  27
ATOM     27  C   UNL     1     -14.267  -1.893  -9.313  1.00  0.00    -0.000 C 
BRANCH  27  28
ATOM     28  C   UNL     1     -13.917  -0.554  -9.987  1.00  0.00    -0.000 C 
BRANCH  28  29
ATOM     29  C   UNL     1     -15.106   0.188 -10.631  1.00  0.00    -0.000 C 
BRANCH  29  30
ATOM     30  C   UNL     1     -14.727   1.225 -11.708  1.00  0.00    -0.000 C 
BRANCH  30  31
ATOM     31  C   UNL     1     -13.226   1.555 -11.787  1.00  0.00    -0.003 C 
ATOM     32  C   UNL     1     -12.615   1.868 -10.420  1.00  0.00     0.004 C 
ENDBRANCH  30  31
ENDBRANCH  29  30
ENDBRANCH  28  29
ENDBRANCH  27  28
ENDBRANCH  26  27
ENDBRANCH  25  26
ENDBRANCH  24  25
ENDBRANCH  23  24
ENDBRANCH  22  23
ENDBRANCH  21  22
ENDBRANCH  20  21
ENDBRANCH  19  20
ENDBRANCH  18  19
ENDBRANCH   1  18
TORSDOF 28
ENDMDL
MODEL 6
REMARK VINA RESULT:    27.113      0.955      3.088
REMARK INTER + INTRA:          69.171
REMARK INTER:                  70.999
REMARK INTRA:                  -1.828
REMARK UNBOUND:                -2.323
REMARK SMILES CCCCCCCCCCCCCCCCCCCCCCCCCCCCCC(=O)[O-]
REMARK SMILES IDX 16 1 17 2 18 3 19 4 20 5 21 6 22 7 23 8 24 9 25 10 26 11
REMARK SMILES IDX 27 12 28 13 29 14 30 15 31 16 32 17 15 18 14 19 13 20 12 21
REMARK SMILES IDX 11 22 10 23 9 24 8 25 7 26 6 27 5 28 4 29 3 30 2 31 1 32
REMARK H PARENT
REMARK Flexibility Score: inf
ROOT
ATOM      1  C   UNL     1     -12.347   3.051 -17.846  1.00  0.00     0.000 C 
ENDROOT
BRANCH   1   2
ATOM      2  C   UNL     1     -13.068   1.694 -17.767  1.00  0.00     0.000 C 
BRANCH   2   3
ATOM      3  C   UNL     1     -12.186   0.597 -17.146  1.00  0.00     0.000 C 
BRANCH   3   4
ATOM      4  C   UNL     1     -11.891  -0.546 -18.133  1.00  0.00     0.000 C 
BRANCH   4   5
ATOM      5  C   UNL     1     -12.324  -1.924 -17.598  1.00  0.00     0.000 C 
BRANCH   5   6
ATOM      6  C   UNL     1     -13.132  -1.894 -16.288  1.00  0.00     0.000 C 
BRANCH   6   7
ATOM      7  C   UNL     1     -14.543  -2.490 -16.441  1.00  0.00     0.000 C 
BRANCH   7   8
ATOM      8  C   UNL     1     -14.985  -3.283 -15.202  1.00  0.00     0.000 C 
BRANCH   8   9
ATOM      9  C   UNL     1     -13.896  -4.248 -14.698  1.00  0.00     0.000 C 
BRANCH   9  10
ATOM     10  C   UNL     1     -13.789  -4.273 -13.166  1.00  0.00     0.000 C 
BRANCH  10  11
ATOM     11  C   UNL     1     -14.937  -3.519 -12.479  1.00  0.00     0.000 C 
BRANCH  11  12
ATOM     12  C   UNL     1     -14.615  -3.247 -11.004  1.00  0.00     0.000 C 
BRANCH  12  13
ATOM     13  C   UNL     1     -15.216  -1.908 -10.553  1.00  0.00     0.006 C 
BRANCH  13  14
ATOM     14  C   UNL     1     -14.179  -1.004  -9.873  1.00  0.00     0.053 C 
BRANCH  14  15
ATOM     15  C   UNL     1     -14.122   0.356 -10.498  1.00  0.00     0.041 C 
ATOM     16  O   UNL     1     -14.991   0.703 -11.342  1.00  0.00    -0.550 OA
ATOM     17  O   UNL     1     -13.109   1.242 -10.150  1.00  0.00    -0.550 OA
ENDBRANCH  14  15
ENDBRANCH  13  14
ENDBRANCH  12  13
ENDBRANCH  11  12
ENDBRANCH  10  11
ENDBRANCH   9  10
ENDBRANCH   8   9
ENDBRANCH   7   8
ENDBRANCH   6   7
ENDBRANCH   5   6
ENDBRANCH   4   5
ENDBRANCH   3   4
ENDBRANCH   2   3
ENDBRANCH   1   2
BRANCH   1  18
ATOM     18  C   UNL     1     -11.199   3.170 -16.830  1.00  0.00     0.000 C 
BRANCH  18  19
ATOM     19  C   UNL     1     -11.290   4.444 -15.977  1.00  0.00     0.000 C 
BRANCH  19  20
ATOM     20  C   UNL     1     -12.273   5.449 -16.599  1.00  0.00     0.000 C 
BRANCH  20  21
ATOM     21  C   UNL     1     -11.863   6.911 -16.359  1.00  0.00     0.000 C 
BRANCH  21  22
ATOM     22  C   UNL     1     -12.435   7.477 -15.047  1.00  0.00     0.000 C 
BRANCH  22  23
ATOM     23  C   UNL     1     -13.970   7.395 -14.981  1.00  0.00     0.000 C 
BRANCH  23  24
ATOM     24  C   UNL     1     -14.685   8.727 -14.674  1.00  0.00    -0.000 C 
BRANCH  24  25
ATOM     25  C   UNL     1     -15.299   9.439 -15.895  1.00  0.00    -0.000 C 
BRANCH  25  26
ATOM     26  C   UNL     1     -15.235   8.651 -17.216  1.00  0.00    -0.000 C 
BRANCH  26  27
ATOM     27  C   UNL     1     -13.838   8.678 -17.858  1.00  0.00    -0.000 C 
BRANCH  27  28
ATOM     28  C   UNL     1     -13.850   8.248 -19.336  1.00  0.00    -0.000 C 
BRANCH  28  29
ATOM     29  C   UNL     1     -15.244   7.939 -19.919  1.00  0.00    -0.000 C 
BRANCH  29  30
ATOM     30  C   UNL     1     -15.509   6.453 -20.238  1.00  0.00    -0.000 C 
BRANCH  30  31
ATOM     31  C   UNL     1     -14.482   5.473 -19.645  1.00  0.00    -0.003 C 
ATOM     32  C   UNL     1     -15.108   4.475 -18.671  1.00  0.00     0.004 C 
ENDBRANCH  30  31
ENDBRANCH  29  30
ENDBRANCH  28  29
ENDBRANCH  27  28
ENDBRANCH  26  27
ENDBRANCH  25  26
ENDBRANCH  24  25
ENDBRANCH  23  24
ENDBRANCH  22  23
ENDBRANCH  21  22
ENDBRANCH  20  21
ENDBRANCH  19  20
ENDBRANCH  18  19
ENDBRANCH   1  18
TORSDOF 28
ENDMDL
MODEL 7
REMARK VINA RESULT:    27.156      1.025      3.084
REMARK INTER + INTRA:          69.284
REMARK INTER:                  69.263
REMARK INTRA:                   0.022
REMARK UNBOUND:                -2.323
REMARK SMILES CCCCCCCCCCCCCCCCCCCCCCCCCCCCCC(=O)[O-]
REMARK SMILES IDX 16 1 17 2 18 3 19 4 20 5 21 6 22 7 23 8 24 9 25 10 26 11
REMARK SMILES IDX 27 12 28 13 29 14 30 15 31 16 32 17 15 18 14 19 13 20 12 21
REMARK SMILES IDX 11 22 10 23 9 24 8 25 7 26 6 27 5 28 4 29 3 30 2 31 1 32
REMARK H PARENT
REMARK Flexibility Score: inf
ROOT
ATOM      1  C   UNL     1     -12.555   0.429 -18.370  1.00  0.00     0.000 C 
ENDROOT
BRANCH   1   2
ATOM      2  C   UNL     1     -11.386  -0.548 -18.152  1.00  0.00     0.000 C 
BRANCH   2   3
ATOM      3  C   UNL     1     -11.837  -1.864 -17.496  1.00  0.00     0.000 C 
BRANCH   3   4
ATOM      4  C   UNL     1     -13.363  -1.937 -17.317  1.00  0.00     0.000 C 
BRANCH   4   5
ATOM      5  C   UNL     1     -13.791  -1.967 -15.837  1.00  0.00     0.000 C 
BRANCH   5   6
ATOM      6  C   UNL     1     -14.769  -3.095 -15.461  1.00  0.00     0.000 C 
BRANCH   6   7
ATOM      7  C   UNL     1     -14.059  -4.342 -14.905  1.00  0.00     0.000 C 
BRANCH   7   8
ATOM      8  C   UNL     1     -14.011  -4.358 -13.370  1.00  0.00     0.000 C 
BRANCH   8   9
ATOM      9  C   UNL     1     -14.956  -3.318 -12.739  1.00  0.00     0.000 C 
BRANCH   9  10
ATOM     10  C   UNL     1     -15.243  -3.601 -11.256  1.00  0.00     0.000 C 
BRANCH  10  11
ATOM     11  C   UNL     1     -14.206  -2.962 -10.320  1.00  0.00     0.000 C 
BRANCH  11  12
ATOM     12  C   UNL     1     -14.602  -1.525  -9.957  1.00  0.00     0.000 C 
BRANCH  12  13
ATOM     13  C   UNL     1     -13.395  -0.748  -9.412  1.00  0.00     0.006 C 
BRANCH  13  14
ATOM     14  C   UNL     1     -13.293   0.662 -10.009  1.00  0.00     0.053 C 
BRANCH  14  15
ATOM     15  C   UNL     1     -14.244   0.862 -11.148  1.00  0.00     0.041 C 
ATOM     16  O   UNL     1     -15.417   0.407 -11.082  1.00  0.00    -0.550 OA
ATOM     17  O   UNL     1     -13.836   1.550 -12.286  1.00  0.00    -0.550 OA
ENDBRANCH  14  15
ENDBRANCH  13  14
ENDBRANCH  12  13
ENDBRANCH  11  12
ENDBRANCH  10  11
ENDBRANCH   9  10
ENDBRANCH   8   9
ENDBRANCH   7   8
ENDBRANCH   6   7
ENDBRANCH   5   6
ENDBRANCH   4   5
ENDBRANCH   3   4
ENDBRANCH   2   3
ENDBRANCH   1   2
BRANCH   1  18
ATOM     18  C   UNL     1     -12.668   1.475 -17.249  1.00  0.00     0.000 C 
BRANCH  18  19
ATOM     19  C   UNL     1     -12.424   2.908 -17.748  1.00  0.00     0.000 C 
BRANCH  19  20
ATOM     20  C   UNL     1     -11.491   3.667 -16.792  1.00  0.00     0.000 C 
BRANCH  20  21
ATOM     21  C   UNL     1     -11.740   5.184 -16.795  1.00  0.00     0.000 C 
BRANCH  21  22
ATOM     22  C   UNL     1     -11.904   5.759 -15.377  1.00  0.00     0.000 C 
BRANCH  22  23
ATOM     23  C   UNL     1     -12.704   7.074 -15.355  1.00  0.00     0.000 C 
BRANCH  23  24
ATOM     24  C   UNL     1     -12.967   7.704 -16.738  1.00  0.00    -0.000 C 
BRANCH  24  25
ATOM     25  C   UNL     1     -13.778   9.015 -16.721  1.00  0.00    -0.000 C 
BRANCH  25  26
ATOM     26  C   UNL     1     -14.834   9.118 -15.605  1.00  0.00    -0.000 C 
BRANCH  26  27
ATOM     27  C   UNL     1     -16.263   9.276 -16.150  1.00  0.00    -0.000 C 
BRANCH  27  28
ATOM     28  C   UNL     1     -16.323   9.252 -17.688  1.00  0.00    -0.000 C 
BRANCH  28  29
ATOM     29  C   UNL     1     -15.843   7.941 -18.344  1.00  0.00    -0.000 C 
BRANCH  29  30
ATOM     30  C   UNL     1     -15.486   8.048 -19.840  1.00  0.00    -0.000 C 
BRANCH  30  31
ATOM     31  C   UNL     1     -14.548   6.946 -20.361  1.00  0.00    -0.003 C 
ATOM     32  C   UNL     1     -14.947   5.550 -19.880  1.00  0.00     0.004 C 
ENDBRANCH  30  31
ENDBRANCH  29  30
ENDBRANCH  28  29
ENDBRANCH  27  28
ENDBRANCH  26  27
ENDBRANCH  25  26
ENDBRANCH  24  25
ENDBRANCH  23  24
ENDBRANCH  22  23
ENDBRANCH  21  22
ENDBRANCH  20  21
ENDBRANCH  19  20
ENDBRANCH  18  19
ENDBRANCH   1  18
TORSDOF 28
ENDMDL
MODEL 8
REMARK VINA RESULT:    27.347      1.079      2.827
REMARK INTER + INTRA:          69.789
REMARK INTER:                  71.505
REMARK INTRA:                  -1.717
REMARK UNBOUND:                -2.323
REMARK SMILES CCCCCCCCCCCCCCCCCCCCCCCCCCCCCC(=O)[O-]
REMARK SMILES IDX 16 1 17 2 18 3 19 4 20 5 21 6 22 7 23 8 24 9 25 10 26 11
REMARK SMILES IDX 27 12 28 13 29 14 30 15 31 16 32 17 15 18 14 19 13 20 12 21
REMARK SMILES IDX 11 22 10 23 9 24 8 25 7 26 6 27 5 28 4 29 3 30 2 31 1 32
REMARK H PARENT
REMARK Flexibility Score: inf
ROOT
ATOM      1  C   UNL     1     -11.341  -0.447 -17.874  1.00  0.00     0.000 C 
ENDROOT
BRANCH   1   2
ATOM      2  C   UNL     1     -11.823  -1.901 -17.724  1.00  0.00     0.000 C 
BRANCH   2   3
ATOM      3  C   UNL     1     -13.335  -1.993 -17.457  1.00  0.00     0.000 C 
BRANCH   3   4
ATOM      4  C   UNL     1     -13.655  -2.192 -15.965  1.00  0.00     0.000 C 
BRANCH   4   5
ATOM      5  C   UNL     1     -14.793  -3.203 -15.727  1.00  0.00     0.000 C 
BRANCH   5   6
ATOM      6  C   UNL     1     -14.382  -4.491 -14.993  1.00  0.00     0.000 C 
BRANCH   6   7
ATOM      7  C   UNL     1     -14.085  -4.261 -13.501  1.00  0.00     0.000 C 
BRANCH   7   8
ATOM      8  C   UNL     1     -14.898  -3.098 -12.910  1.00  0.00     0.000 C 
BRANCH   8   9
ATOM      9  C   UNL     1     -15.373  -3.379 -11.473  1.00  0.00     0.000 C 
BRANCH   9  10
ATOM     10  C   UNL     1     -14.219  -3.393 -10.459  1.00  0.00     0.000 C 
BRANCH  10  11
ATOM     11  C   UNL     1     -14.360  -2.303  -9.386  1.00  0.00     0.000 C 
BRANCH  11  12
ATOM     12  C   UNL     1     -13.137  -1.377  -9.375  1.00  0.00     0.000 C 
BRANCH  12  13
ATOM     13  C   UNL     1     -13.528   0.049  -9.790  1.00  0.00     0.006 C 
BRANCH  13  14
ATOM     14  C   UNL     1     -14.736   0.069 -10.736  1.00  0.00     0.053 C 
BRANCH  14  15
ATOM     15  C   UNL     1     -14.696   1.235 -11.676  1.00  0.00     0.041 C 
ATOM     16  O   UNL     1     -13.615   1.559 -12.238  1.00  0.00    -0.550 OA
ATOM     17  O   UNL     1     -15.850   1.966 -11.931  1.00  0.00    -0.550 OA
ENDBRANCH  14  15
ENDBRANCH  13  14
ENDBRANCH  12  13
ENDBRANCH  11  12
ENDBRANCH  10  11
ENDBRANCH   9  10
ENDBRANCH   8   9
ENDBRANCH   7   8
ENDBRANCH   6   7
ENDBRANCH   5   6
ENDBRANCH   4   5
ENDBRANCH   3   4
ENDBRANCH   2   3
ENDBRANCH   1   2
BRANCH   1  18
ATOM     18  C   UNL     1     -12.492   0.528 -18.173  1.00  0.00     0.000 C 
BRANCH  18  19
ATOM     19  C   UNL     1     -12.710   1.553 -17.049  1.00  0.00     0.000 C 
BRANCH  19  20
ATOM     20  C   UNL     1     -12.179   2.935 -17.460  1.00  0.00     0.000 C 
BRANCH  20  21
ATOM     21  C   UNL     1     -12.757   3.423 -18.798  1.00  0.00     0.000 C 
BRANCH  21  22
ATOM     22  C   UNL     1     -14.275   3.664 -18.734  1.00  0.00     0.000 C 
BRANCH  22  23
ATOM     23  C   UNL     1     -14.638   5.152 -18.587  1.00  0.00     0.000 C 
BRANCH  23  24
ATOM     24  C   UNL     1     -15.235   5.809 -19.849  1.00  0.00    -0.000 C 
BRANCH  24  25
ATOM     25  C   UNL     1     -15.252   7.350 -19.842  1.00  0.00    -0.000 C 
BRANCH  25  26
ATOM     26  C   UNL     1     -13.869   8.021 -19.764  1.00  0.00    -0.000 C 
BRANCH  26  27
ATOM     27  C   UNL     1     -13.738   8.979 -18.568  1.00  0.00    -0.000 C 
BRANCH  27  28
ATOM     28  C   UNL     1     -14.707   8.640 -17.421  1.00  0.00    -0.000 C 
BRANCH  28  29
ATOM     29  C   UNL     1     -14.040   8.140 -16.123  1.00  0.00    -0.000 C 
BRANCH  29  30
ATOM     30  C   UNL     1     -12.619   7.565 -16.295  1.00  0.00    -0.000 C 
BRANCH  30  31
ATOM     31  C   UNL     1     -12.371   6.231 -15.569  1.00  0.00    -0.003 C 
ATOM     32  C   UNL     1     -11.406   5.316 -16.324  1.00  0.00     0.004 C 
ENDBRANCH  30  31
ENDBRANCH  29  30
ENDBRANCH  28  29
ENDBRANCH  27  28
ENDBRANCH  26  27
ENDBRANCH  25  26
ENDBRANCH  24  25
ENDBRANCH  23  24
ENDBRANCH  22  23
ENDBRANCH  21  22
ENDBRANCH  20  21
ENDBRANCH  19  20
ENDBRANCH  18  19
ENDBRANCH   1  18
TORSDOF 28
ENDMDL
MODEL 9
REMARK VINA RESULT:    27.667      1.108      3.516
REMARK INTER + INTRA:          70.631
REMARK INTER:                  72.659
REMARK INTRA:                  -2.028
REMARK UNBOUND:                -2.323
REMARK SMILES CCCCCCCCCCCCCCCCCCCCCCCCCCCCCC(=O)[O-]
REMARK SMILES IDX 16 1 17 2 18 3 19 4 20 5 21 6 22 7 23 8 24 9 25 10 26 11
REMARK SMILES IDX 27 12 28 13 29 14 30 15 31 16 32 17 15 18 14 19 13 20 12 21
REMARK SMILES IDX 11 22 10 23 9 24 8 25 7 26 6 27 5 28 4 29 3 30 2 31 1 32
REMARK H PARENT
REMARK Flexibility Score: inf
ROOT
ATOM      1  C   UNL     1     -11.514  -0.260 -18.187  1.00  0.00     0.000 C 
ENDROOT
BRANCH   1   2
ATOM      2  C   UNL     1     -12.005  -1.589 -17.586  1.00  0.00     0.000 C 
BRANCH   2   3
ATOM      3  C   UNL     1     -13.249  -1.408 -16.700  1.00  0.00     0.000 C 
BRANCH   3   4
ATOM      4  C   UNL     1     -14.167  -2.643 -16.721  1.00  0.00     0.000 C 
BRANCH   4   5
ATOM      5  C   UNL     1     -14.665  -3.042 -15.319  1.00  0.00     0.000 C 
BRANCH   5   6
ATOM      6  C   UNL     1     -13.899  -4.202 -14.658  1.00  0.00     0.000 C 
BRANCH   6   7
ATOM      7  C   UNL     1     -14.139  -4.290 -13.140  1.00  0.00     0.000 C 
BRANCH   7   8
ATOM      8  C   UNL     1     -14.912  -3.080 -12.594  1.00  0.00     0.000 C 
BRANCH   8   9
ATOM      9  C   UNL     1     -15.403  -3.295 -11.151  1.00  0.00     0.000 C 
BRANCH   9  10
ATOM     10  C   UNL     1     -14.270  -3.695 -10.193  1.00  0.00     0.000 C 
BRANCH  10  11
ATOM     11  C   UNL     1     -13.324  -2.528  -9.876  1.00  0.00     0.000 C 
BRANCH  11  12
ATOM     12  C   UNL     1     -14.029  -1.458  -9.031  1.00  0.00     0.000 C 
BRANCH  12  13
ATOM     13  C   UNL     1     -13.373  -0.084  -9.232  1.00  0.00     0.006 C 
BRANCH  13  14
ATOM     14  C   UNL     1     -13.226   0.279 -10.716  1.00  0.00     0.053 C 
BRANCH  14  15
ATOM     15  C   UNL     1     -14.511   0.777 -11.304  1.00  0.00     0.041 C 
ATOM     16  O   UNL     1     -14.510   1.770 -12.079  1.00  0.00    -0.550 OA
ATOM     17  O   UNL     1     -15.710   0.146 -10.995  1.00  0.00    -0.550 OA
ENDBRANCH  14  15
ENDBRANCH  13  14
ENDBRANCH  12  13
ENDBRANCH  11  12
ENDBRANCH  10  11
ENDBRANCH   9  10
ENDBRANCH   8   9
ENDBRANCH   7   8
ENDBRANCH   6   7
ENDBRANCH   5   6
ENDBRANCH   4   5
ENDBRANCH   3   4
ENDBRANCH   2   3
ENDBRANCH   1   2
BRANCH   1  18
ATOM     18  C   UNL     1     -12.646   0.539 -18.854  1.00  0.00     0.000 C 
BRANCH  18  19
ATOM     19  C   UNL     1     -13.343   1.505 -17.884  1.00  0.00     0.000 C 
BRANCH  19  20
ATOM     20  C   UNL     1     -12.638   2.870 -17.871  1.00  0.00     0.000 C 
BRANCH  20  21
ATOM     21  C   UNL     1     -11.290   2.838 -17.134  1.00  0.00     0.000 C 
BRANCH  21  22
ATOM     22  C   UNL     1     -11.219   3.861 -15.986  1.00  0.00     0.000 C 
BRANCH  22  23
ATOM     23  C   UNL     1     -11.519   5.298 -16.447  1.00  0.00     0.000 C 
BRANCH  23  24
ATOM     24  C   UNL     1     -12.745   5.957 -15.782  1.00  0.00    -0.000 C 
BRANCH  24  25
ATOM     25  C   UNL     1     -12.734   7.498 -15.763  1.00  0.00    -0.000 C 
BRANCH  25  26
ATOM     26  C   UNL     1     -14.119   8.163 -15.673  1.00  0.00    -0.000 C 
BRANCH  26  27
ATOM     27  C   UNL     1     -14.434   9.051 -16.889  1.00  0.00    -0.000 C 
BRANCH  27  28
ATOM     28  C   UNL     1     -13.321   9.027 -17.952  1.00  0.00    -0.000 C 
BRANCH  28  29
ATOM     29  C   UNL     1     -13.718   8.398 -19.304  1.00  0.00    -0.000 C 
BRANCH  29  30
ATOM     30  C   UNL     1     -15.200   7.989 -19.429  1.00  0.00    -0.000 C 
BRANCH  30  31
ATOM     31  C   UNL     1     -15.437   6.602 -20.051  1.00  0.00    -0.003 C 
ATOM     32  C   UNL     1     -14.697   5.486 -19.313  1.00  0.00     0.004 C 
ENDBRANCH  30  31
ENDBRANCH  29  30
ENDBRANCH  28  29
ENDBRANCH  27  28
ENDBRANCH  26  27
ENDBRANCH  25  26
ENDBRANCH  24  25
ENDBRANCH  23  24
ENDBRANCH  22  23
ENDBRANCH  21  22
ENDBRANCH  20  21
ENDBRANCH  19  20
ENDBRANCH  18  19
ENDBRANCH   1  18
TORSDOF 28
ENDMDL
