MODEL 1
REMARK VINA RESULT:     0.000      0.000      0.000
REMARK INTER + INTRA:          -0.324
REMARK INTER:                   0.000
REMARK INTRA:                  -0.324
REMARK UNBOUND:                -0.324
REMARK SMILES O=c1c(O)c(-c2ccc(O)c(O)c2)oc2cc(O)ccc12
REMARK SMILES IDX 5 1 3 2 2 3 1 4 21 5 15 6 14 7 16 8 17 9 19 10 20 11 6 12
REMARK SMILES IDX 7 13 8 14 9 15 13 16 11 17 10 18 12 20 4 22 18 24
REMARK H PARENT 10 19 12 21 4 23 18 25
REMARK Flexibility Score: inf
ROOT
ATOM      1  C   UNL     1       4.413  19.759  56.364  1.00  0.00     0.180 A 
ATOM      2  C   UNL     1       3.694  20.933  56.669  1.00  0.00     0.208 A 
ATOM      3  C   UNL     1       4.274  21.877  57.531  1.00  0.00     0.235 A 
ATOM      4  O   UNL     1       3.647  22.931  57.827  1.00  0.00    -0.285 OA
ATOM      5  C   UNL     1       5.557  21.640  58.051  1.00  0.00     0.069 A 
ATOM      6  C   UNL     1       6.220  20.450  57.679  1.00  0.00     0.142 A 
ATOM      7  O   UNL     1       5.633  19.579  56.868  1.00  0.00    -0.452 OA
ATOM      8  C   UNL     1       7.503  20.183  58.169  1.00  0.00     0.094 A 
ATOM      9  C   UNL     1       8.134  21.089  59.029  1.00  0.00     0.119 A 
ATOM     10  C   UNL     1       7.478  22.269  59.400  1.00  0.00     0.047 A 
ATOM     11  C   UNL     1       6.196  22.547  58.916  1.00  0.00     0.020 A 
ENDROOT
BRANCH   1  12
ATOM     12  C   UNL     1       3.862  18.708  55.479  1.00  0.00     0.025 A 
ATOM     13  C   UNL     1       3.093  17.647  55.991  1.00  0.00     0.016 A 
ATOM     14  C   UNL     1       2.603  16.655  55.139  1.00  0.00     0.051 A 
ATOM     15  C   UNL     1       2.885  16.698  53.767  1.00  0.00     0.157 A 
ATOM     16  C   UNL     1       4.159  18.735  54.106  1.00  0.00     0.062 A 
ATOM     17  C   UNL     1       3.670  17.741  53.250  1.00  0.00     0.158 A 
BRANCH  15  18
ATOM     18  O   UNL     1       2.394  15.706  52.919  1.00  0.00    -0.504 OA
ATOM     19  H   UNL     1       1.560  15.850  52.361  1.00  0.00     0.293 HD
ENDBRANCH  15  18
BRANCH  17  20
ATOM     20  O   UNL     1       3.975  17.809  51.891  1.00  0.00    -0.504 OA
ATOM     21  H   UNL     1       4.168  16.981  51.341  1.00  0.00     0.293 HD
ENDBRANCH  17  20
ENDBRANCH   1  12
BRANCH   2  22
ATOM     22  O   UNL     1       2.440  21.165  56.097  1.00  0.00    -0.502 OA
ATOM     23  H   UNL     1       1.584  20.817  56.510  1.00  0.00     0.293 HD
ENDBRANCH   2  22
BRANCH   9  24
ATOM     24  O   UNL     1       9.412  20.806  59.507  1.00  0.00    -0.508 OA
ATOM     25  H   UNL     1       9.564  20.118  60.235  1.00  0.00     0.293 HD
ENDBRANCH   9  24
TORSDOF 5
ENDMDL
MODEL 2
REMARK VINA RESULT:     0.000      4.662      5.910
REMARK INTER + INTRA:          -0.324
REMARK INTER:                   0.000
REMARK INTRA:                  -0.324
REMARK UNBOUND:                -0.324
REMARK SMILES O=c1c(O)c(-c2ccc(O)c(O)c2)oc2cc(O)ccc12
REMARK SMILES IDX 5 1 3 2 2 3 1 4 21 5 15 6 14 7 16 8 17 9 19 10 20 11 6 12
REMARK SMILES IDX 7 13 8 14 9 15 13 16 11 17 10 18 12 20 4 22 18 24
REMARK H PARENT 10 19 12 21 4 23 18 25
REMARK Flexibility Score: inf
ROOT
ATOM      1  C   UNL     1       5.866  20.911  51.670  1.00  0.00     0.180 A 
ATOM      2  C   UNL     1       5.070  19.928  52.293  1.00  0.00     0.208 A 
ATOM      3  C   UNL     1       5.139  19.785  53.687  1.00  0.00     0.235 A 
ATOM      4  O   UNL     1       4.444  18.905  54.266  1.00  0.00    -0.285 OA
ATOM      5  C   UNL     1       5.978  20.631  54.427  1.00  0.00     0.069 A 
ATOM      6  C   UNL     1       6.727  21.607  53.731  1.00  0.00     0.142 A 
ATOM      7  O   UNL     1       6.640  21.703  52.410  1.00  0.00    -0.452 OA
ATOM      8  C   UNL     1       7.568  22.476  54.434  1.00  0.00     0.094 A 
ATOM      9  C   UNL     1       7.675  22.383  55.827  1.00  0.00     0.119 A 
ATOM     10  C   UNL     1       6.935  21.416  56.519  1.00  0.00     0.047 A 
ATOM     11  C   UNL     1       6.090  20.543  55.827  1.00  0.00     0.020 A 
ENDROOT
BRANCH   1  12
ATOM     12  C   UNL     1       5.864  21.111  50.203  1.00  0.00     0.025 A 
ATOM     13  C   UNL     1       6.750  20.410  49.366  1.00  0.00     0.016 A 
ATOM     14  C   UNL     1       6.745  20.633  47.987  1.00  0.00     0.051 A 
ATOM     15  C   UNL     1       5.866  21.569  47.425  1.00  0.00     0.157 A 
ATOM     16  C   UNL     1       4.999  22.063  49.637  1.00  0.00     0.062 A 
ATOM     17  C   UNL     1       4.992  22.290  48.256  1.00  0.00     0.158 A 
BRANCH  15  18
ATOM     18  O   UNL     1       5.863  21.788  46.048  1.00  0.00    -0.504 OA
ATOM     19  H   UNL     1       6.699  22.082  45.556  1.00  0.00     0.293 HD
ENDBRANCH  15  18
BRANCH  17  20
ATOM     20  O   UNL     1       4.110  23.232  47.729  1.00  0.00    -0.504 OA
ATOM     21  H   UNL     1       3.149  23.304  48.042  1.00  0.00     0.293 HD
ENDBRANCH  17  20
ENDBRANCH   1  12
BRANCH   2  22
ATOM     22  O   UNL     1       4.205  19.132  51.535  1.00  0.00    -0.502 OA
ATOM     23  H   UNL     1       3.233  19.001  51.784  1.00  0.00     0.293 HD
ENDBRANCH   2  22
BRANCH   9  24
ATOM     24  O   UNL     1       8.518  23.256  56.510  1.00  0.00    -0.508 OA
ATOM     25  H   UNL     1       9.330  22.922  57.015  1.00  0.00     0.293 HD
ENDBRANCH   9  24
TORSDOF 5
ENDMDL
MODEL 3
REMARK VINA RESULT:     0.000      9.323     11.811
REMARK INTER + INTRA:          -0.324
REMARK INTER:                   0.000
REMARK INTRA:                  -0.324
REMARK UNBOUND:                -0.324
REMARK SMILES O=c1c(O)c(-c2ccc(O)c(O)c2)oc2cc(O)ccc12
REMARK SMILES IDX 5 1 3 2 2 3 1 4 21 5 15 6 14 7 16 8 17 9 19 10 20 11 6 12
REMARK SMILES IDX 7 13 8 14 9 15 13 16 11 17 10 18 12 20 4 22 18 24
REMARK H PARENT 10 19 12 21 4 23 18 25
REMARK Flexibility Score: inf
ROOT
ATOM      1  C   UNL     1      10.574  13.836  51.008  1.00  0.00     0.180 A 
ATOM      2  C   UNL     1       9.868  14.868  50.356  1.00  0.00     0.208 A 
ATOM      3  C   UNL     1       8.602  14.587  49.818  1.00  0.00     0.235 A 
ATOM      4  O   UNL     1       7.955  15.490  49.222  1.00  0.00    -0.285 OA
ATOM      5  C   UNL     1       8.064  13.298  49.959  1.00  0.00     0.069 A 
ATOM      6  C   UNL     1       8.824  12.326  50.645  1.00  0.00     0.142 A 
ATOM      7  O   UNL     1      10.022  12.630  51.131  1.00  0.00    -0.452 OA
ATOM      8  C   UNL     1       8.318  11.033  50.814  1.00  0.00     0.094 A 
ATOM      9  C   UNL     1       7.060  10.694  50.303  1.00  0.00     0.119 A 
ATOM     10  C   UNL     1       6.304  11.656  49.620  1.00  0.00     0.047 A 
ATOM     11  C   UNL     1       6.799  12.952  49.447  1.00  0.00     0.020 A 
ENDROOT
BRANCH   1  12
ATOM     12  C   UNL     1      11.922  14.048  51.584  1.00  0.00     0.025 A 
ATOM     13  C   UNL     1      13.085  13.843  50.822  1.00  0.00     0.016 A 
ATOM     14  C   UNL     1      14.346  14.028  51.394  1.00  0.00     0.051 A 
ATOM     15  C   UNL     1      14.464  14.405  52.739  1.00  0.00     0.157 A 
ATOM     16  C   UNL     1      12.046  14.407  52.937  1.00  0.00     0.062 A 
ATOM     17  C   UNL     1      13.308  14.591  53.514  1.00  0.00     0.158 A 
BRANCH  15  18
ATOM     18  O   UNL     1      15.724  14.589  53.307  1.00  0.00    -0.504 OA
ATOM     19  H   UNL     1      16.566  14.264  52.846  1.00  0.00     0.293 HD
ENDBRANCH  15  18
BRANCH  17  20
ATOM     20  O   UNL     1      13.391  14.960  54.856  1.00  0.00    -0.504 OA
ATOM     21  H   UNL     1      12.660  14.736  55.522  1.00  0.00     0.293 HD
ENDBRANCH  17  20
ENDBRANCH   1  12
BRANCH   2  22
ATOM     22  O   UNL     1      10.407  16.155  50.275  1.00  0.00    -0.502 OA
ATOM     23  H   UNL     1      10.718  16.557  49.400  1.00  0.00     0.293 HD
ENDBRANCH   2  22
BRANCH   9  24
ATOM     24  O   UNL     1       6.573   9.401  50.480  1.00  0.00    -0.508 OA
ATOM     25  H   UNL     1       6.139   9.114  51.349  1.00  0.00     0.293 HD
ENDBRANCH   9  24
TORSDOF 5
ENDMDL
MODEL 4
REMARK VINA RESULT:     0.000      6.811      8.072
REMARK INTER + INTRA:          -0.324
REMARK INTER:                   0.000
REMARK INTRA:                  -0.324
REMARK UNBOUND:                -0.324
REMARK SMILES O=c1c(O)c(-c2ccc(O)c(O)c2)oc2cc(O)ccc12
REMARK SMILES IDX 5 1 3 2 2 3 1 4 21 5 15 6 14 7 16 8 17 9 19 10 20 11 6 12
REMARK SMILES IDX 7 13 8 14 9 15 13 16 11 17 10 18 12 20 4 22 18 24
REMARK H PARENT 10 19 12 21 4 23 18 25
REMARK Flexibility Score: inf
ROOT
ATOM      1  C   UNL     1      10.950  23.316  53.562  1.00  0.00     0.180 A 
ATOM      2  C   UNL     1      11.722  24.146  52.724  1.00  0.00     0.208 A 
ATOM      3  C   UNL     1      12.098  25.416  53.189  1.00  0.00     0.235 A 
ATOM      4  O   UNL     1      12.780  26.181  52.454  1.00  0.00    -0.285 OA
ATOM      5  C   UNL     1      11.716  25.819  54.478  1.00  0.00     0.069 A 
ATOM      6  C   UNL     1      10.962  24.920  55.265  1.00  0.00     0.142 A 
ATOM      7  O   UNL     1      10.620  23.731  54.783  1.00  0.00    -0.452 OA
ATOM      8  C   UNL     1      10.570  25.281  56.558  1.00  0.00     0.094 A 
ATOM      9  C   UNL     1      10.919  26.533  57.078  1.00  0.00     0.119 A 
ATOM     10  C   UNL     1      11.664  27.427  56.300  1.00  0.00     0.047 A 
ATOM     11  C   UNL     1      12.063  27.076  55.007  1.00  0.00     0.020 A 
ENDROOT
BRANCH   1  12
ATOM     12  C   UNL     1      10.499  21.971  53.136  1.00  0.00     0.025 A 
ATOM     13  C   UNL     1       9.276  21.787  52.467  1.00  0.00     0.016 A 
ATOM     14  C   UNL     1       8.860  20.506  52.096  1.00  0.00     0.051 A 
ATOM     15  C   UNL     1       9.652  19.390  52.399  1.00  0.00     0.157 A 
ATOM     16  C   UNL     1      11.278  20.847  53.456  1.00  0.00     0.062 A 
ATOM     17  C   UNL     1      10.865  19.562  53.086  1.00  0.00     0.158 A 
BRANCH  15  18
ATOM     18  O   UNL     1       9.235  18.112  52.026  1.00  0.00    -0.504 OA
ATOM     19  H   UNL     1       8.545  17.972  51.297  1.00  0.00     0.293 HD
ENDBRANCH  15  18
BRANCH  17  20
ATOM     20  O   UNL     1      11.672  18.472  53.409  1.00  0.00    -0.504 OA
ATOM     21  H   UNL     1      11.584  17.579  52.938  1.00  0.00     0.293 HD
ENDBRANCH  17  20
ENDBRANCH   1  12
BRANCH   2  22
ATOM     22  O   UNL     1      12.131  23.699  51.464  1.00  0.00    -0.502 OA
ATOM     23  H   UNL     1      11.548  23.107  50.885  1.00  0.00     0.293 HD
ENDBRANCH   2  22
BRANCH   9  24
ATOM     24  O   UNL     1      10.519  26.875  58.368  1.00  0.00    -0.508 OA
ATOM     25  H   UNL     1      10.173  26.179  59.017  1.00  0.00     0.293 HD
ENDBRANCH   9  24
TORSDOF 5
ENDMDL
MODEL 5
REMARK VINA RESULT:     0.000      9.937     12.130
REMARK INTER + INTRA:          -0.324
REMARK INTER:                   0.000
REMARK INTRA:                  -0.324
REMARK UNBOUND:                -0.324
REMARK SMILES O=c1c(O)c(-c2ccc(O)c(O)c2)oc2cc(O)ccc12
REMARK SMILES IDX 5 1 3 2 2 3 1 4 21 5 15 6 14 7 16 8 17 9 19 10 20 11 6 12
REMARK SMILES IDX 7 13 8 14 9 15 13 16 11 17 10 18 12 20 4 22 18 24
REMARK H PARENT 10 19 12 21 4 23 18 25
REMARK Flexibility Score: inf
ROOT
ATOM      1  C   UNL     1       7.794  15.813  46.955  1.00  0.00     0.180 A 
ATOM      2  C   UNL     1       8.302  14.956  45.958  1.00  0.00     0.208 A 
ATOM      3  C   UNL     1       8.075  13.576  46.071  1.00  0.00     0.235 A 
ATOM      4  O   UNL     1       8.528  12.788  45.196  1.00  0.00    -0.285 OA
ATOM      5  C   UNL     1       7.334  13.086  47.157  1.00  0.00     0.069 A 
ATOM      6  C   UNL     1       6.839  14.011  48.102  1.00  0.00     0.142 A 
ATOM      7  O   UNL     1       7.085  15.308  47.963  1.00  0.00    -0.452 OA
ATOM      8  C   UNL     1       6.088  13.562  49.194  1.00  0.00     0.094 A 
ATOM      9  C   UNL     1       5.826  12.197  49.357  1.00  0.00     0.119 A 
ATOM     10  C   UNL     1       6.316  11.277  48.423  1.00  0.00     0.047 A 
ATOM     11  C   UNL     1       7.066  11.714  47.327  1.00  0.00     0.020 A 
ENDROOT
BRANCH   1  12
ATOM     12  C   UNL     1       8.008  17.278  46.918  1.00  0.00     0.025 A 
ATOM     13  C   UNL     1       9.132  17.870  47.520  1.00  0.00     0.016 A 
ATOM     14  C   UNL     1       9.300  19.256  47.491  1.00  0.00     0.051 A 
ATOM     15  C   UNL     1       8.343  20.073  46.874  1.00  0.00     0.157 A 
ATOM     16  C   UNL     1       7.041  18.102  46.318  1.00  0.00     0.062 A 
ATOM     17  C   UNL     1       7.206  19.492  46.288  1.00  0.00     0.158 A 
BRANCH  15  18
ATOM     18  O   UNL     1       8.514  21.456  46.846  1.00  0.00    -0.504 OA
ATOM     19  H   UNL     1       8.570  21.966  45.972  1.00  0.00     0.293 HD
ENDBRANCH  15  18
BRANCH  17  20
ATOM     20  O   UNL     1       6.231  20.276  45.673  1.00  0.00    -0.504 OA
ATOM     21  H   UNL     1       5.602  20.868  46.203  1.00  0.00     0.293 HD
ENDBRANCH  17  20
ENDBRANCH   1  12
BRANCH   2  22
ATOM     22  O   UNL     1       8.994  15.478  44.861  1.00  0.00    -0.502 OA
ATOM     23  H   UNL     1       9.283  14.903  44.079  1.00  0.00     0.293 HD
ENDBRANCH   2  22
BRANCH   9  24
ATOM     24  O   UNL     1       5.077  11.769  50.451  1.00  0.00    -0.508 OA
ATOM     25  H   UNL     1       5.266  10.885  50.908  1.00  0.00     0.293 HD
ENDBRANCH   9  24
TORSDOF 5
ENDMDL
MODEL 6
REMARK VINA RESULT:     0.000      9.553     11.106
REMARK INTER + INTRA:          -0.324
REMARK INTER:                   0.000
REMARK INTRA:                  -0.324
REMARK UNBOUND:                -0.324
REMARK SMILES O=c1c(O)c(-c2ccc(O)c(O)c2)oc2cc(O)ccc12
REMARK SMILES IDX 5 1 3 2 2 3 1 4 21 5 15 6 14 7 16 8 17 9 19 10 20 11 6 12
REMARK SMILES IDX 7 13 8 14 9 15 13 16 11 17 10 18 12 20 4 22 18 24
REMARK H PARENT 10 19 12 21 4 23 18 25
REMARK Flexibility Score: inf
ROOT
ATOM      1  C   UNL     1      12.304  17.299  50.175  1.00  0.00     0.180 A 
ATOM      2  C   UNL     1      13.678  17.068  50.387  1.00  0.00     0.208 A 
ATOM      3  C   UNL     1      14.611  17.872  49.716  1.00  0.00     0.235 A 
ATOM      4  O   UNL     1      15.847  17.678  49.881  1.00  0.00    -0.285 OA
ATOM      5  C   UNL     1      14.157  18.895  48.868  1.00  0.00     0.069 A 
ATOM      6  C   UNL     1      12.764  19.078  48.727  1.00  0.00     0.142 A 
ATOM      7  O   UNL     1      11.915  18.289  49.373  1.00  0.00    -0.452 OA
ATOM      8  C   UNL     1      12.273  20.093  47.899  1.00  0.00     0.094 A 
ATOM      9  C   UNL     1      13.155  20.929  47.206  1.00  0.00     0.119 A 
ATOM     10  C   UNL     1      14.538  20.749  47.344  1.00  0.00     0.047 A 
ATOM     11  C   UNL     1      15.040  19.739  48.169  1.00  0.00     0.020 A 
ENDROOT
BRANCH   1  12
ATOM     12  C   UNL     1      11.258  16.482  50.832  1.00  0.00     0.025 A 
ATOM     13  C   UNL     1      10.762  15.309  50.236  1.00  0.00     0.016 A 
ATOM     14  C   UNL     1       9.759  14.568  50.864  1.00  0.00     0.051 A 
ATOM     15  C   UNL     1       9.227  14.992  52.088  1.00  0.00     0.157 A 
ATOM     16  C   UNL     1      10.707  16.914  52.050  1.00  0.00     0.062 A 
ATOM     17  C   UNL     1       9.701  16.174  52.681  1.00  0.00     0.158 A 
BRANCH  15  18
ATOM     18  O   UNL     1       8.226  14.248  52.713  1.00  0.00    -0.504 OA
ATOM     19  H   UNL     1       8.438  13.403  53.230  1.00  0.00     0.293 HD
ENDBRANCH  15  18
BRANCH  17  20
ATOM     20  O   UNL     1       9.188  16.627  53.896  1.00  0.00    -0.504 OA
ATOM     21  H   UNL     1       8.191  16.703  54.065  1.00  0.00     0.293 HD
ENDBRANCH  17  20
ENDBRANCH   1  12
BRANCH   2  22
ATOM     22  O   UNL     1      14.100  16.074  51.275  1.00  0.00    -0.502 OA
ATOM     23  H   UNL     1      15.073  15.809  51.368  1.00  0.00     0.293 HD
ENDBRANCH   2  22
BRANCH   9  24
ATOM     24  O   UNL     1      12.648  21.935  46.386  1.00  0.00    -0.508 OA
ATOM     25  H   UNL     1      12.362  21.746  45.433  1.00  0.00     0.293 HD
ENDBRANCH   9  24
TORSDOF 5
ENDMDL
MODEL 7
REMARK VINA RESULT:     0.000      6.222      9.508
REMARK INTER + INTRA:          -0.324
REMARK INTER:                   0.000
REMARK INTRA:                  -0.324
REMARK UNBOUND:                -0.324
REMARK SMILES O=c1c(O)c(-c2ccc(O)c(O)c2)oc2cc(O)ccc12
REMARK SMILES IDX 5 1 3 2 2 3 1 4 21 5 15 6 14 7 16 8 17 9 19 10 20 11 6 12
REMARK SMILES IDX 7 13 8 14 9 15 13 16 11 17 10 18 12 20 4 22 18 24
REMARK H PARENT 10 19 12 21 4 23 18 25
REMARK Flexibility Score: inf
ROOT
ATOM      1  C   UNL     1      10.404  20.542  52.507  1.00  0.00     0.180 A 
ATOM      2  C   UNL     1      11.444  20.197  51.619  1.00  0.00     0.208 A 
ATOM      3  C   UNL     1      11.169  20.147  50.244  1.00  0.00     0.235 A 
ATOM      4  O   UNL     1      12.080  19.831  49.430  1.00  0.00    -0.285 OA
ATOM      5  C   UNL     1       9.880  20.459  49.786  1.00  0.00     0.069 A 
ATOM      6  C   UNL     1       8.899  20.817  50.737  1.00  0.00     0.142 A 
ATOM      7  O   UNL     1       9.198  20.844  52.030  1.00  0.00    -0.452 OA
ATOM      8  C   UNL     1       7.605  21.144  50.319  1.00  0.00     0.094 A 
ATOM      9  C   UNL     1       7.273  21.115  48.960  1.00  0.00     0.119 A 
ATOM     10  C   UNL     1       8.243  20.759  48.014  1.00  0.00     0.047 A 
ATOM     11  C   UNL     1       9.540  20.432  48.420  1.00  0.00     0.020 A 
ENDROOT
BRANCH   1  12
ATOM     12  C   UNL     1      10.609  20.599  53.973  1.00  0.00     0.025 A 
ATOM     13  C   UNL     1      10.411  19.468  54.785  1.00  0.00     0.016 A 
ATOM     14  C   UNL     1      10.588  19.552  56.168  1.00  0.00     0.051 A 
ATOM     15  C   UNL     1      10.951  20.767  56.762  1.00  0.00     0.157 A 
ATOM     16  C   UNL     1      10.953  21.820  54.576  1.00  0.00     0.062 A 
ATOM     17  C   UNL     1      11.130  21.907  55.962  1.00  0.00     0.158 A 
BRANCH  15  18
ATOM     18  O   UNL     1      11.128  20.847  58.143  1.00  0.00    -0.504 OA
ATOM     19  H   UNL     1      11.757  21.525  58.559  1.00  0.00     0.293 HD
ENDBRANCH  15  18
BRANCH  17  20
ATOM     20  O   UNL     1      11.485  23.134  56.522  1.00  0.00    -0.504 OA
ATOM     21  H   UNL     1      11.621  23.250  57.520  1.00  0.00     0.293 HD
ENDBRANCH  17  20
ENDBRANCH   1  12
BRANCH   2  22
ATOM     22  O   UNL     1      12.731  19.941  52.100  1.00  0.00    -0.502 OA
ATOM     23  H   UNL     1      13.144  19.017  52.074  1.00  0.00     0.293 HD
ENDBRANCH   2  22
BRANCH   9  24
ATOM     24  O   UNL     1       5.979  21.443  48.562  1.00  0.00    -0.508 OA
ATOM     25  H   UNL     1       5.570  21.056  47.720  1.00  0.00     0.293 HD
ENDBRANCH   9  24
TORSDOF 5
ENDMDL
MODEL 8
REMARK VINA RESULT:     0.000      7.323      9.772
REMARK INTER + INTRA:          -0.324
REMARK INTER:                   0.000
REMARK INTRA:                  -0.324
REMARK UNBOUND:                -0.324
REMARK SMILES O=c1c(O)c(-c2ccc(O)c(O)c2)oc2cc(O)ccc12
REMARK SMILES IDX 5 1 3 2 2 3 1 4 21 5 15 6 14 7 16 8 17 9 19 10 20 11 6 12
REMARK SMILES IDX 7 13 8 14 9 15 13 16 11 17 10 18 12 20 4 22 18 24
REMARK H PARENT 10 19 12 21 4 23 18 25
REMARK Flexibility Score: inf
ROOT
ATOM      1  C   UNL     1      11.492  20.507  52.324  1.00  0.00     0.180 A 
ATOM      2  C   UNL     1      12.578  20.849  51.492  1.00  0.00     0.208 A 
ATOM      3  C   UNL     1      12.325  21.549  50.303  1.00  0.00     0.235 A 
ATOM      4  O   UNL     1      13.278  21.858  49.538  1.00  0.00    -0.285 OA
ATOM      5  C   UNL     1      11.007  21.909  49.981  1.00  0.00     0.069 A 
ATOM      6  C   UNL     1       9.976  21.549  50.878  1.00  0.00     0.142 A 
ATOM      7  O   UNL     1      10.257  20.878  51.988  1.00  0.00    -0.452 OA
ATOM      8  C   UNL     1       8.651  21.898  50.597  1.00  0.00     0.094 A 
ATOM      9  C   UNL     1       8.338  22.600  49.428  1.00  0.00     0.119 A 
ATOM     10  C   UNL     1       9.357  22.957  48.535  1.00  0.00     0.047 A 
ATOM     11  C   UNL     1      10.686  22.615  48.807  1.00  0.00     0.020 A 
ENDROOT
BRANCH   1  12
ATOM     12  C   UNL     1      11.674  19.752  53.585  1.00  0.00     0.025 A 
ATOM     13  C   UNL     1      11.641  18.347  53.609  1.00  0.00     0.016 A 
ATOM     14  C   UNL     1      11.792  17.657  54.815  1.00  0.00     0.051 A 
ATOM     15  C   UNL     1      11.965  18.360  56.015  1.00  0.00     0.157 A 
ATOM     16  C   UNL     1      11.827  20.452  54.793  1.00  0.00     0.062 A 
ATOM     17  C   UNL     1      11.978  19.765  56.003  1.00  0.00     0.158 A 
BRANCH  15  18
ATOM     18  O   UNL     1      12.117  17.669  57.216  1.00  0.00    -0.504 OA
ATOM     19  H   UNL     1      11.370  17.102  57.600  1.00  0.00     0.293 HD
ENDBRANCH  15  18
BRANCH  17  20
ATOM     20  O   UNL     1      12.141  20.494  57.180  1.00  0.00    -0.504 OA
ATOM     21  H   UNL     1      12.507  20.074  58.027  1.00  0.00     0.293 HD
ENDBRANCH  17  20
ENDBRANCH   1  12
BRANCH   2  22
ATOM     22  O   UNL     1      13.885  20.521  51.864  1.00  0.00    -0.502 OA
ATOM     23  H   UNL     1      14.334  20.925  52.676  1.00  0.00     0.293 HD
ENDBRANCH   2  22
BRANCH   9  24
ATOM     24  O   UNL     1       7.013  22.938  49.164  1.00  0.00    -0.508 OA
ATOM     25  H   UNL     1       6.774  23.761  48.623  1.00  0.00     0.293 HD
ENDBRANCH   9  24
TORSDOF 5
ENDMDL
MODEL 9
REMARK VINA RESULT:     0.000     10.160     11.449
REMARK INTER + INTRA:          -0.324
REMARK INTER:                   0.000
REMARK INTRA:                  -0.324
REMARK UNBOUND:                -0.324
REMARK SMILES O=c1c(O)c(-c2ccc(O)c(O)c2)oc2cc(O)ccc12
REMARK SMILES IDX 5 1 3 2 2 3 1 4 21 5 15 6 14 7 16 8 17 9 19 10 20 11 6 12
REMARK SMILES IDX 7 13 8 14 9 15 13 16 11 17 10 18 12 20 4 22 18 24
REMARK H PARENT 10 19 12 21 4 23 18 25
REMARK Flexibility Score: inf
ROOT
ATOM      1  C   UNL     1      15.399  18.659  53.660  1.00  0.00     0.180 A 
ATOM      2  C   UNL     1      16.526  18.998  54.437  1.00  0.00     0.208 A 
ATOM      3  C   UNL     1      16.908  20.345  54.523  1.00  0.00     0.235 A 
ATOM      4  O   UNL     1      17.918  20.672  55.204  1.00  0.00    -0.285 OA
ATOM      5  C   UNL     1      16.153  21.321  53.854  1.00  0.00     0.069 A 
ATOM      6  C   UNL     1      15.024  20.903  53.115  1.00  0.00     0.142 A 
ATOM      7  O   UNL     1      14.702  19.617  53.051  1.00  0.00    -0.452 OA
ATOM      8  C   UNL     1      14.241  21.847  52.441  1.00  0.00     0.094 A 
ATOM      9  C   UNL     1      14.570  23.206  52.494  1.00  0.00     0.119 A 
ATOM     10  C   UNL     1      15.690  23.623  53.225  1.00  0.00     0.047 A 
ATOM     11  C   UNL     1      16.479  22.689  53.903  1.00  0.00     0.020 A 
ENDROOT
BRANCH   1  12
ATOM     12  C   UNL     1      14.944  17.259  53.504  1.00  0.00     0.025 A 
ATOM     13  C   UNL     1      15.428  16.442  52.467  1.00  0.00     0.016 A 
ATOM     14  C   UNL     1      14.966  15.131  52.326  1.00  0.00     0.051 A 
ATOM     15  C   UNL     1      14.005  14.621  53.209  1.00  0.00     0.157 A 
ATOM     16  C   UNL     1      13.965  16.750  54.373  1.00  0.00     0.062 A 
ATOM     17  C   UNL     1      13.499  15.437  54.234  1.00  0.00     0.158 A 
BRANCH  15  18
ATOM     18  O   UNL     1      13.546  13.312  53.066  1.00  0.00    -0.504 OA
ATOM     19  H   UNL     1      12.765  12.962  53.608  1.00  0.00     0.293 HD
ENDBRANCH  15  18
BRANCH  17  20
ATOM     20  O   UNL     1      12.537  14.963  55.125  1.00  0.00    -0.504 OA
ATOM     21  H   UNL     1      12.332  13.975  55.220  1.00  0.00     0.293 HD
ENDBRANCH  17  20
ENDBRANCH   1  12
BRANCH   2  22
ATOM     22  O   UNL     1      17.229  18.011  55.133  1.00  0.00    -0.502 OA
ATOM     23  H   UNL     1      17.274  17.989  56.144  1.00  0.00     0.293 HD
ENDBRANCH   2  22
BRANCH   9  24
ATOM     24  O   UNL     1      13.779  24.131  51.817  1.00  0.00    -0.508 OA
ATOM     25  H   UNL     1      12.778  24.181  51.967  1.00  0.00     0.293 HD
ENDBRANCH   9  24
TORSDOF 5
ENDMDL
