MODEL 1
REMARK VINA RESULT:     4.971      0.000      0.000
REMARK INTER + INTRA:           7.603
REMARK INTER:                   7.005
REMARK INTRA:                   0.597
REMARK UNBOUND:                 0.597
REMARK SMILES CC1=CCC(=C(C)C)C(=O)CC(C)=CCC1
REMARK SMILES IDX 12 1 14 2 13 3 15 4 16 5 2 6 1 7 3 8 11 10 9 11 10 12 5 13
REMARK SMILES IDX 6 14 7 15 8 16 4 17
REMARK H PARENT
REMARK Flexibility Score: 60.00
ROOT
ATOM      1  C   UNL     1      11.650  36.634 -18.673  1.00  0.00    -0.070 C 
ATOM      2  C   UNL     1      11.327  37.875 -19.106  1.00  0.00    -0.027 C 
ATOM      3  C   UNL     1      11.842  35.551 -19.705  1.00  0.00     0.039 C 
ENDROOT
BRANCH   2   4
ATOM      4  C   UNL     1      11.040  39.061 -18.213  1.00  0.00     0.032 C 
BRANCH   4   5
ATOM      5  C   UNL     1      12.301  39.533 -17.474  1.00  0.00     0.034 C 
BRANCH   5   6
ATOM      6  C   UNL     1      12.076  39.796 -15.992  1.00  0.00    -0.077 C 
ATOM      7  C   UNL     1      10.914  40.664 -15.576  1.00  0.00     0.039 C 
ATOM      8  C   UNL     1      12.878  39.307 -15.018  1.00  0.00    -0.023 CG0
ATOM      9  G   UNL     1      14.045  38.371 -15.233  1.00  0.00     0.000 G0
ENDBRANCH   5   6
ENDBRANCH   4   5
ENDBRANCH   2   4
BRANCH   1  10
ATOM     10  C   UNL     1      11.830  36.291 -17.207  1.00  0.00     0.111 C 
BRANCH  10  11
ATOM     11  C   UNL     1      13.266  36.437 -16.789  1.00  0.00     0.163 C 
ATOM     12  O   UNL     1      14.180  36.142 -17.606  1.00  0.00    -0.294 OA
BRANCH  11  13
ATOM     13  C   UNL     1      13.630  36.902 -15.426  1.00  0.00    -0.002 C 
ATOM     14  C   UNL     1      13.589  36.040 -14.374  1.00  0.00    -0.069 C 
ATOM     15  C   UNL     1      13.085  34.623 -14.542  1.00  0.00     0.039 C 
ATOM     16  C   UNL     1      14.004  36.480 -12.989  1.00  0.00     0.039 C 
BRANCH  13  17
ATOM     17  C   UNL     1      14.049  38.354 -15.223  1.00  0.00     0.066 CG0
ATOM     18  G   UNL     1      12.886  39.301 -15.031  1.00  0.00     0.000 G0
ENDBRANCH  13  17
ENDBRANCH  11  13
ENDBRANCH  10  11
ENDBRANCH   1  10
TORSDOF 0
ENDMDL
MODEL 2
REMARK VINA RESULT:     6.132      1.296      3.897
REMARK INTER + INTRA:           9.239
REMARK INTER:                   7.481
REMARK INTRA:                   1.759
REMARK UNBOUND:                 0.597
REMARK SMILES CC1=CCC(=C(C)C)C(=O)CC(C)=CCC1
REMARK SMILES IDX 12 1 14 2 13 3 15 4 16 5 2 6 1 7 3 8 11 10 9 11 10 12 5 13
REMARK SMILES IDX 6 14 7 15 8 16 4 17
REMARK H PARENT
REMARK Flexibility Score: 60.00
ROOT
ATOM      1  C   UNL     1      13.327  36.445 -14.840  1.00  0.00    -0.070 C 
ATOM      2  C   UNL     1      13.935  37.649 -14.727  1.00  0.00    -0.027 C 
ATOM      3  C   UNL     1      13.626  35.400 -13.795  1.00  0.00     0.039 C 
ENDROOT
BRANCH   2   4
ATOM      4  C   UNL     1      13.800  38.789 -15.712  1.00  0.00     0.032 C 
BRANCH   4   5
ATOM      5  C   UNL     1      12.894  39.903 -15.167  1.00  0.00     0.034 C 
BRANCH   5   6
ATOM      6  C   UNL     1      11.472  39.849 -15.708  1.00  0.00    -0.077 C 
ATOM      7  C   UNL     1      10.341  40.327 -14.832  1.00  0.00     0.039 C 
ATOM      8  C   UNL     1      11.159  39.371 -16.935  1.00  0.00    -0.023 CG0
ATOM      9  G   UNL     1      12.154  38.910 -17.975  1.00  0.00     0.000 G0
ENDBRANCH   5   6
ENDBRANCH   4   5
ENDBRANCH   2   4
BRANCH   1  10
ATOM     10  C   UNL     1      12.364  36.108 -15.961  1.00  0.00     0.111 C 
BRANCH  10  11
ATOM     11  C   UNL     1      12.916  36.528 -17.294  1.00  0.00     0.163 C 
ATOM     12  O   UNL     1      14.069  36.147 -17.632  1.00  0.00    -0.294 OA
BRANCH  11  13
ATOM     13  C   UNL     1      12.140  37.402 -18.211  1.00  0.00    -0.002 C 
ATOM     14  C   UNL     1      11.440  36.862 -19.245  1.00  0.00    -0.069 C 
ATOM     15  C   UNL     1      11.508  35.380 -19.546  1.00  0.00     0.039 C 
ATOM     16  C   UNL     1      10.603  37.728 -20.157  1.00  0.00     0.039 C 
BRANCH  13  17
ATOM     17  C   UNL     1      12.139  38.909 -17.978  1.00  0.00     0.066 CG0
ATOM     18  G   UNL     1      11.127  39.365 -16.952  1.00  0.00     0.000 G0
ENDBRANCH  13  17
ENDBRANCH  11  13
ENDBRANCH  10  11
ENDBRANCH   1  10
TORSDOF 0
ENDMDL
MODEL 3
REMARK VINA RESULT:     6.297      1.654      4.435
REMARK INTER + INTRA:           9.471
REMARK INTER:                   7.785
REMARK INTRA:                   1.686
REMARK UNBOUND:                 0.597
REMARK SMILES CC1=CCC(=C(C)C)C(=O)CC(C)=CCC1
REMARK SMILES IDX 12 1 14 2 13 3 15 4 16 5 2 6 1 7 3 8 11 10 9 11 10 12 5 13
REMARK SMILES IDX 6 14 7 15 8 16 4 17
REMARK H PARENT
REMARK Flexibility Score: 60.00
ROOT
ATOM      1  C   UNL     1      11.856  39.551 -15.995  1.00  0.00    -0.070 C 
ATOM      2  C   UNL     1      12.896  39.396 -15.143  1.00  0.00    -0.027 C 
ATOM      3  C   UNL     1      10.731  40.465 -15.581  1.00  0.00     0.039 C 
ENDROOT
BRANCH   2   4
ATOM      4  C   UNL     1      14.076  38.477 -15.367  1.00  0.00     0.032 C 
BRANCH   4   5
ATOM      5  C   UNL     1      14.297  37.539 -14.171  1.00  0.00     0.034 C 
BRANCH   5   6
ATOM      6  C   UNL     1      13.974  36.082 -14.473  1.00  0.00    -0.077 C 
ATOM      7  C   UNL     1      13.632  35.161 -13.328  1.00  0.00     0.039 C 
ATOM      8  C   UNL     1      13.996  35.557 -15.720  1.00  0.00    -0.023 CG0
ATOM      9  G   UNL     1      14.252  36.332 -16.991  1.00  0.00     0.000 G0
ENDBRANCH   5   6
ENDBRANCH   4   5
ENDBRANCH   2   4
BRANCH   1  10
ATOM     10  C   UNL     1      11.778  38.853 -17.339  1.00  0.00     0.111 C 
BRANCH  10  11
ATOM     11  C   UNL     1      11.871  37.362 -17.181  1.00  0.00     0.163 C 
ATOM     12  O   UNL     1      11.008  36.760 -16.487  1.00  0.00    -0.294 OA
BRANCH  11  13
ATOM     13  C   UNL     1      12.972  36.586 -17.806  1.00  0.00    -0.002 C 
ATOM     14  C   UNL     1      12.844  36.114 -19.077  1.00  0.00    -0.069 C 
ATOM     15  C   UNL     1      11.552  36.284 -19.847  1.00  0.00     0.039 C 
ATOM     16  C   UNL     1      13.972  35.367 -19.749  1.00  0.00     0.039 C 
BRANCH  13  17
ATOM     17  C   UNL     1      14.244  36.324 -17.007  1.00  0.00     0.066 CG0
ATOM     18  G   UNL     1      14.010  35.562 -15.723  1.00  0.00     0.000 G0
ENDBRANCH  13  17
ENDBRANCH  11  13
ENDBRANCH  10  11
ENDBRANCH   1  10
TORSDOF 0
ENDMDL
MODEL 4
REMARK VINA RESULT:     6.423      1.809      4.282
REMARK INTER + INTRA:           9.648
REMARK INTER:                   8.410
REMARK INTRA:                   1.238
REMARK UNBOUND:                 0.597
REMARK SMILES CC1=CCC(=C(C)C)C(=O)CC(C)=CCC1
REMARK SMILES IDX 12 1 14 2 13 3 15 4 16 5 2 6 1 7 3 8 11 10 9 11 10 12 5 13
REMARK SMILES IDX 6 14 7 15 8 16 4 17
REMARK H PARENT
REMARK Flexibility Score: 60.00
ROOT
ATOM      1  C   UNL     1      11.855  39.002 -17.525  1.00  0.00    -0.070 C 
ATOM      2  C   UNL     1      12.508  39.489 -16.445  1.00  0.00    -0.027 C 
ATOM      3  C   UNL     1      11.653  39.921 -18.704  1.00  0.00     0.039 C 
ENDROOT
BRANCH   2   4
ATOM      4  C   UNL     1      12.746  38.733 -15.157  1.00  0.00     0.032 C 
BRANCH   4   5
ATOM      5  C   UNL     1      14.068  37.952 -15.195  1.00  0.00     0.034 C 
BRANCH   5   6
ATOM      6  C   UNL     1      13.885  36.455 -15.401  1.00  0.00    -0.077 C 
ATOM      7  C   UNL     1      13.622  35.583 -14.199  1.00  0.00     0.039 C 
ATOM      8  C   UNL     1      13.966  35.854 -16.610  1.00  0.00    -0.023 CG0
ATOM      9  G   UNL     1      14.156  36.565 -17.930  1.00  0.00     0.000 G0
ENDBRANCH   5   6
ENDBRANCH   4   5
ENDBRANCH   2   4
BRANCH   1  10
ATOM     10  C   UNL     1      11.326  37.583 -17.601  1.00  0.00     0.111 C 
BRANCH  10  11
ATOM     11  C   UNL     1      11.764  36.909 -18.870  1.00  0.00     0.163 C 
ATOM     12  O   UNL     1      10.986  36.895 -19.862  1.00  0.00    -0.294 OA
BRANCH  11  13
ATOM     13  C   UNL     1      13.086  36.240 -18.973  1.00  0.00    -0.002 C 
ATOM     14  C   UNL     1      13.331  35.354 -19.976  1.00  0.00    -0.069 C 
ATOM     15  C   UNL     1      12.243  34.956 -20.951  1.00  0.00     0.039 C 
ATOM     16  C   UNL     1      14.686  34.702 -20.128  1.00  0.00     0.039 C 
BRANCH  13  17
ATOM     17  C   UNL     1      14.163  36.559 -17.941  1.00  0.00     0.066 CG0
ATOM     18  G   UNL     1      13.965  35.854 -16.619  1.00  0.00     0.000 G0
ENDBRANCH  13  17
ENDBRANCH  11  13
ENDBRANCH  10  11
ENDBRANCH   1  10
TORSDOF 0
ENDMDL
MODEL 5
REMARK VINA RESULT:     6.971      1.748      3.835
REMARK INTER + INTRA:          10.421
REMARK INTER:                   8.761
REMARK INTRA:                   1.661
REMARK UNBOUND:                 0.597
REMARK SMILES CC1=CCC(=C(C)C)C(=O)CC(C)=CCC1
REMARK SMILES IDX 12 1 14 2 13 3 15 4 16 5 2 6 1 7 3 8 11 10 9 11 10 12 5 13
REMARK SMILES IDX 6 14 7 15 8 16 4 17
REMARK H PARENT
REMARK Flexibility Score: 60.00
ROOT
ATOM      1  C   UNL     1      12.085  39.196 -15.883  1.00  0.00    -0.070 C 
ATOM      2  C   UNL     1      11.652  39.175 -17.165  1.00  0.00    -0.027 C 
ATOM      3  C   UNL     1      11.298  40.004 -14.882  1.00  0.00     0.039 C 
ENDROOT
BRANCH   2   4
ATOM      4  C   UNL     1      12.348  38.471 -18.308  1.00  0.00     0.032 C 
BRANCH   4   5
ATOM      5  C   UNL     1      11.366  37.631 -19.138  1.00  0.00     0.034 C 
BRANCH   5   6
ATOM      6  C   UNL     1      11.704  36.147 -19.162  1.00  0.00    -0.077 C 
ATOM      7  C   UNL     1      12.143  35.522 -20.463  1.00  0.00     0.039 C 
ATOM      8  C   UNL     1      11.613  35.344 -18.077  1.00  0.00    -0.023 CG0
ATOM      9  G   UNL     1      11.255  35.798 -16.680  1.00  0.00     0.000 G0
ENDBRANCH   5   6
ENDBRANCH   4   5
ENDBRANCH   2   4
BRANCH   1  10
ATOM     10  C   UNL     1      13.316  38.445 -15.414  1.00  0.00     0.111 C 
BRANCH  10  11
ATOM     11  C   UNL     1      13.417  37.102 -16.081  1.00  0.00     0.163 C 
ATOM     12  O   UNL     1      14.320  36.905 -16.938  1.00  0.00    -0.294 OA
BRANCH  11  13
ATOM     13  C   UNL     1      12.461  36.010 -15.766  1.00  0.00    -0.002 C 
ATOM     14  C   UNL     1      12.657  35.219 -14.676  1.00  0.00    -0.069 C 
ATOM     15  C   UNL     1      13.893  35.366 -13.815  1.00  0.00     0.039 C 
ATOM     16  C   UNL     1      11.669  34.136 -14.310  1.00  0.00     0.039 C 
BRANCH  13  17
ATOM     17  C   UNL     1      11.261  35.787 -16.679  1.00  0.00     0.066 CG0
ATOM     18  G   UNL     1      11.632  35.343 -18.075  1.00  0.00     0.000 G0
ENDBRANCH  13  17
ENDBRANCH  11  13
ENDBRANCH  10  11
ENDBRANCH   1  10
TORSDOF 0
ENDMDL
MODEL 6
REMARK VINA RESULT:     7.750      1.415      3.554
REMARK INTER + INTRA:          11.519
REMARK INTER:                   9.941
REMARK INTRA:                   1.578
REMARK UNBOUND:                 0.597
REMARK SMILES CC1=CCC(=C(C)C)C(=O)CC(C)=CCC1
REMARK SMILES IDX 12 1 14 2 13 3 15 4 16 5 2 6 1 7 3 8 11 10 9 11 10 12 5 13
REMARK SMILES IDX 6 14 7 15 8 16 4 17
REMARK H PARENT
REMARK Flexibility Score: 60.00
ROOT
ATOM      1  C   UNL     1      12.300  36.419 -18.645  1.00  0.00    -0.070 C 
ATOM      2  C   UNL     1      13.593  36.123 -18.378  1.00  0.00    -0.027 C 
ATOM      3  C   UNL     1      11.745  36.021 -19.990  1.00  0.00     0.039 C 
ENDROOT
BRANCH   2   4
ATOM      4  C   UNL     1      14.328  36.498 -17.111  1.00  0.00     0.032 C 
BRANCH   4   5
ATOM      5  C   UNL     1      13.630  35.937 -15.863  1.00  0.00     0.034 C 
BRANCH   5   6
ATOM      6  C   UNL     1      13.797  36.811 -14.628  1.00  0.00    -0.077 C 
ATOM      7  C   UNL     1      14.000  36.147 -13.289  1.00  0.00     0.039 C 
ATOM      8  C   UNL     1      13.752  38.163 -14.660  1.00  0.00    -0.023 CG0
ATOM      9  G   UNL     1      13.623  39.005 -15.909  1.00  0.00     0.000 G0
ENDBRANCH   5   6
ENDBRANCH   4   5
ENDBRANCH   2   4
BRANCH   1  10
ATOM     10  C   UNL     1      11.392  37.123 -17.656  1.00  0.00     0.111 C 
BRANCH  10  11
ATOM     11  C   UNL     1      11.691  38.595 -17.600  1.00  0.00     0.163 C 
ATOM     12  O   UNL     1      11.553  39.292 -18.641  1.00  0.00    -0.294 OA
BRANCH  11  13
ATOM     13  C   UNL     1      12.166  39.240 -16.350  1.00  0.00    -0.002 C 
ATOM     14  C   UNL     1      11.322  40.014 -15.614  1.00  0.00    -0.069 C 
ATOM     15  C   UNL     1       9.918  40.315 -16.092  1.00  0.00     0.039 C 
ATOM     16  C   UNL     1      11.771  40.637 -14.312  1.00  0.00     0.039 C 
BRANCH  13  17
ATOM     17  C   UNL     1      13.608  39.024 -15.904  1.00  0.00     0.066 CG0
ATOM     18  G   UNL     1      13.739  38.187 -14.653  1.00  0.00     0.000 G0
ENDBRANCH  13  17
ENDBRANCH  11  13
ENDBRANCH  10  11
ENDBRANCH   1  10
TORSDOF 0
ENDMDL
