MODEL 1
REMARK VINA RESULT:    -4.024      0.000      0.000
REMARK INTER + INTRA:          -4.142
REMARK INTER:                  -4.142
REMARK INTRA:                   0.000
REMARK UNBOUND:                 0.000
REMARK SMILES Oc1ccc2[nH]ccc2c1
REMARK SMILES IDX 3 1 4 2 5 3 9 4 8 5 7 6 6 7 10 8 2 9 1 11
REMARK H PARENT 6 10 1 12
REMARK Flexibility Score: inf
ROOT
ATOM      1  C   UNL     1     138.238 131.746 128.876  1.00  0.00     0.048 A 
ATOM      2  C   UNL     1     139.155 132.694 129.364  1.00  0.00     0.030 A 
ATOM      3  C   UNL     1     139.321 132.790 130.744  1.00  0.00     0.046 A 
ATOM      4  C   UNL     1     138.621 131.992 131.610  1.00  0.00     0.003 A 
ATOM      5  C   UNL     1     139.009 132.331 132.887  1.00  0.00     0.028 A 
ATOM      6  C   UNL     1     139.950 133.343 132.724  1.00  0.00     0.083 A 
ATOM      7  N   UNL     1     140.137 133.619 131.414  1.00  0.00    -0.361 N 
ATOM      8  C   UNL     1     137.705 131.044 131.160  1.00  0.00     0.056 A 
ATOM      9  C   UNL     1     137.512 130.921 129.767  1.00  0.00     0.116 A 
ATOM     10  H   UNL     1     140.784 134.332 131.010  1.00  0.00     0.166 HD
ENDROOT
BRANCH   9  11
ATOM     11  O   UNL     1     136.610 129.991 129.259  1.00  0.00    -0.508 OA
ATOM     12  H   UNL     1     136.360 129.158 129.779  1.00  0.00     0.293 HD
ENDBRANCH   9  11
TORSDOF 1
ENDMDL
MODEL 2
REMARK VINA RESULT:    -4.024      6.273      6.935
REMARK INTER + INTRA:          -4.142
REMARK INTER:                  -4.142
REMARK INTRA:                   0.000
REMARK UNBOUND:                 0.000
REMARK SMILES Oc1ccc2[nH]ccc2c1
REMARK SMILES IDX 3 1 4 2 5 3 9 4 8 5 7 6 6 7 10 8 2 9 1 11
REMARK H PARENT 6 10 1 12
REMARK Flexibility Score: inf
ROOT
ATOM      1  C   UNL     1     131.737 132.437 128.894  1.00  0.00     0.048 A 
ATOM      2  C   UNL     1     132.692 131.517 129.365  1.00  0.00     0.030 A 
ATOM      3  C   UNL     1     132.783 131.319 130.741  1.00  0.00     0.046 A 
ATOM      4  C   UNL     1     131.976 131.991 131.620  1.00  0.00     0.003 A 
ATOM      5  C   UNL     1     132.313 131.575 132.889  1.00  0.00     0.028 A 
ATOM      6  C   UNL     1     133.334 130.648 132.708  1.00  0.00     0.083 A 
ATOM      7  N   UNL     1     133.618 130.495 131.395  1.00  0.00    -0.361 N 
ATOM      8  C   UNL     1     131.021 132.908 131.187  1.00  0.00     0.056 A 
ATOM      9  C   UNL     1     130.902 133.133 129.800  1.00  0.00     0.116 A 
ATOM     10  H   UNL     1     134.339 129.865 130.979  1.00  0.00     0.166 HD
ENDROOT
BRANCH   9  11
ATOM     11  O   UNL     1     129.965 134.038 129.308  1.00  0.00    -0.508 OA
ATOM     12  H   UNL     1     128.972 133.840 129.340  1.00  0.00     0.293 HD
ENDBRANCH   9  11
TORSDOF 1
ENDMDL
MODEL 3
REMARK VINA RESULT:    -4.024      9.599      9.782
REMARK INTER + INTRA:          -4.141
REMARK INTER:                  -4.141
REMARK INTRA:                   0.000
REMARK UNBOUND:                 0.000
REMARK SMILES Oc1ccc2[nH]ccc2c1
REMARK SMILES IDX 3 1 4 2 5 3 9 4 8 5 7 6 6 7 10 8 2 9 1 11
REMARK H PARENT 6 10 1 12
REMARK Flexibility Score: inf
ROOT
ATOM      1  C   UNL     1     132.389 138.832 128.903  1.00  0.00     0.048 A 
ATOM      2  C   UNL     1     131.475 137.876 129.382  1.00  0.00     0.030 A 
ATOM      3  C   UNL     1     131.286 137.788 130.759  1.00  0.00     0.046 A 
ATOM      4  C   UNL     1     131.961 138.600 131.632  1.00  0.00     0.003 A 
ATOM      5  C   UNL     1     131.554 138.265 132.904  1.00  0.00     0.028 A 
ATOM      6  C   UNL     1     130.628 137.240 132.732  1.00  0.00     0.083 A 
ATOM      7  N   UNL     1     130.468 136.953 131.421  1.00  0.00    -0.361 N 
ATOM      8  C   UNL     1     132.872 139.556 131.191  1.00  0.00     0.056 A 
ATOM      9  C   UNL     1     133.088 139.671 129.802  1.00  0.00     0.116 A 
ATOM     10  H   UNL     1     129.837 136.229 131.010  1.00  0.00     0.166 HD
ENDROOT
BRANCH   9  11
ATOM     11  O   UNL     1     133.988 140.610 129.302  1.00  0.00    -0.508 OA
ATOM     12  H   UNL     1     133.669 141.448 128.831  1.00  0.00     0.293 HD
ENDBRANCH   9  11
TORSDOF 1
ENDMDL
MODEL 4
REMARK VINA RESULT:    -3.948      6.189      6.847
REMARK INTER + INTRA:          -4.063
REMARK INTER:                  -4.063
REMARK INTRA:                   0.000
REMARK UNBOUND:                 0.000
REMARK SMILES Oc1ccc2[nH]ccc2c1
REMARK SMILES IDX 3 1 4 2 5 3 9 4 8 5 7 6 6 7 10 8 2 9 1 11
REMARK H PARENT 6 10 1 12
REMARK Flexibility Score: inf
ROOT
ATOM      1  C   UNL     1     138.725 137.956 128.875  1.00  0.00     0.048 A 
ATOM      2  C   UNL     1     137.730 138.833 129.343  1.00  0.00     0.030 A 
ATOM      3  C   UNL     1     137.724 139.146 130.701  1.00  0.00     0.046 A 
ATOM      4  C   UNL     1     138.651 138.625 131.564  1.00  0.00     0.003 A 
ATOM      5  C   UNL     1     138.374 139.125 132.817  1.00  0.00     0.028 A 
ATOM      6  C   UNL     1     137.264 139.946 132.644  1.00  0.00     0.083 A 
ATOM      7  N   UNL     1     136.871 139.956 131.350  1.00  0.00    -0.361 N 
ATOM      8  C   UNL     1     139.649 137.754 131.133  1.00  0.00     0.056 A 
ATOM      9  C   UNL     1     139.683 137.415 129.764  1.00  0.00     0.116 A 
ATOM     10  H   UNL     1     136.068 140.484 130.943  1.00  0.00     0.166 HD
ENDROOT
BRANCH   9  11
ATOM     11  O   UNL     1     140.658 136.549 129.276  1.00  0.00    -0.508 OA
ATOM     12  H   UNL     1     141.390 136.185 129.874  1.00  0.00     0.293 HD
ENDBRANCH   9  11
TORSDOF 1
ENDMDL
MODEL 5
REMARK VINA RESULT:    -3.826      5.464      6.477
REMARK INTER + INTRA:          -3.937
REMARK INTER:                  -3.937
REMARK INTRA:                   0.000
REMARK UNBOUND:                 0.000
REMARK SMILES Oc1ccc2[nH]ccc2c1
REMARK SMILES IDX 3 1 4 2 5 3 9 4 8 5 7 6 6 7 10 8 2 9 1 11
REMARK H PARENT 6 10 1 12
REMARK Flexibility Score: inf
ROOT
ATOM      1  C   UNL     1     131.123 131.863 129.717  1.00  0.00     0.048 A 
ATOM      2  C   UNL     1     132.247 131.022 129.807  1.00  0.00     0.030 A 
ATOM      3  C   UNL     1     133.492 131.563 129.496  1.00  0.00     0.046 A 
ATOM      4  C   UNL     1     133.634 132.871 129.114  1.00  0.00     0.003 A 
ATOM      5  C   UNL     1     134.974 133.089 128.881  1.00  0.00     0.028 A 
ATOM      6  C   UNL     1     135.591 131.869 129.142  1.00  0.00     0.083 A 
ATOM      7  N   UNL     1     134.683 130.941 129.518  1.00  0.00    -0.361 N 
ATOM      8  C   UNL     1     132.543 133.730 129.015  1.00  0.00     0.056 A 
ATOM      9  C   UNL     1     131.266 133.214 129.321  1.00  0.00     0.116 A 
ATOM     10  H   UNL     1     134.871 129.946 129.770  1.00  0.00     0.166 HD
ENDROOT
BRANCH   9  11
ATOM     11  O   UNL     1     130.138 134.026 129.240  1.00  0.00    -0.508 OA
ATOM     12  H   UNL     1     129.421 133.867 128.542  1.00  0.00     0.293 HD
ENDBRANCH   9  11
TORSDOF 1
ENDMDL
MODEL 6
REMARK VINA RESULT:    -3.754      1.925      2.733
REMARK INTER + INTRA:          -3.864
REMARK INTER:                  -3.864
REMARK INTRA:                   0.000
REMARK UNBOUND:                 0.000
REMARK SMILES Oc1ccc2[nH]ccc2c1
REMARK SMILES IDX 3 1 4 2 5 3 9 4 8 5 7 6 6 7 10 8 2 9 1 11
REMARK H PARENT 6 10 1 12
REMARK Flexibility Score: inf
ROOT
ATOM      1  C   UNL     1     138.713 131.214 129.656  1.00  0.00     0.048 A 
ATOM      2  C   UNL     1     139.532 132.356 129.721  1.00  0.00     0.030 A 
ATOM      3  C   UNL     1     138.953 133.590 129.433  1.00  0.00     0.046 A 
ATOM      4  C   UNL     1     137.630 133.703 129.096  1.00  0.00     0.003 A 
ATOM      5  C   UNL     1     137.374 135.039 128.875  1.00  0.00     0.028 A 
ATOM      6  C   UNL     1     138.588 135.683 129.096  1.00  0.00     0.083 A 
ATOM      7  N   UNL     1     139.548 134.794 129.437  1.00  0.00    -0.361 N 
ATOM      8  C   UNL     1     136.792 132.593 129.023  1.00  0.00     0.056 A 
ATOM      9  C   UNL     1     137.347 131.328 129.307  1.00  0.00     0.116 A 
ATOM     10  H   UNL     1     140.547 135.004 129.656  1.00  0.00     0.166 HD
ENDROOT
BRANCH   9  11
ATOM     11  O   UNL     1     136.558 130.182 129.250  1.00  0.00    -0.508 OA
ATOM     12  H   UNL     1     135.866 129.980 129.962  1.00  0.00     0.293 HD
ENDBRANCH   9  11
TORSDOF 1
ENDMDL
MODEL 7
REMARK VINA RESULT:    -3.735      8.550      8.808
REMARK INTER + INTRA:          -3.844
REMARK INTER:                  -3.844
REMARK INTRA:                   0.000
REMARK UNBOUND:                 0.000
REMARK SMILES Oc1ccc2[nH]ccc2c1
REMARK SMILES IDX 3 1 4 2 5 3 9 4 8 5 7 6 6 7 10 8 2 9 1 11
REMARK H PARENT 6 10 1 12
REMARK Flexibility Score: inf
ROOT
ATOM      1  C   UNL     1     130.879 138.110 129.624  1.00  0.00     0.048 A 
ATOM      2  C   UNL     1     131.604 139.315 129.613  1.00  0.00     0.030 A 
ATOM      3  C   UNL     1     132.982 139.243 129.418  1.00  0.00     0.046 A 
ATOM      4  C   UNL     1     133.623 138.046 129.242  1.00  0.00     0.003 A 
ATOM      5  C   UNL     1     134.963 138.316 129.077  1.00  0.00     0.028 A 
ATOM      6  C   UNL     1     135.068 139.701 129.165  1.00  0.00     0.083 A 
ATOM      7  N   UNL     1     133.856 140.263 129.372  1.00  0.00    -0.361 N 
ATOM      8  C   UNL     1     132.934 136.835 129.247  1.00  0.00     0.056 A 
ATOM      9  C   UNL     1     131.537 136.871 129.443  1.00  0.00     0.116 A 
ATOM     10  H   UNL     1     133.646 141.280 129.477  1.00  0.00     0.166 HD
ENDROOT
BRANCH   9  11
ATOM     11  O   UNL     1     130.796 135.693 129.459  1.00  0.00    -0.508 OA
ATOM     12  H   UNL     1     129.799 135.698 129.638  1.00  0.00     0.293 HD
ENDBRANCH   9  11
TORSDOF 1
ENDMDL
MODEL 8
REMARK VINA RESULT:    -3.719      6.191      6.961
REMARK INTER + INTRA:          -3.828
REMARK INTER:                  -3.828
REMARK INTRA:                   0.000
REMARK UNBOUND:                 0.000
REMARK SMILES Oc1ccc2[nH]ccc2c1
REMARK SMILES IDX 3 1 4 2 5 3 9 4 8 5 7 6 6 7 10 8 2 9 1 11
REMARK H PARENT 6 10 1 12
REMARK Flexibility Score: inf
ROOT
ATOM      1  C   UNL     1     139.609 138.486 129.988  1.00  0.00     0.048 A 
ATOM      2  C   UNL     1     138.507 139.345 130.149  1.00  0.00     0.030 A 
ATOM      3  C   UNL     1     137.259 138.888 129.730  1.00  0.00     0.046 A 
ATOM      4  C   UNL     1     137.095 137.645 129.180  1.00  0.00     0.003 A 
ATOM      5  C   UNL     1     135.759 137.502 128.878  1.00  0.00     0.028 A 
ATOM      6  C   UNL     1     135.167 138.698 129.271  1.00  0.00     0.083 A 
ATOM      7  N   UNL     1     136.087 139.541 129.792  1.00  0.00    -0.361 N 
ATOM      8  C   UNL     1     138.165 136.770 129.008  1.00  0.00     0.056 A 
ATOM      9  C   UNL     1     139.443 137.201 129.419  1.00  0.00     0.116 A 
ATOM     10  H   UNL     1     135.917 140.502 130.163  1.00  0.00     0.166 HD
ENDROOT
BRANCH   9  11
ATOM     11  O   UNL     1     140.550 136.370 129.271  1.00  0.00    -0.508 OA
ATOM     12  H   UNL     1     141.477 136.669 129.552  1.00  0.00     0.293 HD
ENDBRANCH   9  11
TORSDOF 1
ENDMDL
