MODEL 1
REMARK VINA RESULT:    -4.492      0.000      0.000
REMARK INTER + INTRA:          -8.440
REMARK INTER:                  -6.856
REMARK INTRA:                  -1.584
REMARK UNBOUND:                -1.584
REMARK SMILES OC[C@@H]1O[C@@](CO)(O[C@H]2O[C@H](CO)[C@@H](O)[C@@H](O)[C@@H]2O)[C@H](O)[C@@H]1O
REMARK SMILES IDX 8 1 9 2 11 3 14 4 10 5 16 6 18 7 12 8 13 9 15 11 17 13 19 15
REMARK SMILES IDX 5 17 20 18 4 19 22 20 3 21 6 22 7 23 21 25 23 27 2 29 1 30
REMARK H PARENT 13 10 15 12 17 14 19 16 7 24 21 26 23 28 1 31
REMARK Flexibility Score: inf
ROOT
ATOM      1  O   UNL     1      -9.824  -1.891  24.801  1.00  0.00    -0.313 OA
ENDROOT
BRANCH   1   2
ATOM      2  C   UNL     1      -8.863  -2.198  25.808  1.00  0.00     0.285 C 
ATOM      3  C   UNL     1      -8.613   0.073  26.379  1.00  0.00     0.178 C 
ATOM      4  C   UNL     1      -9.287  -0.109  27.760  1.00  0.00     0.177 C 
ATOM      5  O   UNL     1      -7.953  -1.121  25.987  1.00  0.00    -0.341 OA
ATOM      6  C   UNL     1     -10.269  -1.294  27.717  1.00  0.00     0.179 C 
ATOM      7  C   UNL     1      -9.579  -2.539  27.132  1.00  0.00     0.202 C 
BRANCH   3   8
ATOM      8  C   UNL     1      -7.562   1.196  26.412  1.00  0.00     0.191 C 
BRANCH   8   9
ATOM      9  O   UNL     1      -7.153   1.550  25.118  1.00  0.00    -0.394 OA
ATOM     10  H   UNL     1      -6.198   1.288  25.040  1.00  0.00     0.210 HD
ENDBRANCH   8   9
ENDBRANCH   3   8
BRANCH   4  11
ATOM     11  O   UNL     1      -9.972   1.062  28.125  1.00  0.00    -0.387 OA
ATOM     12  H   UNL     1      -9.535   1.811  27.642  1.00  0.00     0.211 HD
ENDBRANCH   4  11
BRANCH   6  13
ATOM     13  O   UNL     1     -11.394  -0.951  26.946  1.00  0.00    -0.387 OA
ATOM     14  H   UNL     1     -11.255  -0.019  26.634  1.00  0.00     0.211 HD
ENDBRANCH   6  13
BRANCH   7  15
ATOM     15  O   UNL     1      -8.649  -3.031  28.064  1.00  0.00    -0.385 OA
ATOM     16  H   UNL     1      -7.933  -2.348  28.146  1.00  0.00     0.211 HD
ENDBRANCH   7  15
ENDBRANCH   1   2
BRANCH   1  17
ATOM     17  C   UNL     1      -9.523  -2.425  23.514  1.00  0.00     0.224 C 
ATOM     18  C   UNL     1      -8.497  -3.594  23.621  1.00  0.00     0.208 C 
ATOM     19  O   UNL     1     -10.730  -2.964  23.001  1.00  0.00    -0.337 OA
ATOM     20  C   UNL     1      -9.199  -4.764  22.962  1.00  0.00     0.180 C 
ATOM     21  C   UNL     1     -10.661  -4.364  23.111  1.00  0.00     0.179 C 
BRANCH  17  22
ATOM     22  C   UNL     1      -9.085  -1.311  22.520  1.00  0.00     0.225 C 
BRANCH  22  23
ATOM     23  O   UNL     1      -8.083  -0.510  23.085  1.00  0.00    -0.391 OA
ATOM     24  H   UNL     1      -7.271  -0.624  22.526  1.00  0.00     0.210 HD
ENDBRANCH  22  23
ENDBRANCH  17  22
BRANCH  18  25
ATOM     25  O   UNL     1      -7.266  -3.304  23.006  1.00  0.00    -0.385 OA
ATOM     26  H   UNL     1      -6.951  -4.150  22.593  1.00  0.00     0.211 HD
ENDBRANCH  18  25
BRANCH  20  27
ATOM     27  O   UNL     1      -8.812  -4.927  21.616  1.00  0.00    -0.387 OA
ATOM     28  H   UNL     1      -7.831  -5.082  21.589  1.00  0.00     0.211 HD
ENDBRANCH  20  27
BRANCH  21  29
ATOM     29  C   UNL     1     -11.599  -5.022  22.090  1.00  0.00     0.191 C 
BRANCH  29  30
ATOM     30  O   UNL     1     -11.582  -4.302  20.890  1.00  0.00    -0.394 OA
ATOM     31  H   UNL     1     -11.857  -3.377  21.119  1.00  0.00     0.210 HD
ENDBRANCH  29  30
ENDBRANCH  21  29
ENDBRANCH   1  17
TORSDOF 13
ENDMDL
MODEL 2
REMARK VINA RESULT:    -4.386      9.988     12.267
REMARK INTER + INTRA:          -8.278
REMARK INTER:                  -7.961
REMARK INTRA:                  -0.317
REMARK UNBOUND:                -1.584
REMARK SMILES OC[C@@H]1O[C@@](CO)(O[C@H]2O[C@H](CO)[C@@H](O)[C@@H](O)[C@@H]2O)[C@H](O)[C@@H]1O
REMARK SMILES IDX 8 1 9 2 11 3 14 4 10 5 16 6 18 7 12 8 13 9 15 11 17 13 19 15
REMARK SMILES IDX 5 17 20 18 4 19 22 20 3 21 6 22 7 23 21 25 23 27 2 29 1 30
REMARK H PARENT 13 10 15 12 17 14 19 16 7 24 21 26 23 28 1 31
REMARK Flexibility Score: inf
ROOT
ATOM      1  O   UNL     1       1.732  -6.343  25.161  1.00  0.00    -0.313 OA
ENDROOT
BRANCH   1   2
ATOM      2  C   UNL     1       2.098  -5.325  24.233  1.00  0.00     0.285 C 
ATOM      3  C   UNL     1       3.592  -6.762  23.116  1.00  0.00     0.178 C 
ATOM      4  C   UNL     1       2.716  -6.826  21.841  1.00  0.00     0.177 C 
ATOM      5  O   UNL     1       3.427  -5.512  23.769  1.00  0.00    -0.341 OA
ATOM      6  C   UNL     1       1.240  -6.580  22.201  1.00  0.00     0.179 C 
ATOM      7  C   UNL     1       1.102  -5.306  23.054  1.00  0.00     0.202 C 
BRANCH   3   8
ATOM      8  C   UNL     1       5.084  -6.919  22.779  1.00  0.00     0.191 C 
BRANCH   8   9
ATOM      9  O   UNL     1       5.887  -6.190  23.669  1.00  0.00    -0.394 OA
ATOM     10  H   UNL     1       5.760  -6.598  24.566  1.00  0.00     0.210 HD
ENDBRANCH   8   9
ENDBRANCH   3   8
BRANCH   4  11
ATOM     11  O   UNL     1       2.851  -8.079  21.221  1.00  0.00    -0.387 OA
ATOM     12  H   UNL     1       2.667  -8.764  21.916  1.00  0.00     0.211 HD
ENDBRANCH   4  11
BRANCH   6  13
ATOM     13  O   UNL     1       0.729  -7.691  22.897  1.00  0.00    -0.387 OA
ATOM     14  H   UNL     1      -0.078  -7.993  22.404  1.00  0.00     0.211 HD
ENDBRANCH   6  13
BRANCH   7  15
ATOM     15  O   UNL     1       1.342  -4.183  22.244  1.00  0.00    -0.385 OA
ATOM     16  H   UNL     1       0.505  -3.649  22.233  1.00  0.00     0.211 HD
ENDBRANCH   7  15
ENDBRANCH   1   2
BRANCH   1  17
ATOM     17  C   UNL     1       0.684  -5.978  26.057  1.00  0.00     0.224 C 
ATOM     18  C   UNL     1       0.266  -4.491  25.848  1.00  0.00     0.208 C 
ATOM     19  O   UNL     1      -0.434  -6.785  25.728  1.00  0.00    -0.337 OA
ATOM     20  C   UNL     1      -1.218  -4.562  25.550  1.00  0.00     0.180 C 
ATOM     21  C   UNL     1      -1.355  -5.986  25.027  1.00  0.00     0.179 C 
BRANCH  17  22
ATOM     22  C   UNL     1       1.048  -6.314  27.532  1.00  0.00     0.225 C 
BRANCH  22  23
ATOM     23  O   UNL     1       2.180  -5.593  27.939  1.00  0.00    -0.391 OA
ATOM     24  H   UNL     1       2.957  -6.205  27.857  1.00  0.00     0.210 HD
ENDBRANCH  22  23
ENDBRANCH  17  22
BRANCH  18  25
ATOM     25  O   UNL     1       0.541  -3.680  26.965  1.00  0.00    -0.385 OA
ATOM     26  H   UNL     1       0.179  -4.158  27.756  1.00  0.00     0.211 HD
ENDBRANCH  18  25
BRANCH  20  27
ATOM     27  O   UNL     1      -2.003  -4.324  26.697  1.00  0.00    -0.387 OA
ATOM     28  H   UNL     1      -2.706  -3.663  26.463  1.00  0.00     0.211 HD
ENDBRANCH  20  27
BRANCH  21  29
ATOM     29  C   UNL     1      -2.768  -6.569  25.155  1.00  0.00     0.191 C 
BRANCH  29  30
ATOM     30  O   UNL     1      -2.745  -7.943  24.888  1.00  0.00    -0.394 OA
ATOM     31  H   UNL     1      -2.044  -8.327  25.475  1.00  0.00     0.210 HD
ENDBRANCH  29  30
ENDBRANCH  21  29
ENDBRANCH   1  17
TORSDOF 13
ENDMDL
MODEL 3
REMARK VINA RESULT:    -4.251      1.740      2.959
REMARK INTER + INTRA:          -8.071
REMARK INTER:                  -7.177
REMARK INTRA:                  -0.894
REMARK UNBOUND:                -1.584
REMARK SMILES OC[C@@H]1O[C@@](CO)(O[C@H]2O[C@H](CO)[C@@H](O)[C@@H](O)[C@@H]2O)[C@H](O)[C@@H]1O
REMARK SMILES IDX 8 1 9 2 11 3 14 4 10 5 16 6 18 7 12 8 13 9 15 11 17 13 19 15
REMARK SMILES IDX 5 17 20 18 4 19 22 20 3 21 6 22 7 23 21 25 23 27 2 29 1 30
REMARK H PARENT 13 10 15 12 17 14 19 16 7 24 21 26 23 28 1 31
REMARK Flexibility Score: inf
ROOT
ATOM      1  O   UNL     1      -8.448  -3.248  24.615  1.00  0.00    -0.313 OA
ENDROOT
BRANCH   1   2
ATOM      2  C   UNL     1      -9.617  -2.497  24.936  1.00  0.00     0.285 C 
ATOM      3  C   UNL     1      -8.381  -0.973  26.239  1.00  0.00     0.178 C 
ATOM      4  C   UNL     1      -8.592   0.189  25.238  1.00  0.00     0.177 C 
ATOM      5  O   UNL     1      -9.485  -1.866  26.202  1.00  0.00    -0.341 OA
ATOM      6  C   UNL     1      -8.805  -0.367  23.819  1.00  0.00     0.179 C 
ATOM      7  C   UNL     1      -9.893  -1.457  23.829  1.00  0.00     0.202 C 
BRANCH   3   8
ATOM      8  C   UNL     1      -8.251  -0.454  27.681  1.00  0.00     0.191 C 
BRANCH   8   9
ATOM      9  O   UNL     1      -6.967   0.057  27.925  1.00  0.00    -0.394 OA
ATOM     10  H   UNL     1      -6.323  -0.622  27.594  1.00  0.00     0.210 HD
ENDBRANCH   8   9
ENDBRANCH   3   8
BRANCH   4  11
ATOM     11  O   UNL     1      -7.480   1.048  25.250  1.00  0.00    -0.387 OA
ATOM     12  H   UNL     1      -7.647   1.723  25.957  1.00  0.00     0.211 HD
ENDBRANCH   4  11
BRANCH   6  13
ATOM     13  O   UNL     1      -7.595  -0.890  23.327  1.00  0.00    -0.387 OA
ATOM     14  H   UNL     1      -7.217  -0.209  22.711  1.00  0.00     0.211 HD
ENDBRANCH   6  13
BRANCH   7  15
ATOM     15  O   UNL     1     -11.144  -0.854  24.042  1.00  0.00    -0.385 OA
ATOM     16  H   UNL     1     -11.692  -1.499  24.562  1.00  0.00     0.211 HD
ENDBRANCH   7  15
ENDBRANCH   1   2
BRANCH   1  17
ATOM     17  C   UNL     1      -8.683  -4.379  23.780  1.00  0.00     0.224 C 
ATOM     18  C   UNL     1      -8.433  -5.707  24.557  1.00  0.00     0.208 C 
ATOM     19  O   UNL     1     -10.055  -4.347  23.424  1.00  0.00    -0.337 OA
ATOM     20  C   UNL     1      -9.742  -6.460  24.435  1.00  0.00     0.180 C 
ATOM     21  C   UNL     1     -10.724  -5.323  24.183  1.00  0.00     0.179 C 
BRANCH  17  22
ATOM     22  C   UNL     1      -7.884  -4.284  22.449  1.00  0.00     0.225 C 
BRANCH  22  23
ATOM     23  O   UNL     1      -6.596  -3.778  22.680  1.00  0.00    -0.391 OA
ATOM     24  H   UNL     1      -6.347  -4.035  23.606  1.00  0.00     0.210 HD
ENDBRANCH  22  23
ENDBRANCH  17  22
BRANCH  18  25
ATOM     25  O   UNL     1      -7.350  -6.447  24.047  1.00  0.00    -0.385 OA
ATOM     26  H   UNL     1      -6.612  -6.357  24.705  1.00  0.00     0.211 HD
ENDBRANCH  18  25
BRANCH  20  27
ATOM     27  O   UNL     1      -9.718  -7.403  23.386  1.00  0.00    -0.387 OA
ATOM     28  H   UNL     1     -10.126  -8.247  23.714  1.00  0.00     0.211 HD
ENDBRANCH  20  27
BRANCH  21  29
ATOM     29  C   UNL     1     -12.015  -5.753  23.475  1.00  0.00     0.191 C 
BRANCH  29  30
ATOM     30  O   UNL     1     -11.806  -5.808  22.091  1.00  0.00    -0.394 OA
ATOM     31  H   UNL     1     -11.582  -6.752  21.883  1.00  0.00     0.210 HD
ENDBRANCH  29  30
ENDBRANCH  21  29
ENDBRANCH   1  17
TORSDOF 13
ENDMDL
MODEL 4
REMARK VINA RESULT:    -4.246      2.913      5.889
REMARK INTER + INTRA:          -8.064
REMARK INTER:                  -6.494
REMARK INTRA:                  -1.570
REMARK UNBOUND:                -1.584
REMARK SMILES OC[C@@H]1O[C@@](CO)(O[C@H]2O[C@H](CO)[C@@H](O)[C@@H](O)[C@@H]2O)[C@H](O)[C@@H]1O
REMARK SMILES IDX 8 1 9 2 11 3 14 4 10 5 16 6 18 7 12 8 13 9 15 11 17 13 19 15
REMARK SMILES IDX 5 17 20 18 4 19 22 20 3 21 6 22 7 23 21 25 23 27 2 29 1 30
REMARK H PARENT 13 10 15 12 17 14 19 16 7 24 21 26 23 28 1 31
REMARK Flexibility Score: inf
ROOT
ATOM      1  O   UNL     1      -8.255  -4.841  23.567  1.00  0.00    -0.313 OA
ENDROOT
BRANCH   1   2
ATOM      2  C   UNL     1      -8.615  -6.188  23.268  1.00  0.00     0.285 C 
ATOM      3  C   UNL     1      -6.465  -6.974  23.820  1.00  0.00     0.178 C 
ATOM      4  C   UNL     1      -6.964  -7.715  25.084  1.00  0.00     0.177 C 
ATOM      5  O   UNL     1      -7.486  -6.933  22.834  1.00  0.00    -0.341 OA
ATOM      6  C   UNL     1      -8.232  -7.034  25.630  1.00  0.00     0.179 C 
ATOM      7  C   UNL     1      -9.265  -6.846  24.504  1.00  0.00     0.202 C 
BRANCH   3   8
ATOM      8  C   UNL     1      -5.248  -7.681  23.200  1.00  0.00     0.191 C 
BRANCH   8   9
ATOM      9  O   UNL     1      -4.048  -7.216  23.759  1.00  0.00    -0.394 OA
ATOM     10  H   UNL     1      -4.295  -6.521  24.425  1.00  0.00     0.210 HD
ENDBRANCH   8   9
ENDBRANCH   3   8
BRANCH   4  11
ATOM     11  O   UNL     1      -5.964  -7.718  26.071  1.00  0.00    -0.387 OA
ATOM     12  H   UNL     1      -5.568  -8.628  26.075  1.00  0.00     0.211 HD
ENDBRANCH   4  11
BRANCH   6  13
ATOM     13  O   UNL     1      -7.897  -5.791  26.198  1.00  0.00    -0.387 OA
ATOM     14  H   UNL     1      -8.405  -5.717  27.047  1.00  0.00     0.211 HD
ENDBRANCH   6  13
BRANCH   7  15
ATOM     15  O   UNL     1      -9.796  -8.099  24.154  1.00  0.00    -0.385 OA
ATOM     16  H   UNL     1     -10.751  -7.955  23.925  1.00  0.00     0.211 HD
ENDBRANCH   7  15
ENDBRANCH   1   2
BRANCH   1  17
ATOM     17  C   UNL     1      -9.170  -3.863  23.080  1.00  0.00     0.224 C 
ATOM     18  C   UNL     1     -10.209  -3.476  24.176  1.00  0.00     0.208 C 
ATOM     19  O   UNL     1      -8.410  -2.703  22.786  1.00  0.00    -0.337 OA
ATOM     20  C   UNL     1     -10.057  -1.975  24.317  1.00  0.00     0.180 C 
ATOM     21  C   UNL     1      -8.637  -1.764  23.809  1.00  0.00     0.179 C 
BRANCH  17  22
ATOM     22  C   UNL     1      -9.825  -4.308  21.741  1.00  0.00     0.225 C 
BRANCH  22  23
ATOM     23  O   UNL     1     -10.581  -3.263  21.189  1.00  0.00    -0.391 OA
ATOM     24  H   UNL     1     -11.218  -3.674  20.550  1.00  0.00     0.210 HD
ENDBRANCH  22  23
ENDBRANCH  17  22
BRANCH  18  25
ATOM     25  O   UNL     1     -11.524  -3.844  23.842  1.00  0.00    -0.385 OA
ATOM     26  H   UNL     1     -11.515  -4.825  23.693  1.00  0.00     0.211 HD
ENDBRANCH  18  25
BRANCH  20  27
ATOM     27  O   UNL     1     -11.017  -1.270  23.563  1.00  0.00    -0.387 OA
ATOM     28  H   UNL     1     -10.555  -0.542  23.071  1.00  0.00     0.211 HD
ENDBRANCH  20  27
BRANCH  21  29
ATOM     29  C   UNL     1      -8.357  -0.346  23.297  1.00  0.00     0.191 C 
BRANCH  29  30
ATOM     30  O   UNL     1      -8.591  -0.279  21.918  1.00  0.00    -0.394 OA
ATOM     31  H   UNL     1      -7.790   0.153  21.523  1.00  0.00     0.210 HD
ENDBRANCH  29  30
ENDBRANCH  21  29
ENDBRANCH   1  17
TORSDOF 13
ENDMDL
MODEL 5
REMARK VINA RESULT:    -4.239      1.332      2.509
REMARK INTER + INTRA:          -8.053
REMARK INTER:                  -6.888
REMARK INTRA:                  -1.165
REMARK UNBOUND:                -1.584
REMARK SMILES OC[C@@H]1O[C@@](CO)(O[C@H]2O[C@H](CO)[C@@H](O)[C@@H](O)[C@@H]2O)[C@H](O)[C@@H]1O
REMARK SMILES IDX 8 1 9 2 11 3 14 4 10 5 16 6 18 7 12 8 13 9 15 11 17 13 19 15
REMARK SMILES IDX 5 17 20 18 4 19 22 20 3 21 6 22 7 23 21 25 23 27 2 29 1 30
REMARK H PARENT 13 10 15 12 17 14 19 16 7 24 21 26 23 28 1 31
REMARK Flexibility Score: inf
ROOT
ATOM      1  O   UNL     1     -10.194  -2.123  25.225  1.00  0.00    -0.313 OA
ENDROOT
BRANCH   1   2
ATOM      2  C   UNL     1      -8.954  -2.204  25.924  1.00  0.00     0.285 C 
ATOM      3  C   UNL     1      -8.689   0.136  25.896  1.00  0.00     0.178 C 
ATOM      4  C   UNL     1      -8.897   0.267  27.424  1.00  0.00     0.177 C 
ATOM      5  O   UNL     1      -8.104  -1.118  25.580  1.00  0.00    -0.341 OA
ATOM      6  C   UNL     1      -9.767  -0.894  27.940  1.00  0.00     0.179 C 
ATOM      7  C   UNL     1      -9.209  -2.241  27.446  1.00  0.00     0.202 C 
BRANCH   3   8
ATOM      8  C   UNL     1      -7.753   1.234  25.362  1.00  0.00     0.191 C 
BRANCH   8   9
ATOM      9  O   UNL     1      -7.612   1.152  23.969  1.00  0.00    -0.394 OA
ATOM     10  H   UNL     1      -8.479   1.441  23.578  1.00  0.00     0.210 HD
ENDBRANCH   8   9
ENDBRANCH   3   8
BRANCH   4  11
ATOM     11  O   UNL     1      -9.513   1.492  27.728  1.00  0.00    -0.387 OA
ATOM     12  H   UNL     1     -10.356   1.526  27.205  1.00  0.00     0.211 HD
ENDBRANCH   4  11
BRANCH   6  13
ATOM     13  O   UNL     1     -11.093  -0.725  27.503  1.00  0.00    -0.387 OA
ATOM     14  H   UNL     1     -11.423   0.120  27.907  1.00  0.00     0.211 HD
ENDBRANCH   6  13
BRANCH   7  15
ATOM     15  O   UNL     1      -8.010  -2.519  28.124  1.00  0.00    -0.385 OA
ATOM     16  H   UNL     1      -7.905  -1.823  28.824  1.00  0.00     0.211 HD
ENDBRANCH   7  15
ENDBRANCH   1   2
BRANCH   1  17
ATOM     17  C   UNL     1     -10.394  -3.148  24.255  1.00  0.00     0.224 C 
ATOM     18  C   UNL     1     -10.814  -2.540  22.882  1.00  0.00     0.208 C 
ATOM     19  O   UNL     1      -9.143  -3.788  24.073  1.00  0.00    -0.337 OA
ATOM     20  C   UNL     1      -9.769  -3.058  21.914  1.00  0.00     0.180 C 
ATOM     21  C   UNL     1      -8.604  -3.348  22.850  1.00  0.00     0.179 C 
BRANCH  17  22
ATOM     22  C   UNL     1     -11.374  -4.241  24.770  1.00  0.00     0.225 C 
BRANCH  22  23
ATOM     23  O   UNL     1     -11.539  -5.249  23.809  1.00  0.00    -0.391 OA
ATOM     24  H   UNL     1     -12.387  -5.717  24.025  1.00  0.00     0.210 HD
ENDBRANCH  22  23
ENDBRANCH  17  22
BRANCH  18  25
ATOM     25  O   UNL     1     -12.117  -2.903  22.495  1.00  0.00    -0.385 OA
ATOM     26  H   UNL     1     -12.695  -2.771  23.291  1.00  0.00     0.211 HD
ENDBRANCH  18  25
BRANCH  20  27
ATOM     27  O   UNL     1     -10.210  -4.204  21.219  1.00  0.00    -0.387 OA
ATOM     28  H   UNL     1      -9.797  -4.200  20.316  1.00  0.00     0.211 HD
ENDBRANCH  20  27
BRANCH  21  29
ATOM     29  C   UNL     1      -7.606  -4.380  22.310  1.00  0.00     0.191 C 
BRANCH  29  30
ATOM     30  O   UNL     1      -7.948  -5.660  22.761  1.00  0.00    -0.394 OA
ATOM     31  H   UNL     1      -7.520  -6.297  22.133  1.00  0.00     0.210 HD
ENDBRANCH  29  30
ENDBRANCH  21  29
ENDBRANCH   1  17
TORSDOF 13
ENDMDL
MODEL 6
REMARK VINA RESULT:    -4.208      1.932      6.010
REMARK INTER + INTRA:          -8.005
REMARK INTER:                  -6.481
REMARK INTRA:                  -1.524
REMARK UNBOUND:                -1.584
REMARK SMILES OC[C@@H]1O[C@@](CO)(O[C@H]2O[C@H](CO)[C@@H](O)[C@@H](O)[C@@H]2O)[C@H](O)[C@@H]1O
REMARK SMILES IDX 8 1 9 2 11 3 14 4 10 5 16 6 18 7 12 8 13 9 15 11 17 13 19 15
REMARK SMILES IDX 5 17 20 18 4 19 22 20 3 21 6 22 7 23 21 25 23 27 2 29 1 30
REMARK H PARENT 13 10 15 12 17 14 19 16 7 24 21 26 23 28 1 31
REMARK Flexibility Score: inf
ROOT
ATOM      1  O   UNL     1      -8.644  -3.174  23.815  1.00  0.00    -0.313 OA
ENDROOT
BRANCH   1   2
ATOM      2  C   UNL     1      -8.744  -3.696  22.492  1.00  0.00     0.285 C 
ATOM      3  C   UNL     1      -7.806  -5.756  23.143  1.00  0.00     0.178 C 
ATOM      4  C   UNL     1      -9.135  -6.524  22.942  1.00  0.00     0.177 C 
ATOM      5  O   UNL     1      -7.728  -4.658  22.246  1.00  0.00    -0.341 OA
ATOM      6  C   UNL     1     -10.330  -5.571  23.129  1.00  0.00     0.179 C 
ATOM      7  C   UNL     1     -10.144  -4.306  22.272  1.00  0.00     0.202 C 
BRANCH   3   8
ATOM      8  C   UNL     1      -6.591  -6.660  22.879  1.00  0.00     0.191 C 
BRANCH   8   9
ATOM      9  O   UNL     1      -6.097  -7.212  24.070  1.00  0.00    -0.394 OA
ATOM     10  H   UNL     1      -5.250  -7.678  23.838  1.00  0.00     0.210 HD
ENDBRANCH   8   9
ENDBRANCH   3   8
BRANCH   4  11
ATOM     11  O   UNL     1      -9.226  -7.585  23.859  1.00  0.00    -0.387 OA
ATOM     12  H   UNL     1      -9.743  -7.247  24.636  1.00  0.00     0.211 HD
ENDBRANCH   4  11
BRANCH   6  13
ATOM     13  O   UNL     1     -10.456  -5.228  24.487  1.00  0.00    -0.387 OA
ATOM     14  H   UNL     1     -11.387  -4.910  24.618  1.00  0.00     0.211 HD
ENDBRANCH   6  13
BRANCH   7  15
ATOM     15  O   UNL     1     -10.311  -4.640  20.917  1.00  0.00    -0.385 OA
ATOM     16  H   UNL     1     -11.027  -5.326  20.874  1.00  0.00     0.211 HD
ENDBRANCH   7  15
ENDBRANCH   1   2
BRANCH   1  17
ATOM     17  C   UNL     1      -8.963  -1.790  23.931  1.00  0.00     0.224 C 
ATOM     18  C   UNL     1     -10.307  -1.590  24.696  1.00  0.00     0.208 C 
ATOM     19  O   UNL     1      -7.938  -1.197  24.710  1.00  0.00    -0.337 OA
ATOM     20  C   UNL     1      -9.940  -0.691  25.860  1.00  0.00     0.180 C 
ATOM     21  C   UNL     1      -8.450  -0.969  26.000  1.00  0.00     0.179 C 
BRANCH  17  22
ATOM     22  C   UNL     1      -8.930  -1.077  22.549  1.00  0.00     0.225 C 
BRANCH  22  23
ATOM     23  O   UNL     1      -9.009   0.314  22.708  1.00  0.00    -0.391 OA
ATOM     24  H   UNL     1      -8.573   0.721  21.915  1.00  0.00     0.210 HD
ENDBRANCH  22  23
ENDBRANCH  17  22
BRANCH  18  25
ATOM     25  O   UNL     1     -11.318  -1.029  23.895  1.00  0.00    -0.385 OA
ATOM     26  H   UNL     1     -12.056  -1.691  23.866  1.00  0.00     0.211 HD
ENDBRANCH  18  25
BRANCH  20  27
ATOM     27  O   UNL     1     -10.220   0.665  25.593  1.00  0.00    -0.387 OA
ATOM     28  H   UNL     1     -10.729   0.718  24.742  1.00  0.00     0.211 HD
ENDBRANCH  20  27
BRANCH  21  29
ATOM     29  C   UNL     1      -7.664   0.152  26.691  1.00  0.00     0.191 C 
BRANCH  29  30
ATOM     30  O   UNL     1      -7.445   1.206  25.796  1.00  0.00    -0.394 OA
ATOM     31  H   UNL     1      -7.653   2.038  26.293  1.00  0.00     0.210 HD
ENDBRANCH  29  30
ENDBRANCH  21  29
ENDBRANCH   1  17
TORSDOF 13
ENDMDL
MODEL 7
REMARK VINA RESULT:    -4.174      2.486      4.244
REMARK INTER + INTRA:          -7.954
REMARK INTER:                  -6.621
REMARK INTRA:                  -1.334
REMARK UNBOUND:                -1.584
REMARK SMILES OC[C@@H]1O[C@@](CO)(O[C@H]2O[C@H](CO)[C@@H](O)[C@@H](O)[C@@H]2O)[C@H](O)[C@@H]1O
REMARK SMILES IDX 8 1 9 2 11 3 14 4 10 5 16 6 18 7 12 8 13 9 15 11 17 13 19 15
REMARK SMILES IDX 5 17 20 18 4 19 22 20 3 21 6 22 7 23 21 25 23 27 2 29 1 30
REMARK H PARENT 13 10 15 12 17 14 19 16 7 24 21 26 23 28 1 31
REMARK Flexibility Score: inf
ROOT
ATOM      1  O   UNL     1      -9.021  -3.725  24.664  1.00  0.00    -0.313 OA
ENDROOT
BRANCH   1   2
ATOM      2  C   UNL     1     -10.021  -2.743  24.926  1.00  0.00     0.285 C 
ATOM      3  C   UNL     1      -8.402  -1.092  25.373  1.00  0.00     0.178 C 
ATOM      4  C   UNL     1      -8.743  -0.286  24.096  1.00  0.00     0.177 C 
ATOM      5  O   UNL     1      -9.552  -1.773  25.852  1.00  0.00    -0.341 OA
ATOM      6  C   UNL     1      -9.321  -1.222  23.019  1.00  0.00     0.179 C 
ATOM      7  C   UNL     1     -10.460  -2.074  23.606  1.00  0.00     0.202 C 
BRANCH   3   8
ATOM      8  C   UNL     1      -7.902  -0.173  26.499  1.00  0.00     0.191 C 
BRANCH   8   9
ATOM      9  O   UNL     1      -8.085   1.180  26.174  1.00  0.00    -0.394 OA
ATOM     10  H   UNL     1      -8.665   1.202  25.367  1.00  0.00     0.210 HD
ENDBRANCH   8   9
ENDBRANCH   3   8
BRANCH   4  11
ATOM     11  O   UNL     1      -7.593   0.353  23.603  1.00  0.00    -0.387 OA
ATOM     12  H   UNL     1      -7.257  -0.203  22.853  1.00  0.00     0.211 HD
ENDBRANCH   4  11
BRANCH   6  13
ATOM     13  O   UNL     1      -8.302  -2.050  22.513  1.00  0.00    -0.387 OA
ATOM     14  H   UNL     1      -7.466  -1.798  22.985  1.00  0.00     0.211 HD
ENDBRANCH   6  13
BRANCH   7  15
ATOM     15  O   UNL     1     -11.577  -1.253  23.835  1.00  0.00    -0.385 OA
ATOM     16  H   UNL     1     -12.294  -1.834  24.200  1.00  0.00     0.211 HD
ENDBRANCH   7  15
ENDBRANCH   1   2
BRANCH   1  17
ATOM     17  C   UNL     1      -9.500  -5.068  24.652  1.00  0.00     0.224 C 
ATOM     18  C   UNL     1      -9.714  -5.570  23.192  1.00  0.00     0.208 C 
ATOM     19  O   UNL     1      -8.486  -5.869  25.234  1.00  0.00    -0.337 OA
ATOM     20  C   UNL     1      -8.856  -6.816  23.099  1.00  0.00     0.180 C 
ATOM     21  C   UNL     1      -7.832  -6.561  24.198  1.00  0.00     0.179 C 
BRANCH  17  22
ATOM     22  C   UNL     1     -10.759  -5.235  25.551  1.00  0.00     0.225 C 
BRANCH  22  23
ATOM     23  O   UNL     1     -11.096  -6.590  25.683  1.00  0.00    -0.391 OA
ATOM     24  H   UNL     1     -11.386  -6.725  26.622  1.00  0.00     0.210 HD
ENDBRANCH  22  23
ENDBRANCH  17  22
BRANCH  18  25
ATOM     25  O   UNL     1     -11.063  -5.837  22.894  1.00  0.00    -0.385 OA
ATOM     26  H   UNL     1     -11.505  -6.055  23.756  1.00  0.00     0.211 HD
ENDBRANCH  18  25
BRANCH  20  27
ATOM     27  O   UNL     1      -9.602  -7.993  23.311  1.00  0.00    -0.387 OA
ATOM     28  H   UNL     1     -10.562  -7.748  23.379  1.00  0.00     0.211 HD
ENDBRANCH  20  27
BRANCH  21  29
ATOM     29  C   UNL     1      -7.170  -7.831  24.746  1.00  0.00     0.191 C 
BRANCH  29  30
ATOM     30  O   UNL     1      -6.097  -7.491  25.579  1.00  0.00    -0.394 OA
ATOM     31  H   UNL     1      -5.275  -7.639  25.044  1.00  0.00     0.210 HD
ENDBRANCH  29  30
ENDBRANCH  21  29
ENDBRANCH   1  17
TORSDOF 13
ENDMDL
MODEL 8
REMARK VINA RESULT:    -4.154      1.901      5.889
REMARK INTER + INTRA:          -7.923
REMARK INTER:                  -6.695
REMARK INTRA:                  -1.229
REMARK UNBOUND:                -1.584
REMARK SMILES OC[C@@H]1O[C@@](CO)(O[C@H]2O[C@H](CO)[C@@H](O)[C@@H](O)[C@@H]2O)[C@H](O)[C@@H]1O
REMARK SMILES IDX 8 1 9 2 11 3 14 4 10 5 16 6 18 7 12 8 13 9 15 11 17 13 19 15
REMARK SMILES IDX 5 17 20 18 4 19 22 20 3 21 6 22 7 23 21 25 23 27 2 29 1 30
REMARK H PARENT 13 10 15 12 17 14 19 16 7 24 21 26 23 28 1 31
REMARK Flexibility Score: inf
ROOT
ATOM      1  O   UNL     1      -9.258  -2.828  24.356  1.00  0.00    -0.313 OA
ENDROOT
BRANCH   1   2
ATOM      2  C   UNL     1      -9.234  -2.927  22.934  1.00  0.00     0.285 C 
ATOM      3  C   UNL     1      -8.175  -5.030  23.014  1.00  0.00     0.178 C 
ATOM      4  C   UNL     1      -9.423  -5.776  22.484  1.00  0.00     0.177 C 
ATOM      5  O   UNL     1      -8.131  -3.708  22.496  1.00  0.00    -0.341 OA
ATOM      6  C   UNL     1     -10.700  -4.997  22.847  1.00  0.00     0.179 C 
ATOM      7  C   UNL     1     -10.565  -3.523  22.426  1.00  0.00     0.202 C 
BRANCH   3   8
ATOM      8  C   UNL     1      -6.877  -5.738  22.593  1.00  0.00     0.191 C 
BRANCH   8   9
ATOM      9  O   UNL     1      -6.468  -6.670  23.558  1.00  0.00    -0.394 OA
ATOM     10  H   UNL     1      -5.861  -7.308  23.098  1.00  0.00     0.210 HD
ENDBRANCH   8   9
ENDBRANCH   3   8
BRANCH   4  11
ATOM     11  O   UNL     1      -9.484  -7.069  23.030  1.00  0.00    -0.387 OA
ATOM     12  H   UNL     1      -9.818  -6.971  23.960  1.00  0.00     0.211 HD
ENDBRANCH   4  11
BRANCH   6  13
ATOM     13  O   UNL     1     -10.936  -5.090  24.230  1.00  0.00    -0.387 OA
ATOM     14  H   UNL     1     -10.596  -5.977  24.521  1.00  0.00     0.211 HD
ENDBRANCH   6  13
BRANCH   7  15
ATOM     15  O   UNL     1     -10.622  -3.438  21.024  1.00  0.00    -0.385 OA
ATOM     16  H   UNL     1      -9.700  -3.249  20.708  1.00  0.00     0.211 HD
ENDBRANCH   7  15
ENDBRANCH   1   2
BRANCH   1  17
ATOM     17  C   UNL     1      -9.630  -1.545  24.853  1.00  0.00     0.224 C 
ATOM     18  C   UNL     1      -8.792  -1.171  26.113  1.00  0.00     0.208 C 
ATOM     19  O   UNL     1      -9.316  -0.606  23.838  1.00  0.00    -0.337 OA
ATOM     20  C   UNL     1      -8.137   0.145  25.744  1.00  0.00     0.180 C 
ATOM     21  C   UNL     1      -8.146   0.073  24.223  1.00  0.00     0.179 C 
BRANCH  17  22
ATOM     22  C   UNL     1     -11.165  -1.443  25.082  1.00  0.00     0.225 C 
BRANCH  22  23
ATOM     23  O   UNL     1     -11.647  -2.593  25.724  1.00  0.00    -0.391 OA
ATOM     24  H   UNL     1     -12.309  -3.009  25.113  1.00  0.00     0.210 HD
ENDBRANCH  22  23
ENDBRANCH  17  22
BRANCH  18  25
ATOM     25  O   UNL     1      -9.570  -1.064  27.280  1.00  0.00    -0.385 OA
ATOM     26  H   UNL     1      -9.032  -1.458  28.015  1.00  0.00     0.211 HD
ENDBRANCH  18  25
BRANCH  20  27
ATOM     27  O   UNL     1      -8.852   1.254  26.243  1.00  0.00    -0.387 OA
ATOM     28  H   UNL     1      -9.213   1.765  25.472  1.00  0.00     0.211 HD
ENDBRANCH  20  27
BRANCH  21  29
ATOM     29  C   UNL     1      -8.075   1.440  23.530  1.00  0.00     0.191 C 
BRANCH  29  30
ATOM     30  O   UNL     1      -8.852   1.427  22.365  1.00  0.00    -0.394 OA
ATOM     31  H   UNL     1      -9.780   1.627  22.652  1.00  0.00     0.210 HD
ENDBRANCH  29  30
ENDBRANCH  21  29
ENDBRANCH   1  17
TORSDOF 13
ENDMDL
MODEL 9
REMARK VINA RESULT:    -4.099      1.888      3.634
REMARK INTER + INTRA:          -7.840
REMARK INTER:                  -6.540
REMARK INTRA:                  -1.300
REMARK UNBOUND:                -1.584
REMARK SMILES OC[C@@H]1O[C@@](CO)(O[C@H]2O[C@H](CO)[C@@H](O)[C@@H](O)[C@@H]2O)[C@H](O)[C@@H]1O
REMARK SMILES IDX 8 1 9 2 11 3 14 4 10 5 16 6 18 7 12 8 13 9 15 11 17 13 19 15
REMARK SMILES IDX 5 17 20 18 4 19 22 20 3 21 6 22 7 23 21 25 23 27 2 29 1 30
REMARK H PARENT 13 10 15 12 17 14 19 16 7 24 21 26 23 28 1 31
REMARK Flexibility Score: inf
ROOT
ATOM      1  O   UNL     1      -9.129  -3.620  24.418  1.00  0.00    -0.313 OA
ENDROOT
BRANCH   1   2
ATOM      2  C   UNL     1     -10.112  -2.673  24.830  1.00  0.00     0.285 C 
ATOM      3  C   UNL     1      -8.465  -1.135  25.517  1.00  0.00     0.178 C 
ATOM      4  C   UNL     1      -8.796  -0.140  24.379  1.00  0.00     0.177 C 
ATOM      5  O   UNL     1      -9.626  -1.863  25.891  1.00  0.00    -0.341 OA
ATOM      6  C   UNL     1      -9.389  -0.891  23.174  1.00  0.00     0.179 C 
ATOM      7  C   UNL     1     -10.542  -1.805  23.628  1.00  0.00     0.202 C 
BRANCH   3   8
ATOM      8  C   UNL     1      -7.950  -0.406  26.768  1.00  0.00     0.191 C 
BRANCH   8   9
ATOM      9  O   UNL     1      -8.103   0.984  26.649  1.00  0.00    -0.394 OA
ATOM     10  H   UNL     1      -8.183   1.179  25.678  1.00  0.00     0.210 HD
ENDBRANCH   8   9
ENDBRANCH   3   8
BRANCH   4  11
ATOM     11  O   UNL     1      -7.636   0.549  23.984  1.00  0.00    -0.387 OA
ATOM     12  H   UNL     1      -7.486   1.265  24.655  1.00  0.00     0.211 HD
ENDBRANCH   4  11
BRANCH   6  13
ATOM     13  O   UNL     1      -8.385  -1.648  22.544  1.00  0.00    -0.387 OA
ATOM     14  H   UNL     1      -8.592  -1.649  21.573  1.00  0.00     0.211 HD
ENDBRANCH   6  13
BRANCH   7  15
ATOM     15  O   UNL     1     -11.645  -1.010  23.984  1.00  0.00    -0.385 OA
ATOM     16  H   UNL     1     -11.796  -1.143  24.956  1.00  0.00     0.211 HD
ENDBRANCH   7  15
ENDBRANCH   1   2
BRANCH   1  17
ATOM     17  C   UNL     1      -9.650  -4.898  24.065  1.00  0.00     0.224 C 
ATOM     18  C   UNL     1     -11.174  -4.986  24.384  1.00  0.00     0.208 C 
ATOM     19  O   UNL     1      -9.502  -5.028  22.661  1.00  0.00    -0.337 OA
ATOM     20  C   UNL     1     -11.810  -5.346  23.057  1.00  0.00     0.180 C 
ATOM     21  C   UNL     1     -10.765  -4.840  22.072  1.00  0.00     0.179 C 
BRANCH  17  22
ATOM     22  C   UNL     1      -8.821  -6.051  24.700  1.00  0.00     0.225 C 
BRANCH  22  23
ATOM     23  O   UNL     1      -9.198  -7.288  24.158  1.00  0.00    -0.391 OA
ATOM     24  H   UNL     1     -10.088  -7.511  24.536  1.00  0.00     0.210 HD
ENDBRANCH  22  23
ENDBRANCH  17  22
BRANCH  18  25
ATOM     25  O   UNL     1     -11.473  -5.928  25.385  1.00  0.00    -0.385 OA
ATOM     26  H   UNL     1     -10.906  -5.699  26.167  1.00  0.00     0.211 HD
ENDBRANCH  18  25
BRANCH  20  27
ATOM     27  O   UNL     1     -12.046  -6.732  22.939  1.00  0.00    -0.387 OA
ATOM     28  H   UNL     1     -11.956  -6.983  21.982  1.00  0.00     0.211 HD
ENDBRANCH  20  27
BRANCH  21  29
ATOM     29  C   UNL     1     -10.815  -5.521  20.698  1.00  0.00     0.191 C 
BRANCH  29  30
ATOM     30  O   UNL     1     -12.125  -5.507  20.203  1.00  0.00    -0.394 OA
ATOM     31  H   UNL     1     -12.247  -4.623  19.771  1.00  0.00     0.210 HD
ENDBRANCH  29  30
ENDBRANCH  21  29
ENDBRANCH   1  17
TORSDOF 13
ENDMDL
