MODEL 1
REMARK VINA RESULT:    -3.850      0.000      0.000
REMARK INTER + INTRA:          -5.216
REMARK INTER:                  -4.975
REMARK INTRA:                  -0.240
REMARK UNBOUND:                -0.240
REMARK SMILES CCCCCCC(=O)[O-]
REMARK SMILES IDX 5 1 6 2 7 3 8 4 9 5 4 6 3 7 2 8 1 9
REMARK H PARENT
REMARK Flexibility Score: inf
ROOT
ATOM      1  C   UNL     1      -9.682  -3.457   3.375  1.00  0.00     0.006 C 
ENDROOT
BRANCH   1   2
ATOM      2  C   UNL     1      -8.642  -3.139   4.453  1.00  0.00     0.053 C 
BRANCH   2   3
ATOM      3  C   UNL     1      -8.987  -3.829   5.735  1.00  0.00     0.041 C 
ATOM      4  O   UNL     1      -8.130  -3.929   6.651  1.00  0.00    -0.550 OA
ATOM      5  O   UNL     1     -10.272  -4.319   5.935  1.00  0.00    -0.550 OA
ENDBRANCH   2   3
ENDBRANCH   1   2
BRANCH   1   6
ATOM      6  C   UNL     1      -9.808  -2.302   2.374  1.00  0.00     0.000 C 
BRANCH   6   7
ATOM      7  C   UNL     1      -9.266  -0.996   2.966  1.00  0.00    -0.000 C 
BRANCH   7   8
ATOM      8  C   UNL     1      -8.659  -0.107   1.876  1.00  0.00    -0.003 C 
ATOM      9  C   UNL     1      -7.134  -0.132   1.929  1.00  0.00     0.004 C 
ENDBRANCH   7   8
ENDBRANCH   6   7
ENDBRANCH   1   6
TORSDOF 5
ENDMDL
MODEL 2
REMARK VINA RESULT:    -3.714      3.024      4.849
REMARK INTER + INTRA:          -5.040
REMARK INTER:                  -4.884
REMARK INTRA:                  -0.156
REMARK UNBOUND:                -0.240
REMARK SMILES CCCCCCC(=O)[O-]
REMARK SMILES IDX 5 1 6 2 7 3 8 4 9 5 4 6 3 7 2 8 1 9
REMARK H PARENT
REMARK Flexibility Score: inf
ROOT
ATOM      1  C   UNL     1      -9.949  -1.712   4.073  1.00  0.00     0.006 C 
ENDROOT
BRANCH   1   2
ATOM      2  C   UNL     1      -8.781  -1.734   3.083  1.00  0.00     0.053 C 
BRANCH   2   3
ATOM      3  C   UNL     1      -8.473  -0.350   2.605  1.00  0.00     0.041 C 
ATOM      4  O   UNL     1      -7.288  -0.025   2.330  1.00  0.00    -0.550 OA
ATOM      5  O   UNL     1      -9.501   0.565   2.417  1.00  0.00    -0.550 OA
ENDBRANCH   2   3
ENDBRANCH   1   2
BRANCH   1   6
ATOM      6  C   UNL     1      -9.973  -2.986   4.925  1.00  0.00     0.000 C 
BRANCH   6   7
ATOM      7  C   UNL     1      -8.571  -3.592   5.051  1.00  0.00    -0.000 C 
BRANCH   7   8
ATOM      8  C   UNL     1      -8.331  -4.135   6.464  1.00  0.00    -0.003 C 
ATOM      9  C   UNL     1      -9.040  -5.470   6.670  1.00  0.00     0.004 C 
ENDBRANCH   7   8
ENDBRANCH   6   7
ENDBRANCH   1   6
TORSDOF 5
ENDMDL
MODEL 3
REMARK VINA RESULT:    -3.696      1.234      1.636
REMARK INTER + INTRA:          -5.017
REMARK INTER:                  -4.858
REMARK INTRA:                  -0.158
REMARK UNBOUND:                -0.240
REMARK SMILES CCCCCCC(=O)[O-]
REMARK SMILES IDX 5 1 6 2 7 3 8 4 9 5 4 6 3 7 2 8 1 9
REMARK H PARENT
REMARK Flexibility Score: inf
ROOT
ATOM      1  C   UNL     1      -8.535  -3.359   4.356  1.00  0.00     0.006 C 
ENDROOT
BRANCH   1   2
ATOM      2  C   UNL     1      -8.664  -3.773   5.825  1.00  0.00     0.053 C 
BRANCH   2   3
ATOM      3  C   UNL     1      -9.194  -5.168   5.932  1.00  0.00     0.041 C 
ATOM      4  O   UNL     1      -9.606  -5.769   4.905  1.00  0.00    -0.550 OA
ATOM      5  O   UNL     1      -9.188  -5.821   7.158  1.00  0.00    -0.550 OA
ENDBRANCH   2   3
ENDBRANCH   1   2
BRANCH   1   6
ATOM      6  C   UNL     1      -9.518  -2.233   4.013  1.00  0.00     0.000 C 
BRANCH   6   7
ATOM      7  C   UNL     1      -9.232  -1.656   2.622  1.00  0.00    -0.000 C 
BRANCH   7   8
ATOM      8  C   UNL     1      -8.587  -0.270   2.722  1.00  0.00    -0.003 C 
ATOM      9  C   UNL     1      -7.320  -0.189   1.876  1.00  0.00     0.004 C 
ENDBRANCH   7   8
ENDBRANCH   6   7
ENDBRANCH   1   6
TORSDOF 5
ENDMDL
MODEL 4
REMARK VINA RESULT:    -3.595      2.883      5.006
REMARK INTER + INTRA:          -4.886
REMARK INTER:                  -4.723
REMARK INTRA:                  -0.163
REMARK UNBOUND:                -0.240
REMARK SMILES CCCCCCC(=O)[O-]
REMARK SMILES IDX 5 1 6 2 7 3 8 4 9 5 4 6 3 7 2 8 1 9
REMARK H PARENT
REMARK Flexibility Score: inf
ROOT
ATOM      1  C   UNL     1      -8.678  -2.806   4.073  1.00  0.00     0.006 C 
ENDROOT
BRANCH   1   2
ATOM      2  C   UNL     1      -9.637  -2.132   3.088  1.00  0.00     0.053 C 
BRANCH   2   3
ATOM      3  C   UNL     1      -9.025  -0.886   2.530  1.00  0.00     0.041 C 
ATOM      4  O   UNL     1      -7.783  -0.698   2.613  1.00  0.00    -0.550 OA
ATOM      5  O   UNL     1      -9.821   0.045   1.875  1.00  0.00    -0.550 OA
ENDBRANCH   2   3
ENDBRANCH   1   2
BRANCH   1   6
ATOM      6  C   UNL     1      -9.444  -3.449   5.235  1.00  0.00     0.000 C 
BRANCH   6   7
ATOM      7  C   UNL     1      -8.486  -4.132   6.217  1.00  0.00    -0.000 C 
BRANCH   7   8
ATOM      8  C   UNL     1      -9.001  -5.518   6.615  1.00  0.00    -0.003 C 
ATOM      9  C   UNL     1      -9.623  -6.239   5.423  1.00  0.00     0.004 C 
ENDBRANCH   7   8
ENDBRANCH   6   7
ENDBRANCH   1   6
TORSDOF 5
ENDMDL
MODEL 5
REMARK VINA RESULT:    -3.546      2.987      4.685
REMARK INTER + INTRA:          -4.823
REMARK INTER:                  -4.597
REMARK INTRA:                  -0.226
REMARK UNBOUND:                -0.240
REMARK SMILES CCCCCCC(=O)[O-]
REMARK SMILES IDX 5 1 6 2 7 3 8 4 9 5 4 6 3 7 2 8 1 9
REMARK H PARENT
REMARK Flexibility Score: inf
ROOT
ATOM      1  C   UNL     1      -8.635  -1.389   2.964  1.00  0.00     0.006 C 
ENDROOT
BRANCH   1   2
ATOM      2  C   UNL     1      -8.939  -0.158   2.107  1.00  0.00     0.053 C 
BRANCH   2   3
ATOM      3  C   UNL     1     -10.079   0.617   2.688  1.00  0.00     0.041 C 
ATOM      4  O   UNL     1     -10.968   1.096   1.936  1.00  0.00    -0.550 OA
ATOM      5  O   UNL     1     -10.186   0.768   4.065  1.00  0.00    -0.550 OA
ENDBRANCH   2   3
ENDBRANCH   1   2
BRANCH   1   6
ATOM      6  C   UNL     1      -9.711  -2.466   2.782  1.00  0.00     0.000 C 
BRANCH   6   7
ATOM      7  C   UNL     1      -9.823  -3.350   4.029  1.00  0.00    -0.000 C 
BRANCH   7   8
ATOM      8  C   UNL     1      -8.497  -3.391   4.796  1.00  0.00    -0.003 C 
ATOM      9  C   UNL     1      -8.650  -4.127   6.124  1.00  0.00     0.004 C 
ENDBRANCH   7   8
ENDBRANCH   6   7
ENDBRANCH   1   6
TORSDOF 5
ENDMDL
MODEL 6
REMARK VINA RESULT:    -3.517      2.597      5.068
REMARK INTER + INTRA:          -4.786
REMARK INTER:                  -4.578
REMARK INTRA:                  -0.208
REMARK UNBOUND:                -0.240
REMARK SMILES CCCCCCC(=O)[O-]
REMARK SMILES IDX 5 1 6 2 7 3 8 4 9 5 4 6 3 7 2 8 1 9
REMARK H PARENT
REMARK Flexibility Score: inf
ROOT
ATOM      1  C   UNL     1      -9.354  -3.480   5.392  1.00  0.00     0.006 C 
ENDROOT
BRANCH   1   2
ATOM      2  C   UNL     1      -8.556  -3.071   4.151  1.00  0.00     0.053 C 
BRANCH   2   3
ATOM      3  C   UNL     1      -9.240  -1.949   3.435  1.00  0.00     0.041 C 
ATOM      4  O   UNL     1     -10.483  -1.986   3.240  1.00  0.00    -0.550 OA
ATOM      5  O   UNL     1      -8.510  -0.839   3.027  1.00  0.00    -0.550 OA
ENDBRANCH   2   3
ENDBRANCH   1   2
BRANCH   1   6
ATOM      6  C   UNL     1      -8.460  -4.202   6.408  1.00  0.00     0.000 C 
BRANCH   6   7
ATOM      7  C   UNL     1      -8.990  -5.609   6.707  1.00  0.00    -0.000 C 
BRANCH   7   8
ATOM      8  C   UNL     1     -10.067  -6.017   5.696  1.00  0.00    -0.003 C 
ATOM      9  C   UNL     1      -9.614  -7.210   4.859  1.00  0.00     0.004 C 
ENDBRANCH   7   8
ENDBRANCH   6   7
ENDBRANCH   1   6
TORSDOF 5
ENDMDL
MODEL 7
REMARK VINA RESULT:    -3.407      3.219      4.728
REMARK INTER + INTRA:          -4.644
REMARK INTER:                  -4.423
REMARK INTRA:                  -0.221
REMARK UNBOUND:                -0.240
REMARK SMILES CCCCCCC(=O)[O-]
REMARK SMILES IDX 5 1 6 2 7 3 8 4 9 5 4 6 3 7 2 8 1 9
REMARK H PARENT
REMARK Flexibility Score: inf
ROOT
ATOM      1  C   UNL     1      -8.731  -1.188   2.727  1.00  0.00     0.006 C 
ENDROOT
BRANCH   1   2
ATOM      2  C   UNL     1      -9.995  -1.432   1.898  1.00  0.00     0.053 C 
BRANCH   2   3
ATOM      3  C   UNL     1     -10.927  -0.267   2.009  1.00  0.00     0.041 C 
ATOM      4  O   UNL     1     -10.470   0.903   2.092  1.00  0.00    -0.550 OA
ATOM      5  O   UNL     1     -12.300  -0.471   1.970  1.00  0.00    -0.550 OA
ENDBRANCH   2   3
ENDBRANCH   1   2
BRANCH   1   6
ATOM      6  C   UNL     1      -8.521  -2.307   3.754  1.00  0.00     0.000 C 
BRANCH   6   7
ATOM      7  C   UNL     1      -9.569  -3.413   3.587  1.00  0.00    -0.000 C 
BRANCH   7   8
ATOM      8  C   UNL     1      -9.684  -4.259   4.859  1.00  0.00    -0.003 C 
ATOM      9  C   UNL     1      -8.588  -3.905   5.859  1.00  0.00     0.004 C 
ENDBRANCH   7   8
ENDBRANCH   6   7
ENDBRANCH   1   6
TORSDOF 5
ENDMDL
MODEL 8
REMARK VINA RESULT:    -3.383      2.638      3.730
REMARK INTER + INTRA:          -4.613
REMARK INTER:                  -4.446
REMARK INTRA:                  -0.167
REMARK UNBOUND:                -0.240
REMARK SMILES CCCCCCC(=O)[O-]
REMARK SMILES IDX 5 1 6 2 7 3 8 4 9 5 4 6 3 7 2 8 1 9
REMARK H PARENT
REMARK Flexibility Score: inf
ROOT
ATOM      1  C   UNL     1      -9.563  -5.021   5.691  1.00  0.00     0.006 C 
ENDROOT
BRANCH   1   2
ATOM      2  C   UNL     1      -9.109  -6.161   6.606  1.00  0.00     0.053 C 
BRANCH   2   3
ATOM      3  C   UNL     1      -8.812  -7.389   5.806  1.00  0.00     0.041 C 
ATOM      4  O   UNL     1      -9.350  -7.557   4.680  1.00  0.00    -0.550 OA
ATOM      5  O   UNL     1      -7.903  -8.325   6.282  1.00  0.00    -0.550 OA
ENDBRANCH   2   3
ENDBRANCH   1   2
BRANCH   1   6
ATOM      6  C   UNL     1      -8.584  -3.841   5.754  1.00  0.00     0.000 C 
BRANCH   6   7
ATOM      7  C   UNL     1      -8.406  -3.198   4.374  1.00  0.00    -0.000 C 
BRANCH   7   8
ATOM      8  C   UNL     1      -9.674  -2.452   3.946  1.00  0.00    -0.003 C 
ATOM      9  C   UNL     1     -10.110  -2.864   2.543  1.00  0.00     0.004 C 
ENDBRANCH   7   8
ENDBRANCH   6   7
ENDBRANCH   1   6
TORSDOF 5
ENDMDL
MODEL 9
REMARK VINA RESULT:    -3.141      2.247      3.213
REMARK INTER + INTRA:          -4.300
REMARK INTER:                  -3.924
REMARK INTRA:                  -0.376
REMARK UNBOUND:                -0.240
REMARK SMILES CCCCCCC(=O)[O-]
REMARK SMILES IDX 5 1 6 2 7 3 8 4 9 5 4 6 3 7 2 8 1 9
REMARK H PARENT
REMARK Flexibility Score: inf
ROOT
ATOM      1  C   UNL     1      -8.570  -1.243   2.594  1.00  0.00     0.006 C 
ENDROOT
BRANCH   1   2
ATOM      2  C   UNL     1      -9.334  -1.922   3.733  1.00  0.00     0.053 C 
BRANCH   2   3
ATOM      3  C   UNL     1      -9.998  -3.172   3.247  1.00  0.00     0.041 C 
ATOM      4  O   UNL     1     -10.776  -3.131   2.258  1.00  0.00    -0.550 OA
ATOM      5  O   UNL     1      -9.719  -4.389   3.856  1.00  0.00    -0.550 OA
ENDBRANCH   2   3
ENDBRANCH   1   2
BRANCH   1   6
ATOM      6  C   UNL     1      -8.888   0.257   2.535  1.00  0.00     0.000 C 
BRANCH   6   7
ATOM      7  C   UNL     1     -10.082   0.603   3.432  1.00  0.00    -0.000 C 
BRANCH   7   8
ATOM      8  C   UNL     1     -11.215   1.236   2.619  1.00  0.00    -0.003 C 
ATOM      9  C   UNL     1     -12.100   0.169   1.981  1.00  0.00     0.004 C 
ENDBRANCH   7   8
ENDBRANCH   6   7
ENDBRANCH   1   6
TORSDOF 5
ENDMDL
