MODEL 1
REMARK VINA RESULT:    -3.656      0.000      0.000
REMARK INTER + INTRA:          -4.689
REMARK INTER:                  -4.511
REMARK INTRA:                  -0.177
REMARK UNBOUND:                -0.177
REMARK SMILES CCCCCC(=O)[O-]
REMARK SMILES IDX 4 1 5 2 6 3 7 4 8 5 3 6 2 7 1 8
REMARK H PARENT
REMARK Flexibility Score: inf
ROOT
ATOM      1  C   UNL     1      -1.946   8.444  21.528  1.00  0.00     0.006 C 
ENDROOT
BRANCH   1   2
ATOM      2  C   UNL     1      -2.333   8.160  22.988  1.00  0.00     0.053 C 
BRANCH   2   3
ATOM      3  C   UNL     1      -1.309   8.678  23.951  1.00  0.00     0.041 C 
ATOM      4  O   UNL     1      -0.215   9.135  23.526  1.00  0.00    -0.550 OA
ATOM      5  O   UNL     1      -1.577   8.689  25.313  1.00  0.00    -0.550 OA
ENDBRANCH   2   3
ENDBRANCH   1   2
BRANCH   1   6
ATOM      6  C   UNL     1      -2.983   9.271  20.741  1.00  0.00     0.000 C 
BRANCH   6   7
ATOM      7  C   UNL     1      -3.810  10.253  21.591  1.00  0.00    -0.003 C 
ATOM      8  C   UNL     1      -3.159  11.631  21.715  1.00  0.00     0.004 C 
ENDBRANCH   6   7
ENDBRANCH   1   6
TORSDOF 4
ENDMDL
MODEL 2
REMARK VINA RESULT:    -3.508      1.164      1.588
REMARK INTER + INTRA:          -4.505
REMARK INTER:                  -4.372
REMARK INTRA:                  -0.133
REMARK UNBOUND:                -0.177
REMARK SMILES CCCCCC(=O)[O-]
REMARK SMILES IDX 4 1 5 2 6 3 7 4 8 5 3 6 2 7 1 8
REMARK H PARENT
REMARK Flexibility Score: inf
ROOT
ATOM      1  C   UNL     1      -2.127   8.113  22.605  1.00  0.00     0.006 C 
ENDROOT
BRANCH   1   2
ATOM      2  C   UNL     1      -1.928   9.293  23.570  1.00  0.00     0.053 C 
BRANCH   2   3
ATOM      3  C   UNL     1      -0.601   9.233  24.264  1.00  0.00     0.041 C 
ATOM      4  O   UNL     1       0.462   9.179  23.592  1.00  0.00    -0.550 OA
ATOM      5  O   UNL     1      -0.539   9.272  25.651  1.00  0.00    -0.550 OA
ENDBRANCH   2   3
ENDBRANCH   1   2
BRANCH   1   6
ATOM      6  C   UNL     1      -2.108   8.498  21.112  1.00  0.00     0.000 C 
BRANCH   6   7
ATOM      7  C   UNL     1      -3.207   9.487  20.682  1.00  0.00    -0.003 C 
ATOM      8  C   UNL     1      -4.600   8.857  20.657  1.00  0.00     0.004 C 
ENDBRANCH   6   7
ENDBRANCH   1   6
TORSDOF 4
ENDMDL
MODEL 3
REMARK VINA RESULT:    -3.506      2.679      3.840
REMARK INTER + INTRA:          -4.503
REMARK INTER:                  -4.269
REMARK INTRA:                  -0.234
REMARK UNBOUND:                -0.177
REMARK SMILES CCCCCC(=O)[O-]
REMARK SMILES IDX 4 1 5 2 6 3 7 4 8 5 3 6 2 7 1 8
REMARK H PARENT
REMARK Flexibility Score: inf
ROOT
ATOM      1  C   UNL     1      -3.321   9.227  20.957  1.00  0.00     0.006 C 
ENDROOT
BRANCH   1   2
ATOM      2  C   UNL     1      -3.260  10.732  21.264  1.00  0.00     0.053 C 
BRANCH   2   3
ATOM      3  C   UNL     1      -4.359  11.162  22.187  1.00  0.00     0.041 C 
ATOM      4  O   UNL     1      -4.894  10.329  22.965  1.00  0.00    -0.550 OA
ATOM      5  O   UNL     1      -4.767  12.490  22.213  1.00  0.00    -0.550 OA
ENDBRANCH   2   3
ENDBRANCH   1   2
BRANCH   1   6
ATOM      6  C   UNL     1      -2.010   8.465  21.236  1.00  0.00     0.000 C 
BRANCH   6   7
ATOM      7  C   UNL     1      -1.358   8.770  22.597  1.00  0.00    -0.003 C 
ATOM      8  C   UNL     1      -2.136   8.185  23.776  1.00  0.00     0.004 C 
ENDBRANCH   6   7
ENDBRANCH   1   6
TORSDOF 4
ENDMDL
MODEL 4
REMARK VINA RESULT:    -3.460      1.079      1.481
REMARK INTER + INTRA:          -4.447
REMARK INTER:                  -4.311
REMARK INTRA:                  -0.136
REMARK UNBOUND:                -0.177
REMARK SMILES CCCCCC(=O)[O-]
REMARK SMILES IDX 4 1 5 2 6 3 7 4 8 5 3 6 2 7 1 8
REMARK H PARENT
REMARK Flexibility Score: inf
ROOT
ATOM      1  C   UNL     1      -2.088   8.338  22.783  1.00  0.00     0.006 C 
ENDROOT
BRANCH   1   2
ATOM      2  C   UNL     1      -0.846   8.925  23.472  1.00  0.00     0.053 C 
BRANCH   2   3
ATOM      3  C   UNL     1      -1.172   9.518  24.808  1.00  0.00     0.041 C 
ATOM      4  O   UNL     1      -1.671  10.672  24.883  1.00  0.00    -0.550 OA
ATOM      5  O   UNL     1      -0.958   8.784  25.967  1.00  0.00    -0.550 OA
ENDBRANCH   2   3
ENDBRANCH   1   2
BRANCH   1   6
ATOM      6  C   UNL     1      -2.112   8.514  21.251  1.00  0.00     0.000 C 
BRANCH   6   7
ATOM      7  C   UNL     1      -3.241   9.415  20.718  1.00  0.00    -0.003 C 
ATOM      8  C   UNL     1      -3.378  10.723  21.497  1.00  0.00     0.004 C 
ENDBRANCH   6   7
ENDBRANCH   1   6
TORSDOF 4
ENDMDL
MODEL 5
REMARK VINA RESULT:    -3.457      1.186      1.883
REMARK INTER + INTRA:          -4.443
REMARK INTER:                  -4.277
REMARK INTRA:                  -0.166
REMARK UNBOUND:                -0.177
REMARK SMILES CCCCCC(=O)[O-]
REMARK SMILES IDX 4 1 5 2 6 3 7 4 8 5 3 6 2 7 1 8
REMARK H PARENT
REMARK Flexibility Score: inf
ROOT
ATOM      1  C   UNL     1      -2.832  10.611  23.090  1.00  0.00     0.006 C 
ENDROOT
BRANCH   1   2
ATOM      2  C   UNL     1      -2.353   9.214  23.516  1.00  0.00     0.053 C 
BRANCH   2   3
ATOM      3  C   UNL     1      -0.872   9.174  23.742  1.00  0.00     0.041 C 
ATOM      4  O   UNL     1      -0.094   8.891  22.793  1.00  0.00    -0.550 OA
ATOM      5  O   UNL     1      -0.350   9.483  24.992  1.00  0.00    -0.550 OA
ENDBRANCH   2   3
ENDBRANCH   1   2
BRANCH   1   6
ATOM      6  C   UNL     1      -3.186  10.735  21.593  1.00  0.00     0.000 C 
BRANCH   6   7
ATOM      7  C   UNL     1      -3.192   9.407  20.815  1.00  0.00    -0.003 C 
ATOM      8  C   UNL     1      -4.593   8.817  20.650  1.00  0.00     0.004 C 
ENDBRANCH   6   7
ENDBRANCH   1   6
TORSDOF 4
ENDMDL
MODEL 6
REMARK VINA RESULT:    -3.410      1.447      2.051
REMARK INTER + INTRA:          -4.384
REMARK INTER:                  -4.117
REMARK INTRA:                  -0.268
REMARK UNBOUND:                -0.177
REMARK SMILES CCCCCC(=O)[O-]
REMARK SMILES IDX 4 1 5 2 6 3 7 4 8 5 3 6 2 7 1 8
REMARK H PARENT
REMARK Flexibility Score: inf
ROOT
ATOM      1  C   UNL     1      -3.620   9.838  21.079  1.00  0.00     0.006 C 
ENDROOT
BRANCH   1   2
ATOM      2  C   UNL     1      -2.496   8.793  20.996  1.00  0.00     0.053 C 
BRANCH   2   3
ATOM      3  C   UNL     1      -1.929   8.471  22.345  1.00  0.00     0.041 C 
ATOM      4  O   UNL     1      -0.746   8.798  22.628  1.00  0.00    -0.550 OA
ATOM      5  O   UNL     1      -2.716   7.842  23.300  1.00  0.00    -0.550 OA
ENDBRANCH   2   3
ENDBRANCH   1   2
BRANCH   1   6
ATOM      6  C   UNL     1      -3.169  11.220  21.596  1.00  0.00     0.000 C 
BRANCH   6   7
ATOM      7  C   UNL     1      -3.778  11.638  22.947  1.00  0.00    -0.003 C 
ATOM      8  C   UNL     1      -2.742  11.722  24.068  1.00  0.00     0.004 C 
ENDBRANCH   6   7
ENDBRANCH   1   6
TORSDOF 4
ENDMDL
MODEL 7
REMARK VINA RESULT:    -3.393      2.563      3.910
REMARK INTER + INTRA:          -4.364
REMARK INTER:                  -4.252
REMARK INTRA:                  -0.112
REMARK UNBOUND:                -0.177
REMARK SMILES CCCCCC(=O)[O-]
REMARK SMILES IDX 4 1 5 2 6 3 7 4 8 5 3 6 2 7 1 8
REMARK H PARENT
REMARK Flexibility Score: inf
ROOT
ATOM      1  C   UNL     1      -1.344   8.777  22.529  1.00  0.00     0.006 C 
ENDROOT
BRANCH   1   2
ATOM      2  C   UNL     1      -1.957   8.423  21.165  1.00  0.00     0.053 C 
BRANCH   2   3
ATOM      3  C   UNL     1      -3.173   9.246  20.865  1.00  0.00     0.041 C 
ATOM      4  O   UNL     1      -3.134  10.498  20.984  1.00  0.00    -0.550 OA
ATOM      5  O   UNL     1      -4.337   8.632  20.422  1.00  0.00    -0.550 OA
ENDBRANCH   2   3
ENDBRANCH   1   2
BRANCH   1   6
ATOM      6  C   UNL     1      -2.110   8.209  23.741  1.00  0.00     0.000 C 
BRANCH   6   7
ATOM      7  C   UNL     1      -2.253   9.175  24.930  1.00  0.00    -0.003 C 
ATOM      8  C   UNL     1      -1.254   8.892  26.052  1.00  0.00     0.004 C 
ENDBRANCH   6   7
ENDBRANCH   1   6
TORSDOF 4
ENDMDL
MODEL 8
REMARK VINA RESULT:    -3.373      8.354      9.315
REMARK INTER + INTRA:          -4.339
REMARK INTER:                  -4.104
REMARK INTRA:                  -0.235
REMARK UNBOUND:                -0.177
REMARK SMILES CCCCCC(=O)[O-]
REMARK SMILES IDX 4 1 5 2 6 3 7 4 8 5 3 6 2 7 1 8
REMARK H PARENT
REMARK Flexibility Score: inf
ROOT
ATOM      1  C   UNL     1       2.242  14.979  24.921  1.00  0.00     0.006 C 
ENDROOT
BRANCH   1   2
ATOM      2  C   UNL     1       2.127  16.042  23.817  1.00  0.00     0.053 C 
BRANCH   2   3
ATOM      3  C   UNL     1       3.154  17.122  23.970  1.00  0.00     0.041 C 
ATOM      4  O   UNL     1       4.100  17.217  23.144  1.00  0.00    -0.550 OA
ATOM      5  O   UNL     1       3.047  18.043  25.004  1.00  0.00    -0.550 OA
ENDBRANCH   2   3
ENDBRANCH   1   2
BRANCH   1   6
ATOM      6  C   UNL     1       3.130  13.771  24.556  1.00  0.00     0.000 C 
BRANCH   6   7
ATOM      7  C   UNL     1       4.574  13.845  25.084  1.00  0.00    -0.003 C 
ATOM      8  C   UNL     1       5.603  14.076  23.978  1.00  0.00     0.004 C 
ENDBRANCH   6   7
ENDBRANCH   1   6
TORSDOF 4
ENDMDL
MODEL 9
REMARK VINA RESULT:    -3.333      7.623      8.569
REMARK INTER + INTRA:          -4.290
REMARK INTER:                  -4.200
REMARK INTRA:                  -0.090
REMARK UNBOUND:                -0.177
REMARK SMILES CCCCCC(=O)[O-]
REMARK SMILES IDX 4 1 5 2 6 3 7 4 8 5 3 6 2 7 1 8
REMARK H PARENT
REMARK Flexibility Score: inf
ROOT
ATOM      1  C   UNL     1       1.330  16.821  23.547  1.00  0.00     0.006 C 
ENDROOT
BRANCH   1   2
ATOM      2  C   UNL     1       2.703  16.131  23.572  1.00  0.00     0.053 C 
BRANCH   2   3
ATOM      3  C   UNL     1       2.639  14.778  24.213  1.00  0.00     0.041 C 
ATOM      4  O   UNL     1       3.362  13.840  23.784  1.00  0.00    -0.550 OA
ATOM      5  O   UNL     1       1.808  14.563  25.305  1.00  0.00    -0.550 OA
ENDBRANCH   2   3
ENDBRANCH   1   2
BRANCH   1   6
ATOM      6  C   UNL     1       1.320  18.245  24.141  1.00  0.00     0.000 C 
BRANCH   6   7
ATOM      7  C   UNL     1       0.822  19.343  23.186  1.00  0.00    -0.003 C 
ATOM      8  C   UNL     1      -0.530  19.016  22.552  1.00  0.00     0.004 C 
ENDBRANCH   6   7
ENDBRANCH   1   6
TORSDOF 4
ENDMDL
