MODEL 1
REMARK VINA RESULT:    -3.703      0.000      0.000
REMARK INTER + INTRA:          -6.523
REMARK INTER:                  -5.652
REMARK INTRA:                  -0.872
REMARK UNBOUND:                -0.872
REMARK SMILES O=C([O-])CCCCCCCCC(=O)[O-]
REMARK SMILES IDX 7 1 6 2 5 3 4 4 2 5 1 6 3 7 8 8 9 9 10 10 11 11 12 12 13 13
REMARK SMILES IDX 14 14
REMARK H PARENT
REMARK Flexibility Score: inf
ROOT
ATOM      1  C   UNL     1      21.663  37.130  35.199  1.00  0.00     0.000 C 
ENDROOT
BRANCH   1   2
ATOM      2  C   UNL     1      20.173  37.006  34.858  1.00  0.00     0.000 C 
BRANCH   2   3
ATOM      3  C   UNL     1      19.481  38.377  34.908  1.00  0.00     0.006 C 
BRANCH   3   4
ATOM      4  C   UNL     1      18.147  38.327  35.662  1.00  0.00     0.053 C 
BRANCH   4   5
ATOM      5  C   UNL     1      16.982  38.537  34.744  1.00  0.00     0.041 C 
ATOM      6  O   UNL     1      16.259  37.563  34.404  1.00  0.00    -0.550 OA
ATOM      7  O   UNL     1      16.675  39.814  34.291  1.00  0.00    -0.550 OA
ENDBRANCH   4   5
ENDBRANCH   3   4
ENDBRANCH   2   3
ENDBRANCH   1   2
BRANCH   1   8
ATOM      8  C   UNL     1      22.018  36.276  36.426  1.00  0.00     0.000 C 
BRANCH   8   9
ATOM      9  C   UNL     1      21.314  36.749  37.710  1.00  0.00     0.000 C 
BRANCH   9  10
ATOM     10  C   UNL     1      21.661  38.182  38.153  1.00  0.00     0.006 C 
BRANCH  10  11
ATOM     11  C   UNL     1      20.423  39.019  38.495  1.00  0.00     0.053 C 
BRANCH  11  12
ATOM     12  C   UNL     1      19.723  38.452  39.690  1.00  0.00     0.041 C 
ATOM     13  O   UNL     1      20.240  38.553  40.834  1.00  0.00    -0.550 OA
ATOM     14  O   UNL     1      18.524  37.769  39.535  1.00  0.00    -0.550 OA
ENDBRANCH  11  12
ENDBRANCH  10  11
ENDBRANCH   9  10
ENDBRANCH   8   9
ENDBRANCH   1   8
TORSDOF 9
ENDMDL
MODEL 2
REMARK VINA RESULT:    -3.670      0.659      4.908
REMARK INTER + INTRA:          -6.473
REMARK INTER:                  -5.645
REMARK INTRA:                  -0.828
REMARK UNBOUND:                -0.872
REMARK SMILES O=C([O-])CCCCCCCCC(=O)[O-]
REMARK SMILES IDX 7 1 6 2 5 3 4 4 2 5 1 6 3 7 8 8 9 9 10 10 11 11 12 12 13 13
REMARK SMILES IDX 14 14
REMARK H PARENT
REMARK Flexibility Score: inf
ROOT
ATOM      1  C   UNL     1      21.840  36.579  35.758  1.00  0.00     0.000 C 
ENDROOT
BRANCH   1   2
ATOM      2  C   UNL     1      22.190  36.527  37.250  1.00  0.00     0.000 C 
BRANCH   2   3
ATOM      3  C   UNL     1      20.954  36.812  38.116  1.00  0.00     0.006 C 
BRANCH   3   4
ATOM      4  C   UNL     1      21.026  38.183  38.799  1.00  0.00     0.053 C 
BRANCH   4   5
ATOM      5  C   UNL     1      19.926  38.363  39.799  1.00  0.00     0.041 C 
ATOM      6  O   UNL     1      20.068  39.162  40.763  1.00  0.00    -0.550 OA
ATOM      7  O   UNL     1      18.729  37.673  39.649  1.00  0.00    -0.550 OA
ENDBRANCH   4   5
ENDBRANCH   3   4
ENDBRANCH   2   3
ENDBRANCH   1   2
BRANCH   1   8
ATOM      8  C   UNL     1      22.008  38.002  35.204  1.00  0.00     0.000 C 
BRANCH   8   9
ATOM      9  C   UNL     1      20.664  38.694  34.910  1.00  0.00     0.000 C 
BRANCH   9  10
ATOM     10  C   UNL     1      19.439  37.761  34.909  1.00  0.00     0.006 C 
BRANCH  10  11
ATOM     11  C   UNL     1      18.278  38.299  35.754  1.00  0.00     0.053 C 
BRANCH  11  12
ATOM     12  C   UNL     1      17.125  38.677  34.877  1.00  0.00     0.041 C 
ATOM     13  O   UNL     1      16.272  37.812  34.545  1.00  0.00    -0.550 OA
ATOM     14  O   UNL     1      17.019  39.972  34.387  1.00  0.00    -0.550 OA
ENDBRANCH  11  12
ENDBRANCH  10  11
ENDBRANCH   9  10
ENDBRANCH   8   9
ENDBRANCH   1   8
TORSDOF 9
ENDMDL
MODEL 3
REMARK VINA RESULT:    -3.630      2.227      3.333
REMARK INTER + INTRA:          -6.411
REMARK INTER:                  -5.594
REMARK INTRA:                  -0.817
REMARK UNBOUND:                -0.872
REMARK SMILES O=C([O-])CCCCCCCCC(=O)[O-]
REMARK SMILES IDX 7 1 6 2 5 3 4 4 2 5 1 6 3 7 8 8 9 9 10 10 11 11 12 12 13 13
REMARK SMILES IDX 14 14
REMARK H PARENT
REMARK Flexibility Score: inf
ROOT
ATOM      1  C   UNL     1      19.023  37.970  38.767  1.00  0.00     0.000 C 
ENDROOT
BRANCH   1   2
ATOM      2  C   UNL     1      19.186  38.945  37.595  1.00  0.00     0.000 C 
BRANCH   2   3
ATOM      3  C   UNL     1      19.226  38.193  36.256  1.00  0.00     0.006 C 
BRANCH   3   4
ATOM      4  C   UNL     1      17.909  38.315  35.481  1.00  0.00     0.053 C 
BRANCH   4   5
ATOM      5  C   UNL     1      17.926  37.498  34.225  1.00  0.00     0.041 C 
ATOM      6  O   UNL     1      16.959  37.553  33.419  1.00  0.00    -0.550 OA
ATOM      7  O   UNL     1      19.025  36.701  33.929  1.00  0.00    -0.550 OA
ENDBRANCH   4   5
ENDBRANCH   3   4
ENDBRANCH   2   3
ENDBRANCH   1   2
BRANCH   1   8
ATOM      8  C   UNL     1      19.857  38.420  39.976  1.00  0.00     0.000 C 
BRANCH   8   9
ATOM      9  C   UNL     1      21.270  38.893  39.588  1.00  0.00     0.000 C 
BRANCH   9  10
ATOM     10  C   UNL     1      22.319  37.774  39.464  1.00  0.00     0.006 C 
BRANCH  10  11
ATOM     11  C   UNL     1      22.782  37.547  38.019  1.00  0.00     0.053 C 
BRANCH  11  12
ATOM     12  C   UNL     1      22.141  36.319  37.453  1.00  0.00     0.041 C 
ATOM     13  O   UNL     1      21.643  35.453  38.219  1.00  0.00    -0.550 OA
ATOM     14  O   UNL     1      22.138  36.106  36.080  1.00  0.00    -0.550 OA
ENDBRANCH  11  12
ENDBRANCH  10  11
ENDBRANCH   9  10
ENDBRANCH   8   9
ENDBRANCH   1   8
TORSDOF 9
ENDMDL
MODEL 4
REMARK VINA RESULT:    -3.623      1.798      5.113
REMARK INTER + INTRA:          -6.401
REMARK INTER:                  -5.529
REMARK INTRA:                  -0.871
REMARK UNBOUND:                -0.872
REMARK SMILES O=C([O-])CCCCCCCCC(=O)[O-]
REMARK SMILES IDX 7 1 6 2 5 3 4 4 2 5 1 6 3 7 8 8 9 9 10 10 11 11 12 12 13 13
REMARK SMILES IDX 14 14
REMARK H PARENT
REMARK Flexibility Score: inf
ROOT
ATOM      1  C   UNL     1      21.871  36.549  35.740  1.00  0.00     0.000 C 
ENDROOT
BRANCH   1   2
ATOM      2  C   UNL     1      22.349  36.341  37.182  1.00  0.00     0.000 C 
BRANCH   2   3
ATOM      3  C   UNL     1      21.175  36.424  38.169  1.00  0.00     0.006 C 
BRANCH   3   4
ATOM      4  C   UNL     1      21.153  37.752  38.936  1.00  0.00     0.053 C 
BRANCH   4   5
ATOM      5  C   UNL     1      19.756  38.253  39.138  1.00  0.00     0.041 C 
ATOM      6  O   UNL     1      18.980  37.666  39.938  1.00  0.00    -0.550 OA
ATOM      7  O   UNL     1      19.321  39.390  38.467  1.00  0.00    -0.550 OA
ENDBRANCH   4   5
ENDBRANCH   3   4
ENDBRANCH   2   3
ENDBRANCH   1   2
BRANCH   1   8
ATOM      8  C   UNL     1      21.950  38.031  35.344  1.00  0.00     0.000 C 
BRANCH   8   9
ATOM      9  C   UNL     1      20.565  38.688  35.200  1.00  0.00     0.000 C 
BRANCH   9  10
ATOM     10  C   UNL     1      19.372  37.723  35.320  1.00  0.00     0.006 C 
BRANCH  10  11
ATOM     11  C   UNL     1      18.470  37.731  34.080  1.00  0.00     0.053 C 
BRANCH  11  12
ATOM     12  C   UNL     1      18.821  36.594  33.172  1.00  0.00     0.041 C 
ATOM     13  O   UNL     1      17.976  35.692  32.930  1.00  0.00    -0.550 OA
ATOM     14  O   UNL     1      20.097  36.504  32.632  1.00  0.00    -0.550 OA
ENDBRANCH  11  12
ENDBRANCH  10  11
ENDBRANCH   9  10
ENDBRANCH   8   9
ENDBRANCH   1   8
TORSDOF 9
ENDMDL
MODEL 5
REMARK VINA RESULT:    -3.616     10.289     12.622
REMARK INTER + INTRA:          -6.390
REMARK INTER:                  -6.017
REMARK INTRA:                  -0.372
REMARK UNBOUND:                -0.872
REMARK SMILES O=C([O-])CCCCCCCCC(=O)[O-]
REMARK SMILES IDX 7 1 6 2 5 3 4 4 2 5 1 6 3 7 8 8 9 9 10 10 11 11 12 12 13 13
REMARK SMILES IDX 14 14
REMARK H PARENT
REMARK Flexibility Score: inf
ROOT
ATOM      1  C   UNL     1      13.753  32.136  32.120  1.00  0.00     0.000 C 
ENDROOT
BRANCH   1   2
ATOM      2  C   UNL     1      13.377  30.695  31.755  1.00  0.00     0.000 C 
BRANCH   2   3
ATOM      3  C   UNL     1      12.464  30.077  32.825  1.00  0.00     0.006 C 
BRANCH   3   4
ATOM      4  C   UNL     1      12.695  30.690  34.211  1.00  0.00     0.053 C 
BRANCH   4   5
ATOM      5  C   UNL     1      12.252  29.770  35.307  1.00  0.00     0.041 C 
ATOM      6  O   UNL     1      13.079  28.999  35.863  1.00  0.00    -0.550 OA
ATOM      7  O   UNL     1      10.930  29.786  35.736  1.00  0.00    -0.550 OA
ENDBRANCH   4   5
ENDBRANCH   3   4
ENDBRANCH   2   3
ENDBRANCH   1   2
BRANCH   1   8
ATOM      8  C   UNL     1      14.058  32.960  30.860  1.00  0.00     0.000 C 
BRANCH   8   9
ATOM      9  C   UNL     1      14.185  32.095  29.593  1.00  0.00     0.000 C 
BRANCH   9  10
ATOM     10  C   UNL     1      13.625  32.734  28.310  1.00  0.00     0.006 C 
BRANCH  10  11
ATOM     11  C   UNL     1      14.326  32.238  27.039  1.00  0.00     0.053 C 
BRANCH  11  12
ATOM     12  C   UNL     1      13.582  31.082  26.449  1.00  0.00     0.041 C 
ATOM     13  O   UNL     1      12.753  31.269  25.520  1.00  0.00    -0.550 OA
ATOM     14  O   UNL     1      13.767  29.803  26.958  1.00  0.00    -0.550 OA
ENDBRANCH  11  12
ENDBRANCH  10  11
ENDBRANCH   9  10
ENDBRANCH   8   9
ENDBRANCH   1   8
TORSDOF 9
ENDMDL
MODEL 6
REMARK VINA RESULT:    -3.586      1.054      1.503
REMARK INTER + INTRA:          -6.345
REMARK INTER:                  -5.612
REMARK INTRA:                  -0.733
REMARK UNBOUND:                -0.872
REMARK SMILES O=C([O-])CCCCCCCCC(=O)[O-]
REMARK SMILES IDX 7 1 6 2 5 3 4 4 2 5 1 6 3 7 8 8 9 9 10 10 11 11 12 12 13 13
REMARK SMILES IDX 14 14
REMARK H PARENT
REMARK Flexibility Score: inf
ROOT
ATOM      1  C   UNL     1      21.627  36.629  35.406  1.00  0.00     0.000 C 
ENDROOT
BRANCH   1   2
ATOM      2  C   UNL     1      20.767  37.859  35.089  1.00  0.00     0.000 C 
BRANCH   2   3
ATOM      3  C   UNL     1      19.359  37.446  34.638  1.00  0.00     0.006 C 
BRANCH   3   4
ATOM      4  C   UNL     1      18.261  38.129  35.462  1.00  0.00     0.053 C 
BRANCH   4   5
ATOM      5  C   UNL     1      17.044  38.416  34.636  1.00  0.00     0.041 C 
ATOM      6  O   UNL     1      16.722  39.604  34.370  1.00  0.00    -0.550 OA
ATOM      7  O   UNL     1      16.283  37.368  34.133  1.00  0.00    -0.550 OA
ENDBRANCH   4   5
ENDBRANCH   3   4
ENDBRANCH   2   3
ENDBRANCH   1   2
BRANCH   1   8
ATOM      8  C   UNL     1      21.988  36.581  36.898  1.00  0.00     0.000 C 
BRANCH   8   9
ATOM      9  C   UNL     1      21.253  37.649  37.728  1.00  0.00     0.000 C 
BRANCH   9  10
ATOM     10  C   UNL     1      20.125  37.112  38.627  1.00  0.00     0.006 C 
BRANCH  10  11
ATOM     11  C   UNL     1      19.281  38.226  39.258  1.00  0.00     0.053 C 
BRANCH  11  12
ATOM     12  C   UNL     1      20.123  39.067  40.167  1.00  0.00     0.041 C 
ATOM     13  O   UNL     1      20.758  38.535  41.114  1.00  0.00    -0.550 OA
ATOM     14  O   UNL     1      20.166  40.445  39.998  1.00  0.00    -0.550 OA
ENDBRANCH  11  12
ENDBRANCH  10  11
ENDBRANCH   9  10
ENDBRANCH   8   9
ENDBRANCH   1   8
TORSDOF 9
ENDMDL
MODEL 7
REMARK VINA RESULT:    -3.539      0.813      4.876
REMARK INTER + INTRA:          -6.272
REMARK INTER:                  -5.528
REMARK INTRA:                  -0.745
REMARK UNBOUND:                -0.872
REMARK SMILES O=C([O-])CCCCCCCCC(=O)[O-]
REMARK SMILES IDX 7 1 6 2 5 3 4 4 2 5 1 6 3 7 8 8 9 9 10 10 11 11 12 12 13 13
REMARK SMILES IDX 14 14
REMARK H PARENT
REMARK Flexibility Score: inf
ROOT
ATOM      1  C   UNL     1      22.441  37.660  36.145  1.00  0.00     0.000 C 
ENDROOT
BRANCH   1   2
ATOM      2  C   UNL     1      22.065  36.237  36.577  1.00  0.00     0.000 C 
BRANCH   2   3
ATOM      3  C   UNL     1      21.545  36.220  38.022  1.00  0.00     0.006 C 
BRANCH   3   4
ATOM      4  C   UNL     1      21.628  37.599  38.686  1.00  0.00     0.053 C 
BRANCH   4   5
ATOM      5  C   UNL     1      20.306  38.027  39.244  1.00  0.00     0.041 C 
ATOM      6  O   UNL     1      19.251  37.866  38.574  1.00  0.00    -0.550 OA
ATOM      7  O   UNL     1      20.234  38.574  40.520  1.00  0.00    -0.550 OA
ENDBRANCH   4   5
ENDBRANCH   3   4
ENDBRANCH   2   3
ENDBRANCH   1   2
BRANCH   1   8
ATOM      8  C   UNL     1      21.444  38.201  35.109  1.00  0.00     0.000 C 
BRANCH   8   9
ATOM      9  C   UNL     1      20.822  37.095  34.239  1.00  0.00     0.000 C 
BRANCH   9  10
ATOM     10  C   UNL     1      19.283  37.080  34.207  1.00  0.00     0.006 C 
BRANCH  10  11
ATOM     11  C   UNL     1      18.655  38.045  35.220  1.00  0.00     0.053 C 
BRANCH  11  12
ATOM     12  C   UNL     1      17.301  38.482  34.755  1.00  0.00     0.041 C 
ATOM     13  O   UNL     1      16.397  37.631  34.545  1.00  0.00    -0.550 OA
ATOM     14  O   UNL     1      17.052  39.826  34.505  1.00  0.00    -0.550 OA
ENDBRANCH  11  12
ENDBRANCH  10  11
ENDBRANCH   9  10
ENDBRANCH   8   9
ENDBRANCH   1   8
TORSDOF 9
ENDMDL
MODEL 8
REMARK VINA RESULT:    -3.524      1.852      2.426
REMARK INTER + INTRA:          -6.250
REMARK INTER:                  -5.613
REMARK INTRA:                  -0.637
REMARK UNBOUND:                -0.872
REMARK SMILES O=C([O-])CCCCCCCCC(=O)[O-]
REMARK SMILES IDX 7 1 6 2 5 3 4 4 2 5 1 6 3 7 8 8 9 9 10 10 11 11 12 12 13 13
REMARK SMILES IDX 14 14
REMARK H PARENT
REMARK Flexibility Score: inf
ROOT
ATOM      1  C   UNL     1      21.117  36.823  36.994  1.00  0.00     0.000 C 
ENDROOT
BRANCH   1   2
ATOM      2  C   UNL     1      21.912  36.586  35.704  1.00  0.00     0.000 C 
BRANCH   2   3
ATOM      3  C   UNL     1      21.565  37.640  34.642  1.00  0.00     0.006 C 
BRANCH   3   4
ATOM      4  C   UNL     1      20.815  37.038  33.448  1.00  0.00     0.053 C 
BRANCH   4   5
ATOM      5  C   UNL     1      19.346  36.921  33.718  1.00  0.00     0.041 C 
ATOM      6  O   UNL     1      18.672  36.002  33.181  1.00  0.00    -0.550 OA
ATOM      7  O   UNL     1      18.726  37.809  34.589  1.00  0.00    -0.550 OA
ENDBRANCH   4   5
ENDBRANCH   3   4
ENDBRANCH   2   3
ENDBRANCH   1   2
BRANCH   1   8
ATOM      8  C   UNL     1      21.723  36.036  38.165  1.00  0.00     0.000 C 
BRANCH   8   9
ATOM      9  C   UNL     1      22.859  36.796  38.874  1.00  0.00     0.000 C 
BRANCH   9  10
ATOM     10  C   UNL     1      22.547  38.265  39.213  1.00  0.00     0.006 C 
BRANCH  10  11
ATOM     11  C   UNL     1      21.873  38.432  40.581  1.00  0.00     0.053 C 
BRANCH  11  12
ATOM     12  C   UNL     1      20.486  38.970  40.419  1.00  0.00     0.041 C 
ATOM     13  O   UNL     1      19.560  38.222  40.009  1.00  0.00    -0.550 OA
ATOM     14  O   UNL     1      20.227  40.311  40.672  1.00  0.00    -0.550 OA
ENDBRANCH  11  12
ENDBRANCH  10  11
ENDBRANCH   9  10
ENDBRANCH   8   9
ENDBRANCH   1   8
TORSDOF 9
ENDMDL
MODEL 9
REMARK VINA RESULT:    -3.496      1.737      5.352
REMARK INTER + INTRA:          -6.206
REMARK INTER:                  -5.557
REMARK INTRA:                  -0.650
REMARK UNBOUND:                -0.872
REMARK SMILES O=C([O-])CCCCCCCCC(=O)[O-]
REMARK SMILES IDX 7 1 6 2 5 3 4 4 2 5 1 6 3 7 8 8 9 9 10 10 11 11 12 12 13 13
REMARK SMILES IDX 14 14
REMARK H PARENT
REMARK Flexibility Score: inf
ROOT
ATOM      1  C   UNL     1      21.657  36.351  37.806  1.00  0.00     0.000 C 
ENDROOT
BRANCH   1   2
ATOM      2  C   UNL     1      22.857  36.696  38.696  1.00  0.00     0.000 C 
BRANCH   2   3
ATOM      3  C   UNL     1      22.457  37.684  39.802  1.00  0.00     0.006 C 
BRANCH   3   4
ATOM      4  C   UNL     1      21.671  38.881  39.255  1.00  0.00     0.053 C 
BRANCH   4   5
ATOM      5  C   UNL     1      20.427  39.138  40.049  1.00  0.00     0.041 C 
ATOM      6  O   UNL     1      20.219  40.272  40.556  1.00  0.00    -0.550 OA
ATOM      7  O   UNL     1      19.480  38.132  40.202  1.00  0.00    -0.550 OA
ENDBRANCH   4   5
ENDBRANCH   3   4
ENDBRANCH   2   3
ENDBRANCH   1   2
BRANCH   1   8
ATOM      8  C   UNL     1      22.062  36.321  36.324  1.00  0.00     0.000 C 
BRANCH   8   9
ATOM      9  C   UNL     1      22.314  37.723  35.742  1.00  0.00     0.000 C 
BRANCH   9  10
ATOM     10  C   UNL     1      21.316  38.167  34.658  1.00  0.00     0.006 C 
BRANCH  10  11
ATOM     11  C   UNL     1      20.753  36.993  33.847  1.00  0.00     0.053 C 
BRANCH  11  12
ATOM     12  C   UNL     1      19.267  36.912  34.006  1.00  0.00     0.041 C 
ATOM     13  O   UNL     1      18.591  36.150  33.266  1.00  0.00    -0.550 OA
ATOM     14  O   UNL     1      18.623  37.716  34.938  1.00  0.00    -0.550 OA
ENDBRANCH  11  12
ENDBRANCH  10  11
ENDBRANCH   9  10
ENDBRANCH   8   9
ENDBRANCH   1   8
TORSDOF 9
ENDMDL
