MODEL 1
REMARK VINA RESULT:    -4.697      0.000      0.000
REMARK INTER + INTRA:          -7.508
REMARK INTER:                  -7.169
REMARK INTRA:                  -0.339
REMARK UNBOUND:                -0.339
REMARK SMILES CCCCCCCCCCC(=O)[O-]
REMARK SMILES IDX 7 1 8 2 9 3 10 4 11 5 12 6 13 7 6 8 5 9 4 10 3 11 2 12 1 13
REMARK H PARENT
REMARK Flexibility Score: inf
ROOT
ATOM      1  C   UNL     1       2.054  24.442  47.913  1.00  0.00     0.000 C 
ENDROOT
BRANCH   1   2
ATOM      2  C   UNL     1       1.600  24.086  49.338  1.00  0.00     0.000 C 
BRANCH   2   3
ATOM      3  C   UNL     1       2.676  23.326  50.129  1.00  0.00     0.006 C 
BRANCH   3   4
ATOM      4  C   UNL     1       2.055  22.183  50.937  1.00  0.00     0.053 C 
BRANCH   4   5
ATOM      5  C   UNL     1       1.016  22.711  51.876  1.00  0.00     0.041 C 
ATOM      6  O   UNL     1      -0.204  22.488  51.661  1.00  0.00    -0.550 OA
ATOM      7  O   UNL     1       1.393  23.489  52.963  1.00  0.00    -0.550 OA
ENDBRANCH   4   5
ENDBRANCH   3   4
ENDBRANCH   2   3
ENDBRANCH   1   2
BRANCH   1   8
ATOM      8  C   UNL     1       0.886  24.507  46.919  1.00  0.00     0.000 C 
BRANCH   8   9
ATOM      9  C   UNL     1       1.362  24.209  45.491  1.00  0.00    -0.000 C 
BRANCH   9  10
ATOM     10  C   UNL     1       2.306  22.998  45.468  1.00  0.00    -0.000 C 
BRANCH  10  11
ATOM     11  C   UNL     1       2.677  22.564  44.041  1.00  0.00    -0.000 C 
BRANCH  11  12
ATOM     12  C   UNL     1       1.694  21.536  43.462  1.00  0.00    -0.003 C 
ATOM     13  C   UNL     1       1.986  21.265  41.988  1.00  0.00     0.004 C 
ENDBRANCH  11  12
ENDBRANCH  10  11
ENDBRANCH   9  10
ENDBRANCH   8   9
ENDBRANCH   1   8
TORSDOF 9
ENDMDL
MODEL 2
REMARK VINA RESULT:    -4.635      1.222      1.886
REMARK INTER + INTRA:          -7.412
REMARK INTER:                  -6.974
REMARK INTRA:                  -0.438
REMARK UNBOUND:                -0.339
REMARK SMILES CCCCCCCCCCC(=O)[O-]
REMARK SMILES IDX 7 1 8 2 9 3 10 4 11 5 12 6 13 7 6 8 5 9 4 10 3 11 2 12 1 13
REMARK H PARENT
REMARK Flexibility Score: inf
ROOT
ATOM      1  C   UNL     1       2.131  24.386  49.471  1.00  0.00     0.000 C 
ENDROOT
BRANCH   1   2
ATOM      2  C   UNL     1       1.157  24.661  50.629  1.00  0.00     0.000 C 
BRANCH   2   3
ATOM      3  C   UNL     1       0.714  23.378  51.348  1.00  0.00     0.006 C 
BRANCH   3   4
ATOM      4  C   UNL     1       1.745  22.262  51.157  1.00  0.00     0.053 C 
BRANCH   4   5
ATOM      5  C   UNL     1       2.311  21.840  52.477  1.00  0.00     0.041 C 
ATOM      6  O   UNL     1       3.208  20.960  52.529  1.00  0.00    -0.550 OA
ATOM      7  O   UNL     1       1.812  22.387  53.653  1.00  0.00    -0.550 OA
ENDBRANCH   4   5
ENDBRANCH   3   4
ENDBRANCH   2   3
ENDBRANCH   1   2
BRANCH   1   8
ATOM      8  C   UNL     1       1.827  25.233  48.227  1.00  0.00     0.000 C 
BRANCH   8   9
ATOM      9  C   UNL     1       1.061  24.416  47.179  1.00  0.00    -0.000 C 
BRANCH   9  10
ATOM     10  C   UNL     1       1.883  24.267  45.890  1.00  0.00    -0.000 C 
BRANCH  10  11
ATOM     11  C   UNL     1       2.448  22.849  45.708  1.00  0.00    -0.000 C 
BRANCH  11  12
ATOM     12  C   UNL     1       2.860  22.558  44.258  1.00  0.00    -0.003 C 
ATOM     13  C   UNL     1       1.883  21.592  43.592  1.00  0.00     0.004 C 
ENDBRANCH  11  12
ENDBRANCH  10  11
ENDBRANCH   9  10
ENDBRANCH   8   9
ENDBRANCH   1   8
TORSDOF 9
ENDMDL
MODEL 3
REMARK VINA RESULT:    -4.631      1.198      1.831
REMARK INTER + INTRA:          -7.407
REMARK INTER:                  -6.948
REMARK INTRA:                  -0.459
REMARK UNBOUND:                -0.339
REMARK SMILES CCCCCCCCCCC(=O)[O-]
REMARK SMILES IDX 7 1 8 2 9 3 10 4 11 5 12 6 13 7 6 8 5 9 4 10 3 11 2 12 1 13
REMARK H PARENT
REMARK Flexibility Score: inf
ROOT
ATOM      1  C   UNL     1       1.889  24.808  46.542  1.00  0.00     0.000 C 
ENDROOT
BRANCH   1   2
ATOM      2  C   UNL     1       0.860  24.670  47.676  1.00  0.00     0.000 C 
BRANCH   2   3
ATOM      3  C   UNL     1       1.500  24.758  49.069  1.00  0.00     0.006 C 
BRANCH   3   4
ATOM      4  C   UNL     1       2.406  23.551  49.332  1.00  0.00     0.053 C 
BRANCH   4   5
ATOM      5  C   UNL     1       2.046  22.899  50.629  1.00  0.00     0.041 C 
ATOM      6  O   UNL     1       1.361  23.521  51.482  1.00  0.00    -0.550 OA
ATOM      7  O   UNL     1       2.508  21.620  50.917  1.00  0.00    -0.550 OA
ENDBRANCH   4   5
ENDBRANCH   3   4
ENDBRANCH   2   3
ENDBRANCH   1   2
BRANCH   1   8
ATOM      8  C   UNL     1       1.595  23.876  45.358  1.00  0.00     0.000 C 
BRANCH   8   9
ATOM      9  C   UNL     1       2.549  22.675  45.352  1.00  0.00    -0.000 C 
BRANCH   9  10
ATOM     10  C   UNL     1       3.566  22.786  44.207  1.00  0.00    -0.000 C 
BRANCH  10  11
ATOM     11  C   UNL     1       2.902  22.758  42.821  1.00  0.00    -0.000 C 
BRANCH  11  12
ATOM     12  C   UNL     1       2.071  21.487  42.590  1.00  0.00    -0.003 C 
ATOM     13  C   UNL     1       2.255  20.961  41.168  1.00  0.00     0.004 C 
ENDBRANCH  11  12
ENDBRANCH  10  11
ENDBRANCH   9  10
ENDBRANCH   8   9
ENDBRANCH   1   8
TORSDOF 9
ENDMDL
MODEL 4
REMARK VINA RESULT:    -4.614      1.823      2.165
REMARK INTER + INTRA:          -7.380
REMARK INTER:                  -6.866
REMARK INTRA:                  -0.514
REMARK UNBOUND:                -0.339
REMARK SMILES CCCCCCCCCCC(=O)[O-]
REMARK SMILES IDX 7 1 8 2 9 3 10 4 11 5 12 6 13 7 6 8 5 9 4 10 3 11 2 12 1 13
REMARK H PARENT
REMARK Flexibility Score: inf
ROOT
ATOM      1  C   UNL     1       1.524  24.507  49.089  1.00  0.00     0.000 C 
ENDROOT
BRANCH   1   2
ATOM      2  C   UNL     1       2.486  24.180  50.243  1.00  0.00     0.000 C 
BRANCH   2   3
ATOM      3  C   UNL     1       3.095  22.774  50.126  1.00  0.00     0.006 C 
BRANCH   3   4
ATOM      4  C   UNL     1       2.344  21.779  51.015  1.00  0.00     0.053 C 
BRANCH   4   5
ATOM      5  C   UNL     1       3.208  21.338  52.154  1.00  0.00     0.041 C 
ATOM      6  O   UNL     1       3.462  20.117  52.322  1.00  0.00    -0.550 OA
ATOM      7  O   UNL     1       3.695  22.273  53.059  1.00  0.00    -0.550 OA
ENDBRANCH   4   5
ENDBRANCH   3   4
ENDBRANCH   2   3
ENDBRANCH   1   2
BRANCH   1   8
ATOM      8  C   UNL     1       1.993  23.932  47.745  1.00  0.00     0.000 C 
BRANCH   8   9
ATOM      9  C   UNL     1       1.153  24.486  46.588  1.00  0.00    -0.000 C 
BRANCH   9  10
ATOM     10  C   UNL     1       1.433  23.716  45.288  1.00  0.00    -0.000 C 
BRANCH  10  11
ATOM     11  C   UNL     1       2.615  22.742  45.419  1.00  0.00    -0.000 C 
BRANCH  11  12
ATOM     12  C   UNL     1       3.444  22.642  44.131  1.00  0.00    -0.003 C 
ATOM     13  C   UNL     1       3.603  24.010  43.472  1.00  0.00     0.004 C 
ENDBRANCH  11  12
ENDBRANCH  10  11
ENDBRANCH   9  10
ENDBRANCH   8   9
ENDBRANCH   1   8
TORSDOF 9
ENDMDL
MODEL 5
REMARK VINA RESULT:    -4.605      3.781      6.892
REMARK INTER + INTRA:          -7.367
REMARK INTER:                  -6.848
REMARK INTRA:                  -0.519
REMARK UNBOUND:                -0.339
REMARK SMILES CCCCCCCCCCC(=O)[O-]
REMARK SMILES IDX 7 1 8 2 9 3 10 4 11 5 12 6 13 7 6 8 5 9 4 10 3 11 2 12 1 13
REMARK H PARENT
REMARK Flexibility Score: inf
ROOT
ATOM      1  C   UNL     1       0.962  24.474  46.592  1.00  0.00     0.000 C 
ENDROOT
BRANCH   1   2
ATOM      2  C   UNL     1       1.653  24.149  45.257  1.00  0.00     0.000 C 
BRANCH   2   3
ATOM      3  C   UNL     1       2.427  22.823  45.299  1.00  0.00     0.006 C 
BRANCH   3   4
ATOM      4  C   UNL     1       3.258  22.635  44.026  1.00  0.00     0.053 C 
BRANCH   4   5
ATOM      5  C   UNL     1       2.433  21.996  42.953  1.00  0.00     0.041 C 
ATOM      6  O   UNL     1       2.624  22.294  41.745  1.00  0.00    -0.550 OA
ATOM      7  O   UNL     1       1.422  21.104  43.291  1.00  0.00    -0.550 OA
ENDBRANCH   4   5
ENDBRANCH   3   4
ENDBRANCH   2   3
ENDBRANCH   1   2
BRANCH   1   8
ATOM      8  C   UNL     1       1.732  23.932  47.805  1.00  0.00     0.000 C 
BRANCH   8   9
ATOM      9  C   UNL     1       1.695  24.929  48.969  1.00  0.00    -0.000 C 
BRANCH   9  10
ATOM     10  C   UNL     1       2.248  24.294  50.254  1.00  0.00    -0.000 C 
BRANCH  10  11
ATOM     11  C   UNL     1       2.733  22.852  50.040  1.00  0.00    -0.000 C 
BRANCH  11  12
ATOM     12  C   UNL     1       2.512  21.964  51.274  1.00  0.00    -0.003 C 
ATOM     13  C   UNL     1       1.148  22.230  51.905  1.00  0.00     0.004 C 
ENDBRANCH  11  12
ENDBRANCH  10  11
ENDBRANCH   9  10
ENDBRANCH   8   9
ENDBRANCH   1   8
TORSDOF 9
ENDMDL
MODEL 6
REMARK VINA RESULT:    -4.416      3.783      6.711
REMARK INTER + INTRA:          -7.078
REMARK INTER:                  -6.543
REMARK INTRA:                  -0.535
REMARK UNBOUND:                -0.339
REMARK SMILES CCCCCCCCCCC(=O)[O-]
REMARK SMILES IDX 7 1 8 2 9 3 10 4 11 5 12 6 13 7 6 8 5 9 4 10 3 11 2 12 1 13
REMARK H PARENT
REMARK Flexibility Score: inf
ROOT
ATOM      1  C   UNL     1       1.989  24.885  48.426  1.00  0.00     0.000 C 
ENDROOT
BRANCH   1   2
ATOM      2  C   UNL     1       1.151  24.326  47.264  1.00  0.00     0.000 C 
BRANCH   2   3
ATOM      3  C   UNL     1       1.928  24.286  45.940  1.00  0.00     0.006 C 
BRANCH   3   4
ATOM      4  C   UNL     1       2.430  22.869  45.644  1.00  0.00     0.053 C 
BRANCH   4   5
ATOM      5  C   UNL     1       2.823  22.743  44.205  1.00  0.00     0.041 C 
ATOM      6  O   UNL     1       2.326  21.835  43.490  1.00  0.00    -0.550 OA
ATOM      7  O   UNL     1       3.774  23.601  43.667  1.00  0.00    -0.550 OA
ENDBRANCH   4   5
ENDBRANCH   3   4
ENDBRANCH   2   3
ENDBRANCH   1   2
BRANCH   1   8
ATOM      8  C   UNL     1       1.841  24.060  49.713  1.00  0.00     0.000 C 
BRANCH   8   9
ATOM      9  C   UNL     1       2.738  22.817  49.676  1.00  0.00    -0.000 C 
BRANCH   9  10
ATOM     10  C   UNL     1       2.909  22.219  51.080  1.00  0.00    -0.000 C 
BRANCH  10  11
ATOM     11  C   UNL     1       4.254  22.593  51.723  1.00  0.00    -0.000 C 
BRANCH  11  12
ATOM     12  C   UNL     1       5.317  22.983  50.685  1.00  0.00    -0.003 C 
ATOM     13  C   UNL     1       6.422  23.823  51.319  1.00  0.00     0.004 C 
ENDBRANCH  11  12
ENDBRANCH  10  11
ENDBRANCH   9  10
ENDBRANCH   8   9
ENDBRANCH   1   8
TORSDOF 9
ENDMDL
MODEL 7
REMARK VINA RESULT:    -4.301      1.479      2.093
REMARK INTER + INTRA:          -6.903
REMARK INTER:                  -6.395
REMARK INTRA:                  -0.508
REMARK UNBOUND:                -0.339
REMARK SMILES CCCCCCCCCCC(=O)[O-]
REMARK SMILES IDX 7 1 8 2 9 3 10 4 11 5 12 6 13 7 6 8 5 9 4 10 3 11 2 12 1 13
REMARK H PARENT
REMARK Flexibility Score: inf
ROOT
ATOM      1  C   UNL     1       1.579  24.925  47.576  1.00  0.00     0.000 C 
ENDROOT
BRANCH   1   2
ATOM      2  C   UNL     1       1.935  24.061  48.797  1.00  0.00     0.000 C 
BRANCH   2   3
ATOM      3  C   UNL     1       1.349  24.616  50.105  1.00  0.00     0.006 C 
BRANCH   3   4
ATOM      4  C   UNL     1       0.839  23.482  50.998  1.00  0.00     0.053 C 
BRANCH   4   5
ATOM      5  C   UNL     1       1.917  23.024  51.930  1.00  0.00     0.041 C 
ATOM      6  O   UNL     1       1.798  21.936  52.551  1.00  0.00    -0.550 OA
ATOM      7  O   UNL     1       3.031  23.824  52.150  1.00  0.00    -0.550 OA
ENDBRANCH   4   5
ENDBRANCH   3   4
ENDBRANCH   2   3
ENDBRANCH   1   2
BRANCH   1   8
ATOM      8  C   UNL     1       1.302  24.088  46.319  1.00  0.00     0.000 C 
BRANCH   8   9
ATOM      9  C   UNL     1       2.379  23.013  46.125  1.00  0.00    -0.000 C 
BRANCH   9  10
ATOM     10  C   UNL     1       2.378  22.488  44.682  1.00  0.00    -0.000 C 
BRANCH  10  11
ATOM     11  C   UNL     1       3.626  22.918  43.895  1.00  0.00    -0.000 C 
BRANCH  11  12
ATOM     12  C   UNL     1       3.397  24.194  43.073  1.00  0.00    -0.003 C 
ATOM     13  C   UNL     1       3.862  25.431  43.838  1.00  0.00     0.004 C 
ENDBRANCH  11  12
ENDBRANCH  10  11
ENDBRANCH   9  10
ENDBRANCH   8   9
ENDBRANCH   1   8
TORSDOF 9
ENDMDL
MODEL 8
REMARK VINA RESULT:    -4.253      5.824      8.919
REMARK INTER + INTRA:          -6.829
REMARK INTER:                  -5.915
REMARK INTRA:                  -0.914
REMARK UNBOUND:                -0.339
REMARK SMILES CCCCCCCCCCC(=O)[O-]
REMARK SMILES IDX 7 1 8 2 9 3 10 4 11 5 12 6 13 7 6 8 5 9 4 10 3 11 2 12 1 13
REMARK H PARENT
REMARK Flexibility Score: inf
ROOT
ATOM      1  C   UNL     1       0.168  25.558  53.823  1.00  0.00     0.000 C 
ENDROOT
BRANCH   1   2
ATOM      2  C   UNL     1       0.136  24.061  53.475  1.00  0.00     0.000 C 
BRANCH   2   3
ATOM      3  C   UNL     1       1.365  23.614  52.670  1.00  0.00     0.006 C 
BRANCH   3   4
ATOM      4  C   UNL     1       1.929  22.300  53.220  1.00  0.00     0.053 C 
BRANCH   4   5
ATOM      5  C   UNL     1       2.616  21.531  52.135  1.00  0.00     0.041 C 
ATOM      6  O   UNL     1       2.451  21.852  50.929  1.00  0.00    -0.550 OA
ATOM      7  O   UNL     1       3.402  20.430  52.453  1.00  0.00    -0.550 OA
ENDBRANCH   4   5
ENDBRANCH   3   4
ENDBRANCH   2   3
ENDBRANCH   1   2
BRANCH   1   8
ATOM      8  C   UNL     1      -1.045  26.000  54.654  1.00  0.00     0.000 C 
BRANCH   8   9
ATOM      9  C   UNL     1      -1.929  24.800  55.017  1.00  0.00    -0.000 C 
BRANCH   9  10
ATOM     10  C   UNL     1      -2.272  24.803  56.514  1.00  0.00    -0.000 C 
BRANCH  10  11
ATOM     11  C   UNL     1      -1.724  23.569  57.249  1.00  0.00    -0.000 C 
BRANCH  11  12
ATOM     12  C   UNL     1      -0.211  23.652  57.497  1.00  0.00    -0.003 C 
ATOM     13  C   UNL     1       0.529  22.538  56.762  1.00  0.00     0.004 C 
ENDBRANCH  11  12
ENDBRANCH  10  11
ENDBRANCH   9  10
ENDBRANCH   8   9
ENDBRANCH   1   8
TORSDOF 9
ENDMDL
MODEL 9
REMARK VINA RESULT:    -4.195      5.272      9.090
REMARK INTER + INTRA:          -6.741
REMARK INTER:                  -5.819
REMARK INTRA:                  -0.922
REMARK UNBOUND:                -0.339
REMARK SMILES CCCCCCCCCCC(=O)[O-]
REMARK SMILES IDX 7 1 8 2 9 3 10 4 11 5 12 6 13 7 6 8 5 9 4 10 3 11 2 12 1 13
REMARK H PARENT
REMARK Flexibility Score: inf
ROOT
ATOM      1  C   UNL     1       1.178  24.346  54.770  1.00  0.00     0.000 C 
ENDROOT
BRANCH   1   2
ATOM      2  C   UNL     1       0.150  24.163  53.642  1.00  0.00     0.000 C 
BRANCH   2   3
ATOM      3  C   UNL     1       0.805  24.042  52.258  1.00  0.00     0.006 C 
BRANCH   3   4
ATOM      4  C   UNL     1       0.698  22.610  51.727  1.00  0.00     0.053 C 
BRANCH   4   5
ATOM      5  C   UNL     1       2.058  22.054  51.444  1.00  0.00     0.041 C 
ATOM      6  O   UNL     1       2.615  22.273  50.337  1.00  0.00    -0.550 OA
ATOM      7  O   UNL     1       2.692  21.253  52.387  1.00  0.00    -0.550 OA
ENDBRANCH   4   5
ENDBRANCH   3   4
ENDBRANCH   2   3
ENDBRANCH   1   2
BRANCH   1   8
ATOM      8  C   UNL     1       1.727  23.012  55.295  1.00  0.00     0.000 C 
BRANCH   8   9
ATOM      9  C   UNL     1       0.823  22.439  56.393  1.00  0.00    -0.000 C 
BRANCH   9  10
ATOM     10  C   UNL     1       0.243  23.560  57.269  1.00  0.00    -0.000 C 
BRANCH  10  11
ATOM     11  C   UNL     1      -1.242  23.344  57.601  1.00  0.00    -0.000 C 
BRANCH  11  12
ATOM     12  C   UNL     1      -2.176  23.871  56.502  1.00  0.00    -0.003 C 
ATOM     13  C   UNL     1      -2.253  25.396  56.531  1.00  0.00     0.004 C 
ENDBRANCH  11  12
ENDBRANCH  10  11
ENDBRANCH   9  10
ENDBRANCH   8   9
ENDBRANCH   1   8
TORSDOF 9
ENDMDL
