MODEL 1
REMARK VINA RESULT:    -2.416      0.000      0.000
REMARK INTER + INTRA:          -2.416
REMARK INTER:                  -2.416
REMARK INTRA:                   0.000
REMARK UNBOUND:                 0.000
REMARK SMILES C=C1CCCC(C)(C)[C@]12CC=C(C)CC2
REMARK SMILES IDX 13 1 12 2 11 3 10 4 9 5 15 6 14 7 2 8 1 9 3 10 4 11 5 12
REMARK SMILES IDX 6 13 7 14 8 15
REMARK H PARENT
REMARK Flexibility Score: inf
ROOT
ATOM      1  C   UNL     1       2.268  10.150  12.016  1.00  0.00     0.039 C 
ATOM      2  C   UNL     1       3.540   9.422  12.350  1.00  0.00    -0.077 C 
ATOM      3  C   UNL     1       4.222   8.777  11.392  1.00  0.00    -0.027 C 
ATOM      4  C   UNL     1       5.493   8.049  11.746  1.00  0.00     0.039 C 
ATOM      5  C   UNL     1       5.374   7.172  13.054  1.00  0.00    -0.000 C 
ATOM      6  C   UNL     1       4.326   7.823  14.059  1.00  0.00     0.017 C 
ATOM      7  C   UNL     1       4.027   9.303  13.771  1.00  0.00     0.031 C 
ATOM      8  C   UNL     1       6.799   7.144  13.671  1.00  0.00    -0.070 C 
ATOM      9  C   UNL     1       7.216   8.032  14.600  1.00  0.00     0.008 C 
ATOM     10  C   UNL     1       7.868   6.313  12.988  1.00  0.00     0.031 C 
ATOM     11  C   UNL     1       7.392   4.891  12.732  1.00  0.00     0.005 C 
ATOM     12  C   UNL     1       6.066   4.888  11.971  1.00  0.00     0.008 C 
ATOM     13  C   UNL     1       4.936   5.663  12.718  1.00  0.00    -0.026 C 
ATOM     14  C   UNL     1       3.682   5.608  11.802  1.00  0.00     0.012 C 
ATOM     15  C   UNL     1       4.597   4.877  14.020  1.00  0.00     0.012 C 
ENDROOT
TORSDOF 0
ENDMDL
MODEL 2
REMARK VINA RESULT:    -1.999      0.918      3.018
REMARK INTER + INTRA:          -1.999
REMARK INTER:                  -1.999
REMARK INTRA:                   0.000
REMARK UNBOUND:                 0.000
REMARK SMILES C=C1CCCC(C)(C)[C@]12CC=C(C)CC2
REMARK SMILES IDX 13 1 12 2 11 3 10 4 9 5 15 6 14 7 2 8 1 9 3 10 4 11 5 12
REMARK SMILES IDX 6 13 7 14 8 15
REMARK H PARENT
REMARK Flexibility Score: inf
ROOT
ATOM      1  C   UNL     1       3.441  11.519  12.627  1.00  0.00     0.039 C 
ATOM      2  C   UNL     1       3.668  10.034  12.681  1.00  0.00    -0.077 C 
ATOM      3  C   UNL     1       3.799   9.411  13.860  1.00  0.00    -0.027 C 
ATOM      4  C   UNL     1       4.030   7.921  13.895  1.00  0.00     0.039 C 
ATOM      5  C   UNL     1       5.119   7.429  12.863  1.00  0.00    -0.000 C 
ATOM      6  C   UNL     1       5.135   8.377  11.585  1.00  0.00     0.017 C 
ATOM      7  C   UNL     1       3.862   9.223  11.424  1.00  0.00     0.031 C 
ATOM      8  C   UNL     1       4.711   5.980  12.481  1.00  0.00    -0.070 C 
ATOM      9  C   UNL     1       3.930   5.692  11.418  1.00  0.00     0.008 C 
ATOM     10  C   UNL     1       4.912   4.877  13.503  1.00  0.00     0.031 C 
ATOM     11  C   UNL     1       6.328   4.882  14.059  1.00  0.00     0.005 C 
ATOM     12  C   UNL     1       6.698   6.263  14.600  1.00  0.00     0.008 C 
ATOM     13  C   UNL     1       6.584   7.387  13.523  1.00  0.00    -0.026 C 
ATOM     14  C   UNL     1       6.942   8.720  14.236  1.00  0.00     0.012 C 
ATOM     15  C   UNL     1       7.676   7.128  12.443  1.00  0.00     0.012 C 
ENDROOT
TORSDOF 0
ENDMDL
