MODEL 1
REMARK VINA RESULT:    -4.757      0.000      0.000
REMARK INTER + INTRA:          -6.422
REMARK INTER:                  -6.147
REMARK INTRA:                  -0.275
REMARK UNBOUND:                -0.275
REMARK SMILES CCCCCCC(=O)[O-]
REMARK SMILES IDX 5 1 6 2 7 3 8 4 9 5 4 6 3 7 2 8 1 9
REMARK H PARENT
REMARK Flexibility Score: inf
ROOT
ATOM      1  C   UNL     1       3.102  14.974   3.093  1.00  0.00     0.006 C 
ENDROOT
BRANCH   1   2
ATOM      2  C   UNL     1       4.218  14.582   4.070  1.00  0.00     0.053 C 
BRANCH   2   3
ATOM      3  C   UNL     1       4.867  15.784   4.684  1.00  0.00     0.041 C 
ATOM      4  O   UNL     1       4.321  16.372   5.653  1.00  0.00    -0.550 OA
ATOM      5  O   UNL     1       6.092  16.232   4.208  1.00  0.00    -0.550 OA
ENDBRANCH   2   3
ENDBRANCH   1   2
BRANCH   1   6
ATOM      6  C   UNL     1       3.018  14.018   1.891  1.00  0.00     0.000 C 
BRANCH   6   7
ATOM      7  C   UNL     1       4.209  13.047   1.815  1.00  0.00    -0.000 C 
BRANCH   7   8
ATOM      8  C   UNL     1       5.196  13.324   0.666  1.00  0.00    -0.003 C 
ATOM      9  C   UNL     1       6.608  13.645   1.155  1.00  0.00     0.004 C 
ENDBRANCH   7   8
ENDBRANCH   6   7
ENDBRANCH   1   6
TORSDOF 5
ENDMDL
MODEL 2
REMARK VINA RESULT:    -4.629      1.687      2.859
REMARK INTER + INTRA:          -6.257
REMARK INTER:                  -5.967
REMARK INTRA:                  -0.290
REMARK UNBOUND:                -0.275
REMARK SMILES CCCCCCC(=O)[O-]
REMARK SMILES IDX 5 1 6 2 7 3 8 4 9 5 4 6 3 7 2 8 1 9
REMARK H PARENT
REMARK Flexibility Score: inf
ROOT
ATOM      1  C   UNL     1       6.204  14.455   0.892  1.00  0.00     0.006 C 
ENDROOT
BRANCH   1   2
ATOM      2  C   UNL     1       6.631  14.438   2.366  1.00  0.00     0.053 C 
BRANCH   2   3
ATOM      3  C   UNL     1       6.269  15.713   3.063  1.00  0.00     0.041 C 
ATOM      4  O   UNL     1       6.963  16.124   4.029  1.00  0.00    -0.550 OA
ATOM      5  O   UNL     1       5.188  16.465   2.623  1.00  0.00    -0.550 OA
ENDBRANCH   2   3
ENDBRANCH   1   2
BRANCH   1   6
ATOM      6  C   UNL     1       5.098  13.429   0.595  1.00  0.00     0.000 C 
BRANCH   6   7
ATOM      7  C   UNL     1       4.270  13.064   1.839  1.00  0.00    -0.000 C 
BRANCH   7   8
ATOM      8  C   UNL     1       2.881  13.726   1.907  1.00  0.00    -0.003 C 
ATOM      9  C   UNL     1       2.319  14.078   0.529  1.00  0.00     0.004 C 
ENDBRANCH   7   8
ENDBRANCH   6   7
ENDBRANCH   1   6
TORSDOF 5
ENDMDL
MODEL 3
REMARK VINA RESULT:    -4.615      2.611      3.814
REMARK INTER + INTRA:          -6.239
REMARK INTER:                  -5.901
REMARK INTRA:                  -0.338
REMARK UNBOUND:                -0.275
REMARK SMILES CCCCCCC(=O)[O-]
REMARK SMILES IDX 5 1 6 2 7 3 8 4 9 5 4 6 3 7 2 8 1 9
REMARK H PARENT
REMARK Flexibility Score: inf
ROOT
ATOM      1  C   UNL     1       5.322  13.201   1.048  1.00  0.00     0.006 C 
ENDROOT
BRANCH   1   2
ATOM      2  C   UNL     1       4.165  13.058   2.046  1.00  0.00     0.053 C 
BRANCH   2   3
ATOM      3  C   UNL     1       3.032  13.980   1.717  1.00  0.00     0.041 C 
ATOM      4  O   UNL     1       2.701  14.889   2.523  1.00  0.00    -0.550 OA
ATOM      5  O   UNL     1       2.363  13.858   0.506  1.00  0.00    -0.550 OA
ENDBRANCH   2   3
ENDBRANCH   1   2
BRANCH   1   6
ATOM      6  C   UNL     1       6.099  14.515   1.243  1.00  0.00     0.000 C 
BRANCH   6   7
ATOM      7  C   UNL     1       7.449  14.313   1.952  1.00  0.00    -0.000 C 
BRANCH   7   8
ATOM      8  C   UNL     1       7.569  15.004   3.322  1.00  0.00    -0.003 C 
ATOM      9  C   UNL     1       6.291  15.733   3.737  1.00  0.00     0.004 C 
ENDBRANCH   7   8
ENDBRANCH   6   7
ENDBRANCH   1   6
TORSDOF 5
ENDMDL
MODEL 4
REMARK VINA RESULT:    -4.536      1.918      3.237
REMARK INTER + INTRA:          -6.137
REMARK INTER:                  -5.979
REMARK INTRA:                  -0.157
REMARK UNBOUND:                -0.275
REMARK SMILES CCCCCCC(=O)[O-]
REMARK SMILES IDX 5 1 6 2 7 3 8 4 9 5 4 6 3 7 2 8 1 9
REMARK H PARENT
REMARK Flexibility Score: inf
ROOT
ATOM      1  C   UNL     1       6.304  13.697   1.422  1.00  0.00     0.006 C 
ENDROOT
BRANCH   1   2
ATOM      2  C   UNL     1       6.070  14.852   2.404  1.00  0.00     0.053 C 
BRANCH   2   3
ATOM      3  C   UNL     1       7.293  15.146   3.217  1.00  0.00     0.041 C 
ATOM      4  O   UNL     1       7.316  16.140   3.989  1.00  0.00    -0.550 OA
ATOM      5  O   UNL     1       8.395  14.303   3.147  1.00  0.00    -0.550 OA
ENDBRANCH   2   3
ENDBRANCH   1   2
BRANCH   1   6
ATOM      6  C   UNL     1       4.985  13.111   0.890  1.00  0.00     0.000 C 
BRANCH   6   7
ATOM      7  C   UNL     1       3.766  13.514   1.738  1.00  0.00    -0.000 C 
BRANCH   7   8
ATOM      8  C   UNL     1       2.518  13.908   0.927  1.00  0.00    -0.003 C 
ATOM      9  C   UNL     1       1.240  13.923   1.766  1.00  0.00     0.004 C 
ENDBRANCH   7   8
ENDBRANCH   6   7
ENDBRANCH   1   6
TORSDOF 5
ENDMDL
MODEL 5
REMARK VINA RESULT:    -4.530      2.262      3.724
REMARK INTER + INTRA:          -6.130
REMARK INTER:                  -5.741
REMARK INTRA:                  -0.389
REMARK UNBOUND:                -0.275
REMARK SMILES CCCCCCC(=O)[O-]
REMARK SMILES IDX 5 1 6 2 7 3 8 4 9 5 4 6 3 7 2 8 1 9
REMARK H PARENT
REMARK Flexibility Score: inf
ROOT
ATOM      1  C   UNL     1       4.330  13.091   1.880  1.00  0.00     0.006 C 
ENDROOT
BRANCH   1   2
ATOM      2  C   UNL     1       5.010  13.338   0.527  1.00  0.00     0.053 C 
BRANCH   2   3
ATOM      3  C   UNL     1       5.948  14.504   0.582  1.00  0.00     0.041 C 
ATOM      4  O   UNL     1       5.512  15.675   0.435  1.00  0.00    -0.550 OA
ATOM      5  O   UNL     1       7.300  14.299   0.830  1.00  0.00    -0.550 OA
ENDBRANCH   2   3
ENDBRANCH   1   2
BRANCH   1   6
ATOM      6  C   UNL     1       3.025  13.893   2.030  1.00  0.00     0.000 C 
BRANCH   6   7
ATOM      7  C   UNL     1       3.117  14.990   3.104  1.00  0.00    -0.000 C 
BRANCH   7   8
ATOM      8  C   UNL     1       4.225  14.777   4.152  1.00  0.00    -0.003 C 
ATOM      9  C   UNL     1       5.235  15.924   4.195  1.00  0.00     0.004 C 
ENDBRANCH   7   8
ENDBRANCH   6   7
ENDBRANCH   1   6
TORSDOF 5
ENDMDL
MODEL 6
REMARK VINA RESULT:    -4.487      1.309      2.404
REMARK INTER + INTRA:          -6.074
REMARK INTER:                  -5.732
REMARK INTRA:                  -0.342
REMARK UNBOUND:                -0.275
REMARK SMILES CCCCCCC(=O)[O-]
REMARK SMILES IDX 5 1 6 2 7 3 8 4 9 5 4 6 3 7 2 8 1 9
REMARK H PARENT
REMARK Flexibility Score: inf
ROOT
ATOM      1  C   UNL     1       5.952  14.898   3.287  1.00  0.00     0.006 C 
ENDROOT
BRANCH   1   2
ATOM      2  C   UNL     1       5.207  16.213   3.552  1.00  0.00     0.053 C 
BRANCH   2   3
ATOM      3  C   UNL     1       4.092  16.032   4.536  1.00  0.00     0.041 C 
ATOM      4  O   UNL     1       4.256  16.348   5.743  1.00  0.00    -0.550 OA
ATOM      5  O   UNL     1       2.861  15.547   4.112  1.00  0.00    -0.550 OA
ENDBRANCH   2   3
ENDBRANCH   1   2
BRANCH   1   6
ATOM      6  C   UNL     1       6.210  14.668   1.789  1.00  0.00     0.000 C 
BRANCH   6   7
ATOM      7  C   UNL     1       5.544  13.386   1.257  1.00  0.00    -0.000 C 
BRANCH   7   8
ATOM      8  C   UNL     1       4.159  13.083   1.857  1.00  0.00    -0.003 C 
ATOM      9  C   UNL     1       3.013  13.710   1.064  1.00  0.00     0.004 C 
ENDBRANCH   7   8
ENDBRANCH   6   7
ENDBRANCH   1   6
TORSDOF 5
ENDMDL
MODEL 7
REMARK VINA RESULT:    -4.478      2.347      3.989
REMARK INTER + INTRA:          -6.062
REMARK INTER:                  -5.851
REMARK INTRA:                  -0.211
REMARK UNBOUND:                -0.275
REMARK SMILES CCCCCCC(=O)[O-]
REMARK SMILES IDX 5 1 6 2 7 3 8 4 9 5 4 6 3 7 2 8 1 9
REMARK H PARENT
REMARK Flexibility Score: inf
ROOT
ATOM      1  C   UNL     1       6.096  14.256   0.650  1.00  0.00     0.006 C 
ENDROOT
BRANCH   1   2
ATOM      2  C   UNL     1       7.547  13.768   0.747  1.00  0.00     0.053 C 
BRANCH   2   3
ATOM      3  C   UNL     1       8.300  14.474   1.832  1.00  0.00     0.041 C 
ATOM      4  O   UNL     1       9.385  15.057   1.574  1.00  0.00    -0.550 OA
ATOM      5  O   UNL     1       7.784  14.518   3.121  1.00  0.00    -0.550 OA
ENDBRANCH   2   3
ENDBRANCH   1   2
BRANCH   1   6
ATOM      6  C   UNL     1       5.085  13.126   0.905  1.00  0.00     0.000 C 
BRANCH   6   7
ATOM      7  C   UNL     1       4.269  13.332   2.194  1.00  0.00    -0.000 C 
BRANCH   7   8
ATOM      8  C   UNL     1       2.985  14.163   2.020  1.00  0.00    -0.003 C 
ATOM      9  C   UNL     1       2.329  13.969   0.653  1.00  0.00     0.004 C 
ENDBRANCH   7   8
ENDBRANCH   6   7
ENDBRANCH   1   6
TORSDOF 5
ENDMDL
MODEL 8
REMARK VINA RESULT:    -4.468      2.715      3.829
REMARK INTER + INTRA:          -6.050
REMARK INTER:                  -5.866
REMARK INTRA:                  -0.183
REMARK UNBOUND:                -0.275
REMARK SMILES CCCCCCC(=O)[O-]
REMARK SMILES IDX 5 1 6 2 7 3 8 4 9 5 4 6 3 7 2 8 1 9
REMARK H PARENT
REMARK Flexibility Score: inf
ROOT
ATOM      1  C   UNL     1       5.132  13.520   0.543  1.00  0.00     0.006 C 
ENDROOT
BRANCH   1   2
ATOM      2  C   UNL     1       4.169  13.127   1.672  1.00  0.00     0.053 C 
BRANCH   2   3
ATOM      3  C   UNL     1       2.922  13.956   1.653  1.00  0.00     0.041 C 
ATOM      4  O   UNL     1       2.677  14.751   2.597  1.00  0.00    -0.550 OA
ATOM      5  O   UNL     1       2.050  13.878   0.575  1.00  0.00    -0.550 OA
ENDBRANCH   2   3
ENDBRANCH   1   2
BRANCH   1   6
ATOM      6  C   UNL     1       6.577  13.684   1.042  1.00  0.00     0.000 C 
BRANCH   6   7
ATOM      7  C   UNL     1       6.686  14.607   2.269  1.00  0.00    -0.000 C 
BRANCH   7   8
ATOM      8  C   UNL     1       8.061  14.602   2.960  1.00  0.00    -0.003 C 
ATOM      9  C   UNL     1       9.213  14.309   1.999  1.00  0.00     0.004 C 
ENDBRANCH   7   8
ENDBRANCH   6   7
ENDBRANCH   1   6
TORSDOF 5
ENDMDL
MODEL 9
REMARK VINA RESULT:    -4.422      3.038      3.765
REMARK INTER + INTRA:          -5.990
REMARK INTER:                  -5.815
REMARK INTRA:                  -0.174
REMARK UNBOUND:                -0.275
REMARK SMILES CCCCCCC(=O)[O-]
REMARK SMILES IDX 5 1 6 2 7 3 8 4 9 5 4 6 3 7 2 8 1 9
REMARK H PARENT
REMARK Flexibility Score: inf
ROOT
ATOM      1  C   UNL     1       2.946  14.621   2.272  1.00  0.00     0.006 C 
ENDROOT
BRANCH   1   2
ATOM      2  C   UNL     1       1.828  13.850   1.558  1.00  0.00     0.053 C 
BRANCH   2   3
ATOM      3  C   UNL     1       0.510  14.015   2.250  1.00  0.00     0.041 C 
ATOM      4  O   UNL     1       0.404  14.794   3.233  1.00  0.00    -0.550 OA
ATOM      5  O   UNL     1      -0.609  13.335   1.787  1.00  0.00    -0.550 OA
ENDBRANCH   2   3
ENDBRANCH   1   2
BRANCH   1   6
ATOM      6  C   UNL     1       4.196  13.755   2.499  1.00  0.00     0.000 C 
BRANCH   6   7
ATOM      7  C   UNL     1       4.674  13.046   1.220  1.00  0.00    -0.000 C 
BRANCH   7   8
ATOM      8  C   UNL     1       5.736  13.816   0.414  1.00  0.00    -0.003 C 
ATOM      9  C   UNL     1       7.096  13.863   1.110  1.00  0.00     0.004 C 
ENDBRANCH   7   8
ENDBRANCH   6   7
ENDBRANCH   1   6
TORSDOF 5
ENDMDL
