MODEL 1
REMARK VINA RESULT:    -6.351      0.000      0.000
REMARK INTER + INTRA:          -7.728
REMARK INTER:                  -7.465
REMARK INTRA:                  -0.263
REMARK UNBOUND:                -0.263
REMARK SMILES O=c1cc(-c2ccc(O)c(O)c2)oc2cc(O)cc(O)c12
REMARK SMILES IDX 4 1 3 2 2 3 1 4 21 5 19 6 18 7 16 8 15 9 14 10 13 11 5 12
REMARK SMILES IDX 6 13 7 14 8 15 12 16 10 17 9 18 11 20 20 22 17 24
REMARK H PARENT 9 19 11 21 20 23 17 25
REMARK Flexibility Score: inf
ROOT
ATOM      1  C   UNL     1      14.341  56.191  32.743  1.00  0.00     0.138 A 
ATOM      2  C   UNL     1      14.082  56.057  31.372  1.00  0.00     0.100 A 
ATOM      3  C   UNL     1      14.528  57.039  30.486  1.00  0.00     0.197 A 
ATOM      4  O   UNL     1      14.226  56.923  29.270  1.00  0.00    -0.289 OA
ATOM      5  C   UNL     1      15.265  58.145  30.974  1.00  0.00     0.107 A 
ATOM      6  C   UNL     1      15.805  59.184  30.160  1.00  0.00     0.134 A 
ATOM      7  C   UNL     1      16.417  60.289  30.766  1.00  0.00     0.093 A 
ATOM      8  C   UNL     1      16.562  60.360  32.154  1.00  0.00     0.123 A 
ATOM      9  C   UNL     1      16.086  59.324  32.954  1.00  0.00     0.094 A 
ATOM     10  C   UNL     1      15.440  58.227  32.381  1.00  0.00     0.146 A 
ATOM     11  O   UNL     1      14.988  57.266  33.181  1.00  0.00    -0.456 OA
ENDROOT
BRANCH   1  12
ATOM     12  C   UNL     1      13.890  55.177  33.729  1.00  0.00     0.021 A 
ATOM     13  C   UNL     1      12.793  55.460  34.561  1.00  0.00     0.016 A 
ATOM     14  C   UNL     1      12.354  54.525  35.501  1.00  0.00     0.051 A 
ATOM     15  C   UNL     1      13.008  53.298  35.637  1.00  0.00     0.157 A 
ATOM     16  C   UNL     1      14.555  53.944  33.878  1.00  0.00     0.062 A 
ATOM     17  C   UNL     1      14.116  53.005  34.825  1.00  0.00     0.158 A 
BRANCH  15  18
ATOM     18  O   UNL     1      12.545  52.385  36.584  1.00  0.00    -0.504 OA
ATOM     19  H   UNL     1      12.308  52.663  37.529  1.00  0.00     0.293 HD
ENDBRANCH  15  18
BRANCH  17  20
ATOM     20  O   UNL     1      14.780  51.788  34.964  1.00  0.00    -0.504 OA
ATOM     21  H   UNL     1      14.274  50.917  35.082  1.00  0.00     0.293 HD
ENDBRANCH  17  20
ENDBRANCH   1  12
BRANCH   6  22
ATOM     22  O   UNL     1      15.790  59.169  28.762  1.00  0.00    -0.507 OA
ATOM     23  H   UNL     1      14.983  58.955  28.197  1.00  0.00     0.293 HD
ENDBRANCH   6  22
BRANCH   8  24
ATOM     24  O   UNL     1      17.187  61.455  32.747  1.00  0.00    -0.508 OA
ATOM     25  H   UNL     1      18.184  61.464  32.929  1.00  0.00     0.293 HD
ENDBRANCH   8  24
TORSDOF 5
ENDMDL
MODEL 2
REMARK VINA RESULT:    -6.321      0.757      1.418
REMARK INTER + INTRA:          -7.693
REMARK INTER:                  -7.428
REMARK INTRA:                  -0.265
REMARK UNBOUND:                -0.263
REMARK SMILES O=c1cc(-c2ccc(O)c(O)c2)oc2cc(O)cc(O)c12
REMARK SMILES IDX 4 1 3 2 2 3 1 4 21 5 19 6 18 7 16 8 15 9 14 10 13 11 5 12
REMARK SMILES IDX 6 13 7 14 8 15 12 16 10 17 9 18 11 20 20 22 17 24
REMARK H PARENT 9 19 11 21 20 23 17 25
REMARK Flexibility Score: inf
ROOT
ATOM      1  C   UNL     1      14.289  56.357  32.728  1.00  0.00     0.138 A 
ATOM      2  C   UNL     1      14.064  56.204  31.353  1.00  0.00     0.100 A 
ATOM      3  C   UNL     1      14.539  57.170  30.465  1.00  0.00     0.197 A 
ATOM      4  O   UNL     1      14.268  57.037  29.243  1.00  0.00    -0.289 OA
ATOM      5  C   UNL     1      15.270  58.279  30.955  1.00  0.00     0.107 A 
ATOM      6  C   UNL     1      15.837  59.302  30.140  1.00  0.00     0.134 A 
ATOM      7  C   UNL     1      16.439  60.413  30.745  1.00  0.00     0.093 A 
ATOM      8  C   UNL     1      16.549  60.504  32.136  1.00  0.00     0.123 A 
ATOM      9  C   UNL     1      16.046  59.483  32.938  1.00  0.00     0.094 A 
ATOM     10  C   UNL     1      15.409  58.381  32.365  1.00  0.00     0.146 A 
ATOM     11  O   UNL     1      14.931  57.435  33.167  1.00  0.00    -0.456 OA
ENDROOT
BRANCH   1  12
ATOM     12  C   UNL     1      13.806  55.360  33.718  1.00  0.00     0.021 A 
ATOM     13  C   UNL     1      14.738  54.648  34.492  1.00  0.00     0.016 A 
ATOM     14  C   UNL     1      14.309  53.700  35.424  1.00  0.00     0.051 A 
ATOM     15  C   UNL     1      12.947  53.437  35.591  1.00  0.00     0.157 A 
ATOM     16  C   UNL     1      12.435  55.083  33.879  1.00  0.00     0.062 A 
ATOM     17  C   UNL     1      12.004  54.128  34.814  1.00  0.00     0.158 A 
BRANCH  15  18
ATOM     18  O   UNL     1      12.551  52.486  36.531  1.00  0.00    -0.504 OA
ATOM     19  H   UNL     1      13.221  51.927  37.046  1.00  0.00     0.293 HD
ENDBRANCH  15  18
BRANCH  17  20
ATOM     20  O   UNL     1      10.644  53.862  34.967  1.00  0.00    -0.504 OA
ATOM     21  H   UNL     1      10.316  53.066  35.503  1.00  0.00     0.293 HD
ENDBRANCH  17  20
ENDBRANCH   1  12
BRANCH   6  22
ATOM     22  O   UNL     1      15.857  59.267  28.742  1.00  0.00    -0.507 OA
ATOM     23  H   UNL     1      15.178  58.792  28.168  1.00  0.00     0.293 HD
ENDBRANCH   6  22
BRANCH   8  24
ATOM     24  O   UNL     1      17.164  61.605  32.728  1.00  0.00    -0.508 OA
ATOM     25  H   UNL     1      17.056  61.806  33.715  1.00  0.00     0.293 HD
ENDBRANCH   8  24
TORSDOF 5
ENDMDL
MODEL 3
REMARK VINA RESULT:    -5.882      1.623      7.080
REMARK INTER + INTRA:          -7.177
REMARK INTER:                  -6.912
REMARK INTRA:                  -0.264
REMARK UNBOUND:                -0.263
REMARK SMILES O=c1cc(-c2ccc(O)c(O)c2)oc2cc(O)cc(O)c12
REMARK SMILES IDX 4 1 3 2 2 3 1 4 21 5 19 6 18 7 16 8 15 9 14 10 13 11 5 12
REMARK SMILES IDX 6 13 7 14 8 15 12 16 10 17 9 18 11 20 20 22 17 24
REMARK H PARENT 9 19 11 21 20 23 17 25
REMARK Flexibility Score: inf
ROOT
ATOM      1  C   UNL     1      14.785  57.348  32.797  1.00  0.00     0.138 A 
ATOM      2  C   UNL     1      13.419  57.314  33.105  1.00  0.00     0.100 A 
ATOM      3  C   UNL     1      12.841  56.124  33.550  1.00  0.00     0.197 A 
ATOM      4  O   UNL     1      11.600  56.108  33.759  1.00  0.00    -0.289 OA
ATOM      5  C   UNL     1      13.644  54.971  33.716  1.00  0.00     0.107 A 
ATOM      6  C   UNL     1      13.172  53.715  34.202  1.00  0.00     0.134 A 
ATOM      7  C   UNL     1      14.035  52.611  34.214  1.00  0.00     0.093 A 
ATOM      8  C   UNL     1      15.369  52.734  33.815  1.00  0.00     0.123 A 
ATOM      9  C   UNL     1      15.852  53.969  33.391  1.00  0.00     0.094 A 
ATOM     10  C   UNL     1      15.008  55.080  33.334  1.00  0.00     0.146 A 
ATOM     11  O   UNL     1      15.506  56.237  32.909  1.00  0.00    -0.456 OA
ENDROOT
BRANCH   1  12
ATOM     12  C   UNL     1      15.452  58.587  32.320  1.00  0.00     0.021 A 
ATOM     13  C   UNL     1      16.364  59.248  33.159  1.00  0.00     0.016 A 
ATOM     14  C   UNL     1      16.998  60.418  32.737  1.00  0.00     0.051 A 
ATOM     15  C   UNL     1      16.725  60.956  31.476  1.00  0.00     0.157 A 
ATOM     16  C   UNL     1      15.168  59.138  31.055  1.00  0.00     0.062 A 
ATOM     17  C   UNL     1      15.803  60.316  30.631  1.00  0.00     0.158 A 
BRANCH  15  18
ATOM     18  O   UNL     1      17.375  62.125  31.082  1.00  0.00    -0.504 OA
ATOM     19  H   UNL     1      17.003  63.044  31.291  1.00  0.00     0.293 HD
ENDBRANCH  15  18
BRANCH  17  20
ATOM     20  O   UNL     1      15.517  60.854  29.377  1.00  0.00    -0.504 OA
ATOM     21  H   UNL     1      16.253  61.155  28.748  1.00  0.00     0.293 HD
ENDBRANCH  17  20
ENDBRANCH   1  12
BRANCH   6  22
ATOM     22  O   UNL     1      11.884  53.506  34.703  1.00  0.00    -0.507 OA
ATOM     23  H   UNL     1      11.309  52.704  34.497  1.00  0.00     0.293 HD
ENDBRANCH   6  22
BRANCH   8  24
ATOM     24  O   UNL     1      16.223  51.634  33.846  1.00  0.00    -0.508 OA
ATOM     25  H   UNL     1      16.120  50.864  33.196  1.00  0.00     0.293 HD
ENDBRANCH   8  24
TORSDOF 5
ENDMDL
MODEL 4
REMARK VINA RESULT:    -5.879      1.822      2.403
REMARK INTER + INTRA:          -7.173
REMARK INTER:                  -6.898
REMARK INTRA:                  -0.275
REMARK UNBOUND:                -0.263
REMARK SMILES O=c1cc(-c2ccc(O)c(O)c2)oc2cc(O)cc(O)c12
REMARK SMILES IDX 4 1 3 2 2 3 1 4 21 5 19 6 18 7 16 8 15 9 14 10 13 11 5 12
REMARK SMILES IDX 6 13 7 14 8 15 12 16 10 17 9 18 11 20 20 22 17 24
REMARK H PARENT 9 19 11 21 20 23 17 25
REMARK Flexibility Score: inf
ROOT
ATOM      1  C   UNL     1      14.355  56.257  33.288  1.00  0.00     0.138 A 
ATOM      2  C   UNL     1      13.078  56.768  33.019  1.00  0.00     0.100 A 
ATOM      3  C   UNL     1      12.939  58.092  32.601  1.00  0.00     0.197 A 
ATOM      4  O   UNL     1      11.776  58.541  32.428  1.00  0.00    -0.289 OA
ATOM      5  C   UNL     1      14.088  58.898  32.423  1.00  0.00     0.107 A 
ATOM      6  C   UNL     1      14.070  60.248  31.961  1.00  0.00     0.134 A 
ATOM      7  C   UNL     1      15.261  60.985  31.934  1.00  0.00     0.093 A 
ATOM      8  C   UNL     1      16.479  60.400  32.294  1.00  0.00     0.123 A 
ATOM      9  C   UNL     1      16.514  59.066  32.693  1.00  0.00     0.094 A 
ATOM     10  C   UNL     1      15.338  58.316  32.765  1.00  0.00     0.146 A 
ATOM     11  O   UNL     1      15.414  57.051  33.165  1.00  0.00    -0.456 OA
ENDROOT
BRANCH   1  12
ATOM     12  C   UNL     1      14.561  54.855  33.735  1.00  0.00     0.021 A 
ATOM     13  C   UNL     1      15.543  54.068  33.110  1.00  0.00     0.016 A 
ATOM     14  C   UNL     1      15.751  52.745  33.508  1.00  0.00     0.051 A 
ATOM     15  C   UNL     1      14.976  52.181  34.524  1.00  0.00     0.157 A 
ATOM     16  C   UNL     1      13.773  54.280  34.751  1.00  0.00     0.062 A 
ATOM     17  C   UNL     1      13.980  52.950  35.148  1.00  0.00     0.158 A 
BRANCH  15  18
ATOM     18  O   UNL     1      15.209  50.859  34.900  1.00  0.00    -0.504 OA
ATOM     19  H   UNL     1      15.900  50.281  34.435  1.00  0.00     0.293 HD
ENDBRANCH  15  18
BRANCH  17  20
ATOM     20  O   UNL     1      13.196  52.390  36.156  1.00  0.00    -0.504 OA
ATOM     21  H   UNL     1      12.608  51.583  35.984  1.00  0.00     0.293 HD
ENDBRANCH  17  20
ENDBRANCH   1  12
BRANCH   6  22
ATOM     22  O   UNL     1      12.923  60.901  31.499  1.00  0.00    -0.507 OA
ATOM     23  H   UNL     1      12.131  61.149  32.071  1.00  0.00     0.293 HD
ENDBRANCH   6  22
BRANCH   8  24
ATOM     24  O   UNL     1      17.661  61.136  32.248  1.00  0.00    -0.508 OA
ATOM     25  H   UNL     1      17.884  61.733  31.461  1.00  0.00     0.293 HD
ENDBRANCH   8  24
TORSDOF 5
ENDMDL
MODEL 5
REMARK VINA RESULT:    -5.861      1.854      6.822
REMARK INTER + INTRA:          -7.152
REMARK INTER:                  -6.861
REMARK INTRA:                  -0.290
REMARK UNBOUND:                -0.263
REMARK SMILES O=c1cc(-c2ccc(O)c(O)c2)oc2cc(O)cc(O)c12
REMARK SMILES IDX 4 1 3 2 2 3 1 4 21 5 19 6 18 7 16 8 15 9 14 10 13 11 5 12
REMARK SMILES IDX 6 13 7 14 8 15 12 16 10 17 9 18 11 20 20 22 17 24
REMARK H PARENT 9 19 11 21 20 23 17 25
REMARK Flexibility Score: inf
ROOT
ATOM      1  C   UNL     1      15.728  56.615  31.796  1.00  0.00     0.138 A 
ATOM      2  C   UNL     1      15.703  55.984  30.545  1.00  0.00     0.100 A 
ATOM      3  C   UNL     1      15.383  54.628  30.462  1.00  0.00     0.197 A 
ATOM      4  O   UNL     1      15.430  54.075  29.332  1.00  0.00    -0.289 OA
ATOM      5  C   UNL     1      15.057  53.909  31.636  1.00  0.00     0.107 A 
ATOM      6  C   UNL     1      14.675  52.535  31.668  1.00  0.00     0.134 A 
ATOM      7  C   UNL     1      14.488  51.898  32.902  1.00  0.00     0.093 A 
ATOM      8  C   UNL     1      14.609  52.604  34.102  1.00  0.00     0.123 A 
ATOM      9  C   UNL     1      14.927  53.959  34.079  1.00  0.00     0.094 A 
ATOM     10  C   UNL     1      15.155  54.613  32.866  1.00  0.00     0.146 A 
ATOM     11  O   UNL     1      15.471  55.904  32.889  1.00  0.00    -0.456 OA
ENDROOT
BRANCH   1  12
ATOM     12  C   UNL     1      16.061  58.055  31.942  1.00  0.00     0.021 A 
ATOM     13  C   UNL     1      16.591  58.523  33.157  1.00  0.00     0.016 A 
ATOM     14  C   UNL     1      16.905  59.873  33.321  1.00  0.00     0.051 A 
ATOM     15  C   UNL     1      16.686  60.782  32.283  1.00  0.00     0.157 A 
ATOM     16  C   UNL     1      15.830  58.976  30.902  1.00  0.00     0.062 A 
ATOM     17  C   UNL     1      16.144  60.334  31.067  1.00  0.00     0.158 A 
BRANCH  15  18
ATOM     18  O   UNL     1      17.012  62.124  32.476  1.00  0.00    -0.504 OA
ATOM     19  H   UNL     1      17.916  62.412  32.833  1.00  0.00     0.293 HD
ENDBRANCH  15  18
BRANCH  17  20
ATOM     20  O   UNL     1      15.912  61.238  30.032  1.00  0.00    -0.504 OA
ATOM     21  H   UNL     1      15.811  62.231  30.206  1.00  0.00     0.293 HD
ENDBRANCH  17  20
ENDBRANCH   1  12
BRANCH   6  22
ATOM     22  O   UNL     1      14.445  51.761  30.526  1.00  0.00    -0.507 OA
ATOM     23  H   UNL     1      14.993  50.961  30.252  1.00  0.00     0.293 HD
ENDBRANCH   6  22
BRANCH   8  24
ATOM     24  O   UNL     1      14.405  51.966  35.324  1.00  0.00    -0.508 OA
ATOM     25  H   UNL     1      14.104  50.999  35.374  1.00  0.00     0.293 HD
ENDBRANCH   8  24
TORSDOF 5
ENDMDL
MODEL 6
REMARK VINA RESULT:    -5.542      2.284      6.894
REMARK INTER + INTRA:          -6.778
REMARK INTER:                  -6.509
REMARK INTRA:                  -0.268
REMARK UNBOUND:                -0.263
REMARK SMILES O=c1cc(-c2ccc(O)c(O)c2)oc2cc(O)cc(O)c12
REMARK SMILES IDX 4 1 3 2 2 3 1 4 21 5 19 6 18 7 16 8 15 9 14 10 13 11 5 12
REMARK SMILES IDX 6 13 7 14 8 15 12 16 10 17 9 18 11 20 20 22 17 24
REMARK H PARENT 9 19 11 21 20 23 17 25
REMARK Flexibility Score: inf
ROOT
ATOM      1  C   UNL     1      15.151  56.454  32.745  1.00  0.00     0.138 A 
ATOM      2  C   UNL     1      15.127  55.702  33.928  1.00  0.00     0.100 A 
ATOM      3  C   UNL     1      15.019  54.312  33.861  1.00  0.00     0.197 A 
ATOM      4  O   UNL     1      14.937  53.670  34.940  1.00  0.00    -0.289 OA
ATOM      5  C   UNL     1      14.967  53.671  32.600  1.00  0.00     0.107 A 
ATOM      6  C   UNL     1      14.899  52.259  32.409  1.00  0.00     0.134 A 
ATOM      7  C   UNL     1      14.734  51.744  31.117  1.00  0.00     0.093 A 
ATOM      8  C   UNL     1      14.697  52.588  30.004  1.00  0.00     0.123 A 
ATOM      9  C   UNL     1      14.818  53.965  30.176  1.00  0.00     0.094 A 
ATOM     10  C   UNL     1      14.947  54.511  31.455  1.00  0.00     0.146 A 
ATOM     11  O   UNL     1      15.046  55.831  31.576  1.00  0.00    -0.456 OA
ENDROOT
BRANCH   1  12
ATOM     12  C   UNL     1      15.264  57.934  32.759  1.00  0.00     0.021 A 
ATOM     13  C   UNL     1      16.481  58.531  33.130  1.00  0.00     0.016 A 
ATOM     14  C   UNL     1      16.611  59.922  33.157  1.00  0.00     0.051 A 
ATOM     15  C   UNL     1      15.528  60.740  32.827  1.00  0.00     0.157 A 
ATOM     16  C   UNL     1      14.170  58.762  32.440  1.00  0.00     0.062 A 
ATOM     17  C   UNL     1      14.300  60.160  32.470  1.00  0.00     0.158 A 
BRANCH  15  18
ATOM     18  O   UNL     1      15.689  62.125  32.862  1.00  0.00    -0.504 OA
ATOM     19  H   UNL     1      15.252  62.700  33.574  1.00  0.00     0.293 HD
ENDBRANCH  15  18
BRANCH  17  20
ATOM     20  O   UNL     1      13.212  60.971  32.151  1.00  0.00    -0.504 OA
ATOM     21  H   UNL     1      12.826  61.629  32.819  1.00  0.00     0.293 HD
ENDBRANCH  17  20
ENDBRANCH   1  12
BRANCH   6  22
ATOM     22  O   UNL     1      15.011  51.324  33.443  1.00  0.00    -0.507 OA
ATOM     23  H   UNL     1      15.877  51.047  33.878  1.00  0.00     0.293 HD
ENDBRANCH   6  22
BRANCH   8  24
ATOM     24  O   UNL     1      14.549  52.066  28.721  1.00  0.00    -0.508 OA
ATOM     25  H   UNL     1      13.635  51.903  28.317  1.00  0.00     0.293 HD
ENDBRANCH   8  24
TORSDOF 5
ENDMDL
MODEL 7
REMARK VINA RESULT:    -5.517      2.169      6.841
REMARK INTER + INTRA:          -6.748
REMARK INTER:                  -6.483
REMARK INTRA:                  -0.264
REMARK UNBOUND:                -0.263
REMARK SMILES O=c1cc(-c2ccc(O)c(O)c2)oc2cc(O)cc(O)c12
REMARK SMILES IDX 4 1 3 2 2 3 1 4 21 5 19 6 18 7 16 8 15 9 14 10 13 11 5 12
REMARK SMILES IDX 6 13 7 14 8 15 12 16 10 17 9 18 11 20 20 22 17 24
REMARK H PARENT 9 19 11 21 20 23 17 25
REMARK Flexibility Score: inf
ROOT
ATOM      1  C   UNL     1      15.124  56.432  32.675  1.00  0.00     0.138 A 
ATOM      2  C   UNL     1      15.115  55.691  33.864  1.00  0.00     0.100 A 
ATOM      3  C   UNL     1      15.025  54.299  33.809  1.00  0.00     0.197 A 
ATOM      4  O   UNL     1      14.956  53.665  34.894  1.00  0.00    -0.289 OA
ATOM      5  C   UNL     1      14.975  53.646  32.554  1.00  0.00     0.107 A 
ATOM      6  C   UNL     1      14.925  52.232  32.376  1.00  0.00     0.134 A 
ATOM      7  C   UNL     1      14.761  51.703  31.089  1.00  0.00     0.093 A 
ATOM      8  C   UNL     1      14.708  52.538  29.969  1.00  0.00     0.123 A 
ATOM      9  C   UNL     1      14.812  53.917  30.129  1.00  0.00     0.094 A 
ATOM     10  C   UNL     1      14.940  54.476  31.402  1.00  0.00     0.146 A 
ATOM     11  O   UNL     1      15.022  55.798  31.511  1.00  0.00    -0.456 OA
ENDROOT
BRANCH   1  12
ATOM     12  C   UNL     1      15.218  57.914  32.675  1.00  0.00     0.021 A 
ATOM     13  C   UNL     1      14.044  58.682  32.756  1.00  0.00     0.016 A 
ATOM     14  C   UNL     1      14.106  60.077  32.751  1.00  0.00     0.051 A 
ATOM     15  C   UNL     1      15.337  60.731  32.653  1.00  0.00     0.157 A 
ATOM     16  C   UNL     1      16.456  58.576  32.563  1.00  0.00     0.062 A 
ATOM     17  C   UNL     1      16.519  59.978  32.556  1.00  0.00     0.158 A 
BRANCH  15  18
ATOM     18  O   UNL     1      15.367  62.125  32.652  1.00  0.00    -0.504 OA
ATOM     19  H   UNL     1      15.152  62.668  33.481  1.00  0.00     0.293 HD
ENDBRANCH  15  18
BRANCH  17  20
ATOM     20  O   UNL     1      17.750  60.624  32.446  1.00  0.00    -0.504 OA
ATOM     21  H   UNL     1      18.351  60.761  33.250  1.00  0.00     0.293 HD
ENDBRANCH  17  20
ENDBRANCH   1  12
BRANCH   6  22
ATOM     22  O   UNL     1      15.054  51.308  33.417  1.00  0.00    -0.507 OA
ATOM     23  H   UNL     1      15.783  50.616  33.487  1.00  0.00     0.293 HD
ENDBRANCH   6  22
BRANCH   8  24
ATOM     24  O   UNL     1      14.561  52.002  28.691  1.00  0.00    -0.508 OA
ATOM     25  H   UNL     1      14.369  52.590  27.888  1.00  0.00     0.293 HD
ENDBRANCH   8  24
TORSDOF 5
ENDMDL
MODEL 8
REMARK VINA RESULT:    -5.459      5.849      9.861
REMARK INTER + INTRA:          -6.680
REMARK INTER:                  -6.414
REMARK INTRA:                  -0.266
REMARK UNBOUND:                -0.263
REMARK SMILES O=c1cc(-c2ccc(O)c(O)c2)oc2cc(O)cc(O)c12
REMARK SMILES IDX 4 1 3 2 2 3 1 4 21 5 19 6 18 7 16 8 15 9 14 10 13 11 5 12
REMARK SMILES IDX 6 13 7 14 8 15 12 16 10 17 9 18 11 20 20 22 17 24
REMARK H PARENT 9 19 11 21 20 23 17 25
REMARK Flexibility Score: inf
ROOT
ATOM      1  C   UNL     1      15.256  49.774  31.712  1.00  0.00     0.138 A 
ATOM      2  C   UNL     1      16.308  49.365  30.881  1.00  0.00     0.100 A 
ATOM      3  C   UNL     1      16.388  48.033  30.474  1.00  0.00     0.197 A 
ATOM      4  O   UNL     1      17.378  47.682  29.781  1.00  0.00    -0.289 OA
ATOM      5  C   UNL     1      15.390  47.113  30.876  1.00  0.00     0.107 A 
ATOM      6  C   UNL     1      15.346  45.741  30.489  1.00  0.00     0.134 A 
ATOM      7  C   UNL     1      14.375  44.897  31.043  1.00  0.00     0.093 A 
ATOM      8  C   UNL     1      13.409  45.392  31.924  1.00  0.00     0.123 A 
ATOM      9  C   UNL     1      13.411  46.742  32.265  1.00  0.00     0.094 A 
ATOM     10  C   UNL     1      14.388  47.601  31.757  1.00  0.00     0.146 A 
ATOM     11  O   UNL     1      14.362  48.879  32.119  1.00  0.00    -0.456 OA
ENDROOT
BRANCH   1  12
ATOM     12  C   UNL     1      15.122  51.179  32.174  1.00  0.00     0.021 A 
ATOM     13  C   UNL     1      15.876  51.620  33.276  1.00  0.00     0.016 A 
ATOM     14  C   UNL     1      15.762  52.934  33.734  1.00  0.00     0.051 A 
ATOM     15  C   UNL     1      14.887  53.828  33.111  1.00  0.00     0.157 A 
ATOM     16  C   UNL     1      14.232  52.079  31.556  1.00  0.00     0.062 A 
ATOM     17  C   UNL     1      14.116  53.399  32.018  1.00  0.00     0.158 A 
BRANCH  15  18
ATOM     18  O   UNL     1      14.798  55.134  33.590  1.00  0.00    -0.504 OA
ATOM     19  H   UNL     1      14.383  55.881  33.043  1.00  0.00     0.293 HD
ENDBRANCH  15  18
BRANCH  17  20
ATOM     20  O   UNL     1      13.233  54.283  31.399  1.00  0.00    -0.504 OA
ATOM     21  H   UNL     1      13.027  55.193  31.795  1.00  0.00     0.293 HD
ENDBRANCH  17  20
ENDBRANCH   1  12
BRANCH   6  22
ATOM     22  O   UNL     1      16.211  45.165  29.552  1.00  0.00    -0.507 OA
ATOM     23  H   UNL     1      17.160  44.883  29.741  1.00  0.00     0.293 HD
ENDBRANCH   6  22
BRANCH   8  24
ATOM     24  O   UNL     1      12.437  44.549  32.457  1.00  0.00    -0.508 OA
ATOM     25  H   UNL     1      12.615  43.987  33.281  1.00  0.00     0.293 HD
ENDBRANCH   8  24
TORSDOF 5
ENDMDL
MODEL 9
REMARK VINA RESULT:    -5.409      2.299      3.433
REMARK INTER + INTRA:          -6.621
REMARK INTER:                  -6.357
REMARK INTRA:                  -0.264
REMARK UNBOUND:                -0.263
REMARK SMILES O=c1cc(-c2ccc(O)c(O)c2)oc2cc(O)cc(O)c12
REMARK SMILES IDX 4 1 3 2 2 3 1 4 21 5 19 6 18 7 16 8 15 9 14 10 13 11 5 12
REMARK SMILES IDX 6 13 7 14 8 15 12 16 10 17 9 18 11 20 20 22 17 24
REMARK H PARENT 9 19 11 21 20 23 17 25
REMARK Flexibility Score: inf
ROOT
ATOM      1  C   UNL     1      15.272  57.082  32.793  1.00  0.00     0.138 A 
ATOM      2  C   UNL     1      16.527  57.698  32.697  1.00  0.00     0.100 A 
ATOM      3  C   UNL     1      16.610  59.090  32.636  1.00  0.00     0.197 A 
ATOM      4  O   UNL     1      17.746  59.611  32.487  1.00  0.00    -0.289 OA
ATOM      5  C   UNL     1      15.430  59.869  32.703  1.00  0.00     0.107 A 
ATOM      6  C   UNL     1      15.396  61.295  32.692  1.00  0.00     0.134 A 
ATOM      7  C   UNL     1      14.162  61.956  32.646  1.00  0.00     0.093 A 
ATOM      8  C   UNL     1      12.961  61.242  32.673  1.00  0.00     0.123 A 
ATOM      9  C   UNL     1      12.984  59.851  32.739  1.00  0.00     0.094 A 
ATOM     10  C   UNL     1      14.198  59.162  32.750  1.00  0.00     0.146 A 
ATOM     11  O   UNL     1      14.176  57.834  32.800  1.00  0.00    -0.456 OA
ENDROOT
BRANCH   1  12
ATOM     12  C   UNL     1      15.125  55.606  32.861  1.00  0.00     0.021 A 
ATOM     13  C   UNL     1      15.142  54.966  34.113  1.00  0.00     0.016 A 
ATOM     14  C   UNL     1      15.014  53.579  34.203  1.00  0.00     0.051 A 
ATOM     15  C   UNL     1      14.879  52.804  33.048  1.00  0.00     0.157 A 
ATOM     16  C   UNL     1      15.002  54.821  31.698  1.00  0.00     0.062 A 
ATOM     17  C   UNL     1      14.875  53.426  31.789  1.00  0.00     0.158 A 
BRANCH  15  18
ATOM     18  O   UNL     1      14.750  51.421  33.170  1.00  0.00    -0.504 OA
ATOM     19  H   UNL     1      14.485  50.833  32.388  1.00  0.00     0.293 HD
ENDBRANCH  15  18
BRANCH  17  20
ATOM     20  O   UNL     1      14.752  52.657  30.632  1.00  0.00    -0.504 OA
ATOM     21  H   UNL     1      13.868  52.572  30.143  1.00  0.00     0.293 HD
ENDBRANCH  17  20
ENDBRANCH   1  12
BRANCH   6  22
ATOM     22  O   UNL     1      16.535  62.104  32.749  1.00  0.00    -0.507 OA
ATOM     23  H   UNL     1      16.534  63.086  32.975  1.00  0.00     0.293 HD
ENDBRANCH   6  22
BRANCH   8  24
ATOM     24  O   UNL     1      11.738  61.909  32.643  1.00  0.00    -0.508 OA
ATOM     25  H   UNL     1      10.945  61.588  33.186  1.00  0.00     0.293 HD
ENDBRANCH   8  24
TORSDOF 5
ENDMDL
