MODEL 1
REMARK VINA RESULT:    -4.895      0.000      0.000
REMARK INTER + INTRA:          -8.632
REMARK INTER:                  -7.757
REMARK INTRA:                  -0.875
REMARK UNBOUND:                -0.875
REMARK SMILES CCCCCCCCCCCC(=O)[O-]
REMARK SMILES IDX 7 1 8 2 9 3 10 4 11 5 12 6 13 7 14 8 6 9 5 10 4 11 3 12 2 13
REMARK SMILES IDX 1 14
REMARK H PARENT
REMARK Flexibility Score: inf
ROOT
ATOM      1  C   UNL     1      -2.256  11.657  -9.290  1.00  0.00     0.000 C 
ENDROOT
BRANCH   1   2
ATOM      2  C   UNL     1      -1.443  12.354  -8.184  1.00  0.00     0.000 C 
BRANCH   2   3
ATOM      3  C   UNL     1       0.074  12.206  -8.382  1.00  0.00     0.000 C 
BRANCH   3   4
ATOM      4  C   UNL     1       0.668  11.060  -7.545  1.00  0.00     0.006 C 
BRANCH   4   5
ATOM      5  C   UNL     1       1.138   9.889  -8.418  1.00  0.00     0.053 C 
BRANCH   5   6
ATOM      6  C   UNL     1       2.606   9.965  -8.710  1.00  0.00     0.041 C 
ATOM      7  O   UNL     1       3.386  10.523  -7.893  1.00  0.00    -0.550 OA
ATOM      8  O   UNL     1       3.117   9.396  -9.870  1.00  0.00    -0.550 OA
ENDBRANCH   5   6
ENDBRANCH   4   5
ENDBRANCH   3   4
ENDBRANCH   2   3
ENDBRANCH   1   2
BRANCH   1   9
ATOM      9  C   UNL     1      -2.704  10.238  -8.898  1.00  0.00     0.000 C 
BRANCH   9  10
ATOM     10  C   UNL     1      -3.874   9.673  -9.723  1.00  0.00    -0.000 C 
BRANCH  10  11
ATOM     11  C   UNL     1      -4.135  10.467 -11.014  1.00  0.00    -0.000 C 
BRANCH  11  12
ATOM     12  C   UNL     1      -5.564  11.031 -11.081  1.00  0.00    -0.000 C 
BRANCH  12  13
ATOM     13  C   UNL     1      -6.146  11.332  -9.692  1.00  0.00    -0.003 C 
ATOM     14  C   UNL     1      -5.838  12.766  -9.267  1.00  0.00     0.004 C 
ENDBRANCH  12  13
ENDBRANCH  11  12
ENDBRANCH  10  11
ENDBRANCH   9  10
ENDBRANCH   1   9
TORSDOF 10
ENDMDL
MODEL 2
REMARK VINA RESULT:    -4.710      1.316      2.186
REMARK INTER + INTRA:          -8.338
REMARK INTER:                  -7.645
REMARK INTRA:                  -0.693
REMARK UNBOUND:                -0.875
REMARK SMILES CCCCCCCCCCCC(=O)[O-]
REMARK SMILES IDX 7 1 8 2 9 3 10 4 11 5 12 6 13 7 14 8 6 9 5 10 4 11 3 12 2 13
REMARK SMILES IDX 1 14
REMARK H PARENT
REMARK Flexibility Score: inf
ROOT
ATOM      1  C   UNL     1      -2.658  10.885  -9.874  1.00  0.00     0.000 C 
ENDROOT
BRANCH   1   2
ATOM      2  C   UNL     1      -1.688  10.462  -8.755  1.00  0.00     0.000 C 
BRANCH   2   3
ATOM      3  C   UNL     1      -0.951  11.657  -8.129  1.00  0.00     0.000 C 
BRANCH   3   4
ATOM      4  C   UNL     1       0.571  11.587  -8.340  1.00  0.00     0.006 C 
BRANCH   4   5
ATOM      5  C   UNL     1       1.075  10.142  -8.447  1.00  0.00     0.053 C 
BRANCH   5   6
ATOM      6  C   UNL     1       2.552  10.083  -8.694  1.00  0.00     0.041 C 
ATOM      7  O   UNL     1       3.351  10.620  -7.881  1.00  0.00    -0.550 OA
ATOM      8  O   UNL     1       3.048   9.412  -9.804  1.00  0.00    -0.550 OA
ENDBRANCH   5   6
ENDBRANCH   4   5
ENDBRANCH   3   4
ENDBRANCH   2   3
ENDBRANCH   1   2
BRANCH   1   9
ATOM      9  C   UNL     1      -3.717  11.895  -9.396  1.00  0.00     0.000 C 
BRANCH   9  10
ATOM     10  C   UNL     1      -5.106  11.736 -10.042  1.00  0.00    -0.000 C 
BRANCH  10  11
ATOM     11  C   UNL     1      -5.213  10.486 -10.932  1.00  0.00    -0.000 C 
BRANCH  11  12
ATOM     12  C   UNL     1      -5.949   9.329 -10.237  1.00  0.00    -0.000 C 
BRANCH  12  13
ATOM     13  C   UNL     1      -5.651   7.967 -10.881  1.00  0.00    -0.003 C 
ATOM     14  C   UNL     1      -4.175   7.603 -10.736  1.00  0.00     0.004 C 
ENDBRANCH  12  13
ENDBRANCH  11  12
ENDBRANCH  10  11
ENDBRANCH   9  10
ENDBRANCH   1   9
TORSDOF 10
ENDMDL
MODEL 3
REMARK VINA RESULT:    -4.679      0.991      1.967
REMARK INTER + INTRA:          -8.289
REMARK INTER:                  -7.137
REMARK INTRA:                  -1.152
REMARK UNBOUND:                -0.875
REMARK SMILES CCCCCCCCCCCC(=O)[O-]
REMARK SMILES IDX 7 1 8 2 9 3 10 4 11 5 12 6 13 7 14 8 6 9 5 10 4 11 3 12 2 13
REMARK SMILES IDX 1 14
REMARK H PARENT
REMARK Flexibility Score: inf
ROOT
ATOM      1  C   UNL     1      -1.992  12.997  -7.421  1.00  0.00     0.000 C 
ENDROOT
BRANCH   1   2
ATOM      2  C   UNL     1      -1.028  12.225  -6.502  1.00  0.00     0.000 C 
BRANCH   2   3
ATOM      3  C   UNL     1       0.415  12.214  -7.035  1.00  0.00     0.000 C 
BRANCH   3   4
ATOM      4  C   UNL     1       0.521  11.591  -8.437  1.00  0.00     0.006 C 
BRANCH   4   5
ATOM      5  C   UNL     1       1.007  10.136  -8.389  1.00  0.00     0.053 C 
BRANCH   5   6
ATOM      6  C   UNL     1       2.482  10.033  -8.633  1.00  0.00     0.041 C 
ATOM      7  O   UNL     1       2.913   9.507  -9.693  1.00  0.00    -0.550 OA
ATOM      8  O   UNL     1       3.380  10.543  -7.704  1.00  0.00    -0.550 OA
ENDBRANCH   5   6
ENDBRANCH   4   5
ENDBRANCH   3   4
ENDBRANCH   2   3
ENDBRANCH   1   2
BRANCH   1   9
ATOM      9  C   UNL     1      -3.222  12.166  -7.829  1.00  0.00     0.000 C 
BRANCH   9  10
ATOM     10  C   UNL     1      -3.018  10.640  -7.793  1.00  0.00    -0.000 C 
BRANCH  10  11
ATOM     11  C   UNL     1      -2.799  10.031  -9.189  1.00  0.00    -0.000 C 
BRANCH  11  12
ATOM     12  C   UNL     1      -3.183  11.000 -10.320  1.00  0.00    -0.000 C 
BRANCH  12  13
ATOM     13  C   UNL     1      -4.408  10.525 -11.115  1.00  0.00    -0.003 C 
ATOM     14  C   UNL     1      -5.685  11.187 -10.602  1.00  0.00     0.004 C 
ENDBRANCH  12  13
ENDBRANCH  11  12
ENDBRANCH  10  11
ENDBRANCH   9  10
ENDBRANCH   1   9
TORSDOF 10
ENDMDL
MODEL 4
REMARK VINA RESULT:    -4.667      1.632      2.090
REMARK INTER + INTRA:          -8.270
REMARK INTER:                  -7.509
REMARK INTRA:                  -0.760
REMARK UNBOUND:                -0.875
REMARK SMILES CCCCCCCCCCCC(=O)[O-]
REMARK SMILES IDX 7 1 8 2 9 3 10 4 11 5 12 6 13 7 14 8 6 9 5 10 4 11 3 12 2 13
REMARK SMILES IDX 1 14
REMARK H PARENT
REMARK Flexibility Score: inf
ROOT
ATOM      1  C   UNL     1      -2.916  11.378  -9.655  1.00  0.00     0.000 C 
ENDROOT
BRANCH   1   2
ATOM      2  C   UNL     1      -1.561  11.518  -8.937  1.00  0.00     0.000 C 
BRANCH   2   3
ATOM      3  C   UNL     1      -1.046  10.180  -8.380  1.00  0.00     0.000 C 
BRANCH   3   4
ATOM      4  C   UNL     1       0.489  10.096  -8.376  1.00  0.00     0.006 C 
BRANCH   4   5
ATOM      5  C   UNL     1       1.144  11.463  -8.133  1.00  0.00     0.053 C 
BRANCH   5   6
ATOM      6  C   UNL     1       1.448  11.686  -6.683  1.00  0.00     0.041 C 
ATOM      7  O   UNL     1       0.511  11.798  -5.849  1.00  0.00    -0.550 OA
ATOM      8  O   UNL     1       2.766  11.740  -6.248  1.00  0.00    -0.550 OA
ENDBRANCH   5   6
ENDBRANCH   4   5
ENDBRANCH   3   4
ENDBRANCH   2   3
ENDBRANCH   1   2
BRANCH   1   9
ATOM      9  C   UNL     1      -3.175   9.950 -10.168  1.00  0.00     0.000 C 
BRANCH   9  10
ATOM     10  C   UNL     1      -4.405   9.801 -11.083  1.00  0.00    -0.000 C 
BRANCH  10  11
ATOM     11  C   UNL     1      -5.263  11.076 -11.146  1.00  0.00    -0.000 C 
BRANCH  11  12
ATOM     12  C   UNL     1      -6.717  10.830 -10.710  1.00  0.00    -0.000 C 
BRANCH  12  13
ATOM     13  C   UNL     1      -7.004  11.347  -9.293  1.00  0.00    -0.003 C 
ATOM     14  C   UNL     1      -6.351  12.708  -9.063  1.00  0.00     0.004 C 
ENDBRANCH  12  13
ENDBRANCH  11  12
ENDBRANCH  10  11
ENDBRANCH   9  10
ENDBRANCH   1   9
TORSDOF 10
ENDMDL
MODEL 5
REMARK VINA RESULT:    -4.639      1.986      2.937
REMARK INTER + INTRA:          -8.226
REMARK INTER:                  -7.864
REMARK INTRA:                  -0.362
REMARK UNBOUND:                -0.875
REMARK SMILES CCCCCCCCCCCC(=O)[O-]
REMARK SMILES IDX 7 1 8 2 9 3 10 4 11 5 12 6 13 7 14 8 6 9 5 10 4 11 3 12 2 13
REMARK SMILES IDX 1 14
REMARK H PARENT
REMARK Flexibility Score: inf
ROOT
ATOM      1  C   UNL     1      -2.866  11.850  -9.415  1.00  0.00     0.000 C 
ENDROOT
BRANCH   1   2
ATOM      2  C   UNL     1      -1.651  11.071  -8.880  1.00  0.00     0.000 C 
BRANCH   2   3
ATOM      3  C   UNL     1      -0.472  11.990  -8.518  1.00  0.00     0.000 C 
BRANCH   3   4
ATOM      4  C   UNL     1       0.653  11.243  -7.783  1.00  0.00     0.006 C 
BRANCH   4   5
ATOM      5  C   UNL     1       1.074   9.962  -8.517  1.00  0.00     0.053 C 
BRANCH   5   6
ATOM      6  C   UNL     1       2.542   9.947  -8.815  1.00  0.00     0.041 C 
ATOM      7  O   UNL     1       2.967   9.415  -9.875  1.00  0.00    -0.550 OA
ATOM      8  O   UNL     1       3.438  10.546  -7.938  1.00  0.00    -0.550 OA
ENDBRANCH   5   6
ENDBRANCH   4   5
ENDBRANCH   3   4
ENDBRANCH   2   3
ENDBRANCH   1   2
BRANCH   1   9
ATOM      9  C   UNL     1      -3.787  10.987 -10.297  1.00  0.00     0.000 C 
BRANCH   9  10
ATOM     10  C   UNL     1      -3.469   9.481 -10.292  1.00  0.00    -0.000 C 
BRANCH  10  11
ATOM     11  C   UNL     1      -4.496   8.649 -11.081  1.00  0.00    -0.000 C 
BRANCH  11  12
ATOM     12  C   UNL     1      -4.510   7.172 -10.654  1.00  0.00    -0.000 C 
BRANCH  12  13
ATOM     13  C   UNL     1      -5.922   6.568 -10.661  1.00  0.00    -0.003 C 
ATOM     14  C   UNL     1      -6.027   5.431 -11.674  1.00  0.00     0.004 C 
ENDBRANCH  12  13
ENDBRANCH  11  12
ENDBRANCH  10  11
ENDBRANCH   9  10
ENDBRANCH   1   9
TORSDOF 10
ENDMDL
MODEL 6
REMARK VINA RESULT:    -4.619      3.257      6.637
REMARK INTER + INTRA:          -8.194
REMARK INTER:                  -7.628
REMARK INTRA:                  -0.566
REMARK UNBOUND:                -0.875
REMARK SMILES CCCCCCCCCCCC(=O)[O-]
REMARK SMILES IDX 7 1 8 2 9 3 10 4 11 5 12 6 13 7 14 8 6 9 5 10 4 11 3 12 2 13
REMARK SMILES IDX 1 14
REMARK H PARENT
REMARK Flexibility Score: inf
ROOT
ATOM      1  C   UNL     1      -2.989  11.518  -9.859  1.00  0.00     0.000 C 
ENDROOT
BRANCH   1   2
ATOM      2  C   UNL     1      -4.305  11.780  -9.104  1.00  0.00     0.000 C 
BRANCH   2   3
ATOM      3  C   UNL     1      -5.537  11.713 -10.021  1.00  0.00     0.000 C 
BRANCH   3   4
ATOM      4  C   UNL     1      -5.422  10.605 -11.082  1.00  0.00     0.006 C 
BRANCH   4   5
ATOM      5  C   UNL     1      -5.802   9.227 -10.524  1.00  0.00     0.053 C 
BRANCH   5   6
ATOM      6  C   UNL     1      -4.870   8.155 -11.004  1.00  0.00     0.041 C 
ATOM      7  O   UNL     1      -3.632   8.255 -10.799  1.00  0.00    -0.550 OA
ATOM      8  O   UNL     1      -5.373   7.034 -11.652  1.00  0.00    -0.550 OA
ENDBRANCH   5   6
ENDBRANCH   4   5
ENDBRANCH   3   4
ENDBRANCH   2   3
ENDBRANCH   1   2
BRANCH   1   9
ATOM      9  C   UNL     1      -1.760  11.512  -8.933  1.00  0.00     0.000 C 
BRANCH   9  10
ATOM     10  C   UNL     1      -1.126  10.128  -8.701  1.00  0.00    -0.000 C 
BRANCH  10  11
ATOM     11  C   UNL     1       0.103  10.180  -7.777  1.00  0.00    -0.000 C 
BRANCH  11  12
ATOM     12  C   UNL     1       1.240  11.039  -8.355  1.00  0.00    -0.000 C 
BRANCH  12  13
ATOM     13  C   UNL     1       2.614  10.365  -8.227  1.00  0.00    -0.003 C 
ATOM     14  C   UNL     1       2.980   9.619  -9.509  1.00  0.00     0.004 C 
ENDBRANCH  12  13
ENDBRANCH  11  12
ENDBRANCH  10  11
ENDBRANCH   9  10
ENDBRANCH   1   9
TORSDOF 10
ENDMDL
MODEL 7
REMARK VINA RESULT:    -4.464      3.203      6.158
REMARK INTER + INTRA:          -7.949
REMARK INTER:                  -6.946
REMARK INTRA:                  -1.003
REMARK UNBOUND:                -0.875
REMARK SMILES CCCCCCCCCCCC(=O)[O-]
REMARK SMILES IDX 7 1 8 2 9 3 10 4 11 5 12 6 13 7 14 8 6 9 5 10 4 11 3 12 2 13
REMARK SMILES IDX 1 14
REMARK H PARENT
REMARK Flexibility Score: inf
ROOT
ATOM      1  C   UNL     1      -4.319  12.668  -7.926  1.00  0.00     0.000 C 
ENDROOT
BRANCH   1   2
ATOM      2  C   UNL     1      -4.832  12.813  -9.370  1.00  0.00     0.000 C 
BRANCH   2   3
ATOM      3  C   UNL     1      -6.250  12.249  -9.553  1.00  0.00     0.000 C 
BRANCH   3   4
ATOM      4  C   UNL     1      -6.330  11.215 -10.688  1.00  0.00     0.006 C 
BRANCH   4   5
ATOM      5  C   UNL     1      -4.948  10.668 -11.073  1.00  0.00     0.053 C 
BRANCH   5   6
ATOM      6  C   UNL     1      -4.727   9.286 -10.538  1.00  0.00     0.041 C 
ATOM      7  O   UNL     1      -4.767   9.074  -9.297  1.00  0.00    -0.550 OA
ATOM      8  O   UNL     1      -4.505   8.228 -11.410  1.00  0.00    -0.550 OA
ENDBRANCH   5   6
ENDBRANCH   4   5
ENDBRANCH   3   4
ENDBRANCH   2   3
ENDBRANCH   1   2
BRANCH   1   9
ATOM      9  C   UNL     1      -2.794  12.469  -7.851  1.00  0.00     0.000 C 
BRANCH   9  10
ATOM     10  C   UNL     1      -2.159  11.826  -9.097  1.00  0.00    -0.000 C 
BRANCH  10  11
ATOM     11  C   UNL     1      -1.546  10.444  -8.811  1.00  0.00    -0.000 C 
BRANCH  11  12
ATOM     12  C   UNL     1      -0.703  10.427  -7.525  1.00  0.00    -0.000 C 
BRANCH  12  13
ATOM     13  C   UNL     1       0.736  10.910  -7.756  1.00  0.00    -0.003 C 
ATOM     14  C   UNL     1       1.500   9.945  -8.659  1.00  0.00     0.004 C 
ENDBRANCH  12  13
ENDBRANCH  11  12
ENDBRANCH  10  11
ENDBRANCH   9  10
ENDBRANCH   1   9
TORSDOF 10
ENDMDL
MODEL 8
REMARK VINA RESULT:    -4.431      1.454      2.676
REMARK INTER + INTRA:          -7.896
REMARK INTER:                  -6.568
REMARK INTRA:                  -1.327
REMARK UNBOUND:                -0.875
REMARK SMILES CCCCCCCCCCCC(=O)[O-]
REMARK SMILES IDX 7 1 8 2 9 3 10 4 11 5 12 6 13 7 14 8 6 9 5 10 4 11 3 12 2 13
REMARK SMILES IDX 1 14
REMARK H PARENT
REMARK Flexibility Score: inf
ROOT
ATOM      1  C   UNL     1      -4.545  11.901  -7.327  1.00  0.00     0.000 C 
ENDROOT
BRANCH   1   2
ATOM      2  C   UNL     1      -3.059  11.621  -7.042  1.00  0.00     0.000 C 
BRANCH   2   3
ATOM      3  C   UNL     1      -2.126  12.270  -8.078  1.00  0.00     0.000 C 
BRANCH   3   4
ATOM      4  C   UNL     1      -1.504  11.241  -9.037  1.00  0.00     0.006 C 
BRANCH   4   5
ATOM      5  C   UNL     1      -0.666  10.190  -8.295  1.00  0.00     0.053 C 
BRANCH   5   6
ATOM      6  C   UNL     1       0.782  10.571  -8.238  1.00  0.00     0.041 C 
ATOM      7  O   UNL     1       1.132  11.763  -8.445  1.00  0.00    -0.550 OA
ATOM      8  O   UNL     1       1.743   9.616  -7.928  1.00  0.00    -0.550 OA
ENDBRANCH   5   6
ENDBRANCH   4   5
ENDBRANCH   3   4
ENDBRANCH   2   3
ENDBRANCH   1   2
BRANCH   1   9
ATOM      9  C   UNL     1      -4.754  12.948  -8.437  1.00  0.00     0.000 C 
BRANCH   9  10
ATOM     10  C   UNL     1      -5.928  12.660  -9.391  1.00  0.00    -0.000 C 
BRANCH  10  11
ATOM     11  C   UNL     1      -5.964  11.200  -9.874  1.00  0.00    -0.000 C 
BRANCH  11  12
ATOM     12  C   UNL     1      -5.126  10.979 -11.145  1.00  0.00    -0.000 C 
BRANCH  12  13
ATOM     13  C   UNL     1      -4.202   9.757 -11.039  1.00  0.00    -0.003 C 
ATOM     14  C   UNL     1      -4.440   9.002  -9.734  1.00  0.00     0.004 C 
ENDBRANCH  12  13
ENDBRANCH  11  12
ENDBRANCH  10  11
ENDBRANCH   9  10
ENDBRANCH   1   9
TORSDOF 10
ENDMDL
MODEL 9
REMARK VINA RESULT:    -4.430      2.406      3.277
REMARK INTER + INTRA:          -7.895
REMARK INTER:                  -6.709
REMARK INTRA:                  -1.185
REMARK UNBOUND:                -0.875
REMARK SMILES CCCCCCCCCCCC(=O)[O-]
REMARK SMILES IDX 7 1 8 2 9 3 10 4 11 5 12 6 13 7 14 8 6 9 5 10 4 11 3 12 2 13
REMARK SMILES IDX 1 14
REMARK H PARENT
REMARK Flexibility Score: inf
ROOT
ATOM      1  C   UNL     1      -2.301  10.375  -7.561  1.00  0.00     0.000 C 
ENDROOT
BRANCH   1   2
ATOM      2  C   UNL     1      -1.313  10.433  -8.740  1.00  0.00     0.000 C 
BRANCH   2   3
ATOM      3  C   UNL     1       0.135  10.142  -8.314  1.00  0.00     0.000 C 
BRANCH   3   4
ATOM      4  C   UNL     1       0.980  11.421  -8.188  1.00  0.00     0.006 C 
BRANCH   4   5
ATOM      5  C   UNL     1       1.297  11.765  -6.726  1.00  0.00     0.053 C 
BRANCH   5   6
ATOM      6  C   UNL     1       0.600  13.016  -6.284  1.00  0.00     0.041 C 
ATOM      7  O   UNL     1      -0.461  13.383  -6.853  1.00  0.00    -0.550 OA
ATOM      8  O   UNL     1       1.107  13.759  -5.225  1.00  0.00    -0.550 OA
ENDBRANCH   5   6
ENDBRANCH   4   5
ENDBRANCH   3   4
ENDBRANCH   2   3
ENDBRANCH   1   2
BRANCH   1   9
ATOM      9  C   UNL     1      -3.318  11.531  -7.576  1.00  0.00     0.000 C 
BRANCH   9  10
ATOM     10  C   UNL     1      -3.407  12.303  -8.905  1.00  0.00    -0.000 C 
BRANCH  10  11
ATOM     11  C   UNL     1      -4.856  12.574  -9.345  1.00  0.00    -0.000 C 
BRANCH  11  12
ATOM     12  C   UNL     1      -5.464  11.396 -10.125  1.00  0.00    -0.000 C 
BRANCH  12  13
ATOM     13  C   UNL     1      -4.454  10.726 -11.067  1.00  0.00    -0.003 C 
ATOM     14  C   UNL     1      -4.312   9.239 -10.751  1.00  0.00     0.004 C 
ENDBRANCH  12  13
ENDBRANCH  11  12
ENDBRANCH  10  11
ENDBRANCH   9  10
ENDBRANCH   1   9
TORSDOF 10
ENDMDL
