MODEL 1
REMARK VINA RESULT:    -5.806      0.000      0.000
REMARK INTER + INTRA:          -6.240
REMARK INTER:                  -6.145
REMARK INTRA:                  -0.095
REMARK UNBOUND:                -0.095
REMARK SMILES C=C(C)[C@@H]1CC=C(C)C(=O)C1
REMARK SMILES IDX 8 1 7 2 6 3 5 4 4 5 11 6 9 7 10 8 2 9 1 10 3 11
REMARK H PARENT
REMARK Flexibility Score: inf
ROOT
ATOM      1  C   UNL     1     -11.662  72.731  33.080  1.00  0.00     0.048 C 
ATOM      2  C   UNL     1     -11.284  73.232  31.713  1.00  0.00    -0.012 C 
ATOM      3  C   UNL     1     -11.621  72.521  30.623  1.00  0.00    -0.019 C 
ATOM      4  C   UNL     1     -11.283  72.986  29.231  1.00  0.00     0.036 C 
ATOM      5  C   UNL     1      -9.958  73.772  29.214  1.00  0.00     0.025 C 
ATOM      6  C   UNL     1     -10.016  74.937  30.220  1.00  0.00     0.089 C 
ATOM      7  C   UNL     1     -10.436  74.443  31.577  1.00  0.00     0.158 C 
ATOM      8  O   UNL     1     -10.089  75.091  32.601  1.00  0.00    -0.295 OA
ENDROOT
BRANCH   5   9
ATOM      9  C   UNL     1      -9.610  74.257  27.814  1.00  0.00    -0.077 C 
ATOM     10  C   UNL     1      -9.961  75.483  27.390  1.00  0.00     0.008 C 
ATOM     11  C   UNL     1      -8.858  73.356  26.868  1.00  0.00     0.039 C 
ENDBRANCH   5   9
TORSDOF 1
ENDMDL
MODEL 2
REMARK VINA RESULT:    -5.747      1.726      4.813
REMARK INTER + INTRA:          -6.178
REMARK INTER:                  -6.085
REMARK INTRA:                  -0.093
REMARK UNBOUND:                -0.095
REMARK SMILES C=C(C)[C@@H]1CC=C(C)C(=O)C1
REMARK SMILES IDX 8 1 7 2 6 3 5 4 4 5 11 6 9 7 10 8 2 9 1 10 3 11
REMARK H PARENT
REMARK Flexibility Score: inf
ROOT
ATOM      1  C   UNL     1      -9.621  74.925  28.167  1.00  0.00     0.048 C 
ATOM      2  C   UNL     1     -10.099  74.551  29.544  1.00  0.00    -0.012 C 
ATOM      3  C   UNL     1      -9.429  74.987  30.625  1.00  0.00    -0.019 C 
ATOM      4  C   UNL     1      -9.873  74.658  32.026  1.00  0.00     0.036 C 
ATOM      5  C   UNL     1     -10.538  73.270  32.084  1.00  0.00     0.025 C 
ATOM      6  C   UNL     1     -11.696  73.188  31.071  1.00  0.00     0.089 C 
ATOM      7  C   UNL     1     -11.230  73.604  29.703  1.00  0.00     0.158 C 
ATOM      8  O   UNL     1     -11.836  73.165  28.689  1.00  0.00    -0.295 OA
ENDROOT
BRANCH   5   9
ATOM      9  C   UNL     1     -11.002  72.928  33.494  1.00  0.00    -0.077 C 
ATOM     10  C   UNL     1     -12.095  73.498  34.029  1.00  0.00     0.008 C 
ATOM     11  C   UNL     1     -10.230  71.932  34.322  1.00  0.00     0.039 C 
ENDBRANCH   5   9
TORSDOF 1
ENDMDL
MODEL 3
REMARK VINA RESULT:    -5.667      1.747      2.755
REMARK INTER + INTRA:          -6.093
REMARK INTER:                  -6.002
REMARK INTRA:                  -0.090
REMARK UNBOUND:                -0.095
REMARK SMILES C=C(C)[C@@H]1CC=C(C)C(=O)C1
REMARK SMILES IDX 8 1 7 2 6 3 5 4 4 5 11 6 9 7 10 8 2 9 1 10 3 11
REMARK H PARENT
REMARK Flexibility Score: inf
ROOT
ATOM      1  C   UNL     1     -10.786  73.828  35.017  1.00  0.00     0.048 C 
ATOM      2  C   UNL     1     -10.770  73.903  33.514  1.00  0.00    -0.012 C 
ATOM      3  C   UNL     1     -10.748  75.101  32.905  1.00  0.00    -0.019 C 
ATOM      4  C   UNL     1     -10.713  75.235  31.406  1.00  0.00     0.036 C 
ATOM      5  C   UNL     1     -11.478  74.081  30.729  1.00  0.00     0.025 C 
ATOM      6  C   UNL     1     -10.929  72.723  31.207  1.00  0.00     0.089 C 
ATOM      7  C   UNL     1     -10.904  72.663  32.710  1.00  0.00     0.158 C 
ATOM      8  O   UNL     1     -10.962  71.541  33.280  1.00  0.00    -0.295 OA
ENDROOT
BRANCH   5   9
ATOM      9  C   UNL     1     -11.442  74.197  29.211  1.00  0.00    -0.077 C 
ATOM     10  C   UNL     1     -12.541  73.989  28.466  1.00  0.00     0.008 C 
ATOM     11  C   UNL     1     -10.154  74.552  28.511  1.00  0.00     0.039 C 
ENDBRANCH   5   9
TORSDOF 1
ENDMDL
MODEL 4
REMARK VINA RESULT:    -5.582      2.148      5.335
REMARK INTER + INTRA:          -6.002
REMARK INTER:                  -5.908
REMARK INTRA:                  -0.095
REMARK UNBOUND:                -0.095
REMARK SMILES C=C(C)[C@@H]1CC=C(C)C(=O)C1
REMARK SMILES IDX 8 1 7 2 6 3 5 4 4 5 11 6 9 7 10 8 2 9 1 10 3 11
REMARK H PARENT
REMARK Flexibility Score: inf
ROOT
ATOM      1  C   UNL     1     -11.011  74.577  29.425  1.00  0.00     0.048 C 
ATOM      2  C   UNL     1     -11.093  74.135  30.861  1.00  0.00    -0.012 C 
ATOM      3  C   UNL     1     -10.893  75.026  31.847  1.00  0.00    -0.019 C 
ATOM      4  C   UNL     1     -10.982  74.642  33.301  1.00  0.00     0.036 C 
ATOM      5  C   UNL     1     -10.520  73.189  33.519  1.00  0.00     0.025 C 
ATOM      6  C   UNL     1     -11.318  72.232  32.613  1.00  0.00     0.089 C 
ATOM      7  C   UNL     1     -11.272  72.698  31.184  1.00  0.00     0.158 C 
ATOM      8  O   UNL     1     -11.424  71.855  30.259  1.00  0.00    -0.295 OA
ENDROOT
BRANCH   5   9
ATOM      9  C   UNL     1     -10.614  72.783  34.984  1.00  0.00    -0.077 C 
ATOM     10  C   UNL     1     -11.527  73.329  35.805  1.00  0.00     0.008 C 
ATOM     11  C   UNL     1      -9.671  71.749  35.543  1.00  0.00     0.039 C 
ENDBRANCH   5   9
TORSDOF 1
ENDMDL
MODEL 5
REMARK VINA RESULT:    -5.514      2.274      5.581
REMARK INTER + INTRA:          -5.931
REMARK INTER:                  -5.837
REMARK INTRA:                  -0.095
REMARK UNBOUND:                -0.095
REMARK SMILES C=C(C)[C@@H]1CC=C(C)C(=O)C1
REMARK SMILES IDX 8 1 7 2 6 3 5 4 4 5 11 6 9 7 10 8 2 9 1 10 3 11
REMARK H PARENT
REMARK Flexibility Score: inf
ROOT
ATOM      1  C   UNL     1     -11.572  74.250  30.227  1.00  0.00     0.048 C 
ATOM      2  C   UNL     1     -11.186  73.811  31.613  1.00  0.00    -0.012 C 
ATOM      3  C   UNL     1     -11.205  72.505  31.931  1.00  0.00    -0.019 C 
ATOM      4  C   UNL     1     -10.812  72.010  33.298  1.00  0.00     0.036 C 
ATOM      5  C   UNL     1     -11.180  73.036  34.387  1.00  0.00     0.025 C 
ATOM      6  C   UNL     1     -10.557  74.407  34.061  1.00  0.00     0.089 C 
ATOM      7  C   UNL     1     -10.906  74.826  32.659  1.00  0.00     0.158 C 
ATOM      8  O   UNL     1     -10.923  76.053  32.372  1.00  0.00    -0.295 OA
ENDROOT
BRANCH   5   9
ATOM      9  C   UNL     1     -10.778  72.552  35.773  1.00  0.00    -0.077 C 
ATOM     10  C   UNL     1      -9.772  71.678  35.946  1.00  0.00     0.008 C 
ATOM     11  C   UNL     1     -11.513  73.053  36.990  1.00  0.00     0.039 C 
ENDBRANCH   5   9
TORSDOF 1
ENDMDL
MODEL 6
REMARK VINA RESULT:    -5.270      1.995      4.362
REMARK INTER + INTRA:          -5.673
REMARK INTER:                  -5.584
REMARK INTRA:                  -0.089
REMARK UNBOUND:                -0.095
REMARK SMILES C=C(C)[C@@H]1CC=C(C)C(=O)C1
REMARK SMILES IDX 8 1 7 2 6 3 5 4 4 5 11 6 9 7 10 8 2 9 1 10 3 11
REMARK H PARENT
REMARK Flexibility Score: inf
ROOT
ATOM      1  C   UNL     1     -10.484  73.861  25.994  1.00  0.00     0.048 C 
ATOM      2  C   UNL     1     -10.613  73.872  27.493  1.00  0.00    -0.012 C 
ATOM      3  C   UNL     1     -11.807  74.118  28.059  1.00  0.00    -0.019 C 
ATOM      4  C   UNL     1     -11.997  74.123  29.554  1.00  0.00     0.036 C 
ATOM      5  C   UNL     1     -10.727  74.620  30.272  1.00  0.00     0.025 C 
ATOM      6  C   UNL     1      -9.508  73.783  29.841  1.00  0.00     0.089 C 
ATOM      7  C   UNL     1      -9.403  73.735  28.341  1.00  0.00     0.158 C 
ATOM      8  O   UNL     1      -8.276  73.540  27.811  1.00  0.00    -0.295 OA
ENDROOT
BRANCH   5   9
ATOM      9  C   UNL     1     -10.901  74.620  31.784  1.00  0.00    -0.077 C 
ATOM     10  C   UNL     1     -10.767  75.747  32.505  1.00  0.00     0.008 C 
ATOM     11  C   UNL     1     -11.230  73.339  32.507  1.00  0.00     0.039 C 
ENDBRANCH   5   9
TORSDOF 1
ENDMDL
MODEL 7
REMARK VINA RESULT:    -5.263      1.428      4.372
REMARK INTER + INTRA:          -5.666
REMARK INTER:                  -5.576
REMARK INTRA:                  -0.089
REMARK UNBOUND:                -0.095
REMARK SMILES C=C(C)[C@@H]1CC=C(C)C(=O)C1
REMARK SMILES IDX 8 1 7 2 6 3 5 4 4 5 11 6 9 7 10 8 2 9 1 10 3 11
REMARK H PARENT
REMARK Flexibility Score: inf
ROOT
ATOM      1  C   UNL     1     -10.871  73.915  27.506  1.00  0.00     0.048 C 
ATOM      2  C   UNL     1     -10.845  73.581  28.973  1.00  0.00    -0.012 C 
ATOM      3  C   UNL     1     -11.598  72.572  29.443  1.00  0.00    -0.019 C 
ATOM      4  C   UNL     1     -11.596  72.184  30.898  1.00  0.00     0.036 C 
ATOM      5  C   UNL     1     -11.370  73.414  31.799  1.00  0.00     0.025 C 
ATOM      6  C   UNL     1     -10.079  74.147  31.389  1.00  0.00     0.089 C 
ATOM      7  C   UNL     1     -10.085  74.442  29.914  1.00  0.00     0.158 C 
ATOM      8  O   UNL     1      -9.407  75.411  29.479  1.00  0.00    -0.295 OA
ENDROOT
BRANCH   5   9
ATOM      9  C   UNL     1     -11.355  73.034  33.274  1.00  0.00    -0.077 C 
ATOM     10  C   UNL     1     -12.140  73.660  34.167  1.00  0.00     0.008 C 
ATOM     11  C   UNL     1     -10.444  71.936  33.761  1.00  0.00     0.039 C 
ENDBRANCH   5   9
TORSDOF 1
ENDMDL
MODEL 8
REMARK VINA RESULT:    -5.261      2.038      2.928
REMARK INTER + INTRA:          -5.663
REMARK INTER:                  -5.571
REMARK INTRA:                  -0.092
REMARK UNBOUND:                -0.095
REMARK SMILES C=C(C)[C@@H]1CC=C(C)C(=O)C1
REMARK SMILES IDX 8 1 7 2 6 3 5 4 4 5 11 6 9 7 10 8 2 9 1 10 3 11
REMARK H PARENT
REMARK Flexibility Score: inf
ROOT
ATOM      1  C   UNL     1     -11.114  74.821  31.202  1.00  0.00     0.048 C 
ATOM      2  C   UNL     1     -10.642  74.430  29.828  1.00  0.00    -0.012 C 
ATOM      3  C   UNL     1      -9.330  74.457  29.539  1.00  0.00    -0.019 C 
ATOM      4  C   UNL     1      -8.801  74.059  28.186  1.00  0.00     0.036 C 
ATOM      5  C   UNL     1      -9.806  74.412  27.072  1.00  0.00     0.025 C 
ATOM      6  C   UNL     1     -11.179  73.780  27.372  1.00  0.00     0.089 C 
ATOM      7  C   UNL     1     -11.632  74.134  28.762  1.00  0.00     0.158 C 
ATOM      8  O   UNL     1     -12.865  74.143  29.022  1.00  0.00    -0.295 OA
ENDROOT
BRANCH   5   9
ATOM      9  C   UNL     1      -9.290  74.005  25.699  1.00  0.00    -0.077 C 
ATOM     10  C   UNL     1      -9.634  74.683  24.592  1.00  0.00     0.008 C 
ATOM     11  C   UNL     1      -8.372  72.817  25.560  1.00  0.00     0.039 C 
ENDBRANCH   5   9
TORSDOF 1
ENDMDL
MODEL 9
REMARK VINA RESULT:    -5.159      1.425      1.792
REMARK INTER + INTRA:          -5.555
REMARK INTER:                  -5.459
REMARK INTRA:                  -0.096
REMARK UNBOUND:                -0.095
REMARK SMILES C=C(C)[C@@H]1CC=C(C)C(=O)C1
REMARK SMILES IDX 8 1 7 2 6 3 5 4 4 5 11 6 9 7 10 8 2 9 1 10 3 11
REMARK H PARENT
REMARK Flexibility Score: inf
ROOT
ATOM      1  C   UNL     1     -11.288  74.387  31.928  1.00  0.00     0.048 C 
ATOM      2  C   UNL     1     -10.880  74.337  30.480  1.00  0.00    -0.012 C 
ATOM      3  C   UNL     1     -11.759  73.920  29.552  1.00  0.00    -0.019 C 
ATOM      4  C   UNL     1     -11.410  73.868  28.088  1.00  0.00     0.036 C 
ATOM      5  C   UNL     1      -9.918  73.541  27.886  1.00  0.00     0.025 C 
ATOM      6  C   UNL     1      -9.041  74.545  28.659  1.00  0.00     0.089 C 
ATOM      7  C   UNL     1      -9.476  74.628  30.096  1.00  0.00     0.158 C 
ATOM      8  O   UNL     1      -8.641  74.983  30.971  1.00  0.00    -0.295 OA
ENDROOT
BRANCH   5   9
ATOM      9  C   UNL     1      -9.548  73.495  26.409  1.00  0.00    -0.077 C 
ATOM     10  C   UNL     1     -10.302  74.105  25.479  1.00  0.00     0.008 C 
ATOM     11  C   UNL     1      -8.314  72.754  25.963  1.00  0.00     0.039 C 
ENDBRANCH   5   9
TORSDOF 1
ENDMDL
