MODEL 1
REMARK VINA RESULT:     0.361      0.000      0.000
REMARK INTER + INTRA:           0.839
REMARK INTER:                   0.445
REMARK INTRA:                   0.394
REMARK UNBOUND:                 0.394
REMARK SMILES Oc1cc(O)c2cc(O)c(-c3cc(O)c(O)c(O)c3)[o+]c2c1
REMARK SMILES IDX 10 1 20 2 21 3 22 4 2 5 3 6 4 7 6 8 7 9 8 10 11 11 12 12
REMARK SMILES IDX 13 13 19 14 15 15 17 16 14 17 16 19 18 21 9 23 1 25 5 27
REMARK H PARENT 14 18 16 20 18 22 9 24 1 26 5 28
REMARK Flexibility Score: inf
ROOT
ATOM      1  C   UNL     1      15.551  27.925  40.318  1.00  0.00     0.402 A 
ATOM      2  O   UNL     1      14.317  27.904  39.821  1.00  0.00    -0.202 OA
ATOM      3  C   UNL     1      14.053  27.938  38.520  1.00  0.00     0.368 A 
ATOM      4  C   UNL     1      12.721  27.916  38.095  1.00  0.00     0.162 A 
ATOM      5  C   UNL     1      12.415  27.954  36.731  1.00  0.00     0.128 A 
ATOM      6  C   UNL     1      13.444  28.015  35.789  1.00  0.00     0.093 A 
ATOM      7  C   UNL     1      14.786  28.040  36.189  1.00  0.00     0.136 A 
ATOM      8  C   UNL     1      15.103  27.999  37.572  1.00  0.00     0.125 A 
ATOM      9  C   UNL     1      16.419  28.005  38.064  1.00  0.00     0.078 A 
ATOM     10  C   UNL     1      16.652  27.958  39.441  1.00  0.00     0.223 A 
ENDROOT
BRANCH   1  11
ATOM     11  C   UNL     1      15.716  27.893  41.789  1.00  0.00     0.091 A 
ATOM     12  C   UNL     1      14.578  27.905  42.611  1.00  0.00     0.068 A 
ATOM     13  C   UNL     1      14.703  27.895  44.004  1.00  0.00     0.162 A 
ATOM     14  C   UNL     1      16.989  27.908  42.384  1.00  0.00     0.068 A 
ATOM     15  C   UNL     1      15.979  27.888  44.594  1.00  0.00     0.200 A 
ATOM     16  C   UNL     1      17.123  27.900  43.779  1.00  0.00     0.162 A 
BRANCH  13  17
ATOM     17  O   UNL     1      13.548  27.893  44.785  1.00  0.00    -0.504 OA
ATOM     18  H   UNL     1      12.721  27.369  44.524  1.00  0.00     0.293 HD
ENDBRANCH  13  17
BRANCH  15  19
ATOM     19  O   UNL     1      16.095  27.876  45.984  1.00  0.00    -0.502 OA
ATOM     20  H   UNL     1      16.120  27.014  46.516  1.00  0.00     0.293 HD
ENDBRANCH  15  19
BRANCH  16  21
ATOM     21  O   UNL     1      18.392  27.908  44.358  1.00  0.00    -0.504 OA
ATOM     22  H   UNL     1      18.955  27.068  44.416  1.00  0.00     0.293 HD
ENDBRANCH  16  21
ENDBRANCH   1  11
BRANCH  10  23
ATOM     23  O   UNL     1      17.958  27.914  39.928  1.00  0.00    -0.500 OA
ATOM     24  H   UNL     1      18.742  27.680  39.331  1.00  0.00     0.294 HD
ENDBRANCH  10  23
BRANCH   5  25
ATOM     25  O   UNL     1      11.091  27.931  36.301  1.00  0.00    -0.507 OA
ATOM     26  H   UNL     1      10.649  28.751  35.902  1.00  0.00     0.293 HD
ENDBRANCH   5  25
BRANCH   7  27
ATOM     27  O   UNL     1      15.756  28.105  35.184  1.00  0.00    -0.507 OA
ATOM     28  H   UNL     1      15.828  28.852  34.509  1.00  0.00     0.293 HD
ENDBRANCH   7  27
TORSDOF 7
ENDMDL
MODEL 2
REMARK VINA RESULT:     1.574      0.998      7.059
REMARK INTER + INTRA:           2.336
REMARK INTER:                   1.866
REMARK INTRA:                   0.470
REMARK UNBOUND:                 0.394
REMARK SMILES Oc1cc(O)c2cc(O)c(-c3cc(O)c(O)c(O)c3)[o+]c2c1
REMARK SMILES IDX 10 1 20 2 21 3 22 4 2 5 3 6 4 7 6 8 7 9 8 10 11 11 12 12
REMARK SMILES IDX 13 13 19 14 15 15 17 16 14 17 16 19 18 21 9 23 1 25 5 27
REMARK H PARENT 14 18 16 20 18 22 9 24 1 26 5 28
REMARK Flexibility Score: inf
ROOT
ATOM      1  C   UNL     1      15.949  27.963  39.956  1.00  0.00     0.402 A 
ATOM      2  O   UNL     1      15.019  27.931  40.906  1.00  0.00    -0.202 OA
ATOM      3  C   UNL     1      15.300  27.944  42.205  1.00  0.00     0.368 A 
ATOM      4  C   UNL     1      14.252  27.905  43.129  1.00  0.00     0.162 A 
ATOM      5  C   UNL     1      14.520  27.913  44.500  1.00  0.00     0.128 A 
ATOM      6  C   UNL     1      15.842  27.959  44.950  1.00  0.00     0.093 A 
ATOM      7  C   UNL     1      16.909  27.997  44.045  1.00  0.00     0.136 A 
ATOM      8  C   UNL     1      16.643  27.992  42.651  1.00  0.00     0.125 A 
ATOM      9  C   UNL     1      17.649  28.042  41.672  1.00  0.00     0.078 A 
ATOM     10  C   UNL     1      17.308  28.039  40.317  1.00  0.00     0.223 A 
ENDROOT
BRANCH   1  11
ATOM     11  C   UNL     1      15.509  27.936  38.542  1.00  0.00     0.091 A 
ATOM     12  C   UNL     1      16.469  27.980  37.520  1.00  0.00     0.068 A 
ATOM     13  C   UNL     1      16.083  27.976  36.176  1.00  0.00     0.162 A 
ATOM     14  C   UNL     1      14.146  27.924  38.200  1.00  0.00     0.068 A 
ATOM     15  C   UNL     1      14.719  27.942  35.838  1.00  0.00     0.200 A 
ATOM     16  C   UNL     1      13.750  27.920  36.855  1.00  0.00     0.162 A 
BRANCH  13  17
ATOM     17  O   UNL     1      17.069  28.006  35.190  1.00  0.00    -0.504 OA
ATOM     18  H   UNL     1      17.817  28.688  35.197  1.00  0.00     0.293 HD
ENDBRANCH  13  17
BRANCH  15  19
ATOM     19  O   UNL     1      14.341  27.935  34.495  1.00  0.00    -0.502 OA
ATOM     20  H   UNL     1      13.655  28.580  34.124  1.00  0.00     0.293 HD
ENDBRANCH  15  19
BRANCH  16  21
ATOM     21  O   UNL     1      12.395  27.902  36.528  1.00  0.00    -0.504 OA
ATOM     22  H   UNL     1      11.983  27.133  36.011  1.00  0.00     0.293 HD
ENDBRANCH  16  21
ENDBRANCH   1  11
BRANCH  10  23
ATOM     23  O   UNL     1      18.303  28.139  39.344  1.00  0.00    -0.500 OA
ATOM     24  H   UNL     1      18.149  27.831  38.391  1.00  0.00     0.294 HD
ENDBRANCH  10  23
BRANCH   5  25
ATOM     25  O   UNL     1      13.481  27.875  45.427  1.00  0.00    -0.507 OA
ATOM     26  H   UNL     1      12.897  27.054  45.535  1.00  0.00     0.293 HD
ENDBRANCH   5  25
BRANCH   7  27
ATOM     27  O   UNL     1      18.202  28.039  44.576  1.00  0.00    -0.507 OA
ATOM     28  H   UNL     1      18.414  28.042  45.564  1.00  0.00     0.293 HD
ENDBRANCH   7  27
TORSDOF 7
ENDMDL
MODEL 3
REMARK VINA RESULT:     3.313      1.279      2.915
REMARK INTER + INTRA:           4.482
REMARK INTER:                   4.049
REMARK INTRA:                   0.433
REMARK UNBOUND:                 0.394
REMARK SMILES Oc1cc(O)c2cc(O)c(-c3cc(O)c(O)c(O)c3)[o+]c2c1
REMARK SMILES IDX 10 1 20 2 21 3 22 4 2 5 3 6 4 7 6 8 7 9 8 10 11 11 12 12
REMARK SMILES IDX 13 13 19 14 15 15 17 16 14 17 16 19 18 21 9 23 1 25 5 27
REMARK H PARENT 14 18 16 20 18 22 9 24 1 26 5 28
REMARK Flexibility Score: inf
ROOT
ATOM      1  C   UNL     1      15.486  28.155  40.043  1.00  0.00     0.402 A 
ATOM      2  O   UNL     1      16.607  28.091  39.329  1.00  0.00    -0.202 OA
ATOM      3  C   UNL     1      16.626  28.078  38.001  1.00  0.00     0.368 A 
ATOM      4  C   UNL     1      17.855  28.005  37.339  1.00  0.00     0.162 A 
ATOM      5  C   UNL     1      17.904  27.987  35.942  1.00  0.00     0.128 A 
ATOM      6  C   UNL     1      16.720  28.040  35.204  1.00  0.00     0.093 A 
ATOM      7  C   UNL     1      15.476  28.113  35.843  1.00  0.00     0.136 A 
ATOM      8  C   UNL     1      15.420  28.134  37.261  1.00  0.00     0.125 A 
ATOM      9  C   UNL     1      14.220  28.219  37.986  1.00  0.00     0.078 A 
ATOM     10  C   UNL     1      14.246  28.241  39.383  1.00  0.00     0.223 A 
ENDROOT
BRANCH   1  11
ATOM     11  C   UNL     1      15.595  28.153  41.520  1.00  0.00     0.091 A 
ATOM     12  C   UNL     1      14.434  28.016  42.297  1.00  0.00     0.068 A 
ATOM     13  C   UNL     1      14.503  28.030  43.693  1.00  0.00     0.162 A 
ATOM     14  C   UNL     1      16.829  28.343  42.164  1.00  0.00     0.068 A 
ATOM     15  C   UNL     1      15.743  28.198  44.333  1.00  0.00     0.200 A 
ATOM     16  C   UNL     1      16.908  28.360  43.563  1.00  0.00     0.162 A 
BRANCH  13  17
ATOM     17  O   UNL     1      13.328  27.876  44.429  1.00  0.00    -0.504 OA
ATOM     18  H   UNL     1      13.242  27.192  45.171  1.00  0.00     0.293 HD
ENDBRANCH  13  17
BRANCH  15  19
ATOM     19  O   UNL     1      15.804  28.208  45.727  1.00  0.00    -0.502 OA
ATOM     20  H   UNL     1      15.723  27.362  46.277  1.00  0.00     0.293 HD
ENDBRANCH  15  19
BRANCH  16  21
ATOM     21  O   UNL     1      18.139  28.542  44.191  1.00  0.00    -0.504 OA
ATOM     22  H   UNL     1      18.952  28.868  43.682  1.00  0.00     0.293 HD
ENDBRANCH  16  21
ENDBRANCH   1  11
BRANCH  10  23
ATOM     23  O   UNL     1      13.058  28.375  40.103  1.00  0.00    -0.500 OA
ATOM     24  H   UNL     1      12.703  29.283  40.380  1.00  0.00     0.294 HD
ENDBRANCH  10  23
BRANCH   5  25
ATOM     25  O   UNL     1      19.125  27.915  35.276  1.00  0.00    -0.507 OA
ATOM     26  H   UNL     1      19.196  27.533  34.340  1.00  0.00     0.293 HD
ENDBRANCH   5  25
BRANCH   7  27
ATOM     27  O   UNL     1      14.338  28.160  35.032  1.00  0.00    -0.507 OA
ATOM     28  H   UNL     1      14.349  28.366  34.044  1.00  0.00     0.293 HD
ENDBRANCH   7  27
TORSDOF 7
ENDMDL
