MODEL 1
REMARK VINA RESULT:     7.611      0.000      0.000
REMARK INTER + INTRA:           8.039
REMARK INTER:                   8.056
REMARK INTRA:                  -0.016
REMARK UNBOUND:                -0.016
REMARK SMILES O=C([O-])c1cccnc1
REMARK SMILES IDX 4 1 5 2 9 3 6 4 8 5 7 6 2 7 1 8 3 9
REMARK H PARENT
REMARK Flexibility Score: inf
ROOT
ATOM      1  C   UNL     1      14.011  14.120  17.054  1.00  0.00     0.016 A 
ATOM      2  C   UNL     1      13.002  13.388  17.699  1.00  0.00     0.013 A 
ATOM      3  C   UNL     1      15.004  13.415  16.353  1.00  0.00     0.120 A 
ATOM      4  C   UNL     1      12.997  11.994  17.636  1.00  0.00     0.021 A 
ATOM      5  N   UNL     1      14.977  12.056  16.306  1.00  0.00    -0.264 NA
ATOM      6  C   UNL     1      14.004  11.338  16.927  1.00  0.00     0.111 A 
ENDROOT
BRANCH   1   7
ATOM      7  C   UNL     1      14.026  15.598  17.115  1.00  0.00     0.073 C 
ATOM      8  O   UNL     1      14.686  16.196  18.006  1.00  0.00    -0.545 OA
ATOM      9  O   UNL     1      13.312  16.348  16.186  1.00  0.00    -0.545 OA
ENDBRANCH   1   7
TORSDOF 1
ENDMDL
MODEL 2
REMARK VINA RESULT:     7.973      4.468      5.104
REMARK INTER + INTRA:           8.423
REMARK INTER:                   8.439
REMARK INTRA:                  -0.016
REMARK UNBOUND:                -0.016
REMARK SMILES O=C([O-])c1cccnc1
REMARK SMILES IDX 4 1 5 2 9 3 6 4 8 5 7 6 2 7 1 8 3 9
REMARK H PARENT
REMARK Flexibility Score: inf
ROOT
ATOM      1  C   UNL     1      10.472  12.408  16.577  1.00  0.00     0.016 A 
ATOM      2  C   UNL     1      10.154  11.990  15.275  1.00  0.00     0.013 A 
ATOM      3  C   UNL     1       9.453  12.970  17.366  1.00  0.00     0.120 A 
ATOM      4  C   UNL     1       8.853  12.134  14.790  1.00  0.00     0.021 A 
ATOM      5  N   UNL     1       8.193  13.099  16.870  1.00  0.00    -0.264 NA
ATOM      6  C   UNL     1       7.875  12.697  15.611  1.00  0.00     0.111 A 
ENDROOT
BRANCH   1   7
ATOM      7  C   UNL     1      11.847  12.261  17.102  1.00  0.00     0.073 C 
ATOM      8  O   UNL     1      12.140  11.309  17.874  1.00  0.00    -0.545 OA
ATOM      9  O   UNL     1      12.837  13.171  16.748  1.00  0.00    -0.545 OA
ENDBRANCH   1   7
TORSDOF 1
ENDMDL
MODEL 3
REMARK VINA RESULT:     8.220      2.823      3.861
REMARK INTER + INTRA:           8.685
REMARK INTER:                   8.701
REMARK INTRA:                  -0.017
REMARK UNBOUND:                -0.016
REMARK SMILES O=C([O-])c1cccnc1
REMARK SMILES IDX 4 1 5 2 9 3 6 4 8 5 7 6 2 7 1 8 3 9
REMARK H PARENT
REMARK Flexibility Score: inf
ROOT
ATOM      1  C   UNL     1      13.946  13.897  17.097  1.00  0.00     0.016 A 
ATOM      2  C   UNL     1      14.890  14.498  17.944  1.00  0.00     0.013 A 
ATOM      3  C   UNL     1      13.156  14.727  16.281  1.00  0.00     0.120 A 
ATOM      4  C   UNL     1      15.031  15.886  17.965  1.00  0.00     0.021 A 
ATOM      5  N   UNL     1      13.314  16.077  16.320  1.00  0.00    -0.264 NA
ATOM      6  C   UNL     1      14.225  16.669  17.137  1.00  0.00     0.111 A 
ENDROOT
BRANCH   1   7
ATOM      7  C   UNL     1      13.787  12.427  17.066  1.00  0.00     0.073 C 
ATOM      8  O   UNL     1      12.750  11.885  17.535  1.00  0.00    -0.545 OA
ATOM      9  O   UNL     1      14.780  11.623  16.518  1.00  0.00    -0.545 OA
ENDBRANCH   1   7
TORSDOF 1
ENDMDL
MODEL 4
REMARK VINA RESULT:     9.359      5.611      6.475
REMARK INTER + INTRA:           9.890
REMARK INTER:                   9.906
REMARK INTRA:                  -0.016
REMARK UNBOUND:                -0.016
REMARK SMILES O=C([O-])c1cccnc1
REMARK SMILES IDX 4 1 5 2 9 3 6 4 8 5 7 6 2 7 1 8 3 9
REMARK H PARENT
REMARK Flexibility Score: inf
ROOT
ATOM      1  C   UNL     1       8.815  11.998  15.319  1.00  0.00     0.016 A 
ATOM      2  C   UNL     1       7.875  12.950  15.745  1.00  0.00     0.013 A 
ATOM      3  C   UNL     1       9.832  11.618  16.212  1.00  0.00     0.120 A 
ATOM      4  C   UNL     1       7.961  13.497  17.027  1.00  0.00     0.021 A 
ATOM      5  N   UNL     1       9.894  12.165  17.456  1.00  0.00    -0.264 NA
ATOM      6  C   UNL     1       8.989  13.088  17.877  1.00  0.00     0.111 A 
ENDROOT
BRANCH   1   7
ATOM      7  C   UNL     1       8.734  11.413  13.964  1.00  0.00     0.073 C 
ATOM      8  O   UNL     1       9.423  11.884  13.020  1.00  0.00    -0.545 OA
ATOM      9  O   UNL     1       7.896  10.332  13.713  1.00  0.00    -0.545 OA
ENDBRANCH   1   7
TORSDOF 1
ENDMDL
