MODEL 1
REMARK VINA RESULT:    -8.907      0.000      0.000
REMARK INTER + INTRA:         -13.588
REMARK INTER:                 -12.292
REMARK INTRA:                  -1.296
REMARK UNBOUND:                -1.296
REMARK SMILES O=C([O-])[C@@H]1O[C@@H](Oc2cc3oc(-c4ccccc4)cc(=O)c3c(O)c2O)[C@@H](O)[C@H](O)[C@@H]1O
REMARK SMILES IDX 7 1 6 2 4 3 31 4 5 5 29 6 27 7 2 8 1 9 3 10 32 11 30 13
REMARK SMILES IDX 28 15 8 17 25 18 9 19 23 20 10 21 22 22 11 23 20 24 12 25
REMARK SMILES IDX 19 26 21 27 26 28 24 30 13 32 14 33 18 34 15 35 17 36 16 37
REMARK H PARENT 32 12 30 14 28 16 26 29 24 31
REMARK Flexibility Score: inf
ROOT
ATOM      1  O   UNL     1      -9.735 -15.451  -1.822  1.00  0.00    -0.458 OA
ENDROOT
BRANCH   1   2
ATOM      2  C   UNL     1      -9.839 -16.740  -1.206  1.00  0.00     0.339 C 
ATOM      3  C   UNL     1     -11.409 -16.006   0.376  1.00  0.00     0.199 C 
ATOM      4  C   UNL     1     -10.438 -16.180   1.561  1.00  0.00     0.180 C 
ATOM      5  O   UNL     1     -11.130 -16.946  -0.650  1.00  0.00    -0.328 OA
ATOM      6  C   UNL     1      -8.995 -15.997   1.059  1.00  0.00     0.181 C 
ATOM      7  C   UNL     1      -8.736 -16.922  -0.146  1.00  0.00     0.214 C 
BRANCH   3   8
ATOM      8  C   UNL     1     -12.827 -16.179   0.835  1.00  0.00     0.073 C 
ATOM      9  O   UNL     1     -13.215 -15.670   1.920  1.00  0.00    -0.547 OA
ATOM     10  O   UNL     1     -13.737 -16.861   0.037  1.00  0.00    -0.547 OA
ENDBRANCH   3   8
BRANCH   4  11
ATOM     11  O   UNL     1     -10.600 -17.459   2.125  1.00  0.00    -0.387 OA
ATOM     12  H   UNL     1     -11.163 -17.349   2.935  1.00  0.00     0.211 HD
ENDBRANCH   4  11
BRANCH   6  13
ATOM     13  O   UNL     1      -8.095 -16.285   2.099  1.00  0.00    -0.387 OA
ATOM     14  H   UNL     1      -7.878 -15.422   2.542  1.00  0.00     0.211 HD
ENDBRANCH   6  13
BRANCH   7  15
ATOM     15  O   UNL     1      -7.488 -16.633  -0.723  1.00  0.00    -0.384 OA
ATOM     16  H   UNL     1      -7.639 -16.511  -1.696  1.00  0.00     0.211 HD
ENDBRANCH   7  15
ENDBRANCH   1   2
BRANCH   1  17
ATOM     17  C   UNL     1      -9.706 -15.211  -3.205  1.00  0.00     0.172 A 
ATOM     18  C   UNL     1      -8.463 -15.183  -3.857  1.00  0.00     0.201 A 
ATOM     19  C   UNL     1     -10.876 -15.008  -3.950  1.00  0.00     0.098 A 
ATOM     20  C   UNL     1      -8.379 -14.952  -5.239  1.00  0.00     0.176 A 
ATOM     21  C   UNL     1     -10.813 -14.740  -5.317  1.00  0.00     0.146 A 
ATOM     22  C   UNL     1      -9.564 -14.682  -5.985  1.00  0.00     0.111 A 
ATOM     23  O   UNL     1     -11.948 -14.530  -5.974  1.00  0.00    -0.456 OA
ATOM     24  C   UNL     1      -9.589 -14.327  -7.357  1.00  0.00     0.197 A 
ATOM     25  C   UNL     1     -12.003 -14.232  -7.269  1.00  0.00     0.138 A 
ATOM     26  C   UNL     1     -10.811 -14.124  -7.998  1.00  0.00     0.100 A 
ATOM     27  O   UNL     1      -8.535 -14.161  -8.023  1.00  0.00    -0.289 OA
BRANCH  18  28
ATOM     28  O   UNL     1      -7.285 -15.399  -3.140  1.00  0.00    -0.502 OA
ATOM     29  H   UNL     1      -6.706 -16.219  -3.278  1.00  0.00     0.293 HD
ENDBRANCH  18  28
BRANCH  20  30
ATOM     30  O   UNL     1      -7.105 -15.029  -5.811  1.00  0.00    -0.504 OA
ATOM     31  H   UNL     1      -6.771 -14.440  -6.558  1.00  0.00     0.293 HD
ENDBRANCH  20  30
BRANCH  25  32
ATOM     32  C   UNL     1     -13.333 -14.030  -7.899  1.00  0.00     0.017 A 
ATOM     33  C   UNL     1     -14.306 -15.049  -7.919  1.00  0.00     0.012 A 
ATOM     34  C   UNL     1     -13.623 -12.802  -8.522  1.00  0.00     0.012 A 
ATOM     35  C   UNL     1     -15.545 -14.832  -8.529  1.00  0.00     0.001 A 
ATOM     36  C   UNL     1     -14.864 -12.590  -9.130  1.00  0.00     0.001 A 
ATOM     37  C   UNL     1     -15.825 -13.603  -9.132  1.00  0.00     0.000 A 
ENDBRANCH  25  32
ENDBRANCH   1  17
TORSDOF 9
ENDMDL
MODEL 2
REMARK VINA RESULT:    -8.382      1.437      2.377
REMARK INTER + INTRA:         -12.862
REMARK INTER:                 -11.770
REMARK INTRA:                  -1.092
REMARK UNBOUND:                -1.296
REMARK SMILES O=C([O-])[C@@H]1O[C@@H](Oc2cc3oc(-c4ccccc4)cc(=O)c3c(O)c2O)[C@@H](O)[C@H](O)[C@@H]1O
REMARK SMILES IDX 7 1 6 2 4 3 31 4 5 5 29 6 27 7 2 8 1 9 3 10 32 11 30 13
REMARK SMILES IDX 28 15 8 17 25 18 9 19 23 20 10 21 22 22 11 23 20 24 12 25
REMARK SMILES IDX 19 26 21 27 26 28 24 30 13 32 14 33 18 34 15 35 17 36 16 37
REMARK H PARENT 32 12 30 14 28 16 26 29 24 31
REMARK Flexibility Score: inf
ROOT
ATOM      1  O   UNL     1     -10.059 -15.906  -2.183  1.00  0.00    -0.458 OA
ENDROOT
BRANCH   1   2
ATOM      2  C   UNL     1     -11.147 -15.574  -1.313  1.00  0.00     0.339 C 
ATOM      3  C   UNL     1      -9.777 -14.356   0.153  1.00  0.00     0.199 C 
ATOM      4  C   UNL     1      -9.949 -15.366   1.304  1.00  0.00     0.180 C 
ATOM      5  O   UNL     1     -10.933 -14.324  -0.670  1.00  0.00    -0.328 OA
ATOM      6  C   UNL     1     -10.210 -16.762   0.713  1.00  0.00     0.181 C 
ATOM      7  C   UNL     1     -11.381 -16.699  -0.287  1.00  0.00     0.214 C 
BRANCH   3   8
ATOM      8  C   UNL     1      -9.520 -12.982   0.699  1.00  0.00     0.073 C 
ATOM      9  O   UNL     1      -9.431 -11.992  -0.075  1.00  0.00    -0.547 OA
ATOM     10  O   UNL     1      -9.428 -12.787   2.071  1.00  0.00    -0.547 OA
ENDBRANCH   3   8
BRANCH   4  11
ATOM     11  O   UNL     1     -11.023 -14.974   2.125  1.00  0.00    -0.387 OA
ATOM     12  H   UNL     1     -11.465 -15.805   2.441  1.00  0.00     0.211 HD
ENDBRANCH   4  11
BRANCH   6  13
ATOM     13  O   UNL     1     -10.501 -17.665   1.750  1.00  0.00    -0.387 OA
ATOM     14  H   UNL     1     -10.322 -18.577   1.399  1.00  0.00     0.211 HD
ENDBRANCH   6  13
BRANCH   7  15
ATOM     15  O   UNL     1     -11.510 -17.923  -0.964  1.00  0.00    -0.384 OA
ATOM     16  H   UNL     1     -12.215 -17.800  -1.652  1.00  0.00     0.211 HD
ENDBRANCH   7  15
ENDBRANCH   1   2
BRANCH   1  17
ATOM     17  C   UNL     1      -9.904 -15.448  -3.501  1.00  0.00     0.172 A 
ATOM     18  C   UNL     1      -8.610 -15.366  -4.038  1.00  0.00     0.201 A 
ATOM     19  C   UNL     1     -10.999 -15.078  -4.294  1.00  0.00     0.098 A 
ATOM     20  C   UNL     1      -8.401 -14.919  -5.353  1.00  0.00     0.176 A 
ATOM     21  C   UNL     1     -10.812 -14.595  -5.589  1.00  0.00     0.146 A 
ATOM     22  C   UNL     1      -9.510 -14.481  -6.136  1.00  0.00     0.111 A 
ATOM     23  O   UNL     1     -11.881 -14.234  -6.291  1.00  0.00    -0.456 OA
ATOM     24  C   UNL     1      -9.407 -13.909  -7.428  1.00  0.00     0.197 A 
ATOM     25  C   UNL     1     -11.816 -13.729  -7.518  1.00  0.00     0.138 A 
ATOM     26  C   UNL     1     -10.564 -13.554  -8.122  1.00  0.00     0.100 A 
ATOM     27  O   UNL     1      -8.295 -13.682  -7.971  1.00  0.00    -0.289 OA
BRANCH  18  28
ATOM     28  O   UNL     1      -7.504 -15.745  -3.275  1.00  0.00    -0.502 OA
ATOM     29  H   UNL     1      -6.954 -16.569  -3.485  1.00  0.00     0.293 HD
ENDBRANCH  18  28
BRANCH  20  30
ATOM     30  O   UNL     1      -7.085 -14.955  -5.825  1.00  0.00    -0.504 OA
ATOM     31  H   UNL     1      -6.278 -15.189  -5.268  1.00  0.00     0.293 HD
ENDBRANCH  20  30
BRANCH  25  32
ATOM     32  C   UNL     1     -13.081 -13.372  -8.211  1.00  0.00     0.017 A 
ATOM     33  C   UNL     1     -13.259 -12.118  -8.831  1.00  0.00     0.012 A 
ATOM     34  C   UNL     1     -14.145 -14.293  -8.226  1.00  0.00     0.012 A 
ATOM     35  C   UNL     1     -14.465 -11.808  -9.466  1.00  0.00     0.001 A 
ATOM     36  C   UNL     1     -15.349 -13.977  -8.863  1.00  0.00     0.001 A 
ATOM     37  C   UNL     1     -15.508 -12.737  -9.485  1.00  0.00     0.000 A 
ENDBRANCH  25  32
ENDBRANCH   1  17
TORSDOF 9
ENDMDL
MODEL 3
REMARK VINA RESULT:    -7.726      2.251      8.376
REMARK INTER + INTRA:         -11.957
REMARK INTER:                 -10.836
REMARK INTRA:                  -1.121
REMARK UNBOUND:                -1.296
REMARK SMILES O=C([O-])[C@@H]1O[C@@H](Oc2cc3oc(-c4ccccc4)cc(=O)c3c(O)c2O)[C@@H](O)[C@H](O)[C@@H]1O
REMARK SMILES IDX 7 1 6 2 4 3 31 4 5 5 29 6 27 7 2 8 1 9 3 10 32 11 30 13
REMARK SMILES IDX 28 15 8 17 25 18 9 19 23 20 10 21 22 22 11 23 20 24 12 25
REMARK SMILES IDX 19 26 21 27 26 28 24 30 13 32 14 33 18 34 15 35 17 36 16 37
REMARK H PARENT 32 12 30 14 28 16 26 29 24 31
REMARK Flexibility Score: inf
ROOT
ATOM      1  O   UNL     1     -11.838 -13.574  -7.204  1.00  0.00    -0.458 OA
ENDROOT
BRANCH   1   2
ATOM      2  C   UNL     1     -13.041 -12.835  -6.965  1.00  0.00     0.339 C 
ATOM      3  C   UNL     1     -14.326 -14.219  -8.358  1.00  0.00     0.199 C 
ATOM      4  C   UNL     1     -14.561 -13.110  -9.402  1.00  0.00     0.180 C 
ATOM      5  O   UNL     1     -14.189 -13.669  -7.057  1.00  0.00    -0.328 OA
ATOM      6  C   UNL     1     -13.377 -12.129  -9.370  1.00  0.00     0.181 C 
ATOM      7  C   UNL     1     -13.140 -11.638  -7.928  1.00  0.00     0.214 C 
BRANCH   3   8
ATOM      8  C   UNL     1     -15.468 -15.194  -8.366  1.00  0.00     0.073 C 
ATOM      9  O   UNL     1     -16.120 -15.405  -9.423  1.00  0.00    -0.547 OA
ATOM     10  O   UNL     1     -15.779 -15.907  -7.216  1.00  0.00    -0.547 OA
ENDBRANCH   3   8
BRANCH   4  11
ATOM     11  O   UNL     1     -15.762 -12.434  -9.116  1.00  0.00    -0.387 OA
ATOM     12  H   UNL     1     -16.434 -13.125  -8.876  1.00  0.00     0.211 HD
ENDBRANCH   4  11
BRANCH   6  13
ATOM     13  O   UNL     1     -13.642 -11.042 -10.220  1.00  0.00    -0.387 OA
ATOM     14  H   UNL     1     -12.892 -10.400 -10.112  1.00  0.00     0.211 HD
ENDBRANCH   6  13
BRANCH   7  15
ATOM     15  O   UNL     1     -11.954 -10.888  -7.858  1.00  0.00    -0.384 OA
ATOM     16  H   UNL     1     -11.641 -10.929  -6.916  1.00  0.00     0.211 HD
ENDBRANCH   7  15
ENDBRANCH   1   2
BRANCH   1  17
ATOM     17  C   UNL     1     -10.984 -14.079  -6.211  1.00  0.00     0.172 A 
ATOM     18  C   UNL     1      -9.621 -14.237  -6.510  1.00  0.00     0.201 A 
ATOM     19  C   UNL     1     -11.449 -14.423  -4.934  1.00  0.00     0.098 A 
ATOM     20  C   UNL     1      -8.725 -14.733  -5.549  1.00  0.00     0.176 A 
ATOM     21  C   UNL     1     -10.584 -14.954  -3.978  1.00  0.00     0.146 A 
ATOM     22  C   UNL     1      -9.210 -15.143  -4.273  1.00  0.00     0.111 A 
ATOM     23  O   UNL     1     -11.079 -15.287  -2.791  1.00  0.00    -0.456 OA
ATOM     24  C   UNL     1      -8.421 -15.759  -3.271  1.00  0.00     0.197 A 
ATOM     25  C   UNL     1     -10.352 -15.832  -1.820  1.00  0.00     0.138 A 
ATOM     26  C   UNL     1      -8.991 -16.082  -2.040  1.00  0.00     0.100 A 
ATOM     27  O   UNL     1      -7.212 -16.053  -3.461  1.00  0.00    -0.289 OA
BRANCH  18  28
ATOM     28  O   UNL     1      -9.130 -13.885  -7.768  1.00  0.00    -0.502 OA
ATOM     29  H   UNL     1      -8.826 -14.574  -8.446  1.00  0.00     0.293 HD
ENDBRANCH  18  28
BRANCH  20  30
ATOM     30  O   UNL     1      -7.375 -14.771  -5.914  1.00  0.00    -0.504 OA
ATOM     31  H   UNL     1      -7.020 -15.165  -6.771  1.00  0.00     0.293 HD
ENDBRANCH  20  30
BRANCH  25  32
ATOM     32  C   UNL     1     -11.013 -16.152  -0.529  1.00  0.00     0.017 A 
ATOM     33  C   UNL     1     -10.445 -15.780   0.707  1.00  0.00     0.012 A 
ATOM     34  C   UNL     1     -12.221 -16.873  -0.530  1.00  0.00     0.012 A 
ATOM     35  C   UNL     1     -11.086 -16.105   1.906  1.00  0.00     0.001 A 
ATOM     36  C   UNL     1     -12.858 -17.195   0.673  1.00  0.00     0.001 A 
ATOM     37  C   UNL     1     -12.293 -16.809   1.889  1.00  0.00     0.000 A 
ENDBRANCH  25  32
ENDBRANCH   1  17
TORSDOF 9
ENDMDL
MODEL 4
REMARK VINA RESULT:    -7.312      1.427      1.948
REMARK INTER + INTRA:         -11.386
REMARK INTER:                 -10.970
REMARK INTRA:                  -0.417
REMARK UNBOUND:                -1.296
REMARK SMILES O=C([O-])[C@@H]1O[C@@H](Oc2cc3oc(-c4ccccc4)cc(=O)c3c(O)c2O)[C@@H](O)[C@H](O)[C@@H]1O
REMARK SMILES IDX 7 1 6 2 4 3 31 4 5 5 29 6 27 7 2 8 1 9 3 10 32 11 30 13
REMARK SMILES IDX 28 15 8 17 25 18 9 19 23 20 10 21 22 22 11 23 20 24 12 25
REMARK SMILES IDX 19 26 21 27 26 28 24 30 13 32 14 33 18 34 15 35 17 36 16 37
REMARK H PARENT 32 12 30 14 28 16 26 29 24 31
REMARK Flexibility Score: inf
ROOT
ATOM      1  O   UNL     1     -10.533 -14.610  -2.303  1.00  0.00    -0.458 OA
ENDROOT
BRANCH   1   2
ATOM      2  C   UNL     1      -9.902 -15.547  -1.422  1.00  0.00     0.339 C 
ATOM      3  C   UNL     1     -11.945 -16.464  -0.719  1.00  0.00     0.199 C 
ATOM      4  C   UNL     1     -11.801 -15.925   0.718  1.00  0.00     0.180 C 
ATOM      5  O   UNL     1     -10.674 -16.733  -1.289  1.00  0.00    -0.328 OA
ATOM      6  C   UNL     1     -10.955 -14.641   0.691  1.00  0.00     0.181 C 
ATOM      7  C   UNL     1      -9.630 -14.900  -0.051  1.00  0.00     0.214 C 
BRANCH   3   8
ATOM      8  C   UNL     1     -12.768 -17.719  -0.725  1.00  0.00     0.073 C 
ATOM      9  O   UNL     1     -13.499 -18.009   0.258  1.00  0.00    -0.547 OA
ATOM     10  O   UNL     1     -12.765 -18.544  -1.843  1.00  0.00    -0.547 OA
ENDBRANCH   3   8
BRANCH   4  11
ATOM     11  O   UNL     1     -11.188 -16.897   1.531  1.00  0.00    -0.387 OA
ATOM     12  H   UNL     1     -11.837 -17.641   1.634  1.00  0.00     0.211 HD
ENDBRANCH   4  11
BRANCH   6  13
ATOM     13  O   UNL     1     -10.704 -14.215   2.007  1.00  0.00    -0.387 OA
ATOM     14  H   UNL     1     -10.907 -13.243   2.040  1.00  0.00     0.211 HD
ENDBRANCH   6  13
BRANCH   7  15
ATOM     15  O   UNL     1      -8.933 -13.694  -0.239  1.00  0.00    -0.384 OA
ATOM     16  H   UNL     1      -9.396 -13.004   0.304  1.00  0.00     0.211 HD
ENDBRANCH   7  15
ENDBRANCH   1   2
BRANCH   1  17
ATOM     17  C   UNL     1     -10.273 -14.486  -3.677  1.00  0.00     0.172 A 
ATOM     18  C   UNL     1      -9.008 -14.856  -4.159  1.00  0.00     0.201 A 
ATOM     19  C   UNL     1     -11.237 -14.012  -4.577  1.00  0.00     0.098 A 
ATOM     20  C   UNL     1      -8.699 -14.756  -5.525  1.00  0.00     0.176 A 
ATOM     21  C   UNL     1     -10.939 -13.868  -5.932  1.00  0.00     0.146 A 
ATOM     22  C   UNL     1      -9.658 -14.213  -6.430  1.00  0.00     0.111 A 
ATOM     23  O   UNL     1     -11.880 -13.391  -6.740  1.00  0.00    -0.456 OA
ATOM     24  C   UNL     1      -9.418 -13.963  -7.804  1.00  0.00     0.197 A 
ATOM     25  C   UNL     1     -11.693 -13.181  -8.040  1.00  0.00     0.138 A 
ATOM     26  C   UNL     1     -10.444 -13.467  -8.608  1.00  0.00     0.100 A 
ATOM     27  O   UNL     1      -8.290 -14.150  -8.329  1.00  0.00    -0.289 OA
BRANCH  18  28
ATOM     28  O   UNL     1      -8.036 -15.348  -3.286  1.00  0.00    -0.502 OA
ATOM     29  H   UNL     1      -7.061 -15.080  -3.349  1.00  0.00     0.293 HD
ENDBRANCH  18  28
BRANCH  20  30
ATOM     30  O   UNL     1      -7.444 -15.231  -5.920  1.00  0.00    -0.504 OA
ATOM     31  H   UNL     1      -7.187 -15.465  -6.866  1.00  0.00     0.293 HD
ENDBRANCH  20  30
BRANCH  25  32
ATOM     32  C   UNL     1     -12.823 -12.655  -8.847  1.00  0.00     0.017 A 
ATOM     33  C   UNL     1     -12.642 -11.626  -9.793  1.00  0.00     0.012 A 
ATOM     34  C   UNL     1     -14.116 -13.170  -8.645  1.00  0.00     0.012 A 
ATOM     35  C   UNL     1     -13.728 -11.144 -10.531  1.00  0.00     0.001 A 
ATOM     36  C   UNL     1     -15.199 -12.685  -9.386  1.00  0.00     0.001 A 
ATOM     37  C   UNL     1     -15.004 -11.675 -10.329  1.00  0.00     0.000 A 
ENDBRANCH  25  32
ENDBRANCH   1  17
TORSDOF 9
ENDMDL
MODEL 5
REMARK VINA RESULT:    -7.280      2.445      8.993
REMARK INTER + INTRA:         -11.342
REMARK INTER:                 -10.123
REMARK INTRA:                  -1.220
REMARK UNBOUND:                -1.296
REMARK SMILES O=C([O-])[C@@H]1O[C@@H](Oc2cc3oc(-c4ccccc4)cc(=O)c3c(O)c2O)[C@@H](O)[C@H](O)[C@@H]1O
REMARK SMILES IDX 7 1 6 2 4 3 31 4 5 5 29 6 27 7 2 8 1 9 3 10 32 11 30 13
REMARK SMILES IDX 28 15 8 17 25 18 9 19 23 20 10 21 22 22 11 23 20 24 12 25
REMARK SMILES IDX 19 26 21 27 26 28 24 30 13 32 14 33 18 34 15 35 17 36 16 37
REMARK H PARENT 32 12 30 14 28 16 26 29 24 31
REMARK Flexibility Score: inf
ROOT
ATOM      1  O   UNL     1     -11.412 -12.834  -7.156  1.00  0.00    -0.458 OA
ENDROOT
BRANCH   1   2
ATOM      2  C   UNL     1     -11.966 -13.374  -8.362  1.00  0.00     0.339 C 
ATOM      3  C   UNL     1     -10.990 -11.718  -9.708  1.00  0.00     0.199 C 
ATOM      4  C   UNL     1     -12.347 -11.084 -10.076  1.00  0.00     0.180 C 
ATOM      5  O   UNL     1     -11.127 -13.111  -9.479  1.00  0.00    -0.328 OA
ATOM      6  C   UNL     1     -13.344 -11.333  -8.932  1.00  0.00     0.181 C 
ATOM      7  C   UNL     1     -13.390 -12.835  -8.591  1.00  0.00     0.214 C 
BRANCH   3   8
ATOM      8  C   UNL     1      -9.993 -11.491 -10.807  1.00  0.00     0.073 C 
ATOM      9  O   UNL     1      -8.909 -10.893 -10.574  1.00  0.00    -0.547 OA
ATOM     10  O   UNL     1     -10.241 -11.987 -12.081  1.00  0.00    -0.547 OA
ENDBRANCH   3   8
BRANCH   4  11
ATOM     11  O   UNL     1     -12.825 -11.649 -11.273  1.00  0.00    -0.387 OA
ATOM     12  H   UNL     1     -12.989 -10.899 -11.903  1.00  0.00     0.211 HD
ENDBRANCH   4  11
BRANCH   6  13
ATOM     13  O   UNL     1     -14.619 -10.878  -9.313  1.00  0.00    -0.387 OA
ATOM     14  H   UNL     1     -15.076 -10.573  -8.486  1.00  0.00     0.211 HD
ENDBRANCH   6  13
BRANCH   7  15
ATOM     15  O   UNL     1     -14.157 -13.048  -7.434  1.00  0.00    -0.384 OA
ATOM     16  H   UNL     1     -13.545 -13.414  -6.743  1.00  0.00     0.211 HD
ENDBRANCH   7  15
ENDBRANCH   1   2
BRANCH   1  17
ATOM     17  C   UNL     1     -10.694 -13.563  -6.195  1.00  0.00     0.172 A 
ATOM     18  C   UNL     1      -9.383 -13.966  -6.496  1.00  0.00     0.201 A 
ATOM     19  C   UNL     1     -11.242 -13.894  -4.948  1.00  0.00     0.098 A 
ATOM     20  C   UNL     1      -8.620 -14.692  -5.567  1.00  0.00     0.176 A 
ATOM     21  C   UNL     1     -10.516 -14.648  -4.026  1.00  0.00     0.146 A 
ATOM     22  C   UNL     1      -9.201 -15.084  -4.326  1.00  0.00     0.111 A 
ATOM     23  O   UNL     1     -11.090 -14.956  -2.868  1.00  0.00    -0.456 OA
ATOM     24  C   UNL     1      -8.567 -15.909  -3.364  1.00  0.00     0.197 A 
ATOM     25  C   UNL     1     -10.504 -15.697  -1.933  1.00  0.00     0.138 A 
ATOM     26  C   UNL     1      -9.214 -16.195  -2.162  1.00  0.00     0.100 A 
ATOM     27  O   UNL     1      -7.437 -16.421  -3.567  1.00  0.00    -0.289 OA
BRANCH  18  28
ATOM     28  O   UNL     1      -8.808 -13.634  -7.724  1.00  0.00    -0.502 OA
ATOM     29  H   UNL     1      -9.042 -14.117  -8.583  1.00  0.00     0.293 HD
ENDBRANCH  18  28
BRANCH  20  30
ATOM     30  O   UNL     1      -7.297 -14.971  -5.926  1.00  0.00    -0.504 OA
ATOM     31  H   UNL     1      -6.592 -14.275  -6.116  1.00  0.00     0.293 HD
ENDBRANCH  20  30
BRANCH  25  32
ATOM     32  C   UNL     1     -11.239 -15.967  -0.671  1.00  0.00     0.017 A 
ATOM     33  C   UNL     1     -11.053 -15.174   0.480  1.00  0.00     0.012 A 
ATOM     34  C   UNL     1     -12.123 -17.060  -0.606  1.00  0.00     0.012 A 
ATOM     35  C   UNL     1     -11.753 -15.460   1.656  1.00  0.00     0.001 A 
ATOM     36  C   UNL     1     -12.820 -17.341   0.573  1.00  0.00     0.001 A 
ATOM     37  C   UNL     1     -12.638 -16.540   1.702  1.00  0.00     0.000 A 
ENDBRANCH  25  32
ENDBRANCH   1  17
TORSDOF 9
ENDMDL
MODEL 6
REMARK VINA RESULT:    -6.758      1.325      2.642
REMARK INTER + INTRA:         -10.622
REMARK INTER:                  -9.818
REMARK INTRA:                  -0.804
REMARK UNBOUND:                -1.296
REMARK SMILES O=C([O-])[C@@H]1O[C@@H](Oc2cc3oc(-c4ccccc4)cc(=O)c3c(O)c2O)[C@@H](O)[C@H](O)[C@@H]1O
REMARK SMILES IDX 7 1 6 2 4 3 31 4 5 5 29 6 27 7 2 8 1 9 3 10 32 11 30 13
REMARK SMILES IDX 28 15 8 17 25 18 9 19 23 20 10 21 22 22 11 23 20 24 12 25
REMARK SMILES IDX 19 26 21 27 26 28 24 30 13 32 14 33 18 34 15 35 17 36 16 37
REMARK H PARENT 32 12 30 14 28 16 26 29 24 31
REMARK Flexibility Score: inf
ROOT
ATOM      1  O   UNL     1     -10.058 -15.526  -2.514  1.00  0.00    -0.458 OA
ENDROOT
BRANCH   1   2
ATOM      2  C   UNL     1      -9.705 -14.758  -1.357  1.00  0.00     0.339 C 
ATOM      3  C   UNL     1      -9.974 -16.579   0.098  1.00  0.00     0.199 C 
ATOM      4  C   UNL     1     -11.200 -15.960   0.798  1.00  0.00     0.180 C 
ATOM      5  O   UNL     1      -9.091 -15.569  -0.364  1.00  0.00    -0.328 OA
ATOM      6  C   UNL     1     -11.931 -15.037  -0.191  1.00  0.00     0.181 C 
ATOM      7  C   UNL     1     -10.939 -14.026  -0.798  1.00  0.00     0.214 C 
BRANCH   3   8
ATOM      8  C   UNL     1      -9.239 -17.487   1.040  1.00  0.00     0.073 C 
ATOM      9  O   UNL     1      -9.436 -18.731   1.014  1.00  0.00    -0.547 OA
ATOM     10  O   UNL     1      -8.295 -16.963   1.915  1.00  0.00    -0.547 OA
ENDBRANCH   3   8
BRANCH   4  11
ATOM     11  O   UNL     1     -10.784 -15.233   1.929  1.00  0.00    -0.387 OA
ATOM     12  H   UNL     1      -9.923 -14.797   1.694  1.00  0.00     0.211 HD
ENDBRANCH   4  11
BRANCH   6  13
ATOM     13  O   UNL     1     -12.971 -14.364   0.474  1.00  0.00    -0.387 OA
ATOM     14  H   UNL     1     -12.549 -13.796   1.170  1.00  0.00     0.211 HD
ENDBRANCH   6  13
BRANCH   7  15
ATOM     15  O   UNL     1     -11.555 -13.301  -1.832  1.00  0.00    -0.384 OA
ATOM     16  H   UNL     1     -11.482 -12.339  -1.595  1.00  0.00     0.211 HD
ENDBRANCH   7  15
ENDBRANCH   1   2
BRANCH   1  17
ATOM     17  C   UNL     1      -9.845 -15.133  -3.845  1.00  0.00     0.172 A 
ATOM     18  C   UNL     1      -8.544 -15.203  -4.368  1.00  0.00     0.201 A 
ATOM     19  C   UNL     1     -10.890 -14.683  -4.664  1.00  0.00     0.098 A 
ATOM     20  C   UNL     1      -8.279 -14.827  -5.694  1.00  0.00     0.176 A 
ATOM     21  C   UNL     1     -10.642 -14.268  -5.973  1.00  0.00     0.146 A 
ATOM     22  C   UNL     1      -9.330 -14.308  -6.507  1.00  0.00     0.111 A 
ATOM     23  O   UNL     1     -11.662 -13.826  -6.700  1.00  0.00    -0.456 OA
ATOM     24  C   UNL     1      -9.158 -13.796  -7.816  1.00  0.00     0.197 A 
ATOM     25  C   UNL     1     -11.535 -13.375  -7.944  1.00  0.00     0.138 A 
ATOM     26  C   UNL     1     -10.265 -13.350  -8.538  1.00  0.00     0.100 A 
ATOM     27  O   UNL     1      -8.023 -13.703  -8.353  1.00  0.00    -0.289 OA
BRANCH  18  28
ATOM     28  O   UNL     1      -7.490 -15.664  -3.578  1.00  0.00    -0.502 OA
ATOM     29  H   UNL     1      -7.625 -16.321  -2.818  1.00  0.00     0.293 HD
ENDBRANCH  18  28
BRANCH  20  30
ATOM     30  O   UNL     1      -6.969 -15.014  -6.149  1.00  0.00    -0.504 OA
ATOM     31  H   UNL     1      -6.545 -14.507  -6.910  1.00  0.00     0.293 HD
ENDBRANCH  20  30
BRANCH  25  32
ATOM     32  C   UNL     1     -12.750 -12.917  -8.665  1.00  0.00     0.017 A 
ATOM     33  C   UNL     1     -12.717 -11.823  -9.553  1.00  0.00     0.012 A 
ATOM     34  C   UNL     1     -13.976 -13.568  -8.437  1.00  0.00     0.012 A 
ATOM     35  C   UNL     1     -13.880 -11.409 -10.209  1.00  0.00     0.001 A 
ATOM     36  C   UNL     1     -15.136 -13.150  -9.096  1.00  0.00     0.001 A 
ATOM     37  C   UNL     1     -15.088 -12.073  -9.983  1.00  0.00     0.000 A 
ENDBRANCH  25  32
ENDBRANCH   1  17
TORSDOF 9
ENDMDL
MODEL 7
REMARK VINA RESULT:    -6.536      4.151     10.523
REMARK INTER + INTRA:         -10.315
REMARK INTER:                  -9.080
REMARK INTRA:                  -1.235
REMARK UNBOUND:                -1.296
REMARK SMILES O=C([O-])[C@@H]1O[C@@H](Oc2cc3oc(-c4ccccc4)cc(=O)c3c(O)c2O)[C@@H](O)[C@H](O)[C@@H]1O
REMARK SMILES IDX 7 1 6 2 4 3 31 4 5 5 29 6 27 7 2 8 1 9 3 10 32 11 30 13
REMARK SMILES IDX 28 15 8 17 25 18 9 19 23 20 10 21 22 22 11 23 20 24 12 25
REMARK SMILES IDX 19 26 21 27 26 28 24 30 13 32 14 33 18 34 15 35 17 36 16 37
REMARK H PARENT 32 12 30 14 28 16 26 29 24 31
REMARK Flexibility Score: inf
ROOT
ATOM      1  O   UNL     1      -9.957 -12.752 -10.604  1.00  0.00    -0.458 OA
ENDROOT
BRANCH   1   2
ATOM      2  C   UNL     1      -9.586 -11.524 -11.241  1.00  0.00     0.339 C 
ATOM      3  C   UNL     1     -10.751 -12.041 -13.212  1.00  0.00     0.199 C 
ATOM      4  C   UNL     1      -9.464 -12.171 -14.051  1.00  0.00     0.180 C 
ATOM      5  O   UNL     1     -10.579 -11.099 -12.164  1.00  0.00    -0.328 OA
ATOM      6  C   UNL     1      -8.309 -12.609 -13.135  1.00  0.00     0.181 C 
ATOM      7  C   UNL     1      -8.211 -11.664 -11.922  1.00  0.00     0.214 C 
BRANCH   3   8
ATOM      8  C   UNL     1     -11.898 -11.614 -14.080  1.00  0.00     0.073 C 
ATOM      9  O   UNL     1     -11.796 -11.642 -15.335  1.00  0.00    -0.547 OA
ATOM     10  O   UNL     1     -13.102 -11.232 -13.500  1.00  0.00    -0.547 OA
ENDBRANCH   3   8
BRANCH   4  11
ATOM     11  O   UNL     1      -9.165 -10.937 -14.657  1.00  0.00    -0.387 OA
ATOM     12  H   UNL     1      -9.966 -10.668 -15.179  1.00  0.00     0.211 HD
ENDBRANCH   4  11
BRANCH   6  13
ATOM     13  O   UNL     1      -7.105 -12.602 -13.860  1.00  0.00    -0.387 OA
ATOM     14  H   UNL     1      -6.945 -11.665 -14.146  1.00  0.00     0.211 HD
ENDBRANCH   6  13
BRANCH   7  15
ATOM     15  O   UNL     1      -7.282 -12.159 -10.992  1.00  0.00    -0.384 OA
ATOM     16  H   UNL     1      -7.799 -12.631 -10.289  1.00  0.00     0.211 HD
ENDBRANCH   7  15
ENDBRANCH   1   2
BRANCH   1  17
ATOM     17  C   UNL     1     -10.636 -12.858  -9.380  1.00  0.00     0.172 A 
ATOM     18  C   UNL     1     -11.947 -12.364  -9.292  1.00  0.00     0.201 A 
ATOM     19  C   UNL     1     -10.049 -13.446  -8.251  1.00  0.00     0.098 A 
ATOM     20  C   UNL     1     -12.672 -12.450  -8.092  1.00  0.00     0.176 A 
ATOM     21  C   UNL     1     -10.737 -13.508  -7.039  1.00  0.00     0.146 A 
ATOM     22  C   UNL     1     -12.052 -12.989  -6.927  1.00  0.00     0.111 A 
ATOM     23  O   UNL     1     -10.127 -14.052  -5.992  1.00  0.00    -0.456 OA
ATOM     24  C   UNL     1     -12.645 -13.024  -5.641  1.00  0.00     0.197 A 
ATOM     25  C   UNL     1     -10.675 -14.132  -4.783  1.00  0.00     0.138 A 
ATOM     26  C   UNL     1     -11.961 -13.614  -4.578  1.00  0.00     0.100 A 
ATOM     27  O   UNL     1     -13.771 -12.513  -5.412  1.00  0.00    -0.289 OA
BRANCH  18  28
ATOM     28  O   UNL     1     -12.561 -11.789 -10.407  1.00  0.00    -0.502 OA
ATOM     29  H   UNL     1     -12.047 -11.250 -11.093  1.00  0.00     0.293 HD
ENDBRANCH  18  28
BRANCH  20  30
ATOM     30  O   UNL     1     -13.999 -12.009  -8.130  1.00  0.00    -0.504 OA
ATOM     31  H   UNL     1     -14.645 -12.185  -8.884  1.00  0.00     0.293 HD
ENDBRANCH  20  30
BRANCH  25  32
ATOM     32  C   UNL     1      -9.902 -14.774  -3.690  1.00  0.00     0.017 A 
ATOM     33  C   UNL     1      -8.674 -15.422  -3.932  1.00  0.00     0.012 A 
ATOM     34  C   UNL     1     -10.418 -14.766  -2.381  1.00  0.00     0.012 A 
ATOM     35  C   UNL     1      -7.974 -16.026  -2.883  1.00  0.00     0.001 A 
ATOM     36  C   UNL     1      -9.714 -15.372  -1.336  1.00  0.00     0.001 A 
ATOM     37  C   UNL     1      -8.492 -15.999  -1.586  1.00  0.00     0.000 A 
ENDBRANCH  25  32
ENDBRANCH   1  17
TORSDOF 9
ENDMDL
MODEL 8
REMARK VINA RESULT:    -6.421      4.929     10.269
REMARK INTER + INTRA:         -10.157
REMARK INTER:                  -9.033
REMARK INTRA:                  -1.124
REMARK UNBOUND:                -1.296
REMARK SMILES O=C([O-])[C@@H]1O[C@@H](Oc2cc3oc(-c4ccccc4)cc(=O)c3c(O)c2O)[C@@H](O)[C@H](O)[C@@H]1O
REMARK SMILES IDX 7 1 6 2 4 3 31 4 5 5 29 6 27 7 2 8 1 9 3 10 32 11 30 13
REMARK SMILES IDX 28 15 8 17 25 18 9 19 23 20 10 21 22 22 11 23 20 24 12 25
REMARK SMILES IDX 19 26 21 27 26 28 24 30 13 32 14 33 18 34 15 35 17 36 16 37
REMARK H PARENT 32 12 30 14 28 16 26 29 24 31
REMARK Flexibility Score: inf
ROOT
ATOM      1  O   UNL     1      -7.506 -12.372 -11.594  1.00  0.00    -0.458 OA
ENDROOT
BRANCH   1   2
ATOM      2  C   UNL     1      -7.832 -11.188 -12.331  1.00  0.00     0.339 C 
ATOM      3  C   UNL     1      -9.167 -12.352 -13.870  1.00  0.00     0.199 C 
ATOM      4  C   UNL     1      -8.202 -12.097 -15.044  1.00  0.00     0.180 C 
ATOM      5  O   UNL     1      -9.116 -11.288 -12.932  1.00  0.00    -0.328 OA
ATOM      6  C   UNL     1      -6.772 -11.949 -14.497  1.00  0.00     0.181 C 
ATOM      7  C   UNL     1      -6.744 -10.888 -13.379  1.00  0.00     0.214 C 
BRANCH   3   8
ATOM      8  C   UNL     1     -10.573 -12.501 -14.374  1.00  0.00     0.073 C 
ATOM      9  O   UNL     1     -11.313 -11.491 -14.514  1.00  0.00    -0.547 OA
ATOM     10  O   UNL     1     -11.051 -13.754 -14.737  1.00  0.00    -0.547 OA
ENDBRANCH   3   8
BRANCH   4  11
ATOM     11  O   UNL     1      -8.586 -10.929 -15.730  1.00  0.00    -0.387 OA
ATOM     12  H   UNL     1      -9.429 -10.612 -15.314  1.00  0.00     0.211 HD
ENDBRANCH   4  11
BRANCH   6  13
ATOM     13  O   UNL     1      -5.904 -11.584 -15.540  1.00  0.00    -0.387 OA
ATOM     14  H   UNL     1      -6.005 -12.268 -16.253  1.00  0.00     0.211 HD
ENDBRANCH   6  13
BRANCH   7  15
ATOM     15  O   UNL     1      -5.487 -10.875 -12.751  1.00  0.00    -0.384 OA
ATOM     16  H   UNL     1      -5.134  -9.951 -12.830  1.00  0.00     0.211 HD
ENDBRANCH   7  15
ENDBRANCH   1   2
BRANCH   1  17
ATOM     17  C   UNL     1      -8.075 -12.747 -10.366  1.00  0.00     0.172 A 
ATOM     18  C   UNL     1      -7.260 -12.762  -9.223  1.00  0.00     0.201 A 
ATOM     19  C   UNL     1      -9.427 -13.098 -10.248  1.00  0.00     0.098 A 
ATOM     20  C   UNL     1      -7.781 -13.124  -7.971  1.00  0.00     0.176 A 
ATOM     21  C   UNL     1      -9.956 -13.497  -9.021  1.00  0.00     0.146 A 
ATOM     22  C   UNL     1      -9.140 -13.543  -7.863  1.00  0.00     0.111 A 
ATOM     23  O   UNL     1     -11.238 -13.844  -8.967  1.00  0.00    -0.456 OA
ATOM     24  C   UNL     1      -9.740 -14.034  -6.678  1.00  0.00     0.197 A 
ATOM     25  C   UNL     1     -11.835 -14.273  -7.860  1.00  0.00     0.138 A 
ATOM     26  C   UNL     1     -11.092 -14.378  -6.676  1.00  0.00     0.100 A 
ATOM     27  O   UNL     1      -9.085 -14.198  -5.617  1.00  0.00    -0.289 OA
BRANCH  18  28
ATOM     28  O   UNL     1      -5.915 -12.400  -9.311  1.00  0.00    -0.502 OA
ATOM     29  H   UNL     1      -5.385 -12.476 -10.172  1.00  0.00     0.293 HD
ENDBRANCH  18  28
BRANCH  20  30
ATOM     30  O   UNL     1      -6.913 -13.024  -6.878  1.00  0.00    -0.504 OA
ATOM     31  H   UNL     1      -5.955 -12.713  -6.929  1.00  0.00     0.293 HD
ENDBRANCH  20  30
BRANCH  25  32
ATOM     32  C   UNL     1     -13.278 -14.621  -7.917  1.00  0.00     0.017 A 
ATOM     33  C   UNL     1     -13.813 -15.691  -7.170  1.00  0.00     0.012 A 
ATOM     34  C   UNL     1     -14.133 -13.889  -8.760  1.00  0.00     0.012 A 
ATOM     35  C   UNL     1     -15.173 -16.001  -7.253  1.00  0.00     0.001 A 
ATOM     36  C   UNL     1     -15.494 -14.203  -8.839  1.00  0.00     0.001 A 
ATOM     37  C   UNL     1     -16.014 -15.256  -8.084  1.00  0.00     0.000 A 
ENDBRANCH  25  32
ENDBRANCH   1  17
TORSDOF 9
ENDMDL
MODEL 9
REMARK VINA RESULT:    -6.372      7.342     12.956
REMARK INTER + INTRA:         -10.088
REMARK INTER:                  -8.735
REMARK INTRA:                  -1.354
REMARK UNBOUND:                -1.296
REMARK SMILES O=C([O-])[C@@H]1O[C@@H](Oc2cc3oc(-c4ccccc4)cc(=O)c3c(O)c2O)[C@@H](O)[C@H](O)[C@@H]1O
REMARK SMILES IDX 7 1 6 2 4 3 31 4 5 5 29 6 27 7 2 8 1 9 3 10 32 11 30 13
REMARK SMILES IDX 28 15 8 17 25 18 9 19 23 20 10 21 22 22 11 23 20 24 12 25
REMARK SMILES IDX 19 26 21 27 26 28 24 30 13 32 14 33 18 34 15 35 17 36 16 37
REMARK H PARENT 32 12 30 14 28 16 26 29 24 31
REMARK Flexibility Score: inf
ROOT
ATOM      1  O   UNL     1      -9.284 -12.334 -13.641  1.00  0.00    -0.458 OA
ENDROOT
BRANCH   1   2
ATOM      2  C   UNL     1      -9.278 -13.592 -14.325  1.00  0.00     0.339 C 
ATOM      3  C   UNL     1      -8.045 -12.752 -16.136  1.00  0.00     0.199 C 
ATOM      4  C   UNL     1      -9.218 -12.898 -17.125  1.00  0.00     0.180 C 
ATOM      5  O   UNL     1      -8.111 -13.743 -15.122  1.00  0.00    -0.328 OA
ATOM      6  C   UNL     1     -10.543 -12.772 -16.355  1.00  0.00     0.181 C 
ATOM      7  C   UNL     1     -10.557 -13.754 -15.168  1.00  0.00     0.214 C 
BRANCH   3   8
ATOM      8  C   UNL     1      -6.735 -12.871 -16.860  1.00  0.00     0.073 C 
ATOM      9  O   UNL     1      -6.707 -13.044 -18.107  1.00  0.00    -0.547 OA
ATOM     10  O   UNL     1      -5.542 -12.737 -16.161  1.00  0.00    -0.547 OA
ENDBRANCH   3   8
BRANCH   4  11
ATOM     11  O   UNL     1      -9.144 -14.147 -17.770  1.00  0.00    -0.387 OA
ATOM     12  H   UNL     1      -8.201 -14.271 -18.055  1.00  0.00     0.211 HD
ENDBRANCH   4  11
BRANCH   6  13
ATOM     13  O   UNL     1     -11.618 -13.036 -17.222  1.00  0.00    -0.387 OA
ATOM     14  H   UNL     1     -12.449 -12.963 -16.683  1.00  0.00     0.211 HD
ENDBRANCH   6  13
BRANCH   7  15
ATOM     15  O   UNL     1     -11.679 -13.522 -14.356  1.00  0.00    -0.384 OA
ATOM     16  H   UNL     1     -12.246 -14.335 -14.405  1.00  0.00     0.211 HD
ENDBRANCH   7  15
ENDBRANCH   1   2
BRANCH   1  17
ATOM     17  C   UNL     1      -9.121 -12.161 -12.257  1.00  0.00     0.172 A 
ATOM     18  C   UNL     1     -10.264 -11.982 -11.461  1.00  0.00     0.201 A 
ATOM     19  C   UNL     1      -7.858 -12.169 -11.650  1.00  0.00     0.098 A 
ATOM     20  C   UNL     1     -10.155 -11.811 -10.072  1.00  0.00     0.176 A 
ATOM     21  C   UNL     1      -7.724 -11.962 -10.277  1.00  0.00     0.146 A 
ATOM     22  C   UNL     1      -8.867 -11.754  -9.464  1.00  0.00     0.111 A 
ATOM     23  O   UNL     1      -6.503 -11.954  -9.753  1.00  0.00    -0.456 OA
ATOM     24  C   UNL     1      -8.633 -11.475  -8.095  1.00  0.00     0.197 A 
ATOM     25  C   UNL     1      -6.259 -11.732  -8.466  1.00  0.00     0.138 A 
ATOM     26  C   UNL     1      -7.330 -11.486  -7.597  1.00  0.00     0.100 A 
ATOM     27  O   UNL     1      -9.569 -11.189  -7.303  1.00  0.00    -0.289 OA
BRANCH  18  28
ATOM     28  O   UNL     1     -11.534 -11.988 -12.040  1.00  0.00    -0.502 OA
ATOM     29  H   UNL     1     -12.125 -12.811 -12.048  1.00  0.00     0.293 HD
ENDBRANCH  18  28
BRANCH  20  30
ATOM     30  O   UNL     1     -11.354 -11.728  -9.356  1.00  0.00    -0.504 OA
ATOM     31  H   UNL     1     -11.422 -11.588  -8.360  1.00  0.00     0.293 HD
ENDBRANCH  20  30
BRANCH  25  32
ATOM     32  C   UNL     1      -4.851 -11.759  -7.992  1.00  0.00     0.017 A 
ATOM     33  C   UNL     1      -4.478 -11.217  -6.745  1.00  0.00     0.012 A 
ATOM     34  C   UNL     1      -3.854 -12.310  -8.817  1.00  0.00     0.012 A 
ATOM     35  C   UNL     1      -3.143 -11.248  -6.332  1.00  0.00     0.001 A 
ATOM     36  C   UNL     1      -2.520 -12.339  -8.398  1.00  0.00     0.001 A 
ATOM     37  C   UNL     1      -2.165 -11.811  -7.156  1.00  0.00     0.000 A 
ENDBRANCH  25  32
ENDBRANCH   1  17
TORSDOF 9
ENDMDL
