MODEL 1
REMARK VINA RESULT:     3.856      0.000      0.000
REMARK INTER + INTRA:           5.377
REMARK INTER:                   5.659
REMARK INTRA:                  -0.283
REMARK UNBOUND:                -0.283
REMARK SMILES O=C([O-])CCCCCCCC(=O)[O-]
REMARK SMILES IDX 7 1 6 2 5 3 4 4 2 5 1 6 3 7 8 8 9 9 10 10 11 11 12 12 13 13
REMARK H PARENT
REMARK Flexibility Score: inf
ROOT
ATOM      1  C   UNL     1     -12.354  17.827  -9.323  1.00  0.00     0.000 C 
ENDROOT
BRANCH   1   2
ATOM      2  C   UNL     1     -13.631  18.041  -8.498  1.00  0.00     0.000 C 
BRANCH   2   3
ATOM      3  C   UNL     1     -13.843  19.508  -8.084  1.00  0.00     0.006 C 
BRANCH   3   4
ATOM      4  C   UNL     1     -12.860  20.492  -8.743  1.00  0.00     0.053 C 
BRANCH   4   5
ATOM      5  C   UNL     1     -11.975  21.181  -7.748  1.00  0.00     0.041 C 
ATOM      6  O   UNL     1     -10.844  21.613  -8.094  1.00  0.00    -0.550 OA
ATOM      7  O   UNL     1     -12.389  21.318  -6.429  1.00  0.00    -0.550 OA
ENDBRANCH   4   5
ENDBRANCH   3   4
ENDBRANCH   2   3
ENDBRANCH   1   2
BRANCH   1   8
ATOM      8  C   UNL     1     -12.693  17.505 -10.786  1.00  0.00     0.000 C 
BRANCH   8   9
ATOM      9  C   UNL     1     -13.359  18.684 -11.518  1.00  0.00     0.006 C 
BRANCH   9  10
ATOM     10  C   UNL     1     -12.379  19.595 -12.275  1.00  0.00     0.053 C 
BRANCH  10  11
ATOM     11  C   UNL     1     -12.440  19.379 -13.756  1.00  0.00     0.041 C 
ATOM     12  O   UNL     1     -13.524  19.044 -14.302  1.00  0.00    -0.550 OA
ATOM     13  O   UNL     1     -11.293  19.514 -14.527  1.00  0.00    -0.550 OA
ENDBRANCH  10  11
ENDBRANCH   9  10
ENDBRANCH   8   9
ENDBRANCH   1   8
TORSDOF 8
ENDMDL
MODEL 2
REMARK VINA RESULT:     3.860      0.084      5.421
REMARK INTER + INTRA:           5.382
REMARK INTER:                   5.506
REMARK INTRA:                  -0.124
REMARK UNBOUND:                -0.283
REMARK SMILES O=C([O-])CCCCCCCC(=O)[O-]
REMARK SMILES IDX 7 1 6 2 5 3 4 4 2 5 1 6 3 7 8 8 9 9 10 10 11 11 12 12 13 13
REMARK H PARENT
REMARK Flexibility Score: inf
ROOT
ATOM      1  C   UNL     1     -12.290  17.808  -9.366  1.00  0.00     0.000 C 
ENDROOT
BRANCH   1   2
ATOM      2  C   UNL     1     -12.670  17.559 -10.832  1.00  0.00     0.000 C 
BRANCH   2   3
ATOM      3  C   UNL     1     -13.307  18.786 -11.508  1.00  0.00     0.006 C 
BRANCH   3   4
ATOM      4  C   UNL     1     -12.315  19.640 -12.318  1.00  0.00     0.053 C 
BRANCH   4   5
ATOM      5  C   UNL     1     -12.387  19.372 -13.791  1.00  0.00     0.041 C 
ATOM      6  O   UNL     1     -11.347  19.423 -14.499  1.00  0.00    -0.550 OA
ATOM      7  O   UNL     1     -13.611  19.096 -14.387  1.00  0.00    -0.550 OA
ENDBRANCH   4   5
ENDBRANCH   3   4
ENDBRANCH   2   3
ENDBRANCH   1   2
BRANCH   1   8
ATOM      8  C   UNL     1     -13.544  18.000  -8.499  1.00  0.00     0.000 C 
BRANCH   8   9
ATOM      9  C   UNL     1     -13.786  19.471  -8.117  1.00  0.00     0.006 C 
BRANCH   9  10
ATOM     10  C   UNL     1     -12.816  20.464  -8.777  1.00  0.00     0.053 C 
BRANCH  10  11
ATOM     11  C   UNL     1     -11.986  21.196  -7.767  1.00  0.00     0.041 C 
ATOM     12  O   UNL     1     -10.860  21.658  -8.089  1.00  0.00    -0.550 OA
ATOM     13  O   UNL     1     -12.441  21.335  -6.462  1.00  0.00    -0.550 OA
ENDBRANCH  10  11
ENDBRANCH   9  10
ENDBRANCH   8   9
ENDBRANCH   1   8
TORSDOF 8
ENDMDL
MODEL 3
REMARK VINA RESULT:     5.113     14.583     16.119
REMARK INTER + INTRA:           7.221
REMARK INTER:                   7.467
REMARK INTRA:                  -0.246
REMARK UNBOUND:                -0.283
REMARK SMILES O=C([O-])CCCCCCCC(=O)[O-]
REMARK SMILES IDX 7 1 6 2 5 3 4 4 2 5 1 6 3 7 8 8 9 9 10 10 11 11 12 12 13 13
REMARK H PARENT
REMARK Flexibility Score: inf
ROOT
ATOM      1  C   UNL     1     -16.700   7.442  -4.190  1.00  0.00     0.000 C 
ENDROOT
BRANCH   1   2
ATOM      2  C   UNL     1     -15.908   7.388  -2.875  1.00  0.00     0.000 C 
BRANCH   2   3
ATOM      3  C   UNL     1     -14.456   6.914  -3.064  1.00  0.00     0.006 C 
BRANCH   3   4
ATOM      4  C   UNL     1     -13.410   8.036  -2.933  1.00  0.00     0.053 C 
BRANCH   4   5
ATOM      5  C   UNL     1     -12.023   7.578  -3.270  1.00  0.00     0.041 C 
ATOM      6  O   UNL     1     -11.109   8.419  -3.479  1.00  0.00    -0.550 OA
ATOM      7  O   UNL     1     -11.749   6.222  -3.386  1.00  0.00    -0.550 OA
ENDBRANCH   4   5
ENDBRANCH   3   4
ENDBRANCH   2   3
ENDBRANCH   1   2
BRANCH   1   8
ATOM      8  C   UNL     1     -18.185   7.132  -3.949  1.00  0.00     0.000 C 
BRANCH   8   9
ATOM      9  C   UNL     1     -18.401   6.014  -2.912  1.00  0.00     0.006 C 
BRANCH   9  10
ATOM     10  C   UNL     1     -19.816   5.414  -2.914  1.00  0.00     0.053 C 
BRANCH  10  11
ATOM     11  C   UNL     1     -19.800   3.938  -3.169  1.00  0.00     0.041 C 
ATOM     12  O   UNL     1     -20.845   3.352  -3.559  1.00  0.00    -0.550 OA
ATOM     13  O   UNL     1     -18.643   3.204  -2.942  1.00  0.00    -0.550 OA
ENDBRANCH  10  11
ENDBRANCH   9  10
ENDBRANCH   8   9
ENDBRANCH   1   8
TORSDOF 8
ENDMDL
MODEL 4
REMARK VINA RESULT:     6.811     15.450     18.088
REMARK INTER + INTRA:           9.714
REMARK INTER:                   9.889
REMARK INTRA:                  -0.176
REMARK UNBOUND:                -0.283
REMARK SMILES O=C([O-])CCCCCCCC(=O)[O-]
REMARK SMILES IDX 7 1 6 2 5 3 4 4 2 5 1 6 3 7 8 8 9 9 10 10 11 11 12 12 13 13
REMARK H PARENT
REMARK Flexibility Score: inf
ROOT
ATOM      1  C   UNL     1      -8.296   5.334 -19.373  1.00  0.00     0.000 C 
ENDROOT
BRANCH   1   2
ATOM      2  C   UNL     1      -8.083   4.388 -20.563  1.00  0.00     0.000 C 
BRANCH   2   3
ATOM      3  C   UNL     1      -8.949   4.748 -21.784  1.00  0.00     0.006 C 
BRANCH   3   4
ATOM      4  C   UNL     1      -8.389   4.233 -23.122  1.00  0.00     0.053 C 
BRANCH   4   5
ATOM      5  C   UNL     1      -6.903   4.037 -23.091  1.00  0.00     0.041 C 
ATOM      6  O   UNL     1      -6.415   2.879 -23.004  1.00  0.00    -0.550 OA
ATOM      7  O   UNL     1      -6.057   5.138 -23.125  1.00  0.00    -0.550 OA
ENDBRANCH   4   5
ENDBRANCH   3   4
ENDBRANCH   2   3
ENDBRANCH   1   2
BRANCH   1   8
ATOM      8  C   UNL     1      -7.067   6.231 -19.157  1.00  0.00     0.000 C 
BRANCH   8   9
ATOM      9  C   UNL     1      -7.316   7.347 -18.127  1.00  0.00     0.006 C 
BRANCH   9  10
ATOM     10  C   UNL     1      -8.223   8.482 -18.631  1.00  0.00     0.053 C 
BRANCH  10  11
ATOM     11  C   UNL     1      -8.320   9.605 -17.644  1.00  0.00     0.041 C 
ATOM     12  O   UNL     1      -8.873  10.688 -17.971  1.00  0.00    -0.550 OA
ATOM     13  O   UNL     1      -7.767   9.468 -16.378  1.00  0.00    -0.550 OA
ENDBRANCH  10  11
ENDBRANCH   9  10
ENDBRANCH   8   9
ENDBRANCH   1   8
TORSDOF 8
ENDMDL
