MODEL 1
REMARK VINA RESULT:    -7.028      0.000      0.000
REMARK INTER + INTRA:         -10.377
REMARK INTER:                  -9.494
REMARK INTRA:                  -0.884
REMARK UNBOUND:                -0.884
REMARK SMILES O=c1c(-c2ccc(O)cc2)coc2c([C@H]3O[C@@H](CO)[C@H](O)[C@@H](O)[C@@H]3O)c(O)ccc12
REMARK SMILES IDX 3 1 11 2 12 3 13 4 30 5 2 6 1 7 29 8 28 9 26 10 14 11 4 12
REMARK SMILES IDX 5 13 6 14 7 15 10 16 9 17 8 18 15 20 24 21 16 22 22 23 17 24
REMARK SMILES IDX 20 25 25 26 23 28 18 30 19 31 21 33 27 35
REMARK H PARENT 8 19 25 27 23 29 19 32 21 34 27 36
REMARK Flexibility Score: inf
ROOT
ATOM      1  C   UNL     1       4.991 -15.716   9.875  1.00  0.00     0.065 A 
ATOM      2  C   UNL     1       5.692 -14.503   9.830  1.00  0.00     0.208 A 
ATOM      3  O   UNL     1       6.592 -14.201  10.757  1.00  0.00    -0.463 OA
ATOM      4  C   UNL     1       6.891 -15.004  11.775  1.00  0.00     0.147 A 
ATOM      5  C   UNL     1       6.227 -16.246  11.900  1.00  0.00     0.066 A 
ATOM      6  C   UNL     1       5.274 -16.605  10.928  1.00  0.00     0.200 A 
ATOM      7  O   UNL     1       4.690 -17.722  10.990  1.00  0.00    -0.288 OA
ATOM      8  C   UNL     1       6.531 -17.089  12.978  1.00  0.00     0.020 A 
ATOM      9  C   UNL     1       7.453 -16.689  13.941  1.00  0.00     0.047 A 
ATOM     10  C   UNL     1       8.102 -15.454  13.849  1.00  0.00     0.125 A 
ATOM     11  C   UNL     1       7.868 -14.612  12.727  1.00  0.00     0.069 A 
ENDROOT
BRANCH   1  12
ATOM     12  C   UNL     1       3.987 -16.030   8.829  1.00  0.00    -0.011 A 
ATOM     13  C   UNL     1       2.626 -15.737   9.030  1.00  0.00     0.013 A 
ATOM     14  C   UNL     1       1.686 -16.027   8.036  1.00  0.00     0.047 A 
ATOM     15  C   UNL     1       2.095 -16.608   6.828  1.00  0.00     0.115 A 
ATOM     16  C   UNL     1       4.389 -16.606   7.611  1.00  0.00     0.013 A 
ATOM     17  C   UNL     1       3.446 -16.895   6.620  1.00  0.00     0.047 A 
BRANCH  15  18
ATOM     18  O   UNL     1       1.166 -16.901   5.832  1.00  0.00    -0.508 OA
ATOM     19  H   UNL     1       1.197 -17.776   5.320  1.00  0.00     0.293 HD
ENDBRANCH  15  18
ENDBRANCH   1  12
BRANCH  11  20
ATOM     20  C   UNL     1       8.612 -13.292  12.548  1.00  0.00     0.188 C 
ATOM     21  C   UNL     1      10.138 -13.515  12.687  1.00  0.00     0.179 C 
ATOM     22  O   UNL     1       8.153 -12.363  13.520  1.00  0.00    -0.362 OA
ATOM     23  C   UNL     1      10.873 -12.171  12.556  1.00  0.00     0.177 C 
ATOM     24  C   UNL     1       8.717 -11.079  13.313  1.00  0.00     0.176 C 
ATOM     25  C   UNL     1      10.255 -11.134  13.510  1.00  0.00     0.177 C 
BRANCH  21  26
ATOM     26  O   UNL     1      10.597 -14.387  11.685  1.00  0.00    -0.387 OA
ATOM     27  H   UNL     1      10.028 -14.236  10.885  1.00  0.00     0.211 HD
ENDBRANCH  21  26
BRANCH  23  28
ATOM     28  O   UNL     1      12.232 -12.334  12.869  1.00  0.00    -0.387 OA
ATOM     29  H   UNL     1      12.570 -13.081  12.310  1.00  0.00     0.211 HD
ENDBRANCH  23  28
BRANCH  24  30
ATOM     30  C   UNL     1       8.058 -10.112  14.311  1.00  0.00     0.191 C 
BRANCH  30  31
ATOM     31  O   UNL     1       8.720 -10.126  15.547  1.00  0.00    -0.394 OA
ATOM     32  H   UNL     1       9.430  -9.433  15.498  1.00  0.00     0.210 HD
ENDBRANCH  30  31
ENDBRANCH  24  30
BRANCH  25  33
ATOM     33  O   UNL     1      10.849  -9.875  13.312  1.00  0.00    -0.388 OA
ATOM     34  H   UNL     1      10.398  -9.231  13.919  1.00  0.00     0.211 HD
ENDBRANCH  25  33
ENDBRANCH  11  20
BRANCH  10  35
ATOM     35  O   UNL     1       8.950 -15.104  14.903  1.00  0.00    -0.507 OA
ATOM     36  H   UNL     1       8.872 -15.465  15.843  1.00  0.00     0.293 HD
ENDBRANCH  10  35
TORSDOF 9
ENDMDL
MODEL 2
REMARK VINA RESULT:    -6.848      3.790      6.417
REMARK INTER + INTRA:         -10.134
REMARK INTER:                  -9.013
REMARK INTRA:                  -1.121
REMARK UNBOUND:                -0.884
REMARK SMILES O=c1c(-c2ccc(O)cc2)coc2c([C@H]3O[C@@H](CO)[C@H](O)[C@@H](O)[C@@H]3O)c(O)ccc12
REMARK SMILES IDX 3 1 11 2 12 3 13 4 30 5 2 6 1 7 29 8 28 9 26 10 14 11 4 12
REMARK SMILES IDX 5 13 6 14 7 15 10 16 9 17 8 18 15 20 24 21 16 22 22 23 17 24
REMARK SMILES IDX 20 25 25 26 23 28 18 30 19 31 21 33 27 35
REMARK H PARENT 8 19 25 27 23 29 19 32 21 34 27 36
REMARK Flexibility Score: inf
ROOT
ATOM      1  C   UNL     1       9.902 -18.693  12.266  1.00  0.00     0.065 A 
ATOM      2  C   UNL     1      10.179 -17.708  13.223  1.00  0.00     0.208 A 
ATOM      3  O   UNL     1       9.693 -16.479  13.096  1.00  0.00    -0.463 OA
ATOM      4  C   UNL     1       8.927 -16.098  12.077  1.00  0.00     0.147 A 
ATOM      5  C   UNL     1       8.603 -17.028  11.063  1.00  0.00     0.066 A 
ATOM      6  C   UNL     1       9.091 -18.344  11.171  1.00  0.00     0.200 A 
ATOM      7  O   UNL     1       8.790 -19.209  10.302  1.00  0.00    -0.288 OA
ATOM      8  C   UNL     1       7.807 -16.626   9.982  1.00  0.00     0.020 A 
ATOM      9  C   UNL     1       7.369 -15.308   9.887  1.00  0.00     0.047 A 
ATOM     10  C   UNL     1       7.700 -14.367  10.866  1.00  0.00     0.125 A 
ATOM     11  C   UNL     1       8.443 -14.765  12.011  1.00  0.00     0.069 A 
ENDROOT
BRANCH   1  12
ATOM     12  C   UNL     1      10.459 -20.059  12.428  1.00  0.00    -0.011 A 
ATOM     13  C   UNL     1       9.718 -21.063  13.077  1.00  0.00     0.013 A 
ATOM     14  C   UNL     1      10.243 -22.352  13.218  1.00  0.00     0.047 A 
ATOM     15  C   UNL     1      11.513 -22.653  12.708  1.00  0.00     0.115 A 
ATOM     16  C   UNL     1      11.729 -20.374  11.913  1.00  0.00     0.013 A 
ATOM     17  C   UNL     1      12.251 -21.663  12.056  1.00  0.00     0.047 A 
BRANCH  15  18
ATOM     18  O   UNL     1      12.046 -23.933  12.843  1.00  0.00    -0.508 OA
ATOM     19  H   UNL     1      12.129 -24.559  12.051  1.00  0.00     0.293 HD
ENDBRANCH  15  18
ENDBRANCH   1  12
BRANCH  11  20
ATOM     20  C   UNL     1       8.759 -13.788  13.140  1.00  0.00     0.188 C 
ATOM     21  C   UNL     1       7.555 -13.680  14.107  1.00  0.00     0.179 C 
ATOM     22  O   UNL     1       9.069 -12.518  12.584  1.00  0.00    -0.362 OA
ATOM     23  C   UNL     1       7.866 -12.656  15.211  1.00  0.00     0.177 C 
ATOM     24  C   UNL     1       9.500 -11.609  13.583  1.00  0.00     0.176 C 
ATOM     25  C   UNL     1       8.349 -11.335  14.587  1.00  0.00     0.177 C 
BRANCH  21  26
ATOM     26  O   UNL     1       7.293 -14.927  14.701  1.00  0.00    -0.387 OA
ATOM     27  H   UNL     1       7.951 -15.044  15.434  1.00  0.00     0.211 HD
ENDBRANCH  21  26
BRANCH  23  28
ATOM     28  O   UNL     1       6.716 -12.410  15.977  1.00  0.00    -0.387 OA
ATOM     29  H   UNL     1       6.358 -13.294  16.253  1.00  0.00     0.211 HD
ENDBRANCH  23  28
BRANCH  24  30
ATOM     30  C   UNL     1       9.949 -10.318  12.878  1.00  0.00     0.191 C 
BRANCH  30  31
ATOM     31  O   UNL     1      11.188  -9.875  13.364  1.00  0.00    -0.394 OA
ATOM     32  H   UNL     1      11.149  -8.883  13.382  1.00  0.00     0.210 HD
ENDBRANCH  30  31
ENDBRANCH  24  30
BRANCH  25  33
ATOM     33  O   UNL     1       8.742 -10.435  15.593  1.00  0.00    -0.388 OA
ATOM     34  H   UNL     1       9.474  -9.873  15.226  1.00  0.00     0.211 HD
ENDBRANCH  25  33
ENDBRANCH  11  20
BRANCH  10  35
ATOM     35  O   UNL     1       7.284 -13.050  10.646  1.00  0.00    -0.507 OA
ATOM     36  H   UNL     1       7.844 -12.234  10.846  1.00  0.00     0.293 HD
ENDBRANCH  10  35
TORSDOF 9
ENDMDL
MODEL 3
REMARK VINA RESULT:    -6.816      1.895      2.935
REMARK INTER + INTRA:         -10.090
REMARK INTER:                  -9.874
REMARK INTRA:                  -0.216
REMARK UNBOUND:                -0.884
REMARK SMILES O=c1c(-c2ccc(O)cc2)coc2c([C@H]3O[C@@H](CO)[C@H](O)[C@@H](O)[C@@H]3O)c(O)ccc12
REMARK SMILES IDX 3 1 11 2 12 3 13 4 30 5 2 6 1 7 29 8 28 9 26 10 14 11 4 12
REMARK SMILES IDX 5 13 6 14 7 15 10 16 9 17 8 18 15 20 24 21 16 22 22 23 17 24
REMARK SMILES IDX 20 25 25 26 23 28 18 30 19 31 21 33 27 35
REMARK H PARENT 8 19 25 27 23 29 19 32 21 34 27 36
REMARK Flexibility Score: inf
ROOT
ATOM      1  C   UNL     1       6.622 -15.387   9.846  1.00  0.00     0.065 A 
ATOM      2  C   UNL     1       6.525 -14.455  10.888  1.00  0.00     0.208 A 
ATOM      3  O   UNL     1       7.535 -14.264  11.727  1.00  0.00    -0.463 OA
ATOM      4  C   UNL     1       8.688 -14.926  11.648  1.00  0.00     0.147 A 
ATOM      5  C   UNL     1       8.869 -15.888  10.628  1.00  0.00     0.066 A 
ATOM      6  C   UNL     1       7.823 -16.109   9.712  1.00  0.00     0.200 A 
ATOM      7  O   UNL     1       7.966 -16.935   8.769  1.00  0.00    -0.288 OA
ATOM      8  C   UNL     1      10.077 -16.594  10.549  1.00  0.00     0.020 A 
ATOM      9  C   UNL     1      11.078 -16.377  11.492  1.00  0.00     0.047 A 
ATOM     10  C   UNL     1      10.908 -15.448  12.522  1.00  0.00     0.125 A 
ATOM     11  C   UNL     1       9.723 -14.664  12.582  1.00  0.00     0.069 A 
ENDROOT
BRANCH   1  12
ATOM     12  C   UNL     1       5.479 -15.586   8.921  1.00  0.00    -0.011 A 
ATOM     13  C   UNL     1       5.331 -14.777   7.780  1.00  0.00     0.013 A 
ATOM     14  C   UNL     1       4.257 -14.976   6.907  1.00  0.00     0.047 A 
ATOM     15  C   UNL     1       3.321 -15.987   7.161  1.00  0.00     0.115 A 
ATOM     16  C   UNL     1       4.539 -16.603   9.164  1.00  0.00     0.013 A 
ATOM     17  C   UNL     1       3.466 -16.798   8.289  1.00  0.00     0.047 A 
BRANCH  15  18
ATOM     18  O   UNL     1       2.246 -16.193   6.298  1.00  0.00    -0.508 OA
ATOM     19  H   UNL     1       1.972 -17.124   6.007  1.00  0.00     0.293 HD
ENDBRANCH  15  18
ENDBRANCH   1  12
BRANCH  11  20
ATOM     20  C   UNL     1       9.531 -13.585  13.644  1.00  0.00     0.188 C 
ATOM     21  C   UNL     1       8.096 -13.652  14.222  1.00  0.00     0.179 C 
ATOM     22  O   UNL     1       9.776 -12.312  13.065  1.00  0.00    -0.362 OA
ATOM     23  C   UNL     1       7.899 -12.530  15.253  1.00  0.00     0.177 C 
ATOM     24  C   UNL     1       9.742 -11.285  14.041  1.00  0.00     0.176 C 
ATOM     25  C   UNL     1       8.319 -11.178  14.651  1.00  0.00     0.177 C 
BRANCH  21  26
ATOM     26  O   UNL     1       7.880 -14.892  14.848  1.00  0.00    -0.387 OA
ATOM     27  H   UNL     1       8.761 -15.344  14.911  1.00  0.00     0.211 HD
ENDBRANCH  21  26
BRANCH  23  28
ATOM     28  O   UNL     1       6.551 -12.463  15.640  1.00  0.00    -0.387 OA
ATOM     29  H   UNL     1       6.008 -12.594  14.820  1.00  0.00     0.211 HD
ENDBRANCH  23  28
BRANCH  24  30
ATOM     30  C   UNL     1      10.159  -9.972  13.356  1.00  0.00     0.191 C 
BRANCH  30  31
ATOM     31  O   UNL     1      11.553  -9.881  13.234  1.00  0.00    -0.394 OA
ATOM     32  H   UNL     1      11.928 -10.013  14.144  1.00  0.00     0.210 HD
ENDBRANCH  30  31
ENDBRANCH  24  30
BRANCH  25  33
ATOM     33  O   UNL     1       8.248 -10.167  15.626  1.00  0.00    -0.388 OA
ATOM     34  H   UNL     1       7.290  -9.931  15.746  1.00  0.00     0.211 HD
ENDBRANCH  25  33
ENDBRANCH  11  20
BRANCH  10  35
ATOM     35  O   UNL     1      11.934 -15.356  13.467  1.00  0.00    -0.507 OA
ATOM     36  H   UNL     1      12.664 -14.659  13.451  1.00  0.00     0.293 HD
ENDBRANCH  10  35
TORSDOF 9
ENDMDL
MODEL 4
REMARK VINA RESULT:    -6.684      4.861      9.350
REMARK INTER + INTRA:          -9.912
REMARK INTER:                  -8.763
REMARK INTRA:                  -1.150
REMARK UNBOUND:                -0.884
REMARK SMILES O=c1c(-c2ccc(O)cc2)coc2c([C@H]3O[C@@H](CO)[C@H](O)[C@@H](O)[C@@H]3O)c(O)ccc12
REMARK SMILES IDX 3 1 11 2 12 3 13 4 30 5 2 6 1 7 29 8 28 9 26 10 14 11 4 12
REMARK SMILES IDX 5 13 6 14 7 15 10 16 9 17 8 18 15 20 24 21 16 22 22 23 17 24
REMARK SMILES IDX 20 25 25 26 23 28 18 30 19 31 21 33 27 35
REMARK H PARENT 8 19 25 27 23 29 19 32 21 34 27 36
REMARK Flexibility Score: inf
ROOT
ATOM      1  C   UNL     1       4.167 -16.698   9.577  1.00  0.00     0.065 A 
ATOM      2  C   UNL     1       3.217 -17.689   9.296  1.00  0.00     0.208 A 
ATOM      3  O   UNL     1       2.753 -18.479  10.255  1.00  0.00    -0.463 OA
ATOM      4  C   UNL     1       3.142 -18.394  11.525  1.00  0.00     0.147 A 
ATOM      5  C   UNL     1       4.101 -17.424  11.896  1.00  0.00     0.066 A 
ATOM      6  C   UNL     1       4.607 -16.561  10.906  1.00  0.00     0.200 A 
ATOM      7  O   UNL     1       5.437 -15.659  11.210  1.00  0.00    -0.288 OA
ATOM      8  C   UNL     1       4.522 -17.340  13.230  1.00  0.00     0.020 A 
ATOM      9  C   UNL     1       4.027 -18.232  14.178  1.00  0.00     0.047 A 
ATOM     10  C   UNL     1       3.097 -19.214  13.826  1.00  0.00     0.125 A 
ATOM     11  C   UNL     1       2.597 -19.274  12.496  1.00  0.00     0.069 A 
ENDROOT
BRANCH   1  12
ATOM     12  C   UNL     1       4.674 -15.828   8.487  1.00  0.00    -0.011 A 
ATOM     13  C   UNL     1       5.978 -15.992   7.986  1.00  0.00     0.013 A 
ATOM     14  C   UNL     1       6.447 -15.176   6.952  1.00  0.00     0.047 A 
ATOM     15  C   UNL     1       5.618 -14.190   6.403  1.00  0.00     0.115 A 
ATOM     16  C   UNL     1       3.846 -14.840   7.924  1.00  0.00     0.013 A 
ATOM     17  C   UNL     1       4.319 -14.025   6.891  1.00  0.00     0.047 A 
BRANCH  15  18
ATOM     18  O   UNL     1       6.075 -13.371   5.372  1.00  0.00    -0.508 OA
ATOM     19  H   UNL     1       5.743 -12.419   5.266  1.00  0.00     0.293 HD
ENDBRANCH  15  18
ENDBRANCH   1  12
BRANCH  11  20
ATOM     20  C   UNL     1       1.525 -20.281  12.089  1.00  0.00     0.188 C 
ATOM     21  C   UNL     1       0.146 -19.847  12.643  1.00  0.00     0.179 C 
ATOM     22  O   UNL     1       1.879 -21.564  12.583  1.00  0.00    -0.362 OA
ATOM     23  C   UNL     1      -0.916 -20.894  12.270  1.00  0.00     0.177 C 
ATOM     24  C   UNL     1       0.984 -22.561  12.119  1.00  0.00     0.176 C 
ATOM     25  C   UNL     1      -0.440 -22.299  12.676  1.00  0.00     0.177 C 
BRANCH  21  26
ATOM     26  O   UNL     1      -0.228 -18.604  12.102  1.00  0.00    -0.387 OA
ATOM     27  H   UNL     1      -1.005 -18.768  11.506  1.00  0.00     0.211 HD
ENDBRANCH  21  26
BRANCH  23  28
ATOM     28  O   UNL     1      -2.124 -20.608  12.925  1.00  0.00    -0.387 OA
ATOM     29  H   UNL     1      -2.116 -19.639  13.138  1.00  0.00     0.211 HD
ENDBRANCH  23  28
BRANCH  24  30
ATOM     30  C   UNL     1       1.524 -23.926  12.579  1.00  0.00     0.191 C 
BRANCH  30  31
ATOM     31  O   UNL     1       0.819 -24.404  13.693  1.00  0.00    -0.394 OA
ATOM     32  H   UNL     1      -0.146 -24.316  13.479  1.00  0.00     0.210 HD
ENDBRANCH  30  31
ENDBRANCH  24  30
BRANCH  25  33
ATOM     33  O   UNL     1      -1.356 -23.271  12.236  1.00  0.00    -0.388 OA
ATOM     34  H   UNL     1      -1.091 -23.540  11.317  1.00  0.00     0.211 HD
ENDBRANCH  25  33
ENDBRANCH  11  20
BRANCH  10  35
ATOM     35  O   UNL     1       2.719 -20.115  14.826  1.00  0.00    -0.507 OA
ATOM     36  H   UNL     1       1.790 -20.497  14.928  1.00  0.00     0.293 HD
ENDBRANCH  10  35
TORSDOF 9
ENDMDL
MODEL 5
REMARK VINA RESULT:    -6.654      5.452      9.718
REMARK INTER + INTRA:          -9.872
REMARK INTER:                  -8.808
REMARK INTRA:                  -1.065
REMARK UNBOUND:                -0.884
REMARK SMILES O=c1c(-c2ccc(O)cc2)coc2c([C@H]3O[C@@H](CO)[C@H](O)[C@@H](O)[C@@H]3O)c(O)ccc12
REMARK SMILES IDX 3 1 11 2 12 3 13 4 30 5 2 6 1 7 29 8 28 9 26 10 14 11 4 12
REMARK SMILES IDX 5 13 6 14 7 15 10 16 9 17 8 18 15 20 24 21 16 22 22 23 17 24
REMARK SMILES IDX 20 25 25 26 23 28 18 30 19 31 21 33 27 35
REMARK H PARENT 8 19 25 27 23 29 19 32 21 34 27 36
REMARK Flexibility Score: inf
ROOT
ATOM      1  C   UNL     1       3.408 -16.042   8.923  1.00  0.00     0.065 A 
ATOM      2  C   UNL     1       3.628 -17.395   9.215  1.00  0.00     0.208 A 
ATOM      3  O   UNL     1       2.735 -18.098   9.900  1.00  0.00    -0.463 OA
ATOM      4  C   UNL     1       1.591 -17.587  10.351  1.00  0.00     0.147 A 
ATOM      5  C   UNL     1       1.291 -16.228  10.104  1.00  0.00     0.066 A 
ATOM      6  C   UNL     1       2.211 -15.455   9.370  1.00  0.00     0.200 A 
ATOM      7  O   UNL     1       1.957 -14.248   9.101  1.00  0.00    -0.288 OA
ATOM      8  C   UNL     1       0.094 -15.684  10.587  1.00  0.00     0.020 A 
ATOM      9  C   UNL     1      -0.778 -16.467  11.339  1.00  0.00     0.047 A 
ATOM     10  C   UNL     1      -0.487 -17.806  11.615  1.00  0.00     0.125 A 
ATOM     11  C   UNL     1       0.684 -18.404  11.074  1.00  0.00     0.069 A 
ENDROOT
BRANCH   1  12
ATOM     12  C   UNL     1       4.423 -15.275   8.158  1.00  0.00    -0.011 A 
ATOM     13  C   UNL     1       4.108 -14.722   6.905  1.00  0.00     0.013 A 
ATOM     14  C   UNL     1       5.065 -13.991   6.193  1.00  0.00     0.047 A 
ATOM     15  C   UNL     1       6.347 -13.802   6.728  1.00  0.00     0.115 A 
ATOM     16  C   UNL     1       5.709 -15.074   8.690  1.00  0.00     0.013 A 
ATOM     17  C   UNL     1       6.664 -14.344   7.976  1.00  0.00     0.047 A 
BRANCH  15  18
ATOM     18  O   UNL     1       7.308 -13.077   6.027  1.00  0.00    -0.508 OA
ATOM     19  H   UNL     1       8.024 -13.539   5.477  1.00  0.00     0.293 HD
ENDBRANCH  15  18
ENDBRANCH   1  12
BRANCH  11  20
ATOM     20  C   UNL     1       1.000 -19.882  11.287  1.00  0.00     0.188 C 
ATOM     21  C   UNL     1       0.282 -20.742  10.218  1.00  0.00     0.179 C 
ATOM     22  O   UNL     1       0.589 -20.263  12.592  1.00  0.00    -0.362 OA
ATOM     23  C   UNL     1       0.566 -22.231  10.473  1.00  0.00     0.177 C 
ATOM     24  C   UNL     1       0.981 -21.592  12.889  1.00  0.00     0.176 C 
ATOM     25  C   UNL     1       0.260 -22.585  11.939  1.00  0.00     0.177 C 
BRANCH  21  26
ATOM     26  O   UNL     1       0.737 -20.403   8.932  1.00  0.00    -0.387 OA
ATOM     27  H   UNL     1       0.276 -21.005   8.292  1.00  0.00     0.211 HD
ENDBRANCH  21  26
BRANCH  23  28
ATOM     28  O   UNL     1      -0.230 -23.023   9.631  1.00  0.00    -0.387 OA
ATOM     29  H   UNL     1      -0.693 -23.685  10.209  1.00  0.00     0.211 HD
ENDBRANCH  23  28
BRANCH  24  30
ATOM     30  C   UNL     1       0.627 -21.867  14.361  1.00  0.00     0.191 C 
BRANCH  30  31
ATOM     31  O   UNL     1      -0.606 -22.525  14.475  1.00  0.00    -0.394 OA
ATOM     32  H   UNL     1      -0.645 -23.188  13.737  1.00  0.00     0.210 HD
ENDBRANCH  30  31
ENDBRANCH  24  30
BRANCH  25  33
ATOM     33  O   UNL     1       0.625 -23.916  12.205  1.00  0.00    -0.388 OA
ATOM     34  H   UNL     1       0.037 -24.250  12.933  1.00  0.00     0.211 HD
ENDBRANCH  25  33
ENDBRANCH  11  20
BRANCH  10  35
ATOM     35  O   UNL     1      -1.381 -18.490  12.444  1.00  0.00    -0.507 OA
ATOM     36  H   UNL     1      -2.363 -18.612  12.247  1.00  0.00     0.293 HD
ENDBRANCH  10  35
TORSDOF 9
ENDMDL
MODEL 6
REMARK VINA RESULT:    -6.644      2.669      4.091
REMARK INTER + INTRA:          -9.858
REMARK INTER:                  -8.704
REMARK INTRA:                  -1.154
REMARK UNBOUND:                -0.884
REMARK SMILES O=c1c(-c2ccc(O)cc2)coc2c([C@H]3O[C@@H](CO)[C@H](O)[C@@H](O)[C@@H]3O)c(O)ccc12
REMARK SMILES IDX 3 1 11 2 12 3 13 4 30 5 2 6 1 7 29 8 28 9 26 10 14 11 4 12
REMARK SMILES IDX 5 13 6 14 7 15 10 16 9 17 8 18 15 20 24 21 16 22 22 23 17 24
REMARK SMILES IDX 20 25 25 26 23 28 18 30 19 31 21 33 27 35
REMARK H PARENT 8 19 25 27 23 29 19 32 21 34 27 36
REMARK Flexibility Score: inf
ROOT
ATOM      1  C   UNL     1       5.114 -15.923   9.888  1.00  0.00     0.065 A 
ATOM      2  C   UNL     1       5.656 -15.725  11.165  1.00  0.00     0.208 A 
ATOM      3  O   UNL     1       6.969 -15.746  11.358  1.00  0.00    -0.463 OA
ATOM      4  C   UNL     1       7.849 -15.952  10.381  1.00  0.00     0.147 A 
ATOM      5  C   UNL     1       7.388 -16.166   9.062  1.00  0.00     0.066 A 
ATOM      6  C   UNL     1       6.002 -16.138   8.818  1.00  0.00     0.200 A 
ATOM      7  O   UNL     1       5.558 -16.290   7.646  1.00  0.00    -0.288 OA
ATOM      8  C   UNL     1       8.312 -16.395   8.034  1.00  0.00     0.020 A 
ATOM      9  C   UNL     1       9.674 -16.450   8.315  1.00  0.00     0.047 A 
ATOM     10  C   UNL     1      10.148 -16.266   9.617  1.00  0.00     0.125 A 
ATOM     11  C   UNL     1       9.239 -15.958  10.667  1.00  0.00     0.069 A 
ENDROOT
BRANCH   1  12
ATOM     12  C   UNL     1       3.643 -15.898   9.696  1.00  0.00    -0.011 A 
ATOM     13  C   UNL     1       2.850 -16.990  10.092  1.00  0.00     0.013 A 
ATOM     14  C   UNL     1       1.462 -16.957   9.918  1.00  0.00     0.047 A 
ATOM     15  C   UNL     1       0.851 -15.830   9.351  1.00  0.00     0.115 A 
ATOM     16  C   UNL     1       3.020 -14.769   9.135  1.00  0.00     0.013 A 
ATOM     17  C   UNL     1       1.633 -14.740   8.961  1.00  0.00     0.047 A 
BRANCH  15  18
ATOM     18  O   UNL     1      -0.530 -15.787   9.172  1.00  0.00    -0.508 OA
ATOM     19  H   UNL     1      -0.955 -15.188   8.473  1.00  0.00     0.293 HD
ENDBRANCH  15  18
ENDBRANCH   1  12
BRANCH  11  20
ATOM     20  C   UNL     1       9.723 -15.674  12.086  1.00  0.00     0.188 C 
ATOM     21  C   UNL     1      10.456 -14.311  12.139  1.00  0.00     0.179 C 
ATOM     22  O   UNL     1      10.586 -16.721  12.503  1.00  0.00    -0.362 OA
ATOM     23  C   UNL     1      10.981 -14.059  13.561  1.00  0.00     0.177 C 
ATOM     24  C   UNL     1      10.957 -16.574  13.863  1.00  0.00     0.176 C 
ATOM     25  C   UNL     1      11.786 -15.276  14.052  1.00  0.00     0.177 C 
BRANCH  21  26
ATOM     26  O   UNL     1       9.579 -13.271  11.785  1.00  0.00    -0.387 OA
ATOM     27  H   UNL     1      10.096 -12.630  11.231  1.00  0.00     0.211 HD
ENDBRANCH  21  26
BRANCH  23  28
ATOM     28  O   UNL     1      11.807 -12.924  13.575  1.00  0.00    -0.387 OA
ATOM     29  H   UNL     1      12.563 -13.108  12.959  1.00  0.00     0.211 HD
ENDBRANCH  23  28
BRANCH  24  30
ATOM     30  C   UNL     1      11.766 -17.819  14.266  1.00  0.00     0.191 C 
BRANCH  30  31
ATOM     31  O   UNL     1      13.145 -17.590  14.153  1.00  0.00    -0.394 OA
ATOM     32  H   UNL     1      13.598 -18.389  14.530  1.00  0.00     0.210 HD
ENDBRANCH  30  31
ENDBRANCH  24  30
BRANCH  25  33
ATOM     33  O   UNL     1      12.172 -15.097  15.392  1.00  0.00    -0.388 OA
ATOM     34  H   UNL     1      13.136 -14.855  15.398  1.00  0.00     0.211 HD
ENDBRANCH  25  33
ENDBRANCH  11  20
BRANCH  10  35
ATOM     35  O   UNL     1      11.523 -16.419   9.818  1.00  0.00    -0.507 OA
ATOM     36  H   UNL     1      12.037 -16.008  10.583  1.00  0.00     0.293 HD
ENDBRANCH  10  35
TORSDOF 9
ENDMDL
MODEL 7
REMARK VINA RESULT:    -6.569      4.301      7.009
REMARK INTER + INTRA:          -9.756
REMARK INTER:                  -8.562
REMARK INTRA:                  -1.194
REMARK UNBOUND:                -0.884
REMARK SMILES O=c1c(-c2ccc(O)cc2)coc2c([C@H]3O[C@@H](CO)[C@H](O)[C@@H](O)[C@@H]3O)c(O)ccc12
REMARK SMILES IDX 3 1 11 2 12 3 13 4 30 5 2 6 1 7 29 8 28 9 26 10 14 11 4 12
REMARK SMILES IDX 5 13 6 14 7 15 10 16 9 17 8 18 15 20 24 21 16 22 22 23 17 24
REMARK SMILES IDX 20 25 25 26 23 28 18 30 19 31 21 33 27 35
REMARK H PARENT 8 19 25 27 23 29 19 32 21 34 27 36
REMARK Flexibility Score: inf
ROOT
ATOM      1  C   UNL     1      12.101 -16.149   9.449  1.00  0.00     0.065 A 
ATOM      2  C   UNL     1      12.125 -15.289  10.555  1.00  0.00     0.208 A 
ATOM      3  O   UNL     1      11.004 -14.951  11.180  1.00  0.00    -0.463 OA
ATOM      4  C   UNL     1       9.802 -15.391  10.814  1.00  0.00     0.147 A 
ATOM      5  C   UNL     1       9.686 -16.260   9.705  1.00  0.00     0.066 A 
ATOM      6  C   UNL     1      10.856 -16.649   9.026  1.00  0.00     0.200 A 
ATOM      7  O   UNL     1      10.791 -17.452   8.054  1.00  0.00    -0.288 OA
ATOM      8  C   UNL     1       8.421 -16.715   9.311  1.00  0.00     0.020 A 
ATOM      9  C   UNL     1       7.281 -16.283   9.984  1.00  0.00     0.047 A 
ATOM     10  C   UNL     1       7.372 -15.405  11.067  1.00  0.00     0.125 A 
ATOM     11  C   UNL     1       8.649 -14.986  11.535  1.00  0.00     0.069 A 
ENDROOT
BRANCH   1  12
ATOM     12  C   UNL     1      13.367 -16.510   8.764  1.00  0.00    -0.011 A 
ATOM     13  C   UNL     1      13.684 -15.964   7.508  1.00  0.00     0.013 A 
ATOM     14  C   UNL     1      14.883 -16.300   6.872  1.00  0.00     0.047 A 
ATOM     15  C   UNL     1      15.782 -17.183   7.486  1.00  0.00     0.115 A 
ATOM     16  C   UNL     1      14.278 -17.389   9.376  1.00  0.00     0.013 A 
ATOM     17  C   UNL     1      15.476 -17.724   8.737  1.00  0.00     0.047 A 
BRANCH  15  18
ATOM     18  O   UNL     1      16.979 -17.526   6.861  1.00  0.00    -0.508 OA
ATOM     19  H   UNL     1      17.518 -18.332   7.155  1.00  0.00     0.293 HD
ENDBRANCH  15  18
ENDBRANCH   1  12
BRANCH  11  20
ATOM     20  C   UNL     1       8.796 -14.090  12.761  1.00  0.00     0.188 C 
ATOM     21  C   UNL     1       8.800 -14.945  14.052  1.00  0.00     0.179 C 
ATOM     22  O   UNL     1       7.729 -13.154  12.785  1.00  0.00    -0.362 OA
ATOM     23  C   UNL     1       8.899 -14.028  15.282  1.00  0.00     0.177 C 
ATOM     24  C   UNL     1       7.893 -12.211  13.831  1.00  0.00     0.176 C 
ATOM     25  C   UNL     1       7.828 -12.925  15.207  1.00  0.00     0.177 C 
BRANCH  21  26
ATOM     26  O   UNL     1       9.895 -15.827  14.050  1.00  0.00    -0.387 OA
ATOM     27  H   UNL     1       9.551 -16.717  14.324  1.00  0.00     0.211 HD
ENDBRANCH  21  26
BRANCH  23  28
ATOM     28  O   UNL     1       8.711 -14.775  16.455  1.00  0.00    -0.387 OA
ATOM     29  H   UNL     1       8.734 -15.732  16.196  1.00  0.00     0.211 HD
ENDBRANCH  23  28
BRANCH  24  30
ATOM     30  C   UNL     1       6.779 -11.159  13.692  1.00  0.00     0.191 C 
BRANCH  30  31
ATOM     31  O   UNL     1       5.757 -11.371  14.630  1.00  0.00    -0.394 OA
ATOM     32  H   UNL     1       5.758 -12.341  14.837  1.00  0.00     0.210 HD
ENDBRANCH  30  31
ENDBRANCH  24  30
BRANCH  25  33
ATOM     33  O   UNL     1       7.987 -12.019  16.270  1.00  0.00    -0.388 OA
ATOM     34  H   UNL     1       8.834 -11.522  16.119  1.00  0.00     0.211 HD
ENDBRANCH  25  33
ENDBRANCH  11  20
BRANCH  10  35
ATOM     35  O   UNL     1       6.170 -14.964  11.628  1.00  0.00    -0.507 OA
ATOM     36  H   UNL     1       6.105 -14.323  12.405  1.00  0.00     0.293 HD
ENDBRANCH  10  35
TORSDOF 9
ENDMDL
MODEL 8
REMARK VINA RESULT:    -6.537      5.498      9.275
REMARK INTER + INTRA:          -9.713
REMARK INTER:                  -8.495
REMARK INTRA:                  -1.218
REMARK UNBOUND:                -0.884
REMARK SMILES O=c1c(-c2ccc(O)cc2)coc2c([C@H]3O[C@@H](CO)[C@H](O)[C@@H](O)[C@@H]3O)c(O)ccc12
REMARK SMILES IDX 3 1 11 2 12 3 13 4 30 5 2 6 1 7 29 8 28 9 26 10 14 11 4 12
REMARK SMILES IDX 5 13 6 14 7 15 10 16 9 17 8 18 15 20 24 21 16 22 22 23 17 24
REMARK SMILES IDX 20 25 25 26 23 28 18 30 19 31 21 33 27 35
REMARK H PARENT 8 19 25 27 23 29 19 32 21 34 27 36
REMARK Flexibility Score: inf
ROOT
ATOM      1  C   UNL     1       8.852 -16.633  13.886  1.00  0.00     0.065 A 
ATOM      2  C   UNL     1       9.996 -17.399  14.148  1.00  0.00     0.208 A 
ATOM      3  O   UNL     1      10.045 -18.684  13.821  1.00  0.00    -0.463 OA
ATOM      4  C   UNL     1       9.038 -19.329  13.235  1.00  0.00     0.147 A 
ATOM      5  C   UNL     1       7.844 -18.632  12.939  1.00  0.00     0.066 A 
ATOM      6  C   UNL     1       7.761 -17.265  13.261  1.00  0.00     0.200 A 
ATOM      7  O   UNL     1       6.723 -16.605  12.978  1.00  0.00    -0.288 OA
ATOM      8  C   UNL     1       6.778 -19.312  12.333  1.00  0.00     0.020 A 
ATOM      9  C   UNL     1       6.880 -20.673  12.060  1.00  0.00     0.047 A 
ATOM     10  C   UNL     1       8.044 -21.384  12.367  1.00  0.00     0.125 A 
ATOM     11  C   UNL     1       9.167 -20.704  12.913  1.00  0.00     0.069 A 
ENDROOT
BRANCH   1  12
ATOM     12  C   UNL     1       8.819 -15.198  14.263  1.00  0.00    -0.011 A 
ATOM     13  C   UNL     1       9.489 -14.237  13.486  1.00  0.00     0.013 A 
ATOM     14  C   UNL     1       9.446 -12.885  13.841  1.00  0.00     0.047 A 
ATOM     15  C   UNL     1       8.729 -12.477  14.974  1.00  0.00     0.115 A 
ATOM     16  C   UNL     1       8.096 -14.779  15.394  1.00  0.00     0.013 A 
ATOM     17  C   UNL     1       8.056 -13.426  15.747  1.00  0.00     0.047 A 
BRANCH  15  18
ATOM     18  O   UNL     1       8.680 -11.133  15.337  1.00  0.00    -0.508 OA
ATOM     19  H   UNL     1       8.010 -10.792  16.016  1.00  0.00     0.293 HD
ENDBRANCH  15  18
ENDBRANCH   1  12
BRANCH  11  20
ATOM     20  C   UNL     1      10.482 -21.428  13.192  1.00  0.00     0.188 C 
ATOM     21  C   UNL     1      11.308 -21.558  11.889  1.00  0.00     0.179 C 
ATOM     22  O   UNL     1      10.202 -22.710  13.735  1.00  0.00    -0.362 OA
ATOM     23  C   UNL     1      12.606 -22.332  12.172  1.00  0.00     0.177 C 
ATOM     24  C   UNL     1      11.390 -23.371  14.136  1.00  0.00     0.176 C 
ATOM     25  C   UNL     1      12.288 -23.649  12.902  1.00  0.00     0.177 C 
BRANCH  21  26
ATOM     26  O   UNL     1      11.635 -20.285  11.390  1.00  0.00    -0.387 OA
ATOM     27  H   UNL     1      10.980 -19.645  11.774  1.00  0.00     0.211 HD
ENDBRANCH  21  26
BRANCH  23  28
ATOM     28  O   UNL     1      13.267 -22.619  10.968  1.00  0.00    -0.387 OA
ATOM     29  H   UNL     1      12.566 -22.777  10.283  1.00  0.00     0.211 HD
ENDBRANCH  23  28
BRANCH  24  30
ATOM     30  C   UNL     1      10.985 -24.678  14.840  1.00  0.00     0.191 C 
BRANCH  30  31
ATOM     31  O   UNL     1      10.976 -25.757  13.945  1.00  0.00    -0.394 OA
ATOM     32  H   UNL     1      10.347 -26.430  14.317  1.00  0.00     0.210 HD
ENDBRANCH  30  31
ENDBRANCH  24  30
BRANCH  25  33
ATOM     33  O   UNL     1      13.478 -24.305  13.263  1.00  0.00    -0.388 OA
ATOM     34  H   UNL     1      14.231 -23.681  13.088  1.00  0.00     0.211 HD
ENDBRANCH  25  33
ENDBRANCH  11  20
BRANCH  10  35
ATOM     35  O   UNL     1       8.025 -22.762  12.130  1.00  0.00    -0.507 OA
ATOM     36  H   UNL     1       7.278 -23.379  12.414  1.00  0.00     0.293 HD
ENDBRANCH  10  35
TORSDOF 9
ENDMDL
MODEL 9
REMARK VINA RESULT:    -6.506      4.330      7.729
REMARK INTER + INTRA:          -9.672
REMARK INTER:                  -8.764
REMARK INTRA:                  -0.908
REMARK UNBOUND:                -0.884
REMARK SMILES O=c1c(-c2ccc(O)cc2)coc2c([C@H]3O[C@@H](CO)[C@H](O)[C@@H](O)[C@@H]3O)c(O)ccc12
REMARK SMILES IDX 3 1 11 2 12 3 13 4 30 5 2 6 1 7 29 8 28 9 26 10 14 11 4 12
REMARK SMILES IDX 5 13 6 14 7 15 10 16 9 17 8 18 15 20 24 21 16 22 22 23 17 24
REMARK SMILES IDX 20 25 25 26 23 28 18 30 19 31 21 33 27 35
REMARK H PARENT 8 19 25 27 23 29 19 32 21 34 27 36
REMARK Flexibility Score: inf
ROOT
ATOM      1  C   UNL     1      12.225 -17.721  12.916  1.00  0.00     0.065 A 
ATOM      2  C   UNL     1      12.112 -16.665  13.830  1.00  0.00     0.208 A 
ATOM      3  O   UNL     1      11.221 -15.699  13.648  1.00  0.00    -0.463 OA
ATOM      4  C   UNL     1      10.388 -15.658  12.611  1.00  0.00     0.147 A 
ATOM      5  C   UNL     1      10.438 -16.682  11.637  1.00  0.00     0.066 A 
ATOM      6  C   UNL     1      11.363 -17.730  11.804  1.00  0.00     0.200 A 
ATOM      7  O   UNL     1      11.409 -18.678  10.973  1.00  0.00    -0.288 OA
ATOM      8  C   UNL     1       9.570 -16.636  10.538  1.00  0.00     0.020 A 
ATOM      9  C   UNL     1       8.691 -15.567  10.384  1.00  0.00     0.047 A 
ATOM     10  C   UNL     1       8.644 -14.533  11.322  1.00  0.00     0.125 A 
ATOM     11  C   UNL     1       9.460 -14.592  12.486  1.00  0.00     0.069 A 
ENDROOT
BRANCH   1  12
ATOM     12  C   UNL     1      13.231 -18.789  13.139  1.00  0.00    -0.011 A 
ATOM     13  C   UNL     1      12.865 -20.004  13.744  1.00  0.00     0.013 A 
ATOM     14  C   UNL     1      13.815 -21.011  13.943  1.00  0.00     0.047 A 
ATOM     15  C   UNL     1      15.142 -20.816  13.534  1.00  0.00     0.115 A 
ATOM     16  C   UNL     1      14.563 -18.606  12.725  1.00  0.00     0.013 A 
ATOM     17  C   UNL     1      15.511 -19.614  12.926  1.00  0.00     0.047 A 
BRANCH  15  18
ATOM     18  O   UNL     1      16.097 -21.812  13.728  1.00  0.00    -0.508 OA
ATOM     19  H   UNL     1      15.905 -22.626  14.301  1.00  0.00     0.293 HD
ENDBRANCH  15  18
ENDBRANCH   1  12
BRANCH  11  20
ATOM     20  C   UNL     1       9.383 -13.523  13.572  1.00  0.00     0.188 C 
ATOM     21  C   UNL     1       7.976 -13.515  14.218  1.00  0.00     0.179 C 
ATOM     22  O   UNL     1       9.677 -12.257  13.001  1.00  0.00    -0.362 OA
ATOM     23  C   UNL     1       7.896 -12.402  15.275  1.00  0.00     0.177 C 
ATOM     24  C   UNL     1       9.751 -11.247  13.994  1.00  0.00     0.176 C 
ATOM     25  C   UNL     1       8.368 -11.067  14.673  1.00  0.00     0.177 C 
BRANCH  21  26
ATOM     26  O   UNL     1       7.716 -14.751  14.835  1.00  0.00    -0.387 OA
ATOM     27  H   UNL     1       8.503 -14.966  15.400  1.00  0.00     0.211 HD
ENDBRANCH  21  26
BRANCH  23  28
ATOM     28  O   UNL     1       6.574 -12.262  15.727  1.00  0.00    -0.387 OA
ATOM     29  H   UNL     1       6.044 -12.985  15.301  1.00  0.00     0.211 HD
ENDBRANCH  23  28
BRANCH  24  30
ATOM     30  C   UNL     1      10.213  -9.949  13.309  1.00  0.00     0.191 C 
BRANCH  30  31
ATOM     31  O   UNL     1      11.612  -9.876  13.247  1.00  0.00    -0.394 OA
ATOM     32  H   UNL     1      11.921 -10.704  12.797  1.00  0.00     0.210 HD
ENDBRANCH  30  31
ENDBRANCH  24  30
BRANCH  25  33
ATOM     33  O   UNL     1       8.403 -10.071  15.666  1.00  0.00    -0.388 OA
ATOM     34  H   UNL     1       9.064 -10.353  16.352  1.00  0.00     0.211 HD
ENDBRANCH  25  33
ENDBRANCH  11  20
BRANCH  10  35
ATOM     35  O   UNL     1       7.788 -13.463  11.044  1.00  0.00    -0.507 OA
ATOM     36  H   UNL     1       8.094 -12.555  10.724  1.00  0.00     0.293 HD
ENDBRANCH  10  35
TORSDOF 9
ENDMDL
