MODEL 1
REMARK VINA RESULT:    -4.453      0.000      0.000
REMARK INTER + INTRA:          -5.122
REMARK INTER:                  -4.973
REMARK INTRA:                  -0.149
REMARK UNBOUND:                -0.149
REMARK SMILES O=C([O-])c1ccccc1C(=O)[O-]
REMARK SMILES IDX 4 1 9 2 5 3 8 4 6 5 7 6 2 7 1 8 3 9 10 10 11 11 12 12
REMARK H PARENT
REMARK Flexibility Score: inf
ROOT
ATOM      1  C   UNL     1     -26.079  85.379  75.102  1.00  0.00     0.006 A 
ATOM      2  C   UNL     1     -25.010  86.077  75.728  1.00  0.00     0.006 A 
ATOM      3  C   UNL     1     -27.357  85.969  75.070  1.00  0.00     0.010 A 
ATOM      4  C   UNL     1     -25.243  87.365  76.243  1.00  0.00     0.010 A 
ATOM      5  C   UNL     1     -27.570  87.239  75.607  1.00  0.00     0.001 A 
ATOM      6  C   UNL     1     -26.513  87.940  76.182  1.00  0.00     0.001 A 
ENDROOT
BRANCH   1   7
ATOM      7  C   UNL     1     -25.891  84.082  74.411  1.00  0.00     0.072 C 
ATOM      8  O   UNL     1     -25.469  84.051  73.225  1.00  0.00    -0.545 OA
ATOM      9  O   UNL     1     -26.114  82.884  75.079  1.00  0.00    -0.545 OA
ENDBRANCH   1   7
BRANCH   2  10
ATOM     10  C   UNL     1     -23.673  85.474  75.930  1.00  0.00     0.072 C 
ATOM     11  O   UNL     1     -22.652  86.014  75.429  1.00  0.00    -0.545 OA
ATOM     12  O   UNL     1     -23.517  84.345  76.726  1.00  0.00    -0.545 OA
ENDBRANCH   2  10
TORSDOF 2
ENDMDL
MODEL 2
REMARK VINA RESULT:    -4.430      2.327      4.109
REMARK INTER + INTRA:          -5.097
REMARK INTER:                  -4.898
REMARK INTRA:                  -0.199
REMARK UNBOUND:                -0.149
REMARK SMILES O=C([O-])c1ccccc1C(=O)[O-]
REMARK SMILES IDX 4 1 9 2 5 3 8 4 6 5 7 6 2 7 1 8 3 9 10 10 11 11 12 12
REMARK H PARENT
REMARK Flexibility Score: inf
ROOT
ATOM      1  C   UNL     1     -25.355  85.211  75.322  1.00  0.00     0.006 A 
ATOM      2  C   UNL     1     -25.850  83.894  75.527  1.00  0.00     0.006 A 
ATOM      3  C   UNL     1     -24.137  85.586  75.921  1.00  0.00     0.010 A 
ATOM      4  C   UNL     1     -25.080  82.981  76.270  1.00  0.00     0.010 A 
ATOM      5  C   UNL     1     -23.400  84.670  76.673  1.00  0.00     0.001 A 
ATOM      6  C   UNL     1     -23.864  83.368  76.837  1.00  0.00     0.001 A 
ENDROOT
BRANCH   1   7
ATOM      7  C   UNL     1     -26.030  86.191  74.439  1.00  0.00     0.072 C 
ATOM      8  O   UNL     1     -26.958  86.915  74.888  1.00  0.00    -0.545 OA
ATOM      9  O   UNL     1     -25.609  86.370  73.127  1.00  0.00    -0.545 OA
ENDBRANCH   1   7
BRANCH   2  10
ATOM     10  C   UNL     1     -27.184  83.460  75.052  1.00  0.00     0.072 C 
ATOM     11  O   UNL     1     -28.214  83.724  75.727  1.00  0.00    -0.545 OA
ATOM     12  O   UNL     1     -27.327  82.817  73.828  1.00  0.00    -0.545 OA
ENDBRANCH   2  10
TORSDOF 2
ENDMDL
MODEL 3
REMARK VINA RESULT:    -4.358      2.366      3.624
REMARK INTER + INTRA:          -5.017
REMARK INTER:                  -4.783
REMARK INTRA:                  -0.233
REMARK UNBOUND:                -0.149
REMARK SMILES O=C([O-])c1ccccc1C(=O)[O-]
REMARK SMILES IDX 4 1 9 2 5 3 8 4 6 5 7 6 2 7 1 8 3 9 10 10 11 11 12 12
REMARK H PARENT
REMARK Flexibility Score: inf
ROOT
ATOM      1  C   UNL     1     -26.055  83.203  75.445  1.00  0.00     0.006 A 
ATOM      2  C   UNL     1     -25.402  84.464  75.379  1.00  0.00     0.006 A 
ATOM      3  C   UNL     1     -25.491  82.179  76.230  1.00  0.00     0.010 A 
ATOM      4  C   UNL     1     -24.245  84.676  76.151  1.00  0.00     0.010 A 
ATOM      5  C   UNL     1     -24.329  82.406  76.970  1.00  0.00     0.001 A 
ATOM      6  C   UNL     1     -23.715  83.654  76.940  1.00  0.00     0.001 A 
ENDROOT
BRANCH   1   7
ATOM      7  C   UNL     1     -27.351  82.938  74.778  1.00  0.00     0.072 C 
ATOM      8  O   UNL     1     -28.433  83.184  75.375  1.00  0.00    -0.545 OA
ATOM      9  O   UNL     1     -27.393  82.478  73.467  1.00  0.00    -0.545 OA
ENDBRANCH   1   7
BRANCH   2  10
ATOM     10  C   UNL     1     -25.847  85.547  74.473  1.00  0.00     0.072 C 
ATOM     11  O   UNL     1     -25.397  85.616  73.299  1.00  0.00    -0.545 OA
ATOM     12  O   UNL     1     -26.813  86.460  74.879  1.00  0.00    -0.545 OA
ENDBRANCH   2  10
TORSDOF 2
ENDMDL
MODEL 4
REMARK VINA RESULT:    -4.322      2.035      3.185
REMARK INTER + INTRA:          -4.977
REMARK INTER:                  -4.772
REMARK INTRA:                  -0.204
REMARK UNBOUND:                -0.149
REMARK SMILES O=C([O-])c1ccccc1C(=O)[O-]
REMARK SMILES IDX 4 1 9 2 5 3 8 4 6 5 7 6 2 7 1 8 3 9 10 10 11 11 12 12
REMARK H PARENT
REMARK Flexibility Score: inf
ROOT
ATOM      1  C   UNL     1     -25.468  87.409  76.344  1.00  0.00     0.006 A 
ATOM      2  C   UNL     1     -25.940  86.554  77.378  1.00  0.00     0.006 A 
ATOM      3  C   UNL     1     -25.499  88.803  76.541  1.00  0.00     0.010 A 
ATOM      4  C   UNL     1     -26.366  87.120  78.593  1.00  0.00     0.010 A 
ATOM      5  C   UNL     1     -25.948  89.343  77.747  1.00  0.00     0.001 A 
ATOM      6  C   UNL     1     -26.368  88.504  78.775  1.00  0.00     0.001 A 
ENDROOT
BRANCH   1   7
ATOM      7  C   UNL     1     -24.872  86.894  75.090  1.00  0.00     0.072 C 
ATOM      8  O   UNL     1     -23.633  86.684  75.017  1.00  0.00    -0.545 OA
ATOM      9  O   UNL     1     -25.676  86.574  74.002  1.00  0.00    -0.545 OA
ENDBRANCH   1   7
BRANCH   2  10
ATOM     10  C   UNL     1     -26.073  85.090  77.203  1.00  0.00     0.072 C 
ATOM     11  O   UNL     1     -27.191  84.584  76.919  1.00  0.00    -0.545 OA
ATOM     12  O   UNL     1     -24.960  84.262  77.284  1.00  0.00    -0.545 OA
ENDBRANCH   2  10
TORSDOF 2
ENDMDL
MODEL 5
REMARK VINA RESULT:    -4.310      2.026      2.866
REMARK INTER + INTRA:          -4.963
REMARK INTER:                  -4.750
REMARK INTRA:                  -0.212
REMARK UNBOUND:                -0.149
REMARK SMILES O=C([O-])c1ccccc1C(=O)[O-]
REMARK SMILES IDX 4 1 9 2 5 3 8 4 6 5 7 6 2 7 1 8 3 9 10 10 11 11 12 12
REMARK H PARENT
REMARK Flexibility Score: inf
ROOT
ATOM      1  C   UNL     1     -25.981  86.549  77.375  1.00  0.00     0.006 A 
ATOM      2  C   UNL     1     -25.459  87.381  76.347  1.00  0.00     0.006 A 
ATOM      3  C   UNL     1     -26.435  87.140  78.570  1.00  0.00     0.010 A 
ATOM      4  C   UNL     1     -25.467  88.777  76.525  1.00  0.00     0.010 A 
ATOM      5  C   UNL     1     -26.413  88.525  78.734  1.00  0.00     0.001 A 
ATOM      6  C   UNL     1     -25.942  89.342  77.710  1.00  0.00     0.001 A 
ENDROOT
BRANCH   1   7
ATOM      7  C   UNL     1     -26.140  85.085  77.214  1.00  0.00     0.072 C 
ATOM      8  O   UNL     1     -27.251  84.602  76.869  1.00  0.00    -0.545 OA
ATOM      9  O   UNL     1     -25.055  84.232  77.379  1.00  0.00    -0.545 OA
ENDBRANCH   1   7
BRANCH   2  10
ATOM     10  C   UNL     1     -24.834  86.836  75.120  1.00  0.00     0.072 C 
ATOM     11  O   UNL     1     -23.602  86.574  75.098  1.00  0.00    -0.545 OA
ATOM     12  O   UNL     1     -25.604  86.545  74.000  1.00  0.00    -0.545 OA
ENDBRANCH   2  10
TORSDOF 2
ENDMDL
MODEL 6
REMARK VINA RESULT:    -4.267      1.111      2.854
REMARK INTER + INTRA:          -4.915
REMARK INTER:                  -4.706
REMARK INTRA:                  -0.208
REMARK UNBOUND:                -0.149
REMARK SMILES O=C([O-])c1ccccc1C(=O)[O-]
REMARK SMILES IDX 4 1 9 2 5 3 8 4 6 5 7 6 2 7 1 8 3 9 10 10 11 11 12 12
REMARK H PARENT
REMARK Flexibility Score: inf
ROOT
ATOM      1  C   UNL     1     -25.498  85.287  76.472  1.00  0.00     0.006 A 
ATOM      2  C   UNL     1     -26.242  85.217  75.263  1.00  0.00     0.006 A 
ATOM      3  C   UNL     1     -25.639  86.419  77.299  1.00  0.00     0.010 A 
ATOM      4  C   UNL     1     -27.146  86.251  74.955  1.00  0.00     0.010 A 
ATOM      5  C   UNL     1     -26.525  87.442  76.962  1.00  0.00     0.001 A 
ATOM      6  C   UNL     1     -27.286  87.353  75.800  1.00  0.00     0.001 A 
ENDROOT
BRANCH   1   7
ATOM      7  C   UNL     1     -24.631  84.182  76.942  1.00  0.00     0.072 C 
ATOM      8  O   UNL     1     -23.381  84.257  76.811  1.00  0.00    -0.545 OA
ATOM      9  O   UNL     1     -25.177  83.080  77.590  1.00  0.00    -0.545 OA
ENDBRANCH   1   7
BRANCH   2  10
ATOM     10  C   UNL     1     -26.052  84.136  74.270  1.00  0.00     0.072 C 
ATOM     11  O   UNL     1     -25.285  84.305  73.285  1.00  0.00    -0.545 OA
ATOM     12  O   UNL     1     -26.662  82.899  74.443  1.00  0.00    -0.545 OA
ENDBRANCH   2  10
TORSDOF 2
ENDMDL
MODEL 7
REMARK VINA RESULT:    -4.213      1.803      2.364
REMARK INTER + INTRA:          -4.855
REMARK INTER:                  -4.634
REMARK INTRA:                  -0.221
REMARK UNBOUND:                -0.149
REMARK SMILES O=C([O-])c1ccccc1C(=O)[O-]
REMARK SMILES IDX 4 1 9 2 5 3 8 4 6 5 7 6 2 7 1 8 3 9 10 10 11 11 12 12
REMARK H PARENT
REMARK Flexibility Score: inf
ROOT
ATOM      1  C   UNL     1     -27.355  85.744  76.167  1.00  0.00     0.006 A 
ATOM      2  C   UNL     1     -26.710  86.841  75.531  1.00  0.00     0.006 A 
ATOM      3  C   UNL     1     -28.348  85.999  77.132  1.00  0.00     0.010 A 
ATOM      4  C   UNL     1     -27.126  88.150  75.838  1.00  0.00     0.010 A 
ATOM      5  C   UNL     1     -28.728  87.306  77.436  1.00  0.00     0.001 A 
ATOM      6  C   UNL     1     -28.128  88.379  76.782  1.00  0.00     0.001 A 
ENDROOT
BRANCH   1   7
ATOM      7  C   UNL     1     -27.079  84.335  75.802  1.00  0.00     0.072 C 
ATOM      8  O   UNL     1     -27.705  83.791  74.854  1.00  0.00    -0.545 OA
ATOM      9  O   UNL     1     -26.084  83.616  76.455  1.00  0.00    -0.545 OA
ENDBRANCH   1   7
BRANCH   2  10
ATOM     10  C   UNL     1     -25.564  86.669  74.610  1.00  0.00     0.072 C 
ATOM     11  O   UNL     1     -25.757  86.545  73.372  1.00  0.00    -0.545 OA
ATOM     12  O   UNL     1     -24.259  86.706  75.088  1.00  0.00    -0.545 OA
ENDBRANCH   2  10
TORSDOF 2
ENDMDL
MODEL 8
REMARK VINA RESULT:    -4.208      9.838     11.031
REMARK INTER + INTRA:          -4.849
REMARK INTER:                  -4.786
REMARK INTRA:                  -0.064
REMARK UNBOUND:                -0.149
REMARK SMILES O=C([O-])c1ccccc1C(=O)[O-]
REMARK SMILES IDX 4 1 9 2 5 3 8 4 6 5 7 6 2 7 1 8 3 9 10 10 11 11 12 12
REMARK H PARENT
REMARK Flexibility Score: inf
ROOT
ATOM      1  C   UNL     1     -25.364  88.683  84.871  1.00  0.00     0.006 A 
ATOM      2  C   UNL     1     -26.561  89.201  85.439  1.00  0.00     0.006 A 
ATOM      3  C   UNL     1     -25.301  87.317  84.533  1.00  0.00     0.010 A 
ATOM      4  C   UNL     1     -27.671  88.349  85.589  1.00  0.00     0.010 A 
ATOM      5  C   UNL     1     -26.408  86.487  84.712  1.00  0.00     0.001 A 
ATOM      6  C   UNL     1     -27.594  87.004  85.227  1.00  0.00     0.001 A 
ENDROOT
BRANCH   1   7
ATOM      7  C   UNL     1     -24.197  89.537  84.549  1.00  0.00     0.072 C 
ATOM      8  O   UNL     1     -23.049  89.221  84.957  1.00  0.00    -0.545 OA
ATOM      9  O   UNL     1     -24.342  90.659  83.741  1.00  0.00    -0.545 OA
ENDBRANCH   1   7
BRANCH   2  10
ATOM     10  C   UNL     1     -26.666  90.586  85.951  1.00  0.00     0.072 C 
ATOM     11  O   UNL     1     -27.380  91.432  85.350  1.00  0.00    -0.545 OA
ATOM     12  O   UNL     1     -26.037  90.955  87.134  1.00  0.00    -0.545 OA
ENDBRANCH   2  10
TORSDOF 2
ENDMDL
MODEL 9
REMARK VINA RESULT:    -4.202      1.786      3.139
REMARK INTER + INTRA:          -4.842
REMARK INTER:                  -4.619
REMARK INTRA:                  -0.223
REMARK UNBOUND:                -0.149
REMARK SMILES O=C([O-])c1ccccc1C(=O)[O-]
REMARK SMILES IDX 4 1 9 2 5 3 8 4 6 5 7 6 2 7 1 8 3 9 10 10 11 11 12 12
REMARK H PARENT
REMARK Flexibility Score: inf
ROOT
ATOM      1  C   UNL     1     -26.658  86.841  75.522  1.00  0.00     0.006 A 
ATOM      2  C   UNL     1     -27.367  85.784  76.157  1.00  0.00     0.006 A 
ATOM      3  C   UNL     1     -27.005  88.173  75.817  1.00  0.00     0.010 A 
ATOM      4  C   UNL     1     -28.355  86.098  77.109  1.00  0.00     0.010 A 
ATOM      5  C   UNL     1     -28.003  88.461  76.749  1.00  0.00     0.001 A 
ATOM      6  C   UNL     1     -28.668  87.427  77.402  1.00  0.00     0.001 A 
ENDROOT
BRANCH   1   7
ATOM      7  C   UNL     1     -25.511  86.601  74.615  1.00  0.00     0.072 C 
ATOM      8  O   UNL     1     -25.697  86.493  73.374  1.00  0.00    -0.545 OA
ATOM      9  O   UNL     1     -24.213  86.558  75.110  1.00  0.00    -0.545 OA
ENDBRANCH   1   7
BRANCH   2  10
ATOM     10  C   UNL     1     -27.164  84.361  75.803  1.00  0.00     0.072 C 
ATOM     11  O   UNL     1     -27.834  83.836  74.875  1.00  0.00    -0.545 OA
ATOM     12  O   UNL     1     -26.189  83.604  76.441  1.00  0.00    -0.545 OA
ENDBRANCH   2  10
TORSDOF 2
ENDMDL
