MODEL 1
REMARK VINA RESULT:    -3.708      0.000      0.000
REMARK INTER + INTRA:          -4.389
REMARK INTER:                  -4.359
REMARK INTRA:                  -0.030
REMARK UNBOUND:                -0.030
REMARK SMILES O=C([O-])CCC(=O)[O-]
REMARK SMILES IDX 4 1 2 2 1 3 3 4 5 5 6 6 7 7 8 8
REMARK H PARENT
REMARK Flexibility Score: inf
ROOT
ATOM      1  C   UNL     1      17.381 115.894 292.104  1.00  0.00     0.059 C 
ENDROOT
BRANCH   1   2
ATOM      2  C   UNL     1      18.132 115.593 290.844  1.00  0.00     0.042 C 
ATOM      3  O   UNL     1      19.372 115.801 290.780  1.00  0.00    -0.550 OA
ATOM      4  O   UNL     1      17.469 115.044 289.753  1.00  0.00    -0.550 OA
ENDBRANCH   1   2
BRANCH   1   5
ATOM      5  C   UNL     1      17.955 117.119 292.825  1.00  0.00     0.059 C 
BRANCH   5   6
ATOM      6  C   UNL     1      16.941 117.757 293.724  1.00  0.00     0.042 C 
ATOM      7  O   UNL     1      16.570 117.171 294.775  1.00  0.00    -0.550 OA
ATOM      8  O   UNL     1      16.439 119.016 293.424  1.00  0.00    -0.550 OA
ENDBRANCH   5   6
ENDBRANCH   1   5
TORSDOF 3
ENDMDL
MODEL 2
REMARK VINA RESULT:    -3.696      0.566      4.287
REMARK INTER + INTRA:          -4.375
REMARK INTER:                  -4.342
REMARK INTRA:                  -0.033
REMARK UNBOUND:                -0.030
REMARK SMILES O=C([O-])CCC(=O)[O-]
REMARK SMILES IDX 4 1 2 2 1 3 3 4 5 5 6 6 7 7 8 8
REMARK H PARENT
REMARK Flexibility Score: inf
ROOT
ATOM      1  C   UNL     1      17.686 117.035 292.727  1.00  0.00     0.059 C 
ENDROOT
BRANCH   1   2
ATOM      2  C   UNL     1      16.957 117.232 294.020  1.00  0.00     0.042 C 
ATOM      3  O   UNL     1      17.082 116.394 294.952  1.00  0.00    -0.550 OA
ATOM      4  O   UNL     1      16.171 118.362 294.211  1.00  0.00    -0.550 OA
ENDBRANCH   1   2
BRANCH   1   5
ATOM      5  C   UNL     1      17.300 115.711 292.057  1.00  0.00     0.059 C 
BRANCH   5   6
ATOM      6  C   UNL     1      18.093 115.471 290.809  1.00  0.00     0.042 C 
ATOM      7  O   UNL     1      19.320 115.750 290.775  1.00  0.00    -0.550 OA
ATOM      8  O   UNL     1      17.485 114.901 289.698  1.00  0.00    -0.550 OA
ENDBRANCH   5   6
ENDBRANCH   1   5
TORSDOF 3
ENDMDL
MODEL 3
REMARK VINA RESULT:    -3.495      7.626      8.030
REMARK INTER + INTRA:          -4.138
REMARK INTER:                  -4.097
REMARK INTRA:                  -0.041
REMARK UNBOUND:                -0.030
REMARK SMILES O=C([O-])CCC(=O)[O-]
REMARK SMILES IDX 4 1 2 2 1 3 3 4 5 5 6 6 7 7 8 8
REMARK H PARENT
REMARK Flexibility Score: inf
ROOT
ATOM      1  C   UNL     1      24.590 118.792 288.897  1.00  0.00     0.059 C 
ENDROOT
BRANCH   1   2
ATOM      2  C   UNL     1      23.413 118.798 287.971  1.00  0.00     0.042 C 
ATOM      3  O   UNL     1      22.889 117.713 287.604  1.00  0.00    -0.550 OA
ATOM      4  O   UNL     1      22.870 120.003 287.544  1.00  0.00    -0.550 OA
ENDBRANCH   1   2
BRANCH   1   5
ATOM      5  C   UNL     1      24.538 117.607 289.868  1.00  0.00     0.059 C 
BRANCH   5   6
ATOM      6  C   UNL     1      25.263 117.906 291.144  1.00  0.00     0.042 C 
ATOM      7  O   UNL     1      25.345 119.091 291.563  1.00  0.00    -0.550 OA
ATOM      8  O   UNL     1      25.811 116.872 291.892  1.00  0.00    -0.550 OA
ENDBRANCH   5   6
ENDBRANCH   1   5
TORSDOF 3
ENDMDL
MODEL 4
REMARK VINA RESULT:    -3.471      7.597      8.267
REMARK INTER + INTRA:          -4.110
REMARK INTER:                  -4.071
REMARK INTRA:                  -0.038
REMARK UNBOUND:                -0.030
REMARK SMILES O=C([O-])CCC(=O)[O-]
REMARK SMILES IDX 4 1 2 2 1 3 3 4 5 5 6 6 7 7 8 8
REMARK H PARENT
REMARK Flexibility Score: inf
ROOT
ATOM      1  C   UNL     1      24.449 117.620 289.964  1.00  0.00     0.059 C 
ENDROOT
BRANCH   1   2
ATOM      2  C   UNL     1      25.204 117.877 291.231  1.00  0.00     0.042 C 
ATOM      3  O   UNL     1      25.344 119.053 291.659  1.00  0.00    -0.550 OA
ATOM      4  O   UNL     1      25.718 116.813 291.962  1.00  0.00    -0.550 OA
ENDBRANCH   1   2
BRANCH   1   5
ATOM      5  C   UNL     1      24.596 118.781 288.974  1.00  0.00     0.059 C 
BRANCH   5   6
ATOM      6  C   UNL     1      23.485 118.795 287.969  1.00  0.00     0.042 C 
ATOM      7  O   UNL     1      22.996 117.713 287.551  1.00  0.00    -0.550 OA
ATOM      8  O   UNL     1      22.962 120.003 287.527  1.00  0.00    -0.550 OA
ENDBRANCH   5   6
ENDBRANCH   1   5
TORSDOF 3
ENDMDL
MODEL 5
REMARK VINA RESULT:    -3.338      6.786      7.419
REMARK INTER + INTRA:          -3.953
REMARK INTER:                  -3.839
REMARK INTRA:                  -0.113
REMARK UNBOUND:                -0.030
REMARK SMILES O=C([O-])CCC(=O)[O-]
REMARK SMILES IDX 4 1 2 2 1 3 3 4 5 5 6 6 7 7 8 8
REMARK H PARENT
REMARK Flexibility Score: inf
ROOT
ATOM      1  C   UNL     1      24.726 118.528 289.451  1.00  0.00     0.059 C 
ENDROOT
BRANCH   1   2
ATOM      2  C   UNL     1      23.485 117.883 288.915  1.00  0.00     0.042 C 
ATOM      3  O   UNL     1      22.923 118.345 287.888  1.00  0.00    -0.550 OA
ATOM      4  O   UNL     1      22.973 116.746 289.528  1.00  0.00    -0.550 OA
ENDBRANCH   1   2
BRANCH   1   5
ATOM      5  C   UNL     1      25.248 117.803 290.696  1.00  0.00     0.059 C 
BRANCH   5   6
ATOM      6  C   UNL     1      24.935 118.562 291.950  1.00  0.00     0.042 C 
ATOM      7  O   UNL     1      23.975 118.207 292.682  1.00  0.00    -0.550 OA
ATOM      8  O   UNL     1      25.731 119.635 292.330  1.00  0.00    -0.550 OA
ENDBRANCH   5   6
ENDBRANCH   1   5
TORSDOF 3
ENDMDL
MODEL 6
REMARK VINA RESULT:    -3.298      1.356      1.572
REMARK INTER + INTRA:          -3.907
REMARK INTER:                  -3.873
REMARK INTRA:                  -0.033
REMARK UNBOUND:                -0.030
REMARK SMILES O=C([O-])CCC(=O)[O-]
REMARK SMILES IDX 4 1 2 2 1 3 3 4 5 5 6 6 7 7 8 8
REMARK H PARENT
REMARK Flexibility Score: inf
ROOT
ATOM      1  C   UNL     1      17.852 116.873 292.496  1.00  0.00     0.059 C 
ENDROOT
BRANCH   1   2
ATOM      2  C   UNL     1      18.075 115.813 291.462  1.00  0.00     0.042 C 
ATOM      3  O   UNL     1      19.142 115.794 290.793  1.00  0.00    -0.550 OA
ATOM      4  O   UNL     1      17.122 114.822 291.264  1.00  0.00    -0.550 OA
ENDBRANCH   1   2
BRANCH   1   5
ATOM      5  C   UNL     1      17.124 116.319 293.726  1.00  0.00     0.059 C 
BRANCH   5   6
ATOM      6  C   UNL     1      17.376 117.157 294.941  1.00  0.00     0.042 C 
ATOM      7  O   UNL     1      16.427 117.453 295.714  1.00  0.00    -0.550 OA
ATOM      8  O   UNL     1      18.665 117.576 295.243  1.00  0.00    -0.550 OA
ENDBRANCH   5   6
ENDBRANCH   1   5
TORSDOF 3
ENDMDL
MODEL 7
REMARK VINA RESULT:    -3.205      6.925      8.302
REMARK INTER + INTRA:          -3.797
REMARK INTER:                  -3.678
REMARK INTRA:                  -0.119
REMARK UNBOUND:                -0.030
REMARK SMILES O=C([O-])CCC(=O)[O-]
REMARK SMILES IDX 4 1 2 2 1 3 3 4 5 5 6 6 7 7 8 8
REMARK H PARENT
REMARK Flexibility Score: inf
ROOT
ATOM      1  C   UNL     1      24.783 118.382 291.268  1.00  0.00     0.059 C 
ENDROOT
BRANCH   1   2
ATOM      2  C   UNL     1      25.867 117.531 291.854  1.00  0.00     0.042 C 
ATOM      3  O   UNL     1      25.811 116.277 291.757  1.00  0.00    -0.550 OA
ATOM      4  O   UNL     1      26.961 118.126 292.472  1.00  0.00    -0.550 OA
ENDBRANCH   1   2
BRANCH   1   5
ATOM      5  C   UNL     1      24.839 118.393 289.736  1.00  0.00     0.059 C 
BRANCH   5   6
ATOM      6  C   UNL     1      23.599 117.807 289.133  1.00  0.00     0.042 C 
ATOM      7  O   UNL     1      23.043 118.371 288.156  1.00  0.00    -0.550 OA
ATOM      8  O   UNL     1      23.084 116.615 289.625  1.00  0.00    -0.550 OA
ENDBRANCH   5   6
ENDBRANCH   1   5
TORSDOF 3
ENDMDL
MODEL 8
REMARK VINA RESULT:    -3.186      7.058      7.912
REMARK INTER + INTRA:          -3.775
REMARK INTER:                  -3.770
REMARK INTRA:                  -0.005
REMARK UNBOUND:                -0.030
REMARK SMILES O=C([O-])CCC(=O)[O-]
REMARK SMILES IDX 4 1 2 2 1 3 3 4 5 5 6 6 7 7 8 8
REMARK H PARENT
REMARK Flexibility Score: inf
ROOT
ATOM      1  C   UNL     1      24.592 118.627 289.863  1.00  0.00     0.059 C 
ENDROOT
BRANCH   1   2
ATOM      2  C   UNL     1      24.423 117.182 290.214  1.00  0.00     0.042 C 
ATOM      3  O   UNL     1      25.351 116.557 290.794  1.00  0.00    -0.550 OA
ATOM      4  O   UNL     1      23.226 116.534 289.938  1.00  0.00    -0.550 OA
ENDBRANCH   1   2
BRANCH   1   5
ATOM      5  C   UNL     1      24.669 118.835 288.346  1.00  0.00     0.059 C 
BRANCH   5   6
ATOM      6  C   UNL     1      23.311 119.049 287.748  1.00  0.00     0.042 C 
ATOM      7  O   UNL     1      22.813 120.204 287.706  1.00  0.00    -0.550 OA
ATOM      8  O   UNL     1      22.616 117.979 287.201  1.00  0.00    -0.550 OA
ENDBRANCH   5   6
ENDBRANCH   1   5
TORSDOF 3
ENDMDL
MODEL 9
REMARK VINA RESULT:    -2.886      7.769      8.848
REMARK INTER + INTRA:          -3.422
REMARK INTER:                  -3.393
REMARK INTRA:                  -0.028
REMARK UNBOUND:                -0.030
REMARK SMILES O=C([O-])CCC(=O)[O-]
REMARK SMILES IDX 4 1 2 2 1 3 3 4 5 5 6 6 7 7 8 8
REMARK H PARENT
REMARK Flexibility Score: inf
ROOT
ATOM      1  C   UNL     1      25.119 118.670 291.244  1.00  0.00     0.059 C 
ENDROOT
BRANCH   1   2
ATOM      2  C   UNL     1      24.562 118.118 289.968  1.00  0.00     0.042 C 
ATOM      3  O   UNL     1      23.904 117.044 289.976  1.00  0.00    -0.550 OA
ATOM      4  O   UNL     1      24.735 118.810 288.776  1.00  0.00    -0.550 OA
ENDBRANCH   1   2
BRANCH   1   5
ATOM      5  C   UNL     1      26.003 117.646 291.965  1.00  0.00     0.059 C 
BRANCH   5   6
ATOM      6  C   UNL     1      27.086 118.312 292.757  1.00  0.00     0.042 C 
ATOM      7  O   UNL     1      28.253 117.841 292.753  1.00  0.00    -0.550 OA
ATOM      8  O   UNL     1      26.814 119.475 293.466  1.00  0.00    -0.550 OA
ENDBRANCH   5   6
ENDBRANCH   1   5
TORSDOF 3
ENDMDL
