MODEL 1
REMARK VINA RESULT:    -5.685      0.000      0.000
REMARK INTER + INTRA:          -6.741
REMARK INTER:                  -6.682
REMARK INTRA:                  -0.059
REMARK UNBOUND:                -0.059
REMARK SMILES O=c1c(O)c(-c2ccc(O)cc2)oc2cc(O)cc(O)c12
REMARK SMILES IDX 5 1 3 2 2 3 1 4 21 5 19 6 18 7 16 8 15 9 14 10 13 11 6 12
REMARK SMILES IDX 7 13 8 14 9 15 12 16 11 17 10 18 4 20 20 22 17 24
REMARK H PARENT 10 19 4 21 20 23 17 25
REMARK Flexibility Score: inf
ROOT
ATOM      1  C   UNL     1      -8.210  90.354 -13.987  1.00  0.00     0.180 A 
ATOM      2  C   UNL     1      -7.377  89.342 -13.482  1.00  0.00     0.208 A 
ATOM      3  C   UNL     1      -5.995  89.413 -13.723  1.00  0.00     0.238 A 
ATOM      4  O   UNL     1      -5.266  88.465 -13.333  1.00  0.00    -0.285 OA
ATOM      5  C   UNL     1      -5.457  90.524 -14.417  1.00  0.00     0.111 A 
ATOM      6  C   UNL     1      -4.067  90.722 -14.679  1.00  0.00     0.134 A 
ATOM      7  C   UNL     1      -3.661  91.806 -15.467  1.00  0.00     0.093 A 
ATOM      8  C   UNL     1      -4.587  92.734 -15.949  1.00  0.00     0.123 A 
ATOM      9  C   UNL     1      -5.940  92.579 -15.653  1.00  0.00     0.094 A 
ATOM     10  C   UNL     1      -6.380  91.487 -14.901  1.00  0.00     0.146 A 
ATOM     11  O   UNL     1      -7.681  91.368 -14.661  1.00  0.00    -0.452 OA
ENDROOT
BRANCH   1  12
ATOM     12  C   UNL     1      -9.677  90.342 -13.786  1.00  0.00     0.021 A 
ATOM     13  C   UNL     1     -10.464  89.249 -14.194  1.00  0.00     0.016 A 
ATOM     14  C   UNL     1     -11.851  89.271 -14.016  1.00  0.00     0.047 A 
ATOM     15  C   UNL     1     -12.470  90.389 -13.443  1.00  0.00     0.115 A 
ATOM     16  C   UNL     1     -10.308  91.467 -13.231  1.00  0.00     0.016 A 
ATOM     17  C   UNL     1     -11.695  91.486 -13.053  1.00  0.00     0.047 A 
BRANCH  15  18
ATOM     18  O   UNL     1     -13.850  90.422 -13.259  1.00  0.00    -0.508 OA
ATOM     19  H   UNL     1     -14.402  89.572 -13.246  1.00  0.00     0.293 HD
ENDBRANCH  15  18
ENDBRANCH   1  12
BRANCH   2  20
ATOM     20  O   UNL     1      -7.918  88.292 -12.734  1.00  0.00    -0.502 OA
ATOM     21  H   UNL     1      -8.227  88.409 -11.777  1.00  0.00     0.293 HD
ENDBRANCH   2  20
BRANCH   6  22
ATOM     22  O   UNL     1      -3.051  89.907 -14.172  1.00  0.00    -0.507 OA
ATOM     23  H   UNL     1      -2.177  90.239 -13.794  1.00  0.00     0.293 HD
ENDBRANCH   6  22
BRANCH   8  24
ATOM     24  O   UNL     1      -4.173  93.819 -16.718  1.00  0.00    -0.508 OA
ATOM     25  H   UNL     1      -4.793  94.264 -17.386  1.00  0.00     0.293 HD
ENDBRANCH   8  24
TORSDOF 5
ENDMDL
MODEL 2
REMARK VINA RESULT:    -5.566      8.132     11.285
REMARK INTER + INTRA:          -6.601
REMARK INTER:                  -6.342
REMARK INTRA:                  -0.259
REMARK UNBOUND:                -0.059
REMARK SMILES O=c1c(O)c(-c2ccc(O)cc2)oc2cc(O)cc(O)c12
REMARK SMILES IDX 5 1 3 2 2 3 1 4 21 5 19 6 18 7 16 8 15 9 14 10 13 11 6 12
REMARK SMILES IDX 7 13 8 14 9 15 12 16 11 17 10 18 4 20 20 22 17 24
REMARK H PARENT 10 19 4 21 20 23 17 25
REMARK Flexibility Score: inf
ROOT
ATOM      1  C   UNL     1      -7.348  83.610  -8.867  1.00  0.00     0.180 A 
ATOM      2  C   UNL     1      -7.758  84.952  -8.787  1.00  0.00     0.208 A 
ATOM      3  C   UNL     1      -9.127  85.252  -8.874  1.00  0.00     0.238 A 
ATOM      4  O   UNL     1      -9.480  86.460  -8.877  1.00  0.00    -0.285 OA
ATOM      5  C   UNL     1     -10.073  84.204  -8.983  1.00  0.00     0.111 A 
ATOM      6  C   UNL     1     -11.488  84.390  -9.033  1.00  0.00     0.134 A 
ATOM      7  C   UNL     1     -12.322  83.285  -9.248  1.00  0.00     0.093 A 
ATOM      8  C   UNL     1     -11.797  81.995  -9.350  1.00  0.00     0.123 A 
ATOM      9  C   UNL     1     -10.422  81.798  -9.248  1.00  0.00     0.094 A 
ATOM     10  C   UNL     1      -9.561  82.883  -9.071  1.00  0.00     0.146 A 
ATOM     11  O   UNL     1      -8.255  82.651  -9.001  1.00  0.00    -0.452 OA
ENDROOT
BRANCH   1  12
ATOM     12  C   UNL     1      -5.923  83.216  -8.797  1.00  0.00     0.021 A 
ATOM     13  C   UNL     1      -5.199  82.870  -9.954  1.00  0.00     0.016 A 
ATOM     14  C   UNL     1      -3.861  82.477  -9.859  1.00  0.00     0.047 A 
ATOM     15  C   UNL     1      -3.233  82.409  -8.610  1.00  0.00     0.115 A 
ATOM     16  C   UNL     1      -5.291  83.124  -7.546  1.00  0.00     0.016 A 
ATOM     17  C   UNL     1      -3.952  82.731  -7.454  1.00  0.00     0.047 A 
BRANCH  15  18
ATOM     18  O   UNL     1      -1.900  82.020  -8.504  1.00  0.00    -0.508 OA
ATOM     19  H   UNL     1      -1.564  81.495  -7.705  1.00  0.00     0.293 HD
ENDBRANCH  15  18
ENDBRANCH   1  12
BRANCH   2  20
ATOM     20  O   UNL     1      -6.814  85.967  -8.603  1.00  0.00    -0.502 OA
ATOM     21  H   UNL     1      -5.952  86.011  -9.132  1.00  0.00     0.293 HD
ENDBRANCH   2  20
BRANCH   6  22
ATOM     22  O   UNL     1     -12.123  85.622  -8.853  1.00  0.00    -0.507 OA
ATOM     23  H   UNL     1     -11.957  86.252  -8.083  1.00  0.00     0.293 HD
ENDBRANCH   6  22
BRANCH   8  24
ATOM     24  O   UNL     1     -12.635  80.900  -9.548  1.00  0.00    -0.508 OA
ATOM     25  H   UNL     1     -13.598  80.905  -9.231  1.00  0.00     0.293 HD
ENDBRANCH   8  24
TORSDOF 5
ENDMDL
MODEL 3
REMARK VINA RESULT:    -5.547      2.897      4.408
REMARK INTER + INTRA:          -6.579
REMARK INTER:                  -6.749
REMARK INTRA:                   0.170
REMARK UNBOUND:                -0.059
REMARK SMILES O=c1c(O)c(-c2ccc(O)cc2)oc2cc(O)cc(O)c12
REMARK SMILES IDX 5 1 3 2 2 3 1 4 21 5 19 6 18 7 16 8 15 9 14 10 13 11 6 12
REMARK SMILES IDX 7 13 8 14 9 15 12 16 11 17 10 18 4 20 20 22 17 24
REMARK H PARENT 10 19 4 21 20 23 17 25
REMARK Flexibility Score: inf
ROOT
ATOM      1  C   UNL     1      -5.228  90.486 -15.206  1.00  0.00     0.180 A 
ATOM      2  C   UNL     1      -3.823  90.467 -15.201  1.00  0.00     0.208 A 
ATOM      3  C   UNL     1      -3.131  91.039 -16.282  1.00  0.00     0.238 A 
ATOM      4  O   UNL     1      -1.876  90.952 -16.307  1.00  0.00    -0.285 OA
ATOM      5  C   UNL     1      -3.850  91.671 -17.324  1.00  0.00     0.111 A 
ATOM      6  C   UNL     1      -3.251  92.323 -18.445  1.00  0.00     0.134 A 
ATOM      7  C   UNL     1      -4.064  92.822 -19.470  1.00  0.00     0.093 A 
ATOM      8  C   UNL     1      -5.457  92.751 -19.384  1.00  0.00     0.123 A 
ATOM      9  C   UNL     1      -6.052  92.166 -18.268  1.00  0.00     0.094 A 
ATOM     10  C   UNL     1      -5.266  91.625 -17.247  1.00  0.00     0.146 A 
ATOM     11  O   UNL     1      -5.876  91.058 -16.213  1.00  0.00    -0.452 OA
ENDROOT
BRANCH   1  12
ATOM     12  C   UNL     1      -6.028  89.892 -14.111  1.00  0.00     0.021 A 
ATOM     13  C   UNL     1      -5.646  90.033 -12.763  1.00  0.00     0.016 A 
ATOM     14  C   UNL     1      -6.404  89.442 -11.748  1.00  0.00     0.047 A 
ATOM     15  C   UNL     1      -7.542  88.691 -12.066  1.00  0.00     0.115 A 
ATOM     16  C   UNL     1      -7.158  89.119 -14.421  1.00  0.00     0.016 A 
ATOM     17  C   UNL     1      -7.915  88.529 -13.403  1.00  0.00     0.047 A 
BRANCH  15  18
ATOM     18  O   UNL     1      -8.306  88.098 -11.062  1.00  0.00    -0.508 OA
ATOM     19  H   UNL     1      -8.899  87.298 -11.252  1.00  0.00     0.293 HD
ENDBRANCH  15  18
ENDBRANCH   1  12
BRANCH   2  20
ATOM     20  O   UNL     1      -3.129  89.905 -14.126  1.00  0.00    -0.502 OA
ATOM     21  H   UNL     1      -2.157  89.632 -14.188  1.00  0.00     0.293 HD
ENDBRANCH   2  20
BRANCH   6  22
ATOM     22  O   UNL     1      -1.875  92.528 -18.588  1.00  0.00    -0.507 OA
ATOM     23  H   UNL     1      -1.272  92.924 -17.883  1.00  0.00     0.293 HD
ENDBRANCH   6  22
BRANCH   8  24
ATOM     24  O   UNL     1      -6.259  93.266 -20.399  1.00  0.00    -0.508 OA
ATOM     25  H   UNL     1      -6.555  92.694 -21.182  1.00  0.00     0.293 HD
ENDBRANCH   8  24
TORSDOF 5
ENDMDL
MODEL 4
REMARK VINA RESULT:    -5.431      7.822     10.231
REMARK INTER + INTRA:          -6.443
REMARK INTER:                  -6.170
REMARK INTRA:                  -0.272
REMARK UNBOUND:                -0.059
REMARK SMILES O=c1c(O)c(-c2ccc(O)cc2)oc2cc(O)cc(O)c12
REMARK SMILES IDX 5 1 3 2 2 3 1 4 21 5 19 6 18 7 16 8 15 9 14 10 13 11 6 12
REMARK SMILES IDX 7 13 8 14 9 15 12 16 11 17 10 18 4 20 20 22 17 24
REMARK H PARENT 10 19 4 21 20 23 17 25
REMARK Flexibility Score: inf
ROOT
ATOM      1  C   UNL     1      -4.462  84.572  -8.021  1.00  0.00     0.180 A 
ATOM      2  C   UNL     1      -5.546  84.745  -8.899  1.00  0.00     0.208 A 
ATOM      3  C   UNL     1      -5.993  86.046  -9.180  1.00  0.00     0.238 A 
ATOM      4  O   UNL     1      -7.011  86.189  -9.907  1.00  0.00    -0.285 OA
ATOM      5  C   UNL     1      -5.316  87.159  -8.627  1.00  0.00     0.111 A 
ATOM      6  C   UNL     1      -5.654  88.524  -8.881  1.00  0.00     0.134 A 
ATOM      7  C   UNL     1      -4.981  89.541  -8.194  1.00  0.00     0.093 A 
ATOM      8  C   UNL     1      -3.938  89.247  -7.312  1.00  0.00     0.123 A 
ATOM      9  C   UNL     1      -3.565  87.922  -7.100  1.00  0.00     0.094 A 
ATOM     10  C   UNL     1      -4.243  86.883  -7.741  1.00  0.00     0.146 A 
ATOM     11  O   UNL     1      -3.867  85.634  -7.492  1.00  0.00    -0.452 OA
ENDROOT
BRANCH   1  12
ATOM     12  C   UNL     1      -3.943  83.232  -7.665  1.00  0.00     0.021 A 
ATOM     13  C   UNL     1      -3.063  82.536  -8.515  1.00  0.00     0.016 A 
ATOM     14  C   UNL     1      -2.605  81.261  -8.168  1.00  0.00     0.047 A 
ATOM     15  C   UNL     1      -3.031  80.660  -6.977  1.00  0.00     0.115 A 
ATOM     16  C   UNL     1      -4.381  82.612  -6.484  1.00  0.00     0.016 A 
ATOM     17  C   UNL     1      -3.921  81.337  -6.138  1.00  0.00     0.047 A 
BRANCH  15  18
ATOM     18  O   UNL     1      -2.581  79.391  -6.621  1.00  0.00    -0.508 OA
ATOM     19  H   UNL     1      -3.157  78.759  -6.077  1.00  0.00     0.293 HD
ENDBRANCH  15  18
ENDBRANCH   1  12
BRANCH   2  20
ATOM     20  O   UNL     1      -6.154  83.636  -9.495  1.00  0.00    -0.502 OA
ATOM     21  H   UNL     1      -7.143  83.443  -9.404  1.00  0.00     0.293 HD
ENDBRANCH   2  20
BRANCH   6  22
ATOM     22  O   UNL     1      -6.618  88.933  -9.808  1.00  0.00    -0.507 OA
ATOM     23  H   UNL     1      -6.520  88.869 -10.810  1.00  0.00     0.293 HD
ENDBRANCH   6  22
BRANCH   8  24
ATOM     24  O   UNL     1      -3.261  90.266  -6.646  1.00  0.00    -0.508 OA
ATOM     25  H   UNL     1      -2.253  90.357  -6.700  1.00  0.00     0.293 HD
ENDBRANCH   8  24
TORSDOF 5
ENDMDL
MODEL 5
REMARK VINA RESULT:    -5.362      6.858      8.913
REMARK INTER + INTRA:          -6.361
REMARK INTER:                  -6.078
REMARK INTRA:                  -0.284
REMARK UNBOUND:                -0.059
REMARK SMILES O=c1c(O)c(-c2ccc(O)cc2)oc2cc(O)cc(O)c12
REMARK SMILES IDX 5 1 3 2 2 3 1 4 21 5 19 6 18 7 16 8 15 9 14 10 13 11 6 12
REMARK SMILES IDX 7 13 8 14 9 15 12 16 11 17 10 18 4 20 20 22 17 24
REMARK H PARENT 10 19 4 21 20 23 17 25
REMARK Flexibility Score: inf
ROOT
ATOM      1  C   UNL     1      -4.528  87.972  -8.003  1.00  0.00     0.180 A 
ATOM      2  C   UNL     1      -3.430  87.702  -7.168  1.00  0.00     0.208 A 
ATOM      3  C   UNL     1      -2.931  86.391  -7.102  1.00  0.00     0.238 A 
ATOM      4  O   UNL     1      -1.996  86.142  -6.297  1.00  0.00    -0.285 OA
ATOM      5  C   UNL     1      -3.498  85.379  -7.913  1.00  0.00     0.111 A 
ATOM      6  C   UNL     1      -3.042  84.025  -7.961  1.00  0.00     0.134 A 
ATOM      7  C   UNL     1      -3.749  83.086  -8.721  1.00  0.00     0.093 A 
ATOM      8  C   UNL     1      -4.855  83.463  -9.487  1.00  0.00     0.123 A 
ATOM      9  C   UNL     1      -5.274  84.791  -9.489  1.00  0.00     0.094 A 
ATOM     10  C   UNL     1      -4.613  85.745  -8.711  1.00  0.00     0.146 A 
ATOM     11  O   UNL     1      -5.060  86.995  -8.728  1.00  0.00    -0.452 OA
ENDROOT
BRANCH   1  12
ATOM     12  C   UNL     1      -5.119  89.324  -8.116  1.00  0.00     0.021 A 
ATOM     13  C   UNL     1      -4.596  90.282  -9.004  1.00  0.00     0.016 A 
ATOM     14  C   UNL     1      -5.157  91.561  -9.074  1.00  0.00     0.047 A 
ATOM     15  C   UNL     1      -6.235  91.904  -8.249  1.00  0.00     0.115 A 
ATOM     16  C   UNL     1      -6.187  89.684  -7.277  1.00  0.00     0.016 A 
ATOM     17  C   UNL     1      -6.746  90.964  -7.350  1.00  0.00     0.047 A 
BRANCH  15  18
ATOM     18  O   UNL     1      -6.802  93.175  -8.312  1.00  0.00    -0.508 OA
ATOM     19  H   UNL     1      -6.235  94.011  -8.236  1.00  0.00     0.293 HD
ENDBRANCH  15  18
ENDBRANCH   1  12
BRANCH   2  20
ATOM     20  O   UNL     1      -2.835  88.731  -6.433  1.00  0.00    -0.502 OA
ATOM     21  H   UNL     1      -2.778  89.682  -6.776  1.00  0.00     0.293 HD
ENDBRANCH   2  20
BRANCH   6  22
ATOM     22  O   UNL     1      -1.897  83.562  -7.307  1.00  0.00    -0.507 OA
ATOM     23  H   UNL     1      -1.510  83.959  -6.465  1.00  0.00     0.293 HD
ENDBRANCH   6  22
BRANCH   8  24
ATOM     24  O   UNL     1      -5.541  82.525 -10.254  1.00  0.00    -0.508 OA
ATOM     25  H   UNL     1      -5.514  81.536 -10.032  1.00  0.00     0.293 HD
ENDBRANCH   8  24
TORSDOF 5
ENDMDL
MODEL 6
REMARK VINA RESULT:    -5.361      3.993      6.892
REMARK INTER + INTRA:          -6.360
REMARK INTER:                  -6.079
REMARK INTRA:                  -0.282
REMARK UNBOUND:                -0.059
REMARK SMILES O=c1c(O)c(-c2ccc(O)cc2)oc2cc(O)cc(O)c12
REMARK SMILES IDX 5 1 3 2 2 3 1 4 21 5 19 6 18 7 16 8 15 9 14 10 13 11 6 12
REMARK SMILES IDX 7 13 8 14 9 15 12 16 11 17 10 18 4 20 20 22 17 24
REMARK H PARENT 10 19 4 21 20 23 17 25
REMARK Flexibility Score: inf
ROOT
ATOM      1  C   UNL     1      -4.157  91.916 -15.481  1.00  0.00     0.180 A 
ATOM      2  C   UNL     1      -4.705  90.623 -15.494  1.00  0.00     0.208 A 
ATOM      3  C   UNL     1      -5.141  90.056 -14.286  1.00  0.00     0.238 A 
ATOM      4  O   UNL     1      -5.562  88.870 -14.294  1.00  0.00    -0.285 OA
ATOM      5  C   UNL     1      -5.076  90.810 -13.089  1.00  0.00     0.111 A 
ATOM      6  C   UNL     1      -5.532  90.353 -11.815  1.00  0.00     0.134 A 
ATOM      7  C   UNL     1      -5.320  91.146 -10.681  1.00  0.00     0.093 A 
ATOM      8  C   UNL     1      -4.727  92.407 -10.783  1.00  0.00     0.123 A 
ATOM      9  C   UNL     1      -4.329  92.884 -12.030  1.00  0.00     0.094 A 
ATOM     10  C   UNL     1      -4.493  92.101 -13.175  1.00  0.00     0.146 A 
ATOM     11  O   UNL     1      -4.079  92.588 -14.339  1.00  0.00    -0.452 OA
ENDROOT
BRANCH   1  12
ATOM     12  C   UNL     1      -3.662  92.575 -16.711  1.00  0.00     0.021 A 
ATOM     13  C   UNL     1      -4.493  93.412 -17.480  1.00  0.00     0.016 A 
ATOM     14  C   UNL     1      -4.011  94.003 -18.652  1.00  0.00     0.047 A 
ATOM     15  C   UNL     1      -2.700  93.755 -19.078  1.00  0.00     0.115 A 
ATOM     16  C   UNL     1      -2.357  92.315 -17.158  1.00  0.00     0.016 A 
ATOM     17  C   UNL     1      -1.876  92.909 -18.330  1.00  0.00     0.047 A 
BRANCH  15  18
ATOM     18  O   UNL     1      -2.208  94.340 -20.243  1.00  0.00    -0.508 OA
ATOM     19  H   UNL     1      -1.261  94.172 -20.560  1.00  0.00     0.293 HD
ENDBRANCH  15  18
ENDBRANCH   1  12
BRANCH   2  20
ATOM     20  O   UNL     1      -4.831  89.923 -16.698  1.00  0.00    -0.502 OA
ATOM     21  H   UNL     1      -4.522  90.304 -17.583  1.00  0.00     0.293 HD
ENDBRANCH   2  20
BRANCH   6  22
ATOM     22  O   UNL     1      -6.216  89.150 -11.613  1.00  0.00    -0.507 OA
ATOM     23  H   UNL     1      -6.093  88.315 -12.164  1.00  0.00     0.293 HD
ENDBRANCH   6  22
BRANCH   8  24
ATOM     24  O   UNL     1      -4.536  93.196  -9.652  1.00  0.00    -0.508 OA
ATOM     25  H   UNL     1      -5.318  93.543  -9.108  1.00  0.00     0.293 HD
ENDBRANCH   8  24
TORSDOF 5
ENDMDL
MODEL 7
REMARK VINA RESULT:    -5.361      4.099      6.826
REMARK INTER + INTRA:          -6.360
REMARK INTER:                  -6.127
REMARK INTRA:                  -0.232
REMARK UNBOUND:                -0.059
REMARK SMILES O=c1c(O)c(-c2ccc(O)cc2)oc2cc(O)cc(O)c12
REMARK SMILES IDX 5 1 3 2 2 3 1 4 21 5 19 6 18 7 16 8 15 9 14 10 13 11 6 12
REMARK SMILES IDX 7 13 8 14 9 15 12 16 11 17 10 18 4 20 20 22 17 24
REMARK H PARENT 10 19 4 21 20 23 17 25
REMARK Flexibility Score: inf
ROOT
ATOM      1  C   UNL     1      -4.051  91.708 -14.585  1.00  0.00     0.180 A 
ATOM      2  C   UNL     1      -4.717  90.506 -14.293  1.00  0.00     0.208 A 
ATOM      3  C   UNL     1      -5.180  90.284 -12.985  1.00  0.00     0.238 A 
ATOM      4  O   UNL     1      -5.708  89.175 -12.713  1.00  0.00    -0.285 OA
ATOM      5  C   UNL     1      -5.021  91.291 -12.002  1.00  0.00     0.111 A 
ATOM      6  C   UNL     1      -5.492  91.192 -10.656  1.00  0.00     0.134 A 
ATOM      7  C   UNL     1      -5.185  92.207  -9.742  1.00  0.00     0.093 A 
ATOM      8  C   UNL     1      -4.480  93.347 -10.139  1.00  0.00     0.123 A 
ATOM      9  C   UNL     1      -4.065  93.476 -11.462  1.00  0.00     0.094 A 
ATOM     10  C   UNL     1      -4.323  92.464 -12.389  1.00  0.00     0.146 A 
ATOM     11  O   UNL     1      -3.889  92.620 -13.634  1.00  0.00    -0.452 OA
ENDROOT
BRANCH   1  12
ATOM     12  C   UNL     1      -3.523  92.008 -15.935  1.00  0.00     0.021 A 
ATOM     13  C   UNL     1      -2.369  91.371 -16.430  1.00  0.00     0.016 A 
ATOM     14  C   UNL     1      -1.875  91.690 -17.699  1.00  0.00     0.047 A 
ATOM     15  C   UNL     1      -2.516  92.657 -18.482  1.00  0.00     0.115 A 
ATOM     16  C   UNL     1      -4.146  92.993 -16.719  1.00  0.00     0.016 A 
ATOM     17  C   UNL     1      -3.650  93.309 -17.988  1.00  0.00     0.047 A 
BRANCH  15  18
ATOM     18  O   UNL     1      -2.034  92.982 -19.748  1.00  0.00    -0.508 OA
ATOM     19  H   UNL     1      -2.622  92.919 -20.570  1.00  0.00     0.293 HD
ENDBRANCH  15  18
ENDBRANCH   1  12
BRANCH   2  20
ATOM     20  O   UNL     1      -4.930  89.557 -15.296  1.00  0.00    -0.502 OA
ATOM     21  H   UNL     1      -5.602  88.806 -15.201  1.00  0.00     0.293 HD
ENDBRANCH   2  20
BRANCH   6  22
ATOM     22  O   UNL     1      -6.280  90.142 -10.177  1.00  0.00    -0.507 OA
ATOM     23  H   UNL     1      -6.409  89.256 -10.642  1.00  0.00     0.293 HD
ENDBRANCH   6  22
BRANCH   8  24
ATOM     24  O   UNL     1      -4.194  94.359  -9.227  1.00  0.00    -0.508 OA
ATOM     25  H   UNL     1      -4.158  95.333  -9.508  1.00  0.00     0.293 HD
ENDBRANCH   8  24
TORSDOF 5
ENDMDL
MODEL 8
REMARK VINA RESULT:    -5.325      8.195     10.917
REMARK INTER + INTRA:          -6.318
REMARK INTER:                  -6.021
REMARK INTRA:                  -0.297
REMARK UNBOUND:                -0.059
REMARK SMILES O=c1c(O)c(-c2ccc(O)cc2)oc2cc(O)cc(O)c12
REMARK SMILES IDX 5 1 3 2 2 3 1 4 21 5 19 6 18 7 16 8 15 9 14 10 13 11 6 12
REMARK SMILES IDX 7 13 8 14 9 15 12 16 11 17 10 18 4 20 20 22 17 24
REMARK H PARENT 10 19 4 21 20 23 17 25
REMARK Flexibility Score: inf
ROOT
ATOM      1  C   UNL     1      -9.539  83.564  -8.735  1.00  0.00     0.180 A 
ATOM      2  C   UNL     1     -10.397  82.456  -8.848  1.00  0.00     0.208 A 
ATOM      3  C   UNL     1     -11.757  82.673  -9.121  1.00  0.00     0.238 A 
ATOM      4  O   UNL     1     -12.532  81.682  -9.146  1.00  0.00    -0.285 OA
ATOM      5  C   UNL     1     -12.232  83.990  -9.335  1.00  0.00     0.111 A 
ATOM      6  C   UNL     1     -13.582  84.323  -9.663  1.00  0.00     0.134 A 
ATOM      7  C   UNL     1     -13.960  85.669  -9.747  1.00  0.00     0.093 A 
ATOM      8  C   UNL     1     -13.024  86.693  -9.579  1.00  0.00     0.123 A 
ATOM      9  C   UNL     1     -11.694  86.376  -9.312  1.00  0.00     0.094 A 
ATOM     10  C   UNL     1     -11.294  85.044  -9.185  1.00  0.00     0.146 A 
ATOM     11  O   UNL     1     -10.020  84.789  -8.909  1.00  0.00    -0.452 OA
ENDROOT
BRANCH   1  12
ATOM     12  C   UNL     1      -8.097  83.417  -8.435  1.00  0.00     0.021 A 
ATOM     13  C   UNL     1      -7.620  83.412  -7.111  1.00  0.00     0.016 A 
ATOM     14  C   UNL     1      -6.251  83.297  -6.854  1.00  0.00     0.047 A 
ATOM     15  C   UNL     1      -5.341  83.201  -7.913  1.00  0.00     0.115 A 
ATOM     16  C   UNL     1      -7.175  83.342  -9.491  1.00  0.00     0.016 A 
ATOM     17  C   UNL     1      -5.806  83.226  -9.231  1.00  0.00     0.047 A 
BRANCH  15  18
ATOM     18  O   UNL     1      -3.974  83.084  -7.669  1.00  0.00    -0.508 OA
ATOM     19  H   UNL     1      -3.341  83.861  -7.821  1.00  0.00     0.293 HD
ENDBRANCH  15  18
ENDBRANCH   1  12
BRANCH   2  20
ATOM     20  O   UNL     1      -9.894  81.160  -8.709  1.00  0.00    -0.502 OA
ATOM     21  H   UNL     1      -8.903  80.965  -8.645  1.00  0.00     0.293 HD
ENDBRANCH   2  20
BRANCH   6  22
ATOM     22  O   UNL     1     -14.576  83.380  -9.940  1.00  0.00    -0.507 OA
ATOM     23  H   UNL     1     -15.427  83.568 -10.448  1.00  0.00     0.293 HD
ENDBRANCH   6  22
BRANCH   8  24
ATOM     24  O   UNL     1     -13.405  88.028  -9.681  1.00  0.00    -0.508 OA
ATOM     25  H   UNL     1     -13.546  88.604  -8.858  1.00  0.00     0.293 HD
ENDBRANCH   8  24
TORSDOF 5
ENDMDL
MODEL 9
REMARK VINA RESULT:    -5.222      3.523      6.090
REMARK INTER + INTRA:          -6.197
REMARK INTER:                  -5.911
REMARK INTRA:                  -0.286
REMARK UNBOUND:                -0.059
REMARK SMILES O=c1c(O)c(-c2ccc(O)cc2)oc2cc(O)cc(O)c12
REMARK SMILES IDX 5 1 3 2 2 3 1 4 21 5 19 6 18 7 16 8 15 9 14 10 13 11 6 12
REMARK SMILES IDX 7 13 8 14 9 15 12 16 11 17 10 18 4 20 20 22 17 24
REMARK H PARENT 10 19 4 21 20 23 17 25
REMARK Flexibility Score: inf
ROOT
ATOM      1  C   UNL     1      -5.732  91.219 -14.158  1.00  0.00     0.180 A 
ATOM      2  C   UNL     1      -5.077  92.094 -13.274  1.00  0.00     0.208 A 
ATOM      3  C   UNL     1      -5.067  91.795 -11.902  1.00  0.00     0.238 A 
ATOM      4  O   UNL     1      -4.544  92.620 -11.110  1.00  0.00    -0.285 OA
ATOM      5  C   UNL     1      -5.663  90.598 -11.437  1.00  0.00     0.111 A 
ATOM      6  C   UNL     1      -5.672  90.171 -10.074  1.00  0.00     0.134 A 
ATOM      7  C   UNL     1      -6.385  89.020  -9.715  1.00  0.00     0.093 A 
ATOM      8  C   UNL     1      -7.033  88.245 -10.680  1.00  0.00     0.123 A 
ATOM      9  C   UNL     1      -6.984  88.623 -12.019  1.00  0.00     0.094 A 
ATOM     10  C   UNL     1      -6.313  89.787 -12.403  1.00  0.00     0.146 A 
ATOM     11  O   UNL     1      -6.310  90.120 -13.689  1.00  0.00    -0.452 OA
ENDROOT
BRANCH   1  12
ATOM     12  C   UNL     1      -5.798  91.473 -15.615  1.00  0.00     0.021 A 
ATOM     13  C   UNL     1      -6.763  92.336 -16.166  1.00  0.00     0.016 A 
ATOM     14  C   UNL     1      -6.821  92.540 -17.549  1.00  0.00     0.047 A 
ATOM     15  C   UNL     1      -5.927  91.876 -18.397  1.00  0.00     0.115 A 
ATOM     16  C   UNL     1      -4.919  90.795 -16.475  1.00  0.00     0.016 A 
ATOM     17  C   UNL     1      -4.978  91.001 -17.857  1.00  0.00     0.047 A 
BRANCH  15  18
ATOM     18  O   UNL     1      -5.974  92.073 -19.775  1.00  0.00    -0.508 OA
ATOM     19  H   UNL     1      -5.655  92.938 -20.197  1.00  0.00     0.293 HD
ENDBRANCH  15  18
ENDBRANCH   1  12
BRANCH   2  20
ATOM     20  O   UNL     1      -4.429  93.232 -13.762  1.00  0.00    -0.502 OA
ATOM     21  H   UNL     1      -4.117  93.312 -14.722  1.00  0.00     0.293 HD
ENDBRANCH   2  20
BRANCH   6  22
ATOM     22  O   UNL     1      -4.983  90.821  -9.045  1.00  0.00    -0.507 OA
ATOM     23  H   UNL     1      -5.290  91.664  -8.585  1.00  0.00     0.293 HD
ENDBRANCH   6  22
BRANCH   8  24
ATOM     24  O   UNL     1      -7.725  87.092 -10.316  1.00  0.00    -0.508 OA
ATOM     25  H   UNL     1      -7.244  86.276  -9.954  1.00  0.00     0.293 HD
ENDBRANCH   8  24
TORSDOF 5
ENDMDL
