MODEL 1
REMARK VINA RESULT:    -3.352      0.000      0.000
REMARK INTER + INTRA:          -3.889
REMARK INTER:                  -3.841
REMARK INTRA:                  -0.048
REMARK UNBOUND:                -0.048
REMARK SMILES CC(C)[C@@H]([NH3+])C(=O)[O-]
REMARK SMILES IDX 4 1 5 2 6 6 7 7 8 8 2 9 1 10 3 11
REMARK H PARENT 5 3 5 4 5 5
REMARK Flexibility Score: inf
ROOT
ATOM      1  C   UNL     1     112.238 122.167 130.607  1.00  0.00     0.230 C 
ENDROOT
BRANCH   1   2
ATOM      2  N   UNL     1     111.065 122.098 131.493  1.00  0.00    -0.350 N 
ATOM      3  H   UNL     1     110.718 121.115 131.571  1.00  0.00     0.345 HD
ATOM      4  H   UNL     1     111.315 122.448 132.447  1.00  0.00     0.345 HD
ATOM      5  H   UNL     1     110.302 122.713 131.130  1.00  0.00     0.345 HD
ENDBRANCH   1   2
BRANCH   1   6
ATOM      6  C   UNL     1     111.805 122.654 129.246  1.00  0.00     0.099 C 
ATOM      7  O   UNL     1     110.933 123.556 129.145  1.00  0.00    -0.544 OA
ATOM      8  O   UNL     1     112.364 122.108 128.097  1.00  0.00    -0.544 OA
ENDBRANCH   1   6
BRANCH   1   9
ATOM      9  C   UNL     1     113.354 123.085 131.193  1.00  0.00     0.047 C 
ATOM     10  C   UNL     1     112.811 124.021 132.286  1.00  0.00     0.014 C 
ATOM     11  C   UNL     1     114.513 122.253 131.772  1.00  0.00     0.014 C 
ENDBRANCH   1   9
TORSDOF 3
ENDMDL
MODEL 2
REMARK VINA RESULT:    -3.039     15.159     15.803
REMARK INTER + INTRA:          -3.531
REMARK INTER:                  -3.530
REMARK INTRA:                  -0.001
REMARK UNBOUND:                -0.048
REMARK SMILES CC(C)[C@@H]([NH3+])C(=O)[O-]
REMARK SMILES IDX 4 1 5 2 6 6 7 7 8 8 2 9 1 10 3 11
REMARK H PARENT 5 3 5 4 5 5
REMARK Flexibility Score: inf
ROOT
ATOM      1  C   UNL     1     125.144 114.721 130.269  1.00  0.00     0.230 C 
ENDROOT
BRANCH   1   2
ATOM      2  N   UNL     1     124.653 116.005 129.743  1.00  0.00    -0.350 N 
ATOM      3  H   UNL     1     123.793 115.863 129.165  1.00  0.00     0.345 HD
ATOM      4  H   UNL     1     124.429 116.654 130.533  1.00  0.00     0.345 HD
ATOM      5  H   UNL     1     125.392 116.466 129.166  1.00  0.00     0.345 HD
ENDBRANCH   1   2
BRANCH   1   6
ATOM      6  C   UNL     1     126.204 114.178 129.343  1.00  0.00     0.099 C 
ATOM      7  O   UNL     1     126.114 113.004 128.897  1.00  0.00    -0.544 OA
ATOM      8  O   UNL     1     127.287 114.969 128.979  1.00  0.00    -0.544 OA
ENDBRANCH   1   6
BRANCH   1   9
ATOM      9  C   UNL     1     125.698 114.863 131.719  1.00  0.00     0.047 C 
ATOM     10  C   UNL     1     124.578 115.141 132.736  1.00  0.00     0.014 C 
ATOM     11  C   UNL     1     126.464 113.598 132.149  1.00  0.00     0.014 C 
ENDBRANCH   1   9
TORSDOF 3
ENDMDL
MODEL 3
REMARK VINA RESULT:    -2.933     13.589     14.668
REMARK INTER + INTRA:          -3.409
REMARK INTER:                  -3.350
REMARK INTRA:                  -0.060
REMARK UNBOUND:                -0.048
REMARK SMILES CC(C)[C@@H]([NH3+])C(=O)[O-]
REMARK SMILES IDX 4 1 5 2 6 6 7 7 8 8 2 9 1 10 3 11
REMARK H PARENT 5 3 5 4 5 5
REMARK Flexibility Score: inf
ROOT
ATOM      1  C   UNL     1     125.209 115.538 131.743  1.00  0.00     0.230 C 
ENDROOT
BRANCH   1   2
ATOM      2  N   UNL     1     126.077 116.726 131.784  1.00  0.00    -0.350 N 
ATOM      3  H   UNL     1     127.019 116.509 131.385  1.00  0.00     0.345 HD
ATOM      4  H   UNL     1     125.645 117.505 131.236  1.00  0.00     0.345 HD
ATOM      5  H   UNL     1     126.181 117.063 132.768  1.00  0.00     0.345 HD
ENDBRANCH   1   2
BRANCH   1   6
ATOM      6  C   UNL     1     123.784 115.954 132.015  1.00  0.00     0.099 C 
ATOM      7  O   UNL     1     122.828 115.286 131.540  1.00  0.00    -0.544 OA
ATOM      8  O   UNL     1     123.519 117.078 132.788  1.00  0.00    -0.544 OA
ENDBRANCH   1   6
BRANCH   1   9
ATOM      9  C   UNL     1     125.315 114.790 130.379  1.00  0.00     0.047 C 
ATOM     10  C   UNL     1     125.596 115.756 129.216  1.00  0.00     0.014 C 
ATOM     11  C   UNL     1     126.416 113.715 130.418  1.00  0.00     0.014 C 
ENDBRANCH   1   9
TORSDOF 3
ENDMDL
MODEL 4
REMARK VINA RESULT:    -2.914     13.891     15.119
REMARK INTER + INTRA:          -3.388
REMARK INTER:                  -3.370
REMARK INTRA:                  -0.018
REMARK UNBOUND:                -0.048
REMARK SMILES CC(C)[C@@H]([NH3+])C(=O)[O-]
REMARK SMILES IDX 4 1 5 2 6 6 7 7 8 8 2 9 1 10 3 11
REMARK H PARENT 5 3 5 4 5 5
REMARK Flexibility Score: inf
ROOT
ATOM      1  C   UNL     1     125.409 116.070 130.763  1.00  0.00     0.230 C 
ENDROOT
BRANCH   1   2
ATOM      2  N   UNL     1     126.500 116.539 131.631  1.00  0.00    -0.350 N 
ATOM      3  H   UNL     1     126.811 117.497 131.349  1.00  0.00     0.345 HD
ATOM      4  H   UNL     1     126.181 116.564 132.627  1.00  0.00     0.345 HD
ATOM      5  H   UNL     1     127.309 115.879 131.584  1.00  0.00     0.345 HD
ENDBRANCH   1   2
BRANCH   1   6
ATOM      6  C   UNL     1     125.991 115.284 129.614  1.00  0.00     0.099 C 
ATOM      7  O   UNL     1     125.753 115.628 128.426  1.00  0.00    -0.544 OA
ATOM      8  O   UNL     1     126.792 114.175 129.859  1.00  0.00    -0.544 OA
ENDBRANCH   1   6
BRANCH   1   9
ATOM      9  C   UNL     1     124.371 115.211 131.548  1.00  0.00     0.047 C 
ATOM     10  C   UNL     1     125.004 114.523 132.770  1.00  0.00     0.014 C 
ATOM     11  C   UNL     1     123.180 116.067 132.015  1.00  0.00     0.014 C 
ENDBRANCH   1   9
TORSDOF 3
ENDMDL
MODEL 5
REMARK VINA RESULT:    -2.758     14.920     15.737
REMARK INTER + INTRA:          -3.209
REMARK INTER:                  -3.161
REMARK INTRA:                  -0.048
REMARK UNBOUND:                -0.048
REMARK SMILES CC(C)[C@@H]([NH3+])C(=O)[O-]
REMARK SMILES IDX 4 1 5 2 6 6 7 7 8 8 2 9 1 10 3 11
REMARK H PARENT 5 3 5 4 5 5
REMARK Flexibility Score: inf
ROOT
ATOM      1  C   UNL     1     126.608 115.031 130.680  1.00  0.00     0.230 C 
ENDROOT
BRANCH   1   2
ATOM      2  N   UNL     1     126.593 113.915 131.639  1.00  0.00    -0.350 N 
ATOM      3  H   UNL     1     126.602 114.273 132.622  1.00  0.00     0.345 HD
ATOM      4  H   UNL     1     125.737 113.331 131.497  1.00  0.00     0.345 HD
ATOM      5  H   UNL     1     127.419 113.294 131.484  1.00  0.00     0.345 HD
ENDBRANCH   1   2
BRANCH   1   6
ATOM      6  C   UNL     1     126.248 114.513 129.310  1.00  0.00     0.099 C 
ATOM      7  O   UNL     1     126.168 113.273 129.102  1.00  0.00    -0.544 OA
ATOM      8  O   UNL     1     126.007 115.400 128.267  1.00  0.00    -0.544 OA
ENDBRANCH   1   6
BRANCH   1   9
ATOM      9  C   UNL     1     125.640 116.176 131.108  1.00  0.00     0.047 C 
ATOM     10  C   UNL     1     124.545 115.674 132.065  1.00  0.00     0.014 C 
ATOM     11  C   UNL     1     126.406 117.330 131.782  1.00  0.00     0.014 C 
ENDBRANCH   1   9
TORSDOF 3
ENDMDL
MODEL 6
REMARK VINA RESULT:    -2.636     14.642     15.754
REMARK INTER + INTRA:          -3.069
REMARK INTER:                  -3.111
REMARK INTRA:                   0.042
REMARK UNBOUND:                -0.048
REMARK SMILES CC(C)[C@@H]([NH3+])C(=O)[O-]
REMARK SMILES IDX 4 1 5 2 6 6 7 7 8 8 2 9 1 10 3 11
REMARK H PARENT 5 3 5 4 5 5
REMARK Flexibility Score: inf
ROOT
ATOM      1  C   UNL     1     125.618 114.542 130.917  1.00  0.00     0.230 C 
ENDROOT
BRANCH   1   2
ATOM      2  N   UNL     1     126.781 114.118 131.713  1.00  0.00    -0.350 N 
ATOM      3  H   UNL     1     127.671 114.446 131.271  1.00  0.00     0.345 HD
ATOM      4  H   UNL     1     126.717 114.511 132.681  1.00  0.00     0.345 HD
ATOM      5  H   UNL     1     126.797 113.077 131.804  1.00  0.00     0.345 HD
ENDBRANCH   1   2
BRANCH   1   6
ATOM      6  C   UNL     1     125.135 115.881 131.418  1.00  0.00     0.099 C 
ATOM      7  O   UNL     1     125.956 116.813 131.627  1.00  0.00    -0.544 OA
ATOM      8  O   UNL     1     123.782 116.093 131.655  1.00  0.00    -0.544 OA
ENDBRANCH   1   6
BRANCH   1   9
ATOM      9  C   UNL     1     125.951 114.610 129.395  1.00  0.00     0.047 C 
ATOM     10  C   UNL     1     127.364 115.162 129.142  1.00  0.00     0.014 C 
ATOM     11  C   UNL     1     125.827 113.224 128.736  1.00  0.00     0.014 C 
ENDBRANCH   1   9
TORSDOF 3
ENDMDL
MODEL 7
REMARK VINA RESULT:    -2.543     14.352     15.503
REMARK INTER + INTRA:          -2.962
REMARK INTER:                  -3.106
REMARK INTRA:                   0.144
REMARK UNBOUND:                -0.048
REMARK SMILES CC(C)[C@@H]([NH3+])C(=O)[O-]
REMARK SMILES IDX 4 1 5 2 6 6 7 7 8 8 2 9 1 10 3 11
REMARK H PARENT 5 3 5 4 5 5
REMARK Flexibility Score: inf
ROOT
ATOM      1  C   UNL     1     125.992 115.708 129.821  1.00  0.00     0.230 C 
ENDROOT
BRANCH   1   2
ATOM      2  N   UNL     1     125.290 115.799 128.531  1.00  0.00    -0.350 N 
ATOM      3  H   UNL     1     125.439 116.738 128.094  1.00  0.00     0.345 HD
ATOM      4  H   UNL     1     125.640 115.060 127.878  1.00  0.00     0.345 HD
ATOM      5  H   UNL     1     124.267 115.633 128.664  1.00  0.00     0.345 HD
ENDBRANCH   1   2
BRANCH   1   6
ATOM      6  C   UNL     1     125.018 115.990 130.938  1.00  0.00     0.099 C 
ATOM      7  O   UNL     1     123.880 115.449 130.938  1.00  0.00    -0.544 OA
ATOM      8  O   UNL     1     125.368 116.850 131.971  1.00  0.00    -0.544 OA
ENDBRANCH   1   6
BRANCH   1   9
ATOM      9  C   UNL     1     126.666 114.315 130.016  1.00  0.00     0.047 C 
ATOM     10  C   UNL     1     126.570 113.830 131.472  1.00  0.00     0.014 C 
ATOM     11  C   UNL     1     126.037 113.258 129.091  1.00  0.00     0.014 C 
ENDBRANCH   1   9
TORSDOF 3
ENDMDL
MODEL 8
REMARK VINA RESULT:    -2.501      2.768      3.676
REMARK INTER + INTRA:          -2.915
REMARK INTER:                  -2.853
REMARK INTRA:                  -0.062
REMARK UNBOUND:                -0.048
REMARK SMILES CC(C)[C@@H]([NH3+])C(=O)[O-]
REMARK SMILES IDX 4 1 5 2 6 6 7 7 8 8 2 9 1 10 3 11
REMARK H PARENT 5 3 5 4 5 5
REMARK Flexibility Score: inf
ROOT
ATOM      1  C   UNL     1     113.440 123.145 131.320  1.00  0.00     0.230 C 
ENDROOT
BRANCH   1   2
ATOM      2  N   UNL     1     112.630 123.871 132.311  1.00  0.00    -0.350 N 
ATOM      3  H   UNL     1     113.191 124.627 132.766  1.00  0.00     0.345 HD
ATOM      4  H   UNL     1     111.795 124.299 131.847  1.00  0.00     0.345 HD
ATOM      5  H   UNL     1     112.273 123.212 133.039  1.00  0.00     0.345 HD
ENDBRANCH   1   2
BRANCH   1   6
ATOM      6  C   UNL     1     114.499 122.343 132.036  1.00  0.00     0.099 C 
ATOM      7  O   UNL     1     114.775 121.175 131.655  1.00  0.00    -0.544 OA
ATOM      8  O   UNL     1     115.173 122.887 133.123  1.00  0.00    -0.544 OA
ENDBRANCH   1   6
BRANCH   1   9
ATOM      9  C   UNL     1     112.564 122.223 130.419  1.00  0.00     0.047 C 
ATOM     10  C   UNL     1     111.226 121.869 131.089  1.00  0.00     0.014 C 
ATOM     11  C   UNL     1     112.285 122.880 129.054  1.00  0.00     0.014 C 
ENDBRANCH   1   9
TORSDOF 3
ENDMDL
MODEL 9
REMARK VINA RESULT:    -2.360      2.168      3.335
REMARK INTER + INTRA:          -2.753
REMARK INTER:                  -2.761
REMARK INTRA:                   0.009
REMARK UNBOUND:                -0.048
REMARK SMILES CC(C)[C@@H]([NH3+])C(=O)[O-]
REMARK SMILES IDX 4 1 5 2 6 6 7 7 8 8 2 9 1 10 3 11
REMARK H PARENT 5 3 5 4 5 5
REMARK Flexibility Score: inf
ROOT
ATOM      1  C   UNL     1     111.587 122.861 130.861  1.00  0.00     0.230 C 
ENDROOT
BRANCH   1   2
ATOM      2  N   UNL     1     111.396 121.439 131.187  1.00  0.00    -0.350 N 
ATOM      3  H   UNL     1     111.248 120.877 130.318  1.00  0.00     0.345 HD
ATOM      4  H   UNL     1     112.235 121.072 131.693  1.00  0.00     0.345 HD
ATOM      5  H   UNL     1     110.577 121.321 131.825  1.00  0.00     0.345 HD
ENDBRANCH   1   2
BRANCH   1   6
ATOM      6  C   UNL     1     112.717 123.415 131.692  1.00  0.00     0.099 C 
ATOM      7  O   UNL     1     112.513 124.376 132.480  1.00  0.00    -0.544 OA
ATOM      8  O   UNL     1     113.992 122.871 131.591  1.00  0.00    -0.544 OA
ENDBRANCH   1   6
BRANCH   1   9
ATOM      9  C   UNL     1     111.863 123.074 129.341  1.00  0.00     0.047 C 
ATOM     10  C   UNL     1     112.572 121.863 128.712  1.00  0.00     0.014 C 
ATOM     11  C   UNL     1     110.559 123.350 128.571  1.00  0.00     0.014 C 
ENDBRANCH   1   9
TORSDOF 3
ENDMDL
