MODEL 1
REMARK VINA RESULT:    -4.445      0.000      0.000
REMARK INTER + INTRA:          -5.265
REMARK INTER:                  -5.224
REMARK INTRA:                  -0.041
REMARK UNBOUND:                -0.041
REMARK SMILES CCCCC(=O)[O-]
REMARK SMILES IDX 4 1 5 2 6 3 7 4 3 5 2 6 1 7
REMARK H PARENT
REMARK Flexibility Score: inf
ROOT
ATOM      1  C   UNL     1      23.357  58.414  33.259  1.00  0.00     0.053 C 
ENDROOT
BRANCH   1   2
ATOM      2  C   UNL     1      24.443  59.445  33.228  1.00  0.00     0.041 C 
ATOM      3  O   UNL     1      24.655  60.172  34.235  1.00  0.00    -0.550 OA
ATOM      4  O   UNL     1      25.251  59.570  32.106  1.00  0.00    -0.550 OA
ENDBRANCH   1   2
BRANCH   1   5
ATOM      5  C   UNL     1      23.607  57.344  32.189  1.00  0.00     0.006 C 
BRANCH   5   6
ATOM      6  C   UNL     1      22.319  56.615  31.772  1.00  0.00    -0.003 C 
ATOM      7  C   UNL     1      21.102  57.059  32.581  1.00  0.00     0.004 C 
ENDBRANCH   5   6
ENDBRANCH   1   5
TORSDOF 3
ENDMDL
MODEL 2
REMARK VINA RESULT:    -4.393      0.371      1.261
REMARK INTER + INTRA:          -5.204
REMARK INTER:                  -5.149
REMARK INTRA:                  -0.055
REMARK UNBOUND:                -0.041
REMARK SMILES CCCCC(=O)[O-]
REMARK SMILES IDX 4 1 5 2 6 3 7 4 3 5 2 6 1 7
REMARK H PARENT
REMARK Flexibility Score: inf
ROOT
ATOM      1  C   UNL     1      23.529  58.161  33.257  1.00  0.00     0.053 C 
ENDROOT
BRANCH   1   2
ATOM      2  C   UNL     1      24.576  59.181  32.936  1.00  0.00     0.041 C 
ATOM      3  O   UNL     1      25.215  59.114  31.853  1.00  0.00    -0.550 OA
ATOM      4  O   UNL     1      24.813  60.233  33.812  1.00  0.00    -0.550 OA
ENDBRANCH   1   2
BRANCH   1   5
ATOM      5  C   UNL     1      23.504  57.065  32.183  1.00  0.00     0.006 C 
BRANCH   5   6
ATOM      6  C   UNL     1      22.076  56.616  31.835  1.00  0.00    -0.003 C 
ATOM      7  C   UNL     1      21.020  57.247  32.740  1.00  0.00     0.004 C 
ENDBRANCH   5   6
ENDBRANCH   1   5
TORSDOF 3
ENDMDL
MODEL 3
REMARK VINA RESULT:    -4.151      1.441      1.860
REMARK INTER + INTRA:          -4.920
REMARK INTER:                  -4.846
REMARK INTRA:                  -0.074
REMARK UNBOUND:                -0.041
REMARK SMILES CCCCC(=O)[O-]
REMARK SMILES IDX 4 1 5 2 6 3 7 4 3 5 2 6 1 7
REMARK H PARENT
REMARK Flexibility Score: inf
ROOT
ATOM      1  C   UNL     1      23.961  58.517  34.080  1.00  0.00     0.053 C 
ENDROOT
BRANCH   1   2
ATOM      2  C   UNL     1      24.616  58.521  32.734  1.00  0.00     0.041 C 
ATOM      3  O   UNL     1      25.134  59.578  32.284  1.00  0.00    -0.550 OA
ATOM      4  O   UNL     1      24.697  57.347  31.997  1.00  0.00    -0.550 OA
ENDBRANCH   1   2
BRANCH   1   5
ATOM      5  C   UNL     1      22.782  57.536  34.097  1.00  0.00     0.006 C 
BRANCH   5   6
ATOM      6  C   UNL     1      21.437  58.227  33.819  1.00  0.00    -0.003 C 
ATOM      7  C   UNL     1      20.597  57.489  32.778  1.00  0.00     0.004 C 
ENDBRANCH   5   6
ENDBRANCH   1   5
TORSDOF 3
ENDMDL
MODEL 4
REMARK VINA RESULT:    -4.063      1.745      2.309
REMARK INTER + INTRA:          -4.817
REMARK INTER:                  -4.758
REMARK INTRA:                  -0.059
REMARK UNBOUND:                -0.041
REMARK SMILES CCCCC(=O)[O-]
REMARK SMILES IDX 4 1 5 2 6 3 7 4 3 5 2 6 1 7
REMARK H PARENT
REMARK Flexibility Score: inf
ROOT
ATOM      1  C   UNL     1      22.914  58.515  33.520  1.00  0.00     0.053 C 
ENDROOT
BRANCH   1   2
ATOM      2  C   UNL     1      23.657  58.542  34.819  1.00  0.00     0.041 C 
ATOM      3  O   UNL     1      24.019  59.640  35.319  1.00  0.00    -0.550 OA
ATOM      4  O   UNL     1      23.909  57.358  35.500  1.00  0.00    -0.550 OA
ENDBRANCH   1   2
BRANCH   1   5
ATOM      5  C   UNL     1      21.422  58.248  33.764  1.00  0.00     0.006 C 
BRANCH   5   6
ATOM      6  C   UNL     1      20.808  57.322  32.702  1.00  0.00    -0.003 C 
ATOM      7  C   UNL     1      21.861  56.519  31.939  1.00  0.00     0.004 C 
ENDBRANCH   5   6
ENDBRANCH   1   5
TORSDOF 3
ENDMDL
MODEL 5
REMARK VINA RESULT:    -3.987      2.705      3.617
REMARK INTER + INTRA:          -4.727
REMARK INTER:                  -4.682
REMARK INTRA:                  -0.045
REMARK UNBOUND:                -0.041
REMARK SMILES CCCCC(=O)[O-]
REMARK SMILES IDX 4 1 5 2 6 3 7 4 3 5 2 6 1 7
REMARK H PARENT
REMARK Flexibility Score: inf
ROOT
ATOM      1  C   UNL     1      23.254  58.233  35.386  1.00  0.00     0.053 C 
ENDROOT
BRANCH   1   2
ATOM      2  C   UNL     1      22.616  59.271  36.255  1.00  0.00     0.041 C 
ATOM      3  O   UNL     1      23.288  60.255  36.664  1.00  0.00    -0.550 OA
ATOM      4  O   UNL     1      21.267  59.178  36.573  1.00  0.00    -0.550 OA
ENDBRANCH   1   2
BRANCH   1   5
ATOM      5  C   UNL     1      22.904  58.481  33.912  1.00  0.00     0.006 C 
BRANCH   5   6
ATOM      6  C   UNL     1      24.073  59.094  33.125  1.00  0.00    -0.003 C 
ATOM      7  C   UNL     1      24.819  58.065  32.277  1.00  0.00     0.004 C 
ENDBRANCH   5   6
ENDBRANCH   1   5
TORSDOF 3
ENDMDL
MODEL 6
REMARK VINA RESULT:    -3.874      3.045      3.773
REMARK INTER + INTRA:          -4.594
REMARK INTER:                  -4.578
REMARK INTRA:                  -0.016
REMARK UNBOUND:                -0.041
REMARK SMILES CCCCC(=O)[O-]
REMARK SMILES IDX 4 1 5 2 6 3 7 4 3 5 2 6 1 7
REMARK H PARENT
REMARK Flexibility Score: inf
ROOT
ATOM      1  C   UNL     1      23.036  58.931  35.719  1.00  0.00     0.053 C 
ENDROOT
BRANCH   1   2
ATOM      2  C   UNL     1      22.754  59.649  37.002  1.00  0.00     0.041 C 
ATOM      3  O   UNL     1      23.088  60.855  37.140  1.00  0.00    -0.550 OA
ATOM      4  O   UNL     1      22.078  58.999  38.027  1.00  0.00    -0.550 OA
ENDBRANCH   1   2
BRANCH   1   5
ATOM      5  C   UNL     1      21.725  58.503  35.047  1.00  0.00     0.006 C 
BRANCH   5   6
ATOM      6  C   UNL     1      21.927  58.062  33.588  1.00  0.00    -0.003 C 
ATOM      7  C   UNL     1      20.625  57.632  32.915  1.00  0.00     0.004 C 
ENDBRANCH   5   6
ENDBRANCH   1   5
TORSDOF 3
ENDMDL
MODEL 7
REMARK VINA RESULT:    -3.868      2.919      3.971
REMARK INTER + INTRA:          -4.588
REMARK INTER:                  -4.534
REMARK INTRA:                  -0.053
REMARK UNBOUND:                -0.041
REMARK SMILES CCCCC(=O)[O-]
REMARK SMILES IDX 4 1 5 2 6 3 7 4 3 5 2 6 1 7
REMARK H PARENT
REMARK Flexibility Score: inf
ROOT
ATOM      1  C   UNL     1      23.265  57.106  33.222  1.00  0.00     0.053 C 
ENDROOT
BRANCH   1   2
ATOM      2  C   UNL     1      22.123  56.340  32.632  1.00  0.00     0.041 C 
ATOM      3  O   UNL     1      21.696  56.624  31.481  1.00  0.00    -0.550 OA
ATOM      4  O   UNL     1      21.560  55.281  33.333  1.00  0.00    -0.550 OA
ENDBRANCH   1   2
BRANCH   1   5
ATOM      5  C   UNL     1      24.342  57.363  32.159  1.00  0.00     0.006 C 
BRANCH   5   6
ATOM      6  C   UNL     1      25.101  58.678  32.396  1.00  0.00    -0.003 C 
ATOM      7  C   UNL     1      24.394  59.597  33.390  1.00  0.00     0.004 C 
ENDBRANCH   5   6
ENDBRANCH   1   5
TORSDOF 3
ENDMDL
MODEL 8
REMARK VINA RESULT:    -3.849      2.371      2.942
REMARK INTER + INTRA:          -4.564
REMARK INTER:                  -4.539
REMARK INTRA:                  -0.026
REMARK UNBOUND:                -0.041
REMARK SMILES CCCCC(=O)[O-]
REMARK SMILES IDX 4 1 5 2 6 3 7 4 3 5 2 6 1 7
REMARK H PARENT
REMARK Flexibility Score: inf
ROOT
ATOM      1  C   UNL     1      23.745  58.681  34.767  1.00  0.00     0.053 C 
ENDROOT
BRANCH   1   2
ATOM      2  C   UNL     1      22.861  59.139  35.886  1.00  0.00     0.041 C 
ATOM      3  O   UNL     1      21.817  58.496  36.172  1.00  0.00    -0.550 OA
ATOM      4  O   UNL     1      23.217  60.247  36.643  1.00  0.00    -0.550 OA
ENDBRANCH   1   2
BRANCH   1   5
ATOM      5  C   UNL     1      22.923  58.474  33.488  1.00  0.00     0.006 C 
BRANCH   5   6
ATOM      6  C   UNL     1      23.508  57.377  32.584  1.00  0.00    -0.003 C 
ATOM      7  C   UNL     1      22.432  56.606  31.819  1.00  0.00     0.004 C 
ENDBRANCH   5   6
ENDBRANCH   1   5
TORSDOF 3
ENDMDL
MODEL 9
REMARK VINA RESULT:    -3.703      3.170      4.156
REMARK INTER + INTRA:          -4.393
REMARK INTER:                  -4.335
REMARK INTRA:                  -0.058
REMARK UNBOUND:                -0.041
REMARK SMILES CCCCC(=O)[O-]
REMARK SMILES IDX 4 1 5 2 6 3 7 4 3 5 2 6 1 7
REMARK H PARENT
REMARK Flexibility Score: inf
ROOT
ATOM      1  C   UNL     1      20.682  57.403  32.894  1.00  0.00     0.053 C 
ENDROOT
BRANCH   1   2
ATOM      2  C   UNL     1      21.652  56.333  32.503  1.00  0.00     0.041 C 
ATOM      3  O   UNL     1      22.474  56.532  31.570  1.00  0.00    -0.550 OA
ATOM      4  O   UNL     1      21.682  55.133  33.202  1.00  0.00    -0.550 OA
ENDBRANCH   1   2
BRANCH   1   5
ATOM      5  C   UNL     1      21.412  58.559  33.589  1.00  0.00     0.006 C 
BRANCH   5   6
ATOM      6  C   UNL     1      22.183  58.103  34.838  1.00  0.00    -0.003 C 
ATOM      7  C   UNL     1      21.736  58.829  36.106  1.00  0.00     0.004 C 
ENDBRANCH   5   6
ENDBRANCH   1   5
TORSDOF 3
ENDMDL
