MODEL 1
REMARK VINA RESULT:    -1.558      0.000      0.000
REMARK INTER + INTRA:          -2.251
REMARK INTER:                  -2.105
REMARK INTRA:                  -0.146
REMARK UNBOUND:                -0.146
REMARK SMILES CC(=O)CCC=C(C)CCC=C(C)C
REMARK SMILES IDX 7 1 6 2 8 3 9 4 10 5 11 6 13 7 12 8 14 9 5 10 4 11 2 12 3 13
REMARK SMILES IDX 1 14
REMARK H PARENT
REMARK Flexibility Score: inf
ROOT
ATOM      1  C   UNL     1      -2.982  -8.641  -5.886  1.00  0.00    -0.077 C 
ATOM      2  C   UNL     1      -3.050  -9.539  -4.878  1.00  0.00    -0.028 C 
ATOM      3  C   UNL     1      -3.849  -8.751  -7.117  1.00  0.00     0.039 C 
ENDROOT
BRANCH   1   4
ATOM      4  C   UNL     1      -2.002  -7.492  -5.780  1.00  0.00     0.034 C 
BRANCH   4   5
ATOM      5  C   UNL     1      -0.741  -7.925  -5.023  1.00  0.00     0.032 C 
BRANCH   5   6
ATOM      6  C   UNL     1       0.256  -6.796  -4.955  1.00  0.00    -0.028 C 
ATOM      7  C   UNL     1       2.233  -8.331  -4.875  1.00  0.00     0.039 C 
ATOM      8  C   UNL     1       1.596  -6.961  -4.912  1.00  0.00    -0.080 C 
ATOM      9  C   UNL     1       2.471  -5.735  -4.886  1.00  0.00     0.039 C 
ENDBRANCH   5   6
ENDBRANCH   4   5
ENDBRANCH   1   4
BRANCH   2  10
ATOM     10  C   UNL     1      -3.922 -10.773  -4.875  1.00  0.00     0.035 C 
BRANCH  10  11
ATOM     11  C   UNL     1      -5.404 -10.396  -4.975  1.00  0.00     0.079 C 
BRANCH  11  12
ATOM     12  C   UNL     1      -6.219 -11.509  -5.577  1.00  0.00     0.130 C 
ATOM     13  O   UNL     1      -7.361 -11.699  -5.185  1.00  0.00    -0.300 OA
ATOM     14  C   UNL     1      -5.659 -12.390  -6.654  1.00  0.00     0.087 C 
ENDBRANCH  11  12
ENDBRANCH  10  11
ENDBRANCH   2  10
TORSDOF 6
ENDMDL
MODEL 2
REMARK VINA RESULT:    -0.277      2.496      6.935
REMARK INTER + INTRA:          -0.520
REMARK INTER:                  -0.520
REMARK INTRA:                  -0.000
REMARK UNBOUND:                -0.146
REMARK SMILES CC(=O)CCC=C(C)CCC=C(C)C
REMARK SMILES IDX 7 1 6 2 8 3 9 4 10 5 11 6 13 7 12 8 14 9 5 10 4 11 2 12 3 13
REMARK SMILES IDX 1 14
REMARK H PARENT
REMARK Flexibility Score: inf
ROOT
ATOM      1  C   UNL     1      -3.682  -8.999  -5.645  1.00  0.00    -0.077 C 
ATOM      2  C   UNL     1      -2.879  -8.156  -4.957  1.00  0.00    -0.028 C 
ATOM      3  C   UNL     1      -3.758  -8.982  -7.152  1.00  0.00     0.039 C 
ENDROOT
BRANCH   1   4
ATOM      4  C   UNL     1      -4.535  -9.987  -4.878  1.00  0.00     0.034 C 
BRANCH   4   5
ATOM      5  C   UNL     1      -3.901 -11.383  -4.904  1.00  0.00     0.032 C 
BRANCH   5   6
ATOM      6  C   UNL     1      -4.459 -12.203  -6.039  1.00  0.00    -0.028 C 
ATOM      7  C   UNL     1      -6.840 -11.738  -5.416  1.00  0.00     0.039 C 
ATOM      8  C   UNL     1      -5.778 -12.353  -6.296  1.00  0.00    -0.080 C 
ATOM      9  C   UNL     1      -6.188 -13.171  -7.493  1.00  0.00     0.039 C 
ENDBRANCH   5   6
ENDBRANCH   4   5
ENDBRANCH   1   4
BRANCH   2  10
ATOM     10  C   UNL     1      -2.030  -7.071  -5.578  1.00  0.00     0.035 C 
BRANCH  10  11
ATOM     11  C   UNL     1      -0.672  -6.970  -4.876  1.00  0.00     0.079 C 
BRANCH  11  12
ATOM     12  C   UNL     1       0.431  -7.556  -5.717  1.00  0.00     0.130 C 
ATOM     13  O   UNL     1       0.210  -7.839  -6.885  1.00  0.00    -0.300 OA
ATOM     14  C   UNL     1       1.799  -7.796  -5.151  1.00  0.00     0.087 C 
ENDBRANCH  11  12
ENDBRANCH  10  11
ENDBRANCH   2  10
TORSDOF 6
ENDMDL
MODEL 3
REMARK VINA RESULT:     0.667     19.493     21.742
REMARK INTER + INTRA:           0.754
REMARK INTER:                   1.120
REMARK INTRA:                  -0.366
REMARK UNBOUND:                -0.146
REMARK SMILES CC(=O)CCC=C(C)CCC=C(C)C
REMARK SMILES IDX 7 1 6 2 8 3 9 4 10 5 11 6 13 7 12 8 14 9 5 10 4 11 2 12 3 13
REMARK SMILES IDX 1 14
REMARK H PARENT
REMARK Flexibility Score: inf
ROOT
ATOM      1  C   UNL     1      -8.183 -18.283 -23.679  1.00  0.00    -0.077 C 
ATOM      2  C   UNL     1      -8.216 -16.982 -24.049  1.00  0.00    -0.028 C 
ATOM      3  C   UNL     1      -8.410 -18.715 -22.251  1.00  0.00     0.039 C 
ENDROOT
BRANCH   1   4
ATOM      4  C   UNL     1      -7.904 -19.336 -24.729  1.00  0.00     0.034 C 
BRANCH   4   5
ATOM      5  C   UNL     1      -6.397 -19.454 -24.991  1.00  0.00     0.032 C 
BRANCH   5   6
ATOM      6  C   UNL     1      -5.978 -20.901 -25.061  1.00  0.00    -0.028 C 
ATOM      7  C   UNL     1      -3.534 -20.357 -25.123  1.00  0.00     0.039 C 
ATOM      8  C   UNL     1      -4.695 -21.323 -25.096  1.00  0.00    -0.080 C 
ATOM      9  C   UNL     1      -4.428 -22.806 -25.125  1.00  0.00     0.039 C 
ENDBRANCH   5   6
ENDBRANCH   4   5
ENDBRANCH   1   4
BRANCH   2  10
ATOM     10  C   UNL     1      -8.408 -15.819 -23.104  1.00  0.00     0.035 C 
BRANCH  10  11
ATOM     11  C   UNL     1      -8.679 -14.524 -23.878  1.00  0.00     0.079 C 
BRANCH  11  12
ATOM     12  C   UNL     1      -8.989 -13.379 -22.951  1.00  0.00     0.130 C 
ATOM     13  O   UNL     1      -8.091 -12.626 -22.605  1.00  0.00    -0.300 OA
ATOM     14  C   UNL     1     -10.380 -13.140 -22.446  1.00  0.00     0.087 C 
ENDBRANCH  11  12
ENDBRANCH  10  11
ENDBRANCH   2  10
TORSDOF 6
ENDMDL
