MODEL 1
REMARK VINA RESULT:    35.936      0.000      0.000
REMARK INTER + INTRA:          44.109
REMARK INTER:                  43.288
REMARK INTRA:                   0.821
REMARK UNBOUND:                 0.821
REMARK SMILES O=c1ccn([C@H]2O[C@H](CO)[C@@H](O)[C@H]2O)c(=O)[nH]1
REMARK SMILES IDX 6 1 13 2 11 3 8 4 7 5 5 6 3 7 4 8 2 9 17 10 1 11 15 12 16 14
REMARK SMILES IDX 14 15 12 17 9 19 10 20
REMARK H PARENT 17 13 14 16 12 18 10 21
REMARK Flexibility Score: inf
ROOT
ATOM      1  C   UNL     1       1.152  22.101  -1.948  1.00  0.00     0.255 C 
ATOM      2  C   UNL     1       1.377  20.791  -1.192  1.00  0.00     0.196 C 
ATOM      3  C   UNL     1       1.692  19.833  -2.317  1.00  0.00     0.179 C 
ATOM      4  C   UNL     1       2.331  20.747  -3.365  1.00  0.00     0.178 C 
ATOM      5  O   UNL     1       1.905  22.077  -3.144  1.00  0.00    -0.347 OA
ENDROOT
BRANCH   1   6
ATOM      6  N   UNL     1       1.480  23.285  -1.123  1.00  0.00    -0.271 N 
ATOM      7  C   UNL     1       2.540  25.425  -0.874  1.00  0.00     0.090 A 
ATOM      8  C   UNL     1       2.206  24.320  -1.652  1.00  0.00     0.099 A 
ATOM      9  C   UNL     1       2.131  25.453   0.454  1.00  0.00     0.253 A 
ATOM     10  N   UNL     1       1.427  24.410   0.967  1.00  0.00    -0.274 N 
ATOM     11  O   UNL     1       2.418  26.441   1.181  1.00  0.00    -0.269 OA
ATOM     12  C   UNL     1       1.106  23.332   0.199  1.00  0.00     0.330 A 
ATOM     13  H   UNL     1       1.130  24.435   1.969  1.00  0.00     0.175 HD
ATOM     14  O   UNL     1       0.465  22.377   0.718  1.00  0.00    -0.248 OA
ENDBRANCH   1   6
BRANCH   2  15
ATOM     15  O   UNL     1       2.430  20.884  -0.257  1.00  0.00    -0.386 OA
ATOM     16  H   UNL     1       2.369  21.765   0.197  1.00  0.00     0.211 HD
ENDBRANCH   2  15
BRANCH   3  17
ATOM     17  O   UNL     1       2.578  18.818  -1.921  1.00  0.00    -0.387 OA
ATOM     18  H   UNL     1       3.278  18.768  -2.623  1.00  0.00     0.211 HD
ENDBRANCH   3  17
BRANCH   4  19
ATOM     19  C   UNL     1       1.979  20.326  -4.798  1.00  0.00     0.191 C 
BRANCH  19  20
ATOM     20  O   UNL     1       2.290  21.345  -5.709  1.00  0.00    -0.394 OA
ATOM     21  H   UNL     1       2.779  20.916  -6.459  1.00  0.00     0.210 HD
ENDBRANCH  19  20
ENDBRANCH   4  19
TORSDOF 5
ENDMDL
MODEL 2
REMARK VINA RESULT:    38.208      0.991      1.608
REMARK INTER + INTRA:          46.846
REMARK INTER:                  45.639
REMARK INTRA:                   1.207
REMARK UNBOUND:                 0.821
REMARK SMILES O=c1ccn([C@H]2O[C@H](CO)[C@@H](O)[C@H]2O)c(=O)[nH]1
REMARK SMILES IDX 6 1 13 2 11 3 8 4 7 5 5 6 3 7 4 8 2 9 17 10 1 11 15 12 16 14
REMARK SMILES IDX 14 15 12 17 9 19 10 20
REMARK H PARENT 17 13 14 16 12 18 10 21
REMARK Flexibility Score: inf
ROOT
ATOM      1  C   UNL     1       1.090  21.896  -1.987  1.00  0.00     0.255 C 
ATOM      2  C   UNL     1       0.875  20.537  -1.319  1.00  0.00     0.196 C 
ATOM      3  C   UNL     1       1.348  19.586  -2.394  1.00  0.00     0.179 C 
ATOM      4  C   UNL     1       2.400  20.414  -3.134  1.00  0.00     0.178 C 
ATOM      5  O   UNL     1       2.145  21.789  -2.921  1.00  0.00    -0.347 OA
ENDROOT
BRANCH   1   6
ATOM      6  N   UNL     1       1.346  22.967  -0.999  1.00  0.00    -0.271 N 
ATOM      7  C   UNL     1       1.549  23.699   1.279  1.00  0.00     0.090 A 
ATOM      8  C   UNL     1       1.333  22.691   0.344  1.00  0.00     0.099 A 
ATOM      9  C   UNL     1       1.766  24.995   0.826  1.00  0.00     0.253 A 
ATOM     10  N   UNL     1       1.758  25.254  -0.508  1.00  0.00    -0.274 N 
ATOM     11  O   UNL     1       1.965  25.927   1.650  1.00  0.00    -0.269 OA
ATOM     12  C   UNL     1       1.545  24.262  -1.417  1.00  0.00     0.330 A 
ATOM     13  H   UNL     1       1.914  26.232  -0.842  1.00  0.00     0.175 HD
ATOM     14  O   UNL     1       1.529  24.547  -2.646  1.00  0.00    -0.248 OA
ENDBRANCH   1   6
BRANCH   2  15
ATOM     15  O   UNL     1       1.611  20.402  -0.123  1.00  0.00    -0.386 OA
ATOM     16  H   UNL     1       1.055  20.742   0.626  1.00  0.00     0.211 HD
ENDBRANCH   2  15
BRANCH   3  17
ATOM     17  O   UNL     1       1.908  18.414  -1.860  1.00  0.00    -0.387 OA
ATOM     18  H   UNL     1       2.493  18.699  -1.110  1.00  0.00     0.211 HD
ENDBRANCH   3  17
BRANCH   4  19
ATOM     19  C   UNL     1       2.419  20.122  -4.641  1.00  0.00     0.191 C 
BRANCH  19  20
ATOM     20  O   UNL     1       2.196  21.293  -5.378  1.00  0.00    -0.394 OA
ATOM     21  H   UNL     1       2.676  22.023  -4.905  1.00  0.00     0.210 HD
ENDBRANCH  19  20
ENDBRANCH   4  19
TORSDOF 5
ENDMDL
MODEL 3
REMARK VINA RESULT:    38.442      8.277      9.258
REMARK INTER + INTRA:          47.128
REMARK INTER:                  46.551
REMARK INTRA:                   0.577
REMARK UNBOUND:                 0.821
REMARK SMILES O=c1ccn([C@H]2O[C@H](CO)[C@@H](O)[C@H]2O)c(=O)[nH]1
REMARK SMILES IDX 6 1 13 2 11 3 8 4 7 5 5 6 3 7 4 8 2 9 17 10 1 11 15 12 16 14
REMARK SMILES IDX 14 15 12 17 9 19 10 20
REMARK H PARENT 17 13 14 16 12 18 10 21
REMARK Flexibility Score: inf
ROOT
ATOM      1  C   UNL     1      -2.871  27.127  -6.726  1.00  0.00     0.255 C 
ATOM      2  C   UNL     1      -2.464  27.308  -8.189  1.00  0.00     0.196 C 
ATOM      3  C   UNL     1      -3.726  26.903  -8.915  1.00  0.00     0.179 C 
ATOM      4  C   UNL     1      -4.821  27.273  -7.912  1.00  0.00     0.178 C 
ATOM      5  O   UNL     1      -4.268  27.310  -6.612  1.00  0.00    -0.347 OA
ENDROOT
BRANCH   1   6
ATOM      6  N   UNL     1      -2.129  28.036  -5.825  1.00  0.00    -0.271 N 
ATOM      7  C   UNL     1      -1.398  30.244  -5.229  1.00  0.00     0.090 A 
ATOM      8  C   UNL     1      -2.115  29.386  -6.058  1.00  0.00     0.099 A 
ATOM      9  C   UNL     1      -0.686  29.702  -4.165  1.00  0.00     0.253 A 
ATOM     10  N   UNL     1      -0.697  28.359  -3.959  1.00  0.00    -0.274 N 
ATOM     11  O   UNL     1      -0.029  30.455  -3.397  1.00  0.00    -0.269 OA
ATOM     12  C   UNL     1      -1.400  27.527  -4.776  1.00  0.00     0.330 A 
ATOM     13  H   UNL     1      -0.153  27.958  -3.161  1.00  0.00     0.175 HD
ATOM     14  O   UNL     1      -1.371  26.284  -4.560  1.00  0.00    -0.248 OA
ENDBRANCH   1   6
BRANCH   2  15
ATOM     15  O   UNL     1      -2.081  28.634  -8.481  1.00  0.00    -0.386 OA
ATOM     16  H   UNL     1      -2.435  28.873  -9.378  1.00  0.00     0.211 HD
ENDBRANCH   2  15
BRANCH   3  17
ATOM     17  O   UNL     1      -3.891  27.596 -10.125  1.00  0.00    -0.387 OA
ATOM     18  H   UNL     1      -4.045  28.547  -9.885  1.00  0.00     0.211 HD
ENDBRANCH   3  17
BRANCH   4  19
ATOM     19  C   UNL     1      -5.997  26.287  -7.943  1.00  0.00     0.191 C 
BRANCH  19  20
ATOM     20  O   UNL     1      -7.081  26.780  -7.204  1.00  0.00    -0.394 OA
ATOM     21  H   UNL     1      -7.031  27.771  -7.254  1.00  0.00     0.210 HD
ENDBRANCH  19  20
ENDBRANCH   4  19
TORSDOF 5
ENDMDL
