MODEL 1
REMARK VINA RESULT:    -6.415      0.000      0.000
REMARK INTER + INTRA:          -6.603
REMARK INTER:                  -6.603
REMARK INTRA:                   0.000
REMARK UNBOUND:                 0.000
REMARK SMILES C=C1[C@H]2C[C@]3(C[C@@H]1O)[C@H](C)CC[C@@H]3C2(C)C
REMARK SMILES IDX 10 1 9 2 11 3 12 4 13 5 5 6 4 7 3 8 14 9 15 10 16 11 2 12
REMARK SMILES IDX 1 13 7 14 6 15 8 16
REMARK H PARENT 8 17
REMARK Flexibility Score: inf
ROOT
ATOM      1  C   UNL     1     130.302 130.519 136.504  1.00  0.00     0.008 C 
ATOM      2  C   UNL     1     130.562 132.008 136.223  1.00  0.00    -0.008 C 
ATOM      3  C   UNL     1     132.017 132.295 135.875  1.00  0.00     0.004 C 
ATOM      4  C   UNL     1     132.184 133.791 136.098  1.00  0.00     0.005 C 
ATOM      5  C   UNL     1     131.166 134.194 137.189  1.00  0.00     0.002 C 
ATOM      6  C   UNL     1     130.234 132.971 137.385  1.00  0.00    -0.020 C 
ATOM      7  C   UNL     1     130.582 132.433 138.778  1.00  0.00     0.016 C 
ATOM      8  C   UNL     1     130.774 133.721 139.554  1.00  0.00     0.023 C 
ATOM      9  C   UNL     1     131.701 134.555 138.621  1.00  0.00    -0.025 C 
ATOM     10  C   UNL     1     133.177 134.142 138.878  1.00  0.00     0.012 C 
ATOM     11  C   UNL     1     131.605 136.077 138.890  1.00  0.00     0.012 C 
ATOM     12  C   UNL     1     129.391 134.351 139.733  1.00  0.00    -0.045 C 
ATOM     13  C   UNL     1     129.084 134.968 140.883  1.00  0.00     0.011 C 
ATOM     14  C   UNL     1     128.376 134.350 138.588  1.00  0.00     0.140 C 
ATOM     15  C   UNL     1     128.740 133.394 137.408  1.00  0.00     0.044 C 
ENDROOT
BRANCH  14  16
ATOM     16  O   UNL     1     128.226 135.663 138.112  1.00  0.00    -0.389 OA
ATOM     17  H   UNL     1     128.292 136.265 138.898  1.00  0.00     0.211 HD
ENDBRANCH  14  16
TORSDOF 1
ENDMDL
MODEL 2
REMARK VINA RESULT:    -6.115      1.428      2.523
REMARK INTER + INTRA:          -6.293
REMARK INTER:                  -6.293
REMARK INTRA:                   0.000
REMARK UNBOUND:                 0.000
REMARK SMILES C=C1[C@H]2C[C@]3(C[C@@H]1O)[C@H](C)CC[C@@H]3C2(C)C
REMARK SMILES IDX 10 1 9 2 11 3 12 4 13 5 5 6 4 7 3 8 14 9 15 10 16 11 2 12
REMARK SMILES IDX 1 13 7 14 6 15 8 16
REMARK H PARENT 8 17
REMARK Flexibility Score: inf
ROOT
ATOM      1  C   UNL     1     133.341 133.200 136.667  1.00  0.00     0.008 C 
ATOM      2  C   UNL     1     132.557 134.415 137.187  1.00  0.00    -0.008 C 
ATOM      3  C   UNL     1     133.384 135.294 138.116  1.00  0.00     0.004 C 
ATOM      4  C   UNL     1     132.363 136.125 138.881  1.00  0.00     0.005 C 
ATOM      5  C   UNL     1     131.069 135.282 138.952  1.00  0.00     0.002 C 
ATOM      6  C   UNL     1     131.277 134.087 137.987  1.00  0.00    -0.020 C 
ATOM      7  C   UNL     1     131.391 132.862 138.902  1.00  0.00     0.016 C 
ATOM      8  C   UNL     1     130.341 133.175 139.950  1.00  0.00     0.023 C 
ATOM      9  C   UNL     1     130.657 134.652 140.330  1.00  0.00    -0.025 C 
ATOM     10  C   UNL     1     131.780 134.666 141.404  1.00  0.00     0.012 C 
ATOM     11  C   UNL     1     129.438 135.385 140.942  1.00  0.00     0.012 C 
ATOM     12  C   UNL     1     128.974 133.014 139.281  1.00  0.00    -0.045 C 
ATOM     13  C   UNL     1     127.954 132.483 139.972  1.00  0.00     0.011 C 
ATOM     14  C   UNL     1     128.735 133.517 137.857  1.00  0.00     0.140 C 
ATOM     15  C   UNL     1     130.039 133.873 137.074  1.00  0.00     0.044 C 
ENDROOT
BRANCH  14  16
ATOM     16  O   UNL     1     127.885 134.634 137.905  1.00  0.00    -0.389 OA
ATOM     17  H   UNL     1     127.601 134.740 138.850  1.00  0.00     0.211 HD
ENDBRANCH  14  16
TORSDOF 1
ENDMDL
MODEL 3
REMARK VINA RESULT:    -6.011      2.751      4.691
REMARK INTER + INTRA:          -6.187
REMARK INTER:                  -6.187
REMARK INTRA:                   0.000
REMARK UNBOUND:                 0.000
REMARK SMILES C=C1[C@H]2C[C@]3(C[C@@H]1O)[C@H](C)CC[C@@H]3C2(C)C
REMARK SMILES IDX 10 1 9 2 11 3 12 4 13 5 5 6 4 7 3 8 14 9 15 10 16 11 2 12
REMARK SMILES IDX 1 13 7 14 6 15 8 16
REMARK H PARENT 8 17
REMARK Flexibility Score: inf
ROOT
ATOM      1  C   UNL     1     129.815 130.763 135.875  1.00  0.00     0.008 C 
ATOM      2  C   UNL     1     130.583 130.988 137.187  1.00  0.00    -0.008 C 
ATOM      3  C   UNL     1     129.878 131.964 138.120  1.00  0.00     0.004 C 
ATOM      4  C   UNL     1     130.953 132.421 139.095  1.00  0.00     0.005 C 
ATOM      5  C   UNL     1     132.301 132.324 138.345  1.00  0.00     0.002 C 
ATOM      6  C   UNL     1     132.013 131.550 137.033  1.00  0.00    -0.020 C 
ATOM      7  C   UNL     1     132.173 132.594 135.921  1.00  0.00     0.016 C 
ATOM      8  C   UNL     1     133.373 133.375 136.417  1.00  0.00     0.023 C 
ATOM      9  C   UNL     1     133.016 133.652 137.908  1.00  0.00    -0.025 C 
ATOM     10  C   UNL     1     132.119 134.919 137.983  1.00  0.00     0.012 C 
ATOM     11  C   UNL     1     134.266 133.932 138.779  1.00  0.00     0.012 C 
ATOM     12  C   UNL     1     134.598 132.472 136.259  1.00  0.00    -0.045 C 
ATOM     13  C   UNL     1     135.769 132.999 135.875  1.00  0.00     0.011 C 
ATOM     14  C   UNL     1     134.522 130.983 136.602  1.00  0.00     0.140 C 
ATOM     15  C   UNL     1     133.069 130.439 136.786  1.00  0.00     0.044 C 
ENDROOT
BRANCH  14  16
ATOM     16  O   UNL     1     135.272 130.745 137.766  1.00  0.00    -0.389 OA
ATOM     17  H   UNL     1     134.731 130.146 138.341  1.00  0.00     0.211 HD
ENDBRANCH  14  16
TORSDOF 1
ENDMDL
MODEL 4
REMARK VINA RESULT:    -5.942      7.785      9.481
REMARK INTER + INTRA:          -6.115
REMARK INTER:                  -6.115
REMARK INTRA:                   0.000
REMARK UNBOUND:                 0.000
REMARK SMILES C=C1[C@H]2C[C@]3(C[C@@H]1O)[C@H](C)CC[C@@H]3C2(C)C
REMARK SMILES IDX 10 1 9 2 11 3 12 4 13 5 5 6 4 7 3 8 14 9 15 10 16 11 2 12
REMARK SMILES IDX 1 13 7 14 6 15 8 16
REMARK H PARENT 8 17
REMARK Flexibility Score: inf
ROOT
ATOM      1  C   UNL     1     135.984 122.960 140.320  1.00  0.00     0.008 C 
ATOM      2  C   UNL     1     135.026 123.489 139.242  1.00  0.00    -0.008 C 
ATOM      3  C   UNL     1     135.689 124.494 138.309  1.00  0.00     0.004 C 
ATOM      4  C   UNL     1     134.536 125.239 137.652  1.00  0.00     0.005 C 
ATOM      5  C   UNL     1     133.360 125.208 138.655  1.00  0.00     0.002 C 
ATOM      6  C   UNL     1     133.764 124.207 139.767  1.00  0.00    -0.020 C 
ATOM      7  C   UNL     1     133.994 125.076 141.010  1.00  0.00     0.016 C 
ATOM      8  C   UNL     1     132.865 126.080 140.883  1.00  0.00     0.023 C 
ATOM      9  C   UNL     1     132.970 126.536 139.398  1.00  0.00    -0.025 C 
ATOM     10  C   UNL     1     134.030 127.666 139.292  1.00  0.00     0.012 C 
ATOM     11  C   UNL     1     131.639 127.114 138.856  1.00  0.00     0.012 C 
ATOM     12  C   UNL     1     131.563 125.335 141.185  1.00  0.00    -0.045 C 
ATOM     13  C   UNL     1     130.590 125.950 141.873  1.00  0.00     0.011 C 
ATOM     14  C   UNL     1     131.327 123.922 140.650  1.00  0.00     0.140 C 
ATOM     15  C   UNL     1     132.608 123.224 140.093  1.00  0.00     0.044 C 
ENDROOT
BRANCH  14  16
ATOM     16  O   UNL     1     130.338 123.973 139.653  1.00  0.00    -0.389 OA
ATOM     17  H   UNL     1     130.806 123.931 138.779  1.00  0.00     0.211 HD
ENDBRANCH  14  16
TORSDOF 1
ENDMDL
MODEL 5
REMARK VINA RESULT:    -5.881      2.192      3.670
REMARK INTER + INTRA:          -6.053
REMARK INTER:                  -6.053
REMARK INTRA:                   0.000
REMARK UNBOUND:                 0.000
REMARK SMILES C=C1[C@H]2C[C@]3(C[C@@H]1O)[C@H](C)CC[C@@H]3C2(C)C
REMARK SMILES IDX 10 1 9 2 11 3 12 4 13 5 5 6 4 7 3 8 14 9 15 10 16 11 2 12
REMARK SMILES IDX 1 13 7 14 6 15 8 16
REMARK H PARENT 8 17
REMARK Flexibility Score: inf
ROOT
ATOM      1  C   UNL     1     135.259 132.417 137.008  1.00  0.00     0.008 C 
ATOM      2  C   UNL     1     133.941 132.737 136.285  1.00  0.00    -0.008 C 
ATOM      3  C   UNL     1     133.687 134.234 136.163  1.00  0.00     0.004 C 
ATOM      4  C   UNL     1     132.196 134.356 135.881  1.00  0.00     0.005 C 
ATOM      5  C   UNL     1     131.519 133.129 136.532  1.00  0.00     0.002 C 
ATOM      6  C   UNL     1     132.665 132.171 136.947  1.00  0.00    -0.020 C 
ATOM      7  C   UNL     1     132.670 132.208 138.480  1.00  0.00     0.016 C 
ATOM      8  C   UNL     1     131.184 132.234 138.781  1.00  0.00     0.023 C 
ATOM      9  C   UNL     1     130.655 133.344 137.825  1.00  0.00    -0.025 C 
ATOM     10  C   UNL     1     130.850 134.728 138.505  1.00  0.00     0.012 C 
ATOM     11  C   UNL     1     129.143 133.199 137.523  1.00  0.00     0.012 C 
ATOM     12  C   UNL     1     130.631 130.848 138.444  1.00  0.00    -0.045 C 
ATOM     13  C   UNL     1     129.683 130.303 139.220  1.00  0.00     0.011 C 
ATOM     14  C   UNL     1     131.094 130.104 137.190  1.00  0.00     0.140 C 
ATOM     15  C   UNL     1     132.366 130.709 136.517  1.00  0.00     0.044 C 
ENDROOT
BRANCH  14  16
ATOM     16  O   UNL     1     130.036 130.066 136.267  1.00  0.00    -0.389 OA
ATOM     17  H   UNL     1     129.225 129.793 136.768  1.00  0.00     0.211 HD
ENDBRANCH  14  16
TORSDOF 1
ENDMDL
MODEL 6
REMARK VINA RESULT:    -5.857      2.270      4.198
REMARK INTER + INTRA:          -6.028
REMARK INTER:                  -6.028
REMARK INTRA:                   0.000
REMARK UNBOUND:                 0.000
REMARK SMILES C=C1[C@H]2C[C@]3(C[C@@H]1O)[C@H](C)CC[C@@H]3C2(C)C
REMARK SMILES IDX 10 1 9 2 11 3 12 4 13 5 5 6 4 7 3 8 14 9 15 10 16 11 2 12
REMARK SMILES IDX 1 13 7 14 6 15 8 16
REMARK H PARENT 8 17
REMARK Flexibility Score: inf
ROOT
ATOM      1  C   UNL     1     135.673 132.567 135.875  1.00  0.00     0.008 C 
ATOM      2  C   UNL     1     134.890 131.816 136.963  1.00  0.00    -0.008 C 
ATOM      3  C   UNL     1     134.765 130.326 136.673  1.00  0.00     0.004 C 
ATOM      4  C   UNL     1     133.610 129.853 137.545  1.00  0.00     0.005 C 
ATOM      5  C   UNL     1     132.672 131.066 137.734  1.00  0.00     0.002 C 
ATOM      6  C   UNL     1     133.441 132.298 137.194  1.00  0.00    -0.020 C 
ATOM      7  C   UNL     1     132.691 132.699 135.918  1.00  0.00     0.016 C 
ATOM      8  C   UNL     1     131.251 132.483 136.341  1.00  0.00     0.023 C 
ATOM      9  C   UNL     1     131.287 131.069 136.993  1.00  0.00    -0.025 C 
ATOM     10  C   UNL     1     131.154 129.997 135.877  1.00  0.00     0.012 C 
ATOM     11  C   UNL     1     130.118 130.838 137.982  1.00  0.00     0.012 C 
ATOM     12  C   UNL     1     130.903 133.588 137.340  1.00  0.00    -0.045 C 
ATOM     13  C   UNL     1     129.682 134.144 137.319  1.00  0.00     0.011 C 
ATOM     14  C   UNL     1     131.906 134.019 138.411  1.00  0.00     0.140 C 
ATOM     15  C   UNL     1     133.359 133.496 138.178  1.00  0.00     0.044 C 
ENDROOT
BRANCH  14  16
ATOM     16  O   UNL     1     131.440 133.596 139.667  1.00  0.00    -0.389 OA
ATOM     17  H   UNL     1     132.116 132.967 140.029  1.00  0.00     0.211 HD
ENDBRANCH  14  16
TORSDOF 1
ENDMDL
MODEL 7
REMARK VINA RESULT:    -5.857      2.416      4.436
REMARK INTER + INTRA:          -6.028
REMARK INTER:                  -6.028
REMARK INTRA:                   0.000
REMARK UNBOUND:                 0.000
REMARK SMILES C=C1[C@H]2C[C@]3(C[C@@H]1O)[C@H](C)CC[C@@H]3C2(C)C
REMARK SMILES IDX 10 1 9 2 11 3 12 4 13 5 5 6 4 7 3 8 14 9 15 10 16 11 2 12
REMARK SMILES IDX 1 13 7 14 6 15 8 16
REMARK H PARENT 8 17
REMARK Flexibility Score: inf
ROOT
ATOM      1  C   UNL     1     128.657 133.475 137.706  1.00  0.00     0.008 C 
ATOM      2  C   UNL     1     130.000 133.561 138.447  1.00  0.00    -0.008 C 
ATOM      3  C   UNL     1     130.577 134.971 138.457  1.00  0.00     0.004 C 
ATOM      4  C   UNL     1     132.052 134.789 138.782  1.00  0.00     0.005 C 
ATOM      5  C   UNL     1     132.453 133.391 138.257  1.00  0.00     0.002 C 
ATOM      6  C   UNL     1     131.131 132.674 137.880  1.00  0.00    -0.020 C 
ATOM      7  C   UNL     1     131.161 132.578 136.350  1.00  0.00     0.016 C 
ATOM      8  C   UNL     1     132.621 132.253 136.102  1.00  0.00     0.023 C 
ATOM      9  C   UNL     1     133.366 133.299 136.983  1.00  0.00    -0.025 C 
ATOM     10  C   UNL     1     133.493 134.627 136.187  1.00  0.00     0.012 C 
ATOM     11  C   UNL     1     134.803 132.854 137.351  1.00  0.00     0.012 C 
ATOM     12  C   UNL     1     132.849 130.814 136.570  1.00  0.00    -0.045 C 
ATOM     13  C   UNL     1     133.667 130.010 135.875  1.00  0.00     0.011 C 
ATOM     14  C   UNL     1     132.211 130.301 137.862  1.00  0.00     0.140 C 
ATOM     15  C   UNL     1     131.092 131.226 138.438  1.00  0.00     0.044 C 
ENDROOT
BRANCH  14  16
ATOM     16  O   UNL     1     133.218 130.113 138.823  1.00  0.00    -0.389 OA
ATOM     17  H   UNL     1     133.646 129.239 138.627  1.00  0.00     0.211 HD
ENDBRANCH  14  16
TORSDOF 1
ENDMDL
MODEL 8
REMARK VINA RESULT:    -5.727      1.737      3.354
REMARK INTER + INTRA:          -5.894
REMARK INTER:                  -5.894
REMARK INTRA:                   0.000
REMARK UNBOUND:                 0.000
REMARK SMILES C=C1[C@H]2C[C@]3(C[C@@H]1O)[C@H](C)CC[C@@H]3C2(C)C
REMARK SMILES IDX 10 1 9 2 11 3 12 4 13 5 5 6 4 7 3 8 14 9 15 10 16 11 2 12
REMARK SMILES IDX 1 13 7 14 6 15 8 16
REMARK H PARENT 8 17
REMARK Flexibility Score: inf
ROOT
ATOM      1  C   UNL     1     133.366 134.624 136.749  1.00  0.00     0.008 C 
ATOM      2  C   UNL     1     132.524 133.446 137.264  1.00  0.00    -0.008 C 
ATOM      3  C   UNL     1     131.609 132.865 136.193  1.00  0.00     0.004 C 
ATOM      4  C   UNL     1     130.556 132.080 136.962  1.00  0.00     0.005 C 
ATOM      5  C   UNL     1     130.415 132.761 138.343  1.00  0.00     0.002 C 
ATOM      6  C   UNL     1     131.590 133.766 138.452  1.00  0.00    -0.020 C 
ATOM      7  C   UNL     1     130.929 135.148 138.391  1.00  0.00     0.016 C 
ATOM      8  C   UNL     1     129.684 134.918 139.225  1.00  0.00     0.023 C 
ATOM      9  C   UNL     1     129.116 133.589 138.645  1.00  0.00    -0.025 C 
ATOM     10  C   UNL     1     128.256 133.914 137.392  1.00  0.00     0.012 C 
ATOM     11  C   UNL     1     128.194 132.847 139.644  1.00  0.00     0.012 C 
ATOM     12  C   UNL     1     130.134 134.785 140.681  1.00  0.00    -0.045 C 
ATOM     13  C   UNL     1     129.384 135.312 141.661  1.00  0.00     0.011 C 
ATOM     14  C   UNL     1     131.393 133.994 141.042  1.00  0.00     0.140 C 
ATOM     15  C   UNL     1     132.308 133.653 139.824  1.00  0.00     0.044 C 
ENDROOT
BRANCH  14  16
ATOM     16  O   UNL     1     131.015 132.813 141.703  1.00  0.00    -0.389 OA
ATOM     17  H   UNL     1     130.882 132.121 141.005  1.00  0.00     0.211 HD
ENDBRANCH  14  16
TORSDOF 1
ENDMDL
