MODEL 1
REMARK VINA RESULT:    -3.736      0.000      0.000
REMARK INTER + INTRA:         -15.104
REMARK INTER:                  -9.416
REMARK INTRA:                  -5.688
REMARK UNBOUND:                -5.688
REMARK SMILES CCCCCCCCCCCCCCCCCCCCCCCCCCCC(=O)[O-]
REMARK SMILES IDX 15 1 16 2 17 3 18 4 19 5 20 6 21 7 22 8 23 9 24 10 25 11
REMARK SMILES IDX 26 12 27 13 28 14 29 15 30 16 14 17 13 18 12 19 11 20 10 21
REMARK SMILES IDX 9 22 8 23 7 24 6 25 5 26 4 27 3 28 2 29 1 30
REMARK H PARENT
REMARK Flexibility Score: inf
ROOT
ATOM      1  C   UNL     1     -23.631  95.811 -30.752  1.00  0.00     0.000 C 
ENDROOT
BRANCH   1   2
ATOM      2  C   UNL     1     -23.655  96.696 -32.010  1.00  0.00     0.000 C 
BRANCH   2   3
ATOM      3  C   UNL     1     -24.485  96.077 -33.150  1.00  0.00     0.000 C 
BRANCH   3   4
ATOM      4  C   UNL     1     -24.129  94.603 -33.406  1.00  0.00     0.000 C 
BRANCH   4   5
ATOM      5  C   UNL     1     -25.364  93.684 -33.383  1.00  0.00     0.000 C 
BRANCH   5   6
ATOM      6  C   UNL     1     -26.514  94.260 -32.541  1.00  0.00     0.000 C 
BRANCH   6   7
ATOM      7  C   UNL     1     -27.903  94.167 -33.203  1.00  0.00     0.000 C 
BRANCH   7   8
ATOM      8  C   UNL     1     -28.278  92.739 -33.656  1.00  0.00     0.000 C 
BRANCH   8   9
ATOM      9  C   UNL     1     -28.537  91.801 -32.464  1.00  0.00     0.000 C 
BRANCH   9  10
ATOM     10  C   UNL     1     -29.761  92.221 -31.635  1.00  0.00     0.000 C 
BRANCH  10  11
ATOM     11  C   UNL     1     -29.607  91.893 -30.140  1.00  0.00     0.000 C 
BRANCH  11  12
ATOM     12  C   UNL     1     -28.278  92.398 -29.556  1.00  0.00     0.006 C 
BRANCH  12  13
ATOM     13  C   UNL     1     -28.184  92.194 -28.038  1.00  0.00     0.053 C 
BRANCH  13  14
ATOM     14  C   UNL     1     -28.614  93.433 -27.315  1.00  0.00     0.041 C 
ATOM     15  O   UNL     1     -29.838  93.685 -27.165  1.00  0.00    -0.550 OA
ATOM     16  O   UNL     1     -27.662  94.331 -26.849  1.00  0.00    -0.550 OA
ENDBRANCH  13  14
ENDBRANCH  12  13
ENDBRANCH  11  12
ENDBRANCH  10  11
ENDBRANCH   9  10
ENDBRANCH   8   9
ENDBRANCH   7   8
ENDBRANCH   6   7
ENDBRANCH   5   6
ENDBRANCH   4   5
ENDBRANCH   3   4
ENDBRANCH   2   3
ENDBRANCH   1   2
BRANCH   1  17
ATOM     17  C   UNL     1     -24.479  96.388 -29.608  1.00  0.00     0.000 C 
BRANCH  17  18
ATOM     18  C   UNL     1     -24.770  95.321 -28.546  1.00  0.00     0.000 C 
BRANCH  18  19
ATOM     19  C   UNL     1     -24.937  93.937 -29.193  1.00  0.00     0.000 C 
BRANCH  19  20
ATOM     20  C   UNL     1     -24.534  92.788 -28.254  1.00  0.00     0.000 C 
BRANCH  20  21
ATOM     21  C   UNL     1     -23.630  91.752 -28.944  1.00  0.00     0.000 C 
BRANCH  21  22
ATOM     22  C   UNL     1     -23.420  92.058 -30.436  1.00  0.00    -0.000 C 
BRANCH  22  23
ATOM     23  C   UNL     1     -23.872  90.899 -31.341  1.00  0.00    -0.000 C 
BRANCH  23  24
ATOM     24  C   UNL     1     -25.386  90.633 -31.263  1.00  0.00    -0.000 C 
BRANCH  24  25
ATOM     25  C   UNL     1     -25.778  89.174 -30.963  1.00  0.00    -0.000 C 
BRANCH  25  26
ATOM     26  C   UNL     1     -26.776  89.046 -29.803  1.00  0.00    -0.000 C 
BRANCH  26  27
ATOM     27  C   UNL     1     -26.044  88.867 -28.465  1.00  0.00    -0.000 C 
BRANCH  27  28
ATOM     28  C   UNL     1     -24.983  87.752 -28.508  1.00  0.00    -0.000 C 
BRANCH  28  29
ATOM     29  C   UNL     1     -23.581  88.176 -28.032  1.00  0.00    -0.003 C 
ATOM     30  C   UNL     1     -23.602  88.926 -26.702  1.00  0.00     0.004 C 
ENDBRANCH  28  29
ENDBRANCH  27  28
ENDBRANCH  26  27
ENDBRANCH  25  26
ENDBRANCH  24  25
ENDBRANCH  23  24
ENDBRANCH  22  23
ENDBRANCH  21  22
ENDBRANCH  20  21
ENDBRANCH  19  20
ENDBRANCH  18  19
ENDBRANCH  17  18
ENDBRANCH   1  17
TORSDOF 26
ENDMDL
MODEL 2
REMARK VINA RESULT:    -3.699      4.286      8.117
REMARK INTER + INTRA:         -15.009
REMARK INTER:                 -10.845
REMARK INTRA:                  -4.164
REMARK UNBOUND:                -5.688
REMARK SMILES CCCCCCCCCCCCCCCCCCCCCCCCCCCC(=O)[O-]
REMARK SMILES IDX 15 1 16 2 17 3 18 4 19 5 20 6 21 7 22 8 23 9 24 10 25 11
REMARK SMILES IDX 26 12 27 13 28 14 29 15 30 16 14 17 13 18 12 19 11 20 10 21
REMARK SMILES IDX 9 22 8 23 7 24 6 25 5 26 4 27 3 28 2 29 1 30
REMARK H PARENT
REMARK Flexibility Score: inf
ROOT
ATOM      1  C   UNL     1     -22.961  91.252 -31.648  1.00  0.00     0.000 C 
ENDROOT
BRANCH   1   2
ATOM      2  C   UNL     1     -24.161  90.337 -31.350  1.00  0.00     0.000 C 
BRANCH   2   3
ATOM      3  C   UNL     1     -24.246  89.941 -29.865  1.00  0.00     0.000 C 
BRANCH   3   4
ATOM      4  C   UNL     1     -22.917  90.155 -29.120  1.00  0.00     0.000 C 
BRANCH   4   5
ATOM      5  C   UNL     1     -23.122  90.612 -27.664  1.00  0.00     0.000 C 
BRANCH   5   6
ATOM      6  C   UNL     1     -24.489  90.193 -27.100  1.00  0.00     0.000 C 
BRANCH   6   7
ATOM      7  C   UNL     1     -24.420  89.250 -25.883  1.00  0.00     0.000 C 
BRANCH   7   8
ATOM      8  C   UNL     1     -23.093  89.349 -25.099  1.00  0.00     0.000 C 
BRANCH   8   9
ATOM      9  C   UNL     1     -22.427  87.976 -24.908  1.00  0.00     0.000 C 
BRANCH   9  10
ATOM     10  C   UNL     1     -23.408  86.809 -25.104  1.00  0.00     0.000 C 
BRANCH  10  11
ATOM     11  C   UNL     1     -23.299  85.749 -23.994  1.00  0.00     0.000 C 
BRANCH  11  12
ATOM     12  C   UNL     1     -22.038  85.920 -23.132  1.00  0.00     0.006 C 
BRANCH  12  13
ATOM     13  C   UNL     1     -21.292  84.598 -22.908  1.00  0.00     0.053 C 
BRANCH  13  14
ATOM     14  C   UNL     1     -21.838  83.884 -21.711  1.00  0.00     0.041 C 
ATOM     15  O   UNL     1     -21.897  82.627 -21.696  1.00  0.00    -0.550 OA
ATOM     16  O   UNL     1     -22.325  84.609 -20.631  1.00  0.00    -0.550 OA
ENDBRANCH  13  14
ENDBRANCH  12  13
ENDBRANCH  11  12
ENDBRANCH  10  11
ENDBRANCH   9  10
ENDBRANCH   8   9
ENDBRANCH   7   8
ENDBRANCH   6   7
ENDBRANCH   5   6
ENDBRANCH   4   5
ENDBRANCH   3   4
ENDBRANCH   2   3
ENDBRANCH   1   2
BRANCH   1  17
ATOM     17  C   UNL     1     -23.296  92.356 -32.663  1.00  0.00     0.000 C 
BRANCH  17  18
ATOM     18  C   UNL     1     -23.139  93.746 -32.036  1.00  0.00     0.000 C 
BRANCH  18  19
ATOM     19  C   UNL     1     -23.851  94.811 -32.884  1.00  0.00     0.000 C 
BRANCH  19  20
ATOM     20  C   UNL     1     -24.878  94.210 -33.857  1.00  0.00     0.000 C 
BRANCH  20  21
ATOM     21  C   UNL     1     -26.283  94.810 -33.678  1.00  0.00     0.000 C 
BRANCH  21  22
ATOM     22  C   UNL     1     -27.380  93.733 -33.649  1.00  0.00    -0.000 C 
BRANCH  22  23
ATOM     23  C   UNL     1     -26.964  92.494 -32.837  1.00  0.00    -0.000 C 
BRANCH  23  24
ATOM     24  C   UNL     1     -27.400  92.571 -31.362  1.00  0.00    -0.000 C 
BRANCH  24  25
ATOM     25  C   UNL     1     -26.322  93.085 -30.390  1.00  0.00    -0.000 C 
BRANCH  25  26
ATOM     26  C   UNL     1     -26.678  92.844 -28.915  1.00  0.00    -0.000 C 
BRANCH  26  27
ATOM     27  C   UNL     1     -25.708  93.590 -27.987  1.00  0.00    -0.000 C 
BRANCH  27  28
ATOM     28  C   UNL     1     -24.395  93.987 -28.686  1.00  0.00    -0.000 C 
BRANCH  28  29
ATOM     29  C   UNL     1     -24.238  95.494 -28.958  1.00  0.00    -0.003 C 
ATOM     30  C   UNL     1     -25.201  96.353 -28.139  1.00  0.00     0.004 C 
ENDBRANCH  28  29
ENDBRANCH  27  28
ENDBRANCH  26  27
ENDBRANCH  25  26
ENDBRANCH  24  25
ENDBRANCH  23  24
ENDBRANCH  22  23
ENDBRANCH  21  22
ENDBRANCH  20  21
ENDBRANCH  19  20
ENDBRANCH  18  19
ENDBRANCH  17  18
ENDBRANCH   1  17
TORSDOF 26
ENDMDL
MODEL 3
REMARK VINA RESULT:    -3.678      4.854      8.696
REMARK INTER + INTRA:         -14.958
REMARK INTER:                 -11.696
REMARK INTRA:                  -3.261
REMARK UNBOUND:                -5.688
REMARK SMILES CCCCCCCCCCCCCCCCCCCCCCCCCCCC(=O)[O-]
REMARK SMILES IDX 15 1 16 2 17 3 18 4 19 5 20 6 21 7 22 8 23 9 24 10 25 11
REMARK SMILES IDX 26 12 27 13 28 14 29 15 30 16 14 17 13 18 12 19 11 20 10 21
REMARK SMILES IDX 9 22 8 23 7 24 6 25 5 26 4 27 3 28 2 29 1 30
REMARK H PARENT
REMARK Flexibility Score: inf
ROOT
ATOM      1  C   UNL     1     -24.133  91.597 -30.947  1.00  0.00     0.000 C 
ENDROOT
BRANCH   1   2
ATOM      2  C   UNL     1     -22.884  90.753 -30.644  1.00  0.00     0.000 C 
BRANCH   2   3
ATOM      3  C   UNL     1     -22.895  90.175 -29.216  1.00  0.00     0.000 C 
BRANCH   3   4
ATOM      4  C   UNL     1     -24.058  89.196 -28.985  1.00  0.00     0.000 C 
BRANCH   4   5
ATOM      5  C   UNL     1     -24.541  89.185 -27.523  1.00  0.00     0.000 C 
BRANCH   5   6
ATOM      6  C   UNL     1     -23.585  88.421 -26.591  1.00  0.00     0.000 C 
BRANCH   6   7
ATOM      7  C   UNL     1     -23.006  89.262 -25.437  1.00  0.00     0.000 C 
BRANCH   7   8
ATOM      8  C   UNL     1     -22.108  88.455 -24.474  1.00  0.00     0.000 C 
BRANCH   8   9
ATOM      9  C   UNL     1     -22.443  86.953 -24.490  1.00  0.00     0.000 C 
BRANCH   9  10
ATOM     10  C   UNL     1     -21.690  86.166 -23.407  1.00  0.00     0.000 C 
BRANCH  10  11
ATOM     11  C   UNL     1     -22.026  84.665 -23.422  1.00  0.00     0.000 C 
BRANCH  11  12
ATOM     12  C   UNL     1     -22.993  84.263 -22.297  1.00  0.00     0.006 C 
BRANCH  12  13
ATOM     13  C   UNL     1     -22.418  84.528 -20.900  1.00  0.00     0.053 C 
BRANCH  13  14
ATOM     14  C   UNL     1     -22.362  83.260 -20.106  1.00  0.00     0.041 C 
ATOM     15  O   UNL     1     -21.266  82.852 -19.640  1.00  0.00    -0.550 OA
ATOM     16  O   UNL     1     -23.513  82.505 -19.920  1.00  0.00    -0.550 OA
ENDBRANCH  13  14
ENDBRANCH  12  13
ENDBRANCH  11  12
ENDBRANCH  10  11
ENDBRANCH   9  10
ENDBRANCH   8   9
ENDBRANCH   7   8
ENDBRANCH   6   7
ENDBRANCH   5   6
ENDBRANCH   4   5
ENDBRANCH   3   4
ENDBRANCH   2   3
ENDBRANCH   1   2
BRANCH   1  17
ATOM     17  C   UNL     1     -24.014  92.376 -32.266  1.00  0.00     0.000 C 
BRANCH  17  18
ATOM     18  C   UNL     1     -23.042  93.553 -32.124  1.00  0.00     0.000 C 
BRANCH  18  19
ATOM     19  C   UNL     1     -23.591  94.803 -32.829  1.00  0.00     0.000 C 
BRANCH  19  20
ATOM     20  C   UNL     1     -24.271  95.783 -31.859  1.00  0.00     0.000 C 
BRANCH  20  21
ATOM     21  C   UNL     1     -23.696  95.698 -30.434  1.00  0.00     0.000 C 
BRANCH  21  22
ATOM     22  C   UNL     1     -24.614  96.359 -29.392  1.00  0.00    -0.000 C 
BRANCH  22  23
ATOM     23  C   UNL     1     -25.036  95.382 -28.281  1.00  0.00    -0.000 C 
BRANCH  23  24
ATOM     24  C   UNL     1     -24.352  94.007 -28.400  1.00  0.00    -0.000 C 
BRANCH  24  25
ATOM     25  C   UNL     1     -25.064  92.860 -27.660  1.00  0.00    -0.000 C 
BRANCH  25  26
ATOM     26  C   UNL     1     -26.433  93.267 -27.094  1.00  0.00    -0.000 C 
BRANCH  26  27
ATOM     27  C   UNL     1     -27.515  92.249 -27.486  1.00  0.00    -0.000 C 
BRANCH  27  28
ATOM     28  C   UNL     1     -27.220  91.549 -28.826  1.00  0.00    -0.000 C 
BRANCH  28  29
ATOM     29  C   UNL     1     -28.274  91.783 -29.923  1.00  0.00    -0.003 C 
ATOM     30  C   UNL     1     -27.734  92.573 -31.113  1.00  0.00     0.004 C 
ENDBRANCH  28  29
ENDBRANCH  27  28
ENDBRANCH  26  27
ENDBRANCH  25  26
ENDBRANCH  24  25
ENDBRANCH  23  24
ENDBRANCH  22  23
ENDBRANCH  21  22
ENDBRANCH  20  21
ENDBRANCH  19  20
ENDBRANCH  18  19
ENDBRANCH  17  18
ENDBRANCH   1  17
TORSDOF 26
ENDMDL
MODEL 4
REMARK VINA RESULT:    -3.617      4.773      8.899
REMARK INTER + INTRA:         -14.802
REMARK INTER:                 -11.497
REMARK INTRA:                  -3.305
REMARK UNBOUND:                -5.688
REMARK SMILES CCCCCCCCCCCCCCCCCCCCCCCCCCCC(=O)[O-]
REMARK SMILES IDX 15 1 16 2 17 3 18 4 19 5 20 6 21 7 22 8 23 9 24 10 25 11
REMARK SMILES IDX 26 12 27 13 28 14 29 15 30 16 14 17 13 18 12 19 11 20 10 21
REMARK SMILES IDX 9 22 8 23 7 24 6 25 5 26 4 27 3 28 2 29 1 30
REMARK H PARENT
REMARK Flexibility Score: inf
ROOT
ATOM      1  C   UNL     1     -24.299  92.196 -30.494  1.00  0.00     0.000 C 
ENDROOT
BRANCH   1   2
ATOM      2  C   UNL     1     -23.263  91.100 -30.798  1.00  0.00     0.000 C 
BRANCH   2   3
ATOM      3  C   UNL     1     -22.850  90.315 -29.540  1.00  0.00     0.000 C 
BRANCH   3   4
ATOM      4  C   UNL     1     -23.840  90.498 -28.378  1.00  0.00     0.000 C 
BRANCH   4   5
ATOM      5  C   UNL     1     -23.217  90.163 -27.011  1.00  0.00     0.000 C 
BRANCH   5   6
ATOM      6  C   UNL     1     -23.992  89.067 -26.261  1.00  0.00     0.000 C 
BRANCH   6   7
ATOM      7  C   UNL     1     -23.305  87.687 -26.251  1.00  0.00     0.000 C 
BRANCH   7   8
ATOM      8  C   UNL     1     -22.435  87.439 -25.000  1.00  0.00     0.000 C 
BRANCH   8   9
ATOM      9  C   UNL     1     -23.129  86.515 -23.984  1.00  0.00     0.000 C 
BRANCH   9  10
ATOM     10  C   UNL     1     -22.131  85.738 -23.112  1.00  0.00     0.000 C 
BRANCH  10  11
ATOM     11  C   UNL     1     -22.168  84.222 -23.375  1.00  0.00     0.000 C 
BRANCH  11  12
ATOM     12  C   UNL     1     -21.123  83.452 -22.552  1.00  0.00     0.006 C 
BRANCH  12  13
ATOM     13  C   UNL     1     -21.741  82.316 -21.727  1.00  0.00     0.053 C 
BRANCH  13  14
ATOM     14  C   UNL     1     -22.854  82.834 -20.871  1.00  0.00     0.041 C 
ATOM     15  O   UNL     1     -24.011  82.350 -20.976  1.00  0.00    -0.550 OA
ATOM     16  O   UNL     1     -22.623  83.883 -19.990  1.00  0.00    -0.550 OA
ENDBRANCH  13  14
ENDBRANCH  12  13
ENDBRANCH  11  12
ENDBRANCH  10  11
ENDBRANCH   9  10
ENDBRANCH   8   9
ENDBRANCH   7   8
ENDBRANCH   6   7
ENDBRANCH   5   6
ENDBRANCH   4   5
ENDBRANCH   3   4
ENDBRANCH   2   3
ENDBRANCH   1   2
BRANCH   1  17
ATOM     17  C   UNL     1     -25.407  92.273 -31.556  1.00  0.00     0.000 C 
BRANCH  17  18
ATOM     18  C   UNL     1     -26.531  93.216 -31.112  1.00  0.00     0.000 C 
BRANCH  18  19
ATOM     19  C   UNL     1     -26.978  94.118 -32.272  1.00  0.00     0.000 C 
BRANCH  19  20
ATOM     20  C   UNL     1     -25.969  94.142 -33.431  1.00  0.00     0.000 C 
BRANCH  20  21
ATOM     21  C   UNL     1     -25.637  95.571 -33.896  1.00  0.00     0.000 C 
BRANCH  21  22
ATOM     22  C   UNL     1     -24.135  95.884 -33.801  1.00  0.00    -0.000 C 
BRANCH  22  23
ATOM     23  C   UNL     1     -23.460  95.167 -32.619  1.00  0.00    -0.000 C 
BRANCH  23  24
ATOM     24  C   UNL     1     -23.197  96.100 -31.423  1.00  0.00    -0.000 C 
BRANCH  24  25
ATOM     25  C   UNL     1     -24.393  96.296 -30.473  1.00  0.00    -0.000 C 
BRANCH  25  26
ATOM     26  C   UNL     1     -24.272  95.479 -29.178  1.00  0.00    -0.000 C 
BRANCH  26  27
ATOM     27  C   UNL     1     -25.198  96.037 -28.087  1.00  0.00    -0.000 C 
BRANCH  27  28
ATOM     28  C   UNL     1     -26.191  94.990 -27.551  1.00  0.00    -0.000 C 
BRANCH  28  29
ATOM     29  C   UNL     1     -25.643  93.553 -27.488  1.00  0.00    -0.003 C 
ATOM     30  C   UNL     1     -26.689  92.532 -27.047  1.00  0.00     0.004 C 
ENDBRANCH  28  29
ENDBRANCH  27  28
ENDBRANCH  26  27
ENDBRANCH  25  26
ENDBRANCH  24  25
ENDBRANCH  23  24
ENDBRANCH  22  23
ENDBRANCH  21  22
ENDBRANCH  20  21
ENDBRANCH  19  20
ENDBRANCH  18  19
ENDBRANCH  17  18
ENDBRANCH   1  17
TORSDOF 26
ENDMDL
MODEL 5
REMARK VINA RESULT:    -3.613      5.792      9.881
REMARK INTER + INTRA:         -14.793
REMARK INTER:                 -11.360
REMARK INTRA:                  -3.432
REMARK UNBOUND:                -5.688
REMARK SMILES CCCCCCCCCCCCCCCCCCCCCCCCCCCC(=O)[O-]
REMARK SMILES IDX 15 1 16 2 17 3 18 4 19 5 20 6 21 7 22 8 23 9 24 10 25 11
REMARK SMILES IDX 26 12 27 13 28 14 29 15 30 16 14 17 13 18 12 19 11 20 10 21
REMARK SMILES IDX 9 22 8 23 7 24 6 25 5 26 4 27 3 28 2 29 1 30
REMARK H PARENT
REMARK Flexibility Score: inf
ROOT
ATOM      1  C   UNL     1     -23.936  89.466 -29.555  1.00  0.00     0.000 C 
ENDROOT
BRANCH   1   2
ATOM      2  C   UNL     1     -23.652  88.814 -28.192  1.00  0.00     0.000 C 
BRANCH   2   3
ATOM      3  C   UNL     1     -23.476  89.851 -27.067  1.00  0.00     0.000 C 
BRANCH   3   4
ATOM      4  C   UNL     1     -23.789  89.274 -25.677  1.00  0.00     0.000 C 
BRANCH   4   5
ATOM      5  C   UNL     1     -22.554  89.239 -24.759  1.00  0.00     0.000 C 
BRANCH   5   6
ATOM      6  C   UNL     1     -22.142  87.807 -24.378  1.00  0.00     0.000 C 
BRANCH   6   7
ATOM      7  C   UNL     1     -23.267  86.761 -24.497  1.00  0.00     0.000 C 
BRANCH   7   8
ATOM      8  C   UNL     1     -22.895  85.383 -23.907  1.00  0.00     0.000 C 
BRANCH   8   9
ATOM      9  C   UNL     1     -21.808  85.490 -22.824  1.00  0.00     0.000 C 
BRANCH   9  10
ATOM     10  C   UNL     1     -22.106  84.615 -21.597  1.00  0.00     0.000 C 
BRANCH  10  11
ATOM     11  C   UNL     1     -22.630  83.219 -21.977  1.00  0.00     0.000 C 
BRANCH  11  12
ATOM     12  C   UNL     1     -21.892  82.088 -21.244  1.00  0.00     0.006 C 
BRANCH  12  13
ATOM     13  C   UNL     1     -22.256  80.698 -21.783  1.00  0.00     0.053 C 
BRANCH  13  14
ATOM     14  C   UNL     1     -21.297  80.283 -22.855  1.00  0.00     0.041 C 
ATOM     15  O   UNL     1     -20.552  81.138 -23.403  1.00  0.00    -0.550 OA
ATOM     16  O   UNL     1     -21.260  78.962 -23.281  1.00  0.00    -0.550 OA
ENDBRANCH  13  14
ENDBRANCH  12  13
ENDBRANCH  11  12
ENDBRANCH  10  11
ENDBRANCH   9  10
ENDBRANCH   8   9
ENDBRANCH   7   8
ENDBRANCH   6   7
ENDBRANCH   5   6
ENDBRANCH   4   5
ENDBRANCH   3   4
ENDBRANCH   2   3
ENDBRANCH   1   2
BRANCH   1  17
ATOM     17  C   UNL     1     -22.858  90.483 -29.960  1.00  0.00     0.000 C 
BRANCH  17  18
ATOM     18  C   UNL     1     -23.018  90.902 -31.426  1.00  0.00     0.000 C 
BRANCH  18  19
ATOM     19  C   UNL     1     -23.113  92.430 -31.551  1.00  0.00     0.000 C 
BRANCH  19  20
ATOM     20  C   UNL     1     -24.418  92.893 -32.218  1.00  0.00     0.000 C 
BRANCH  20  21
ATOM     21  C   UNL     1     -24.641  94.410 -32.090  1.00  0.00     0.000 C 
BRANCH  21  22
ATOM     22  C   UNL     1     -23.956  95.000 -30.846  1.00  0.00    -0.000 C 
BRANCH  22  23
ATOM     23  C   UNL     1     -24.968  95.437 -29.772  1.00  0.00    -0.000 C 
BRANCH  23  24
ATOM     24  C   UNL     1     -24.602  94.934 -28.363  1.00  0.00    -0.000 C 
BRANCH  24  25
ATOM     25  C   UNL     1     -24.382  93.414 -28.250  1.00  0.00    -0.000 C 
BRANCH  25  26
ATOM     26  C   UNL     1     -25.677  92.606 -28.421  1.00  0.00    -0.000 C 
BRANCH  26  27
ATOM     27  C   UNL     1     -26.503  92.612 -27.125  1.00  0.00    -0.000 C 
BRANCH  27  28
ATOM     28  C   UNL     1     -26.896  91.198 -26.659  1.00  0.00    -0.000 C 
BRANCH  28  29
ATOM     29  C   UNL     1     -27.186  90.201 -27.796  1.00  0.00    -0.003 C 
ATOM     30  C   UNL     1     -27.258  88.752 -27.316  1.00  0.00     0.004 C 
ENDBRANCH  28  29
ENDBRANCH  27  28
ENDBRANCH  26  27
ENDBRANCH  25  26
ENDBRANCH  24  25
ENDBRANCH  23  24
ENDBRANCH  22  23
ENDBRANCH  21  22
ENDBRANCH  20  21
ENDBRANCH  19  20
ENDBRANCH  18  19
ENDBRANCH  17  18
ENDBRANCH   1  17
TORSDOF 26
ENDMDL
MODEL 6
REMARK VINA RESULT:    -3.588      4.786      8.952
REMARK INTER + INTRA:         -14.730
REMARK INTER:                 -11.032
REMARK INTRA:                  -3.698
REMARK UNBOUND:                -5.688
REMARK SMILES CCCCCCCCCCCCCCCCCCCCCCCCCCCC(=O)[O-]
REMARK SMILES IDX 15 1 16 2 17 3 18 4 19 5 20 6 21 7 22 8 23 9 24 10 25 11
REMARK SMILES IDX 26 12 27 13 28 14 29 15 30 16 14 17 13 18 12 19 11 20 10 21
REMARK SMILES IDX 9 22 8 23 7 24 6 25 5 26 4 27 3 28 2 29 1 30
REMARK H PARENT
REMARK Flexibility Score: inf
ROOT
ATOM      1  C   UNL     1     -23.060  90.908 -30.496  1.00  0.00     0.000 C 
ENDROOT
BRANCH   1   2
ATOM      2  C   UNL     1     -22.532  90.115 -29.288  1.00  0.00     0.000 C 
BRANCH   2   3
ATOM      3  C   UNL     1     -23.659  89.419 -28.502  1.00  0.00     0.000 C 
BRANCH   3   4
ATOM      4  C   UNL     1     -23.875  90.036 -27.110  1.00  0.00     0.000 C 
BRANCH   4   5
ATOM      5  C   UNL     1     -24.889  89.246 -26.264  1.00  0.00     0.000 C 
BRANCH   5   6
ATOM      6  C   UNL     1     -24.356  88.913 -24.860  1.00  0.00     0.000 C 
BRANCH   6   7
ATOM      7  C   UNL     1     -22.859  89.217 -24.653  1.00  0.00     0.000 C 
BRANCH   7   8
ATOM      8  C   UNL     1     -22.003  87.959 -24.389  1.00  0.00     0.000 C 
BRANCH   8   9
ATOM      9  C   UNL     1     -22.757  86.662 -24.731  1.00  0.00     0.000 C 
BRANCH   9  10
ATOM     10  C   UNL     1     -22.781  85.665 -23.562  1.00  0.00     0.000 C 
BRANCH  10  11
ATOM     11  C   UNL     1     -21.378  85.381 -22.996  1.00  0.00     0.000 C 
BRANCH  11  12
ATOM     12  C   UNL     1     -21.216  83.931 -22.515  1.00  0.00     0.006 C 
BRANCH  12  13
ATOM     13  C   UNL     1     -22.121  82.951 -23.274  1.00  0.00     0.053 C 
BRANCH  13  14
ATOM     14  C   UNL     1     -22.930  82.134 -22.316  1.00  0.00     0.041 C 
ATOM     15  O   UNL     1     -22.453  81.077 -21.826  1.00  0.00    -0.550 OA
ATOM     16  O   UNL     1     -24.227  82.516 -21.999  1.00  0.00    -0.550 OA
ENDBRANCH  13  14
ENDBRANCH  12  13
ENDBRANCH  11  12
ENDBRANCH  10  11
ENDBRANCH   9  10
ENDBRANCH   8   9
ENDBRANCH   7   8
ENDBRANCH   6   7
ENDBRANCH   5   6
ENDBRANCH   4   5
ENDBRANCH   3   4
ENDBRANCH   2   3
ENDBRANCH   1   2
BRANCH   1  17
ATOM     17  C   UNL     1     -24.307  90.267 -31.125  1.00  0.00     0.000 C 
BRANCH  17  18
ATOM     18  C   UNL     1     -24.507  90.751 -32.566  1.00  0.00     0.000 C 
BRANCH  18  19
ATOM     19  C   UNL     1     -23.169  91.177 -33.190  1.00  0.00     0.000 C 
BRANCH  19  20
ATOM     20  C   UNL     1     -23.250  92.536 -33.902  1.00  0.00     0.000 C 
BRANCH  20  21
ATOM     21  C   UNL     1     -22.571  93.663 -33.104  1.00  0.00     0.000 C 
BRANCH  21  22
ATOM     22  C   UNL     1     -23.579  94.701 -32.583  1.00  0.00    -0.000 C 
BRANCH  22  23
ATOM     23  C   UNL     1     -24.165  94.313 -31.214  1.00  0.00    -0.000 C 
BRANCH  23  24
ATOM     24  C   UNL     1     -24.258  95.503 -30.242  1.00  0.00    -0.000 C 
BRANCH  24  25
ATOM     25  C   UNL     1     -24.719  95.147 -28.817  1.00  0.00    -0.000 C 
BRANCH  25  26
ATOM     26  C   UNL     1     -24.358  93.711 -28.410  1.00  0.00    -0.000 C 
BRANCH  26  27
ATOM     27  C   UNL     1     -25.600  92.950 -27.920  1.00  0.00    -0.000 C 
BRANCH  27  28
ATOM     28  C   UNL     1     -26.847  93.223 -28.781  1.00  0.00    -0.000 C 
BRANCH  28  29
ATOM     29  C   UNL     1     -27.168  92.130 -29.817  1.00  0.00    -0.003 C 
ATOM     30  C   UNL     1     -27.411  92.688 -31.218  1.00  0.00     0.004 C 
ENDBRANCH  28  29
ENDBRANCH  27  28
ENDBRANCH  26  27
ENDBRANCH  25  26
ENDBRANCH  24  25
ENDBRANCH  23  24
ENDBRANCH  22  23
ENDBRANCH  21  22
ENDBRANCH  20  21
ENDBRANCH  19  20
ENDBRANCH  18  19
ENDBRANCH  17  18
ENDBRANCH   1  17
TORSDOF 26
ENDMDL
MODEL 7
REMARK VINA RESULT:    -3.583      2.351      4.692
REMARK INTER + INTRA:         -14.718
REMARK INTER:                  -9.527
REMARK INTRA:                  -5.191
REMARK UNBOUND:                -5.688
REMARK SMILES CCCCCCCCCCCCCCCCCCCCCCCCCCCC(=O)[O-]
REMARK SMILES IDX 15 1 16 2 17 3 18 4 19 5 20 6 21 7 22 8 23 9 24 10 25 11
REMARK SMILES IDX 26 12 27 13 28 14 29 15 30 16 14 17 13 18 12 19 11 20 10 21
REMARK SMILES IDX 9 22 8 23 7 24 6 25 5 26 4 27 3 28 2 29 1 30
REMARK H PARENT
REMARK Flexibility Score: inf
ROOT
ATOM      1  C   UNL     1     -24.482  96.651 -29.832  1.00  0.00     0.000 C 
ENDROOT
BRANCH   1   2
ATOM      2  C   UNL     1     -25.008  95.835 -28.640  1.00  0.00     0.000 C 
BRANCH   2   3
ATOM      3  C   UNL     1     -24.439  94.404 -28.608  1.00  0.00     0.000 C 
BRANCH   3   4
ATOM      4  C   UNL     1     -25.326  93.434 -27.811  1.00  0.00     0.000 C 
BRANCH   4   5
ATOM      5  C   UNL     1     -26.319  94.162 -26.887  1.00  0.00     0.000 C 
BRANCH   5   6
ATOM      6  C   UNL     1     -27.775  93.726 -27.122  1.00  0.00     0.000 C 
BRANCH   6   7
ATOM      7  C   UNL     1     -28.032  93.057 -28.486  1.00  0.00     0.000 C 
BRANCH   7   8
ATOM      8  C   UNL     1     -28.515  91.595 -28.376  1.00  0.00     0.000 C 
BRANCH   8   9
ATOM      9  C   UNL     1     -27.925  90.704 -29.483  1.00  0.00     0.000 C 
BRANCH   9  10
ATOM     10  C   UNL     1     -27.079  89.548 -28.926  1.00  0.00     0.000 C 
BRANCH  10  11
ATOM     11  C   UNL     1     -26.936  89.602 -27.395  1.00  0.00     0.000 C 
BRANCH  11  12
ATOM     12  C   UNL     1     -26.754  88.211 -26.767  1.00  0.00     0.006 C 
BRANCH  12  13
ATOM     13  C   UNL     1     -25.923  88.248 -25.478  1.00  0.00     0.053 C 
BRANCH  13  14
ATOM     14  C   UNL     1     -26.810  88.128 -24.278  1.00  0.00     0.041 C 
ATOM     15  O   UNL     1     -26.730  87.119 -23.530  1.00  0.00    -0.550 OA
ATOM     16  O   UNL     1     -27.757  89.109 -24.013  1.00  0.00    -0.550 OA
ENDBRANCH  13  14
ENDBRANCH  12  13
ENDBRANCH  11  12
ENDBRANCH  10  11
ENDBRANCH   9  10
ENDBRANCH   8   9
ENDBRANCH   7   8
ENDBRANCH   6   7
ENDBRANCH   5   6
ENDBRANCH   4   5
ENDBRANCH   3   4
ENDBRANCH   2   3
ENDBRANCH   1   2
BRANCH   1  17
ATOM     17  C   UNL     1     -23.643  95.806 -30.803  1.00  0.00     0.000 C 
BRANCH  17  18
ATOM     18  C   UNL     1     -23.298  96.601 -32.068  1.00  0.00     0.000 C 
BRANCH  18  19
ATOM     19  C   UNL     1     -24.530  96.747 -32.975  1.00  0.00     0.000 C 
BRANCH  19  20
ATOM     20  C   UNL     1     -24.964  95.415 -33.608  1.00  0.00     0.000 C 
BRANCH  20  21
ATOM     21  C   UNL     1     -26.444  95.091 -33.344  1.00  0.00     0.000 C 
BRANCH  21  22
ATOM     22  C   UNL     1     -26.650  94.323 -32.028  1.00  0.00    -0.000 C 
BRANCH  22  23
ATOM     23  C   UNL     1     -26.447  92.807 -32.196  1.00  0.00    -0.000 C 
BRANCH  23  24
ATOM     24  C   UNL     1     -25.295  92.258 -31.333  1.00  0.00    -0.000 C 
BRANCH  24  25
ATOM     25  C   UNL     1     -23.897  92.361 -31.971  1.00  0.00    -0.000 C 
BRANCH  25  26
ATOM     26  C   UNL     1     -22.890  91.368 -31.372  1.00  0.00    -0.000 C 
BRANCH  26  27
ATOM     27  C   UNL     1     -23.198  91.097 -29.892  1.00  0.00    -0.000 C 
BRANCH  27  28
ATOM     28  C   UNL     1     -23.440  89.606 -29.593  1.00  0.00    -0.000 C 
BRANCH  28  29
ATOM     29  C   UNL     1     -23.386  89.230 -28.101  1.00  0.00    -0.003 C 
ATOM     30  C   UNL     1     -23.275  90.444 -27.182  1.00  0.00     0.004 C 
ENDBRANCH  28  29
ENDBRANCH  27  28
ENDBRANCH  26  27
ENDBRANCH  25  26
ENDBRANCH  24  25
ENDBRANCH  23  24
ENDBRANCH  22  23
ENDBRANCH  21  22
ENDBRANCH  20  21
ENDBRANCH  19  20
ENDBRANCH  18  19
ENDBRANCH  17  18
ENDBRANCH   1  17
TORSDOF 26
ENDMDL
MODEL 8
REMARK VINA RESULT:    -3.567      3.086      5.778
REMARK INTER + INTRA:         -14.678
REMARK INTER:                  -9.637
REMARK INTRA:                  -5.041
REMARK UNBOUND:                -5.688
REMARK SMILES CCCCCCCCCCCCCCCCCCCCCCCCCCCC(=O)[O-]
REMARK SMILES IDX 15 1 16 2 17 3 18 4 19 5 20 6 21 7 22 8 23 9 24 10 25 11
REMARK SMILES IDX 26 12 27 13 28 14 29 15 30 16 14 17 13 18 12 19 11 20 10 21
REMARK SMILES IDX 9 22 8 23 7 24 6 25 5 26 4 27 3 28 2 29 1 30
REMARK H PARENT
REMARK Flexibility Score: inf
ROOT
ATOM      1  C   UNL     1     -24.615  94.730 -28.493  1.00  0.00     0.000 C 
ENDROOT
BRANCH   1   2
ATOM      2  C   UNL     1     -26.045  94.165 -28.444  1.00  0.00     0.000 C 
BRANCH   2   3
ATOM      3  C   UNL     1     -26.613  94.123 -27.013  1.00  0.00     0.000 C 
BRANCH   3   4
ATOM      4  C   UNL     1     -28.106  93.756 -26.981  1.00  0.00     0.000 C 
BRANCH   4   5
ATOM      5  C   UNL     1     -28.548  92.967 -28.227  1.00  0.00     0.000 C 
BRANCH   5   6
ATOM      6  C   UNL     1     -28.774  91.475 -27.932  1.00  0.00     0.000 C 
BRANCH   6   7
ATOM      7  C   UNL     1     -27.998  90.514 -28.854  1.00  0.00     0.000 C 
BRANCH   7   8
ATOM      8  C   UNL     1     -26.627  90.086 -28.287  1.00  0.00     0.000 C 
BRANCH   8   9
ATOM      9  C   UNL     1     -26.568  90.210 -26.755  1.00  0.00     0.000 C 
BRANCH   9  10
ATOM     10  C   UNL     1     -26.060  88.929 -26.075  1.00  0.00     0.000 C 
BRANCH  10  11
ATOM     11  C   UNL     1     -25.400  89.201 -24.712  1.00  0.00     0.000 C 
BRANCH  11  12
ATOM     12  C   UNL     1     -23.869  89.085 -24.761  1.00  0.00     0.006 C 
BRANCH  12  13
ATOM     13  C   UNL     1     -23.396  87.788 -25.431  1.00  0.00     0.053 C 
BRANCH  13  14
ATOM     14  C   UNL     1     -23.055  86.759 -24.400  1.00  0.00     0.041 C 
ATOM     15  O   UNL     1     -23.862  85.827 -24.145  1.00  0.00    -0.550 OA
ATOM     16  O   UNL     1     -21.866  86.855 -23.688  1.00  0.00    -0.550 OA
ENDBRANCH  13  14
ENDBRANCH  12  13
ENDBRANCH  11  12
ENDBRANCH  10  11
ENDBRANCH   9  10
ENDBRANCH   8   9
ENDBRANCH   7   8
ENDBRANCH   6   7
ENDBRANCH   5   6
ENDBRANCH   4   5
ENDBRANCH   3   4
ENDBRANCH   2   3
ENDBRANCH   1   2
BRANCH   1  17
ATOM     17  C   UNL     1     -24.584  96.232 -28.815  1.00  0.00     0.000 C 
BRANCH  17  18
ATOM     18  C   UNL     1     -24.402  96.469 -30.319  1.00  0.00     0.000 C 
BRANCH  18  19
ATOM     19  C   UNL     1     -23.552  95.355 -30.949  1.00  0.00     0.000 C 
BRANCH  19  20
ATOM     20  C   UNL     1     -23.719  95.269 -32.475  1.00  0.00     0.000 C 
BRANCH  20  21
ATOM     21  C   UNL     1     -25.156  95.577 -32.930  1.00  0.00     0.000 C 
BRANCH  21  22
ATOM     22  C   UNL     1     -25.954  94.302 -33.250  1.00  0.00    -0.000 C 
BRANCH  22  23
ATOM     23  C   UNL     1     -26.631  93.707 -32.003  1.00  0.00    -0.000 C 
BRANCH  23  24
ATOM     24  C   UNL     1     -25.945  92.422 -31.504  1.00  0.00    -0.000 C 
BRANCH  24  25
ATOM     25  C   UNL     1     -25.095  91.686 -32.556  1.00  0.00    -0.000 C 
BRANCH  25  26
ATOM     26  C   UNL     1     -23.607  91.612 -32.181  1.00  0.00    -0.000 C 
BRANCH  26  27
ATOM     27  C   UNL     1     -23.424  91.617 -30.656  1.00  0.00    -0.000 C 
BRANCH  27  28
ATOM     28  C   UNL     1     -23.399  90.201 -30.051  1.00  0.00    -0.000 C 
BRANCH  28  29
ATOM     29  C   UNL     1     -22.875  90.126 -28.605  1.00  0.00    -0.003 C 
ATOM     30  C   UNL     1     -23.274  91.335 -27.761  1.00  0.00     0.004 C 
ENDBRANCH  28  29
ENDBRANCH  27  28
ENDBRANCH  26  27
ENDBRANCH  25  26
ENDBRANCH  24  25
ENDBRANCH  23  24
ENDBRANCH  22  23
ENDBRANCH  21  22
ENDBRANCH  20  21
ENDBRANCH  19  20
ENDBRANCH  18  19
ENDBRANCH  17  18
ENDBRANCH   1  17
TORSDOF 26
ENDMDL
MODEL 9
REMARK VINA RESULT:    -3.557      2.547      5.693
REMARK INTER + INTRA:         -14.651
REMARK INTER:                 -10.072
REMARK INTRA:                  -4.580
REMARK UNBOUND:                -5.688
REMARK SMILES CCCCCCCCCCCCCCCCCCCCCCCCCCCC(=O)[O-]
REMARK SMILES IDX 15 1 16 2 17 3 18 4 19 5 20 6 21 7 22 8 23 9 24 10 25 11
REMARK SMILES IDX 26 12 27 13 28 14 29 15 30 16 14 17 13 18 12 19 11 20 10 21
REMARK SMILES IDX 9 22 8 23 7 24 6 25 5 26 4 27 3 28 2 29 1 30
REMARK H PARENT
REMARK Flexibility Score: inf
ROOT
ATOM      1  C   UNL     1     -24.363  96.387 -29.755  1.00  0.00     0.000 C 
ENDROOT
BRANCH   1   2
ATOM      2  C   UNL     1     -25.142  96.353 -28.429  1.00  0.00     0.000 C 
BRANCH   2   3
ATOM      3  C   UNL     1     -25.317  94.923 -27.885  1.00  0.00     0.000 C 
BRANCH   3   4
ATOM      4  C   UNL     1     -26.299  94.858 -26.704  1.00  0.00     0.000 C 
BRANCH   4   5
ATOM      5  C   UNL     1     -27.504  93.943 -26.985  1.00  0.00     0.000 C 
BRANCH   5   6
ATOM      6  C   UNL     1     -27.238  92.949 -28.128  1.00  0.00     0.000 C 
BRANCH   6   7
ATOM      7  C   UNL     1     -26.413  91.712 -27.723  1.00  0.00     0.000 C 
BRANCH   7   8
ATOM      8  C   UNL     1     -25.184  91.466 -28.625  1.00  0.00     0.000 C 
BRANCH   8   9
ATOM      9  C   UNL     1     -23.958  90.998 -27.821  1.00  0.00     0.000 C 
BRANCH   9  10
ATOM     10  C   UNL     1     -23.379  89.674 -28.342  1.00  0.00     0.000 C 
BRANCH  10  11
ATOM     11  C   UNL     1     -24.449  88.580 -28.502  1.00  0.00     0.000 C 
BRANCH  11  12
ATOM     12  C   UNL     1     -24.619  87.727 -27.235  1.00  0.00     0.006 C 
BRANCH  12  13
ATOM     13  C   UNL     1     -23.305  87.546 -26.463  1.00  0.00     0.053 C 
BRANCH  13  14
ATOM     14  C   UNL     1     -23.493  87.897 -25.020  1.00  0.00     0.041 C 
ATOM     15  O   UNL     1     -23.582  86.988 -24.154  1.00  0.00    -0.550 OA
ATOM     16  O   UNL     1     -23.614  89.227 -24.638  1.00  0.00    -0.550 OA
ENDBRANCH  13  14
ENDBRANCH  12  13
ENDBRANCH  11  12
ENDBRANCH  10  11
ENDBRANCH   9  10
ENDBRANCH   8   9
ENDBRANCH   7   8
ENDBRANCH   6   7
ENDBRANCH   5   6
ENDBRANCH   4   5
ENDBRANCH   3   4
ENDBRANCH   2   3
ENDBRANCH   1   2
BRANCH   1  17
ATOM     17  C   UNL     1     -24.348  95.025 -30.467  1.00  0.00     0.000 C 
BRANCH  17  18
ATOM     18  C   UNL     1     -23.591  95.108 -31.797  1.00  0.00     0.000 C 
BRANCH  18  19
ATOM     19  C   UNL     1     -23.118  93.716 -32.245  1.00  0.00     0.000 C 
BRANCH  19  20
ATOM     20  C   UNL     1     -23.322  92.642 -31.164  1.00  0.00     0.000 C 
BRANCH  20  21
ATOM     21  C   UNL     1     -22.796  91.262 -31.595  1.00  0.00     0.000 C 
BRANCH  21  22
ATOM     22  C   UNL     1     -22.593  91.162 -33.116  1.00  0.00    -0.000 C 
BRANCH  22  23
ATOM     23  C   UNL     1     -23.492  90.090 -33.757  1.00  0.00    -0.000 C 
BRANCH  23  24
ATOM     24  C   UNL     1     -24.927  90.585 -34.014  1.00  0.00    -0.000 C 
BRANCH  24  25
ATOM     25  C   UNL     1     -26.027  89.816 -33.260  1.00  0.00    -0.000 C 
BRANCH  25  26
ATOM     26  C   UNL     1     -26.312  90.390 -31.864  1.00  0.00    -0.000 C 
BRANCH  26  27
ATOM     27  C   UNL     1     -27.452  91.419 -31.915  1.00  0.00    -0.000 C 
BRANCH  27  28
ATOM     28  C   UNL     1     -26.955  92.870 -31.792  1.00  0.00    -0.000 C 
BRANCH  28  29
ATOM     29  C   UNL     1     -26.724  93.590 -33.133  1.00  0.00    -0.003 C 
ATOM     30  C   UNL     1     -27.618  94.814 -33.317  1.00  0.00     0.004 C 
ENDBRANCH  28  29
ENDBRANCH  27  28
ENDBRANCH  26  27
ENDBRANCH  25  26
ENDBRANCH  24  25
ENDBRANCH  23  24
ENDBRANCH  22  23
ENDBRANCH  21  22
ENDBRANCH  20  21
ENDBRANCH  19  20
ENDBRANCH  18  19
ENDBRANCH  17  18
ENDBRANCH   1  17
TORSDOF 26
ENDMDL
