MODEL 1
REMARK VINA RESULT:    -4.580      0.000      0.000
REMARK INTER + INTRA:         -13.034
REMARK INTER:                 -10.470
REMARK INTRA:                  -2.564
REMARK UNBOUND:                -2.564
REMARK SMILES CCCCCCCCCCCCCCCCCCCCCCCC(=O)[O-]
REMARK SMILES IDX 13 1 14 2 15 3 16 4 17 5 18 6 19 7 20 8 21 9 22 10 23 11
REMARK SMILES IDX 24 12 25 13 26 14 12 15 11 16 10 17 9 18 8 19 7 20 6 21 5 22
REMARK SMILES IDX 4 23 3 24 2 25 1 26
REMARK H PARENT
REMARK Flexibility Score: inf
ROOT
ATOM      1  C   UNL     1       5.306  60.530  56.974  1.00  0.00     0.000 C 
ENDROOT
BRANCH   1   2
ATOM      2  C   UNL     1       4.846  60.938  58.382  1.00  0.00     0.000 C 
BRANCH   2   3
ATOM      3  C   UNL     1       5.633  60.179  59.459  1.00  0.00     0.000 C 
BRANCH   3   4
ATOM      4  C   UNL     1       6.492  61.104  60.341  1.00  0.00     0.000 C 
BRANCH   4   5
ATOM      5  C   UNL     1       7.339  62.136  59.573  1.00  0.00     0.000 C 
BRANCH   5   6
ATOM      6  C   UNL     1       8.801  62.183  60.042  1.00  0.00     0.000 C 
BRANCH   6   7
ATOM      7  C   UNL     1       9.710  62.758  58.950  1.00  0.00     0.000 C 
BRANCH   7   8
ATOM      8  C   UNL     1       9.042  63.943  58.241  1.00  0.00     0.000 C 
BRANCH   8   9
ATOM      9  C   UNL     1      10.087  64.816  57.528  1.00  0.00     0.000 C 
BRANCH   9  10
ATOM     10  C   UNL     1      10.512  64.242  56.167  1.00  0.00     0.006 C 
BRANCH  10  11
ATOM     11  C   UNL     1      10.943  65.331  55.177  1.00  0.00     0.053 C 
BRANCH  11  12
ATOM     12  C   UNL     1      11.329  64.722  53.866  1.00  0.00     0.041 C 
ATOM     13  O   UNL     1      11.691  63.519  53.808  1.00  0.00    -0.550 OA
ATOM     14  O   UNL     1      11.328  65.495  52.713  1.00  0.00    -0.550 OA
ENDBRANCH  11  12
ENDBRANCH  10  11
ENDBRANCH   9  10
ENDBRANCH   8   9
ENDBRANCH   7   8
ENDBRANCH   6   7
ENDBRANCH   5   6
ENDBRANCH   4   5
ENDBRANCH   3   4
ENDBRANCH   2   3
ENDBRANCH   1   2
BRANCH   1  15
ATOM     15  C   UNL     1       6.158  59.251  56.980  1.00  0.00     0.000 C 
BRANCH  15  16
ATOM     16  C   UNL     1       7.504  59.432  56.261  1.00  0.00     0.000 C 
BRANCH  16  17
ATOM     17  C   UNL     1       7.940  60.902  56.280  1.00  0.00     0.000 C 
BRANCH  17  18
ATOM     18  C   UNL     1       8.838  61.232  55.078  1.00  0.00    -0.000 C 
BRANCH  18  19
ATOM     19  C   UNL     1       8.096  61.100  53.739  1.00  0.00    -0.000 C 
BRANCH  19  20
ATOM     20  C   UNL     1       8.897  61.688  52.566  1.00  0.00    -0.000 C 
BRANCH  20  21
ATOM     21  C   UNL     1       8.000  62.202  51.428  1.00  0.00    -0.000 C 
BRANCH  21  22
ATOM     22  C   UNL     1       6.485  62.130  51.706  1.00  0.00    -0.000 C 
BRANCH  22  23
ATOM     23  C   UNL     1       5.586  62.807  50.654  1.00  0.00    -0.000 C 
BRANCH  23  24
ATOM     24  C   UNL     1       5.716  62.253  49.221  1.00  0.00    -0.000 C 
BRANCH  24  25
ATOM     25  C   UNL     1       5.685  63.333  48.121  1.00  0.00    -0.003 C 
ATOM     26  C   UNL     1       6.005  64.733  48.646  1.00  0.00     0.004 C 
ENDBRANCH  24  25
ENDBRANCH  23  24
ENDBRANCH  22  23
ENDBRANCH  21  22
ENDBRANCH  20  21
ENDBRANCH  19  20
ENDBRANCH  18  19
ENDBRANCH  17  18
ENDBRANCH  16  17
ENDBRANCH  15  16
ENDBRANCH   1  15
TORSDOF 22
ENDMDL
MODEL 2
REMARK VINA RESULT:    -4.532      1.357      2.485
REMARK INTER + INTRA:         -12.925
REMARK INTER:                 -10.141
REMARK INTRA:                  -2.783
REMARK UNBOUND:                -2.564
REMARK SMILES CCCCCCCCCCCCCCCCCCCCCCCC(=O)[O-]
REMARK SMILES IDX 13 1 14 2 15 3 16 4 17 5 18 6 19 7 20 8 21 9 22 10 23 11
REMARK SMILES IDX 24 12 25 13 26 14 12 15 11 16 10 17 9 18 8 19 7 20 6 21 5 22
REMARK SMILES IDX 4 23 3 24 2 25 1 26
REMARK H PARENT
REMARK Flexibility Score: inf
ROOT
ATOM      1  C   UNL     1       7.915  59.500  56.562  1.00  0.00     0.000 C 
ENDROOT
BRANCH   1   2
ATOM      2  C   UNL     1       6.622  58.883  57.116  1.00  0.00     0.000 C 
BRANCH   2   3
ATOM      3  C   UNL     1       5.488  59.917  57.147  1.00  0.00     0.000 C 
BRANCH   3   4
ATOM      4  C   UNL     1       5.903  61.244  57.808  1.00  0.00     0.000 C 
BRANCH   4   5
ATOM      5  C   UNL     1       6.100  61.180  59.334  1.00  0.00     0.000 C 
BRANCH   5   6
ATOM      6  C   UNL     1       7.367  61.908  59.808  1.00  0.00     0.000 C 
BRANCH   6   7
ATOM      7  C   UNL     1       8.233  62.337  58.617  1.00  0.00     0.000 C 
BRANCH   7   8
ATOM      8  C   UNL     1       9.379  63.252  59.066  1.00  0.00     0.000 C 
BRANCH   8   9
ATOM      9  C   UNL     1      10.632  63.023  58.208  1.00  0.00     0.000 C 
BRANCH   9  10
ATOM     10  C   UNL     1      10.733  64.004  57.029  1.00  0.00     0.006 C 
BRANCH  10  11
ATOM     11  C   UNL     1      10.574  63.311  55.670  1.00  0.00     0.053 C 
BRANCH  11  12
ATOM     12  C   UNL     1      10.977  64.234  54.563  1.00  0.00     0.041 C 
ATOM     13  O   UNL     1      11.119  63.797  53.393  1.00  0.00    -0.550 OA
ATOM     14  O   UNL     1      11.235  65.572  54.834  1.00  0.00    -0.550 OA
ENDBRANCH  11  12
ENDBRANCH  10  11
ENDBRANCH   9  10
ENDBRANCH   8   9
ENDBRANCH   7   8
ENDBRANCH   6   7
ENDBRANCH   5   6
ENDBRANCH   4   5
ENDBRANCH   3   4
ENDBRANCH   2   3
ENDBRANCH   1   2
BRANCH   1  15
ATOM     15  C   UNL     1       7.918  59.584  55.028  1.00  0.00     0.000 C 
BRANCH  15  16
ATOM     16  C   UNL     1       7.927  61.033  54.514  1.00  0.00     0.000 C 
BRANCH  16  17
ATOM     17  C   UNL     1       8.679  61.135  53.182  1.00  0.00     0.000 C 
BRANCH  17  18
ATOM     18  C   UNL     1       8.008  62.146  52.240  1.00  0.00    -0.000 C 
BRANCH  18  19
ATOM     19  C   UNL     1       6.603  61.701  51.807  1.00  0.00    -0.000 C 
BRANCH  19  20
ATOM     20  C   UNL     1       5.643  62.888  51.626  1.00  0.00    -0.000 C 
BRANCH  20  21
ATOM     21  C   UNL     1       5.374  63.219  50.148  1.00  0.00    -0.000 C 
BRANCH  21  22
ATOM     22  C   UNL     1       6.036  62.264  49.134  1.00  0.00    -0.000 C 
BRANCH  22  23
ATOM     23  C   UNL     1       7.067  62.913  48.191  1.00  0.00    -0.000 C 
BRANCH  23  24
ATOM     24  C   UNL     1       8.533  62.508  48.437  1.00  0.00    -0.000 C 
BRANCH  24  25
ATOM     25  C   UNL     1       9.359  63.557  49.209  1.00  0.00    -0.003 C 
ATOM     26  C   UNL     1       8.729  64.951  49.185  1.00  0.00     0.004 C 
ENDBRANCH  24  25
ENDBRANCH  23  24
ENDBRANCH  22  23
ENDBRANCH  21  22
ENDBRANCH  20  21
ENDBRANCH  19  20
ENDBRANCH  18  19
ENDBRANCH  17  18
ENDBRANCH  16  17
ENDBRANCH  15  16
ENDBRANCH   1  15
TORSDOF 22
ENDMDL
MODEL 3
REMARK VINA RESULT:    -4.523     11.818     13.874
REMARK INTER + INTRA:         -12.904
REMARK INTER:                  -9.326
REMARK INTRA:                  -3.579
REMARK UNBOUND:                -2.564
REMARK SMILES CCCCCCCCCCCCCCCCCCCCCCCC(=O)[O-]
REMARK SMILES IDX 13 1 14 2 15 3 16 4 17 5 18 6 19 7 20 8 21 9 22 10 23 11
REMARK SMILES IDX 24 12 25 13 26 14 12 15 11 16 10 17 9 18 8 19 7 20 6 21 5 22
REMARK SMILES IDX 4 23 3 24 2 25 1 26
REMARK H PARENT
REMARK Flexibility Score: inf
ROOT
ATOM      1  C   UNL     1      -2.181  59.035  48.682  1.00  0.00     0.000 C 
ENDROOT
BRANCH   1   2
ATOM      2  C   UNL     1      -3.585  59.656  48.757  1.00  0.00     0.000 C 
BRANCH   2   3
ATOM      3  C   UNL     1      -4.026  60.184  47.384  1.00  0.00     0.000 C 
BRANCH   3   4
ATOM      4  C   UNL     1      -2.890  60.883  46.616  1.00  0.00     0.000 C 
BRANCH   4   5
ATOM      5  C   UNL     1      -3.224  61.265  45.162  1.00  0.00     0.000 C 
BRANCH   5   6
ATOM      6  C   UNL     1      -4.090  62.529  45.056  1.00  0.00     0.000 C 
BRANCH   6   7
ATOM      7  C   UNL     1      -3.250  63.792  45.281  1.00  0.00     0.000 C 
BRANCH   7   8
ATOM      8  C   UNL     1      -3.954  64.762  46.237  1.00  0.00     0.000 C 
BRANCH   8   9
ATOM      9  C   UNL     1      -3.009  65.898  46.659  1.00  0.00     0.000 C 
BRANCH   9  10
ATOM     10  C   UNL     1      -1.543  65.447  46.755  1.00  0.00     0.006 C 
BRANCH  10  11
ATOM     11  C   UNL     1      -0.597  66.592  47.141  1.00  0.00     0.053 C 
BRANCH  11  12
ATOM     12  C   UNL     1      -0.265  66.526  48.598  1.00  0.00     0.041 C 
ATOM     13  O   UNL     1      -0.853  67.277  49.417  1.00  0.00    -0.550 OA
ATOM     14  O   UNL     1       0.724  65.661  49.046  1.00  0.00    -0.550 OA
ENDBRANCH  11  12
ENDBRANCH  10  11
ENDBRANCH   9  10
ENDBRANCH   8   9
ENDBRANCH   7   8
ENDBRANCH   6   7
ENDBRANCH   5   6
ENDBRANCH   4   5
ENDBRANCH   3   4
ENDBRANCH   2   3
ENDBRANCH   1   2
BRANCH   1  15
ATOM     15  C   UNL     1      -2.138  57.606  49.244  1.00  0.00     0.000 C 
BRANCH  15  16
ATOM     16  C   UNL     1      -2.982  56.620  48.420  1.00  0.00     0.000 C 
BRANCH  16  17
ATOM     17  C   UNL     1      -2.394  56.437  47.016  1.00  0.00     0.000 C 
BRANCH  17  18
ATOM     18  C   UNL     1      -3.353  56.965  45.938  1.00  0.00    -0.000 C 
BRANCH  18  19
ATOM     19  C   UNL     1      -2.624  57.758  44.843  1.00  0.00    -0.000 C 
BRANCH  19  20
ATOM     20  C   UNL     1      -1.111  57.850  45.097  1.00  0.00    -0.000 C 
BRANCH  20  21
ATOM     21  C   UNL     1      -0.288  57.903  43.798  1.00  0.00    -0.000 C 
BRANCH  21  22
ATOM     22  C   UNL     1       0.834  58.962  43.779  1.00  0.00    -0.000 C 
BRANCH  22  23
ATOM     23  C   UNL     1       0.372  60.417  43.985  1.00  0.00    -0.000 C 
BRANCH  23  24
ATOM     24  C   UNL     1       0.768  61.050  45.334  1.00  0.00    -0.000 C 
BRANCH  24  25
ATOM     25  C   UNL     1       0.304  62.510  45.508  1.00  0.00    -0.003 C 
ATOM     26  C   UNL     1       0.319  63.303  44.201  1.00  0.00     0.004 C 
ENDBRANCH  24  25
ENDBRANCH  23  24
ENDBRANCH  22  23
ENDBRANCH  21  22
ENDBRANCH  20  21
ENDBRANCH  19  20
ENDBRANCH  18  19
ENDBRANCH  17  18
ENDBRANCH  16  17
ENDBRANCH  15  16
ENDBRANCH   1  15
TORSDOF 22
ENDMDL
MODEL 4
REMARK VINA RESULT:    -4.517      1.674      2.067
REMARK INTER + INTRA:         -12.891
REMARK INTER:                 -10.553
REMARK INTRA:                  -2.338
REMARK UNBOUND:                -2.564
REMARK SMILES CCCCCCCCCCCCCCCCCCCCCCCC(=O)[O-]
REMARK SMILES IDX 13 1 14 2 15 3 16 4 17 5 18 6 19 7 20 8 21 9 22 10 23 11
REMARK SMILES IDX 24 12 25 13 26 14 12 15 11 16 10 17 9 18 8 19 7 20 6 21 5 22
REMARK SMILES IDX 4 23 3 24 2 25 1 26
REMARK H PARENT
REMARK Flexibility Score: inf
ROOT
ATOM      1  C   UNL     1       5.729  60.314  56.726  1.00  0.00     0.000 C 
ENDROOT
BRANCH   1   2
ATOM      2  C   UNL     1       5.567  61.342  57.856  1.00  0.00     0.000 C 
BRANCH   2   3
ATOM      3  C   UNL     1       6.239  60.851  59.146  1.00  0.00     0.000 C 
BRANCH   3   4
ATOM      4  C   UNL     1       7.229  61.872  59.735  1.00  0.00     0.000 C 
BRANCH   4   5
ATOM      5  C   UNL     1       8.118  62.589  58.702  1.00  0.00     0.000 C 
BRANCH   5   6
ATOM      6  C   UNL     1       9.619  62.362  58.939  1.00  0.00     0.000 C 
BRANCH   6   7
ATOM      7  C   UNL     1      10.458  63.379  58.158  1.00  0.00     0.000 C 
BRANCH   7   8
ATOM      8  C   UNL     1       9.746  64.735  58.072  1.00  0.00     0.000 C 
BRANCH   8   9
ATOM      9  C   UNL     1       9.909  65.354  56.676  1.00  0.00     0.000 C 
BRANCH   9  10
ATOM     10  C   UNL     1      11.379  65.446  56.235  1.00  0.00     0.006 C 
BRANCH  10  11
ATOM     11  C   UNL     1      11.528  65.677  54.726  1.00  0.00     0.053 C 
BRANCH  11  12
ATOM     12  C   UNL     1      11.113  64.456  53.967  1.00  0.00     0.041 C 
ATOM     13  O   UNL     1      11.123  63.329  54.525  1.00  0.00    -0.550 OA
ATOM     14  O   UNL     1      10.753  64.558  52.630  1.00  0.00    -0.550 OA
ENDBRANCH  11  12
ENDBRANCH  10  11
ENDBRANCH   9  10
ENDBRANCH   8   9
ENDBRANCH   7   8
ENDBRANCH   6   7
ENDBRANCH   5   6
ENDBRANCH   4   5
ENDBRANCH   3   4
ENDBRANCH   2   3
ENDBRANCH   1   2
BRANCH   1  15
ATOM     15  C   UNL     1       7.026  59.500  56.850  1.00  0.00     0.000 C 
BRANCH  15  16
ATOM     16  C   UNL     1       7.877  59.541  55.571  1.00  0.00     0.000 C 
BRANCH  16  17
ATOM     17  C   UNL     1       8.189  60.988  55.169  1.00  0.00     0.000 C 
BRANCH  17  18
ATOM     18  C   UNL     1       8.262  61.137  53.642  1.00  0.00    -0.000 C 
BRANCH  18  19
ATOM     19  C   UNL     1       6.899  61.478  53.020  1.00  0.00    -0.000 C 
BRANCH  19  20
ATOM     20  C   UNL     1       7.027  61.985  51.574  1.00  0.00    -0.000 C 
BRANCH  20  21
ATOM     21  C   UNL     1       8.484  62.255  51.161  1.00  0.00    -0.000 C 
BRANCH  21  22
ATOM     22  C   UNL     1       8.908  61.629  49.816  1.00  0.00    -0.000 C 
BRANCH  22  23
ATOM     23  C   UNL     1       9.369  62.629  48.740  1.00  0.00    -0.000 C 
BRANCH  23  24
ATOM     24  C   UNL     1       8.930  64.089  48.962  1.00  0.00    -0.000 C 
BRANCH  24  25
ATOM     25  C   UNL     1      10.096  65.089  49.088  1.00  0.00    -0.003 C 
ATOM     26  C   UNL     1       9.725  66.347  49.875  1.00  0.00     0.004 C 
ENDBRANCH  24  25
ENDBRANCH  23  24
ENDBRANCH  22  23
ENDBRANCH  21  22
ENDBRANCH  20  21
ENDBRANCH  19  20
ENDBRANCH  18  19
ENDBRANCH  17  18
ENDBRANCH  16  17
ENDBRANCH  15  16
ENDBRANCH   1  15
TORSDOF 22
ENDMDL
MODEL 5
REMARK VINA RESULT:    -4.495      1.789      7.139
REMARK INTER + INTRA:         -12.841
REMARK INTER:                 -10.214
REMARK INTRA:                  -2.627
REMARK UNBOUND:                -2.564
REMARK SMILES CCCCCCCCCCCCCCCCCCCCCCCC(=O)[O-]
REMARK SMILES IDX 13 1 14 2 15 3 16 4 17 5 18 6 19 7 20 8 21 9 22 10 23 11
REMARK SMILES IDX 24 12 25 13 26 14 12 15 11 16 10 17 9 18 8 19 7 20 6 21 5 22
REMARK SMILES IDX 4 23 3 24 2 25 1 26
REMARK H PARENT
REMARK Flexibility Score: inf
ROOT
ATOM      1  C   UNL     1       7.419  59.341  56.834  1.00  0.00     0.000 C 
ENDROOT
BRANCH   1   2
ATOM      2  C   UNL     1       7.911  60.574  56.061  1.00  0.00     0.000 C 
BRANCH   2   3
ATOM      3  C   UNL     1       8.264  60.210  54.612  1.00  0.00     0.000 C 
BRANCH   3   4
ATOM      4  C   UNL     1       7.635  61.166  53.582  1.00  0.00     0.000 C 
BRANCH   4   5
ATOM      5  C   UNL     1       8.619  61.761  52.557  1.00  0.00     0.000 C 
BRANCH   5   6
ATOM      6  C   UNL     1       7.968  62.048  51.195  1.00  0.00     0.000 C 
BRANCH   6   7
ATOM      7  C   UNL     1       6.468  62.323  51.350  1.00  0.00     0.000 C 
BRANCH   7   8
ATOM      8  C   UNL     1       5.966  63.283  50.264  1.00  0.00     0.000 C 
BRANCH   8   9
ATOM      9  C   UNL     1       6.022  62.622  48.879  1.00  0.00     0.000 C 
BRANCH   9  10
ATOM     10  C   UNL     1       6.881  63.410  47.878  1.00  0.00     0.006 C 
BRANCH  10  11
ATOM     11  C   UNL     1       8.218  62.720  47.576  1.00  0.00     0.053 C 
BRANCH  11  12
ATOM     12  C   UNL     1       9.356  63.532  48.108  1.00  0.00     0.041 C 
ATOM     13  O   UNL     1      10.542  63.222  47.827  1.00  0.00    -0.550 OA
ATOM     14  O   UNL     1       9.108  64.609  48.948  1.00  0.00    -0.550 OA
ENDBRANCH  11  12
ENDBRANCH  10  11
ENDBRANCH   9  10
ENDBRANCH   8   9
ENDBRANCH   7   8
ENDBRANCH   6   7
ENDBRANCH   5   6
ENDBRANCH   4   5
ENDBRANCH   3   4
ENDBRANCH   2   3
ENDBRANCH   1   2
BRANCH   1  15
ATOM     15  C   UNL     1       5.964  59.482  57.307  1.00  0.00     0.000 C 
BRANCH  15  16
ATOM     16  C   UNL     1       5.347  60.838  56.929  1.00  0.00     0.000 C 
BRANCH  16  17
ATOM     17  C   UNL     1       4.261  61.243  57.933  1.00  0.00     0.000 C 
BRANCH  17  18
ATOM     18  C   UNL     1       4.820  61.303  59.363  1.00  0.00    -0.000 C 
BRANCH  18  19
ATOM     19  C   UNL     1       5.994  62.286  59.492  1.00  0.00    -0.000 C 
BRANCH  19  20
ATOM     20  C   UNL     1       7.135  61.724  60.355  1.00  0.00    -0.000 C 
BRANCH  20  21
ATOM     21  C   UNL     1       8.528  62.130  59.843  1.00  0.00    -0.000 C 
BRANCH  21  22
ATOM     22  C   UNL     1       8.525  63.075  58.623  1.00  0.00    -0.000 C 
BRANCH  22  23
ATOM     23  C   UNL     1       9.871  63.756  58.313  1.00  0.00    -0.000 C 
BRANCH  23  24
ATOM     24  C   UNL     1       9.812  64.890  57.270  1.00  0.00    -0.000 C 
BRANCH  24  25
ATOM     25  C   UNL     1      10.582  64.594  55.968  1.00  0.00    -0.003 C 
ATOM     26  C   UNL     1      10.495  63.128  55.541  1.00  0.00     0.004 C 
ENDBRANCH  24  25
ENDBRANCH  23  24
ENDBRANCH  22  23
ENDBRANCH  21  22
ENDBRANCH  20  21
ENDBRANCH  19  20
ENDBRANCH  18  19
ENDBRANCH  17  18
ENDBRANCH  16  17
ENDBRANCH  15  16
ENDBRANCH   1  15
TORSDOF 22
ENDMDL
MODEL 6
REMARK VINA RESULT:    -4.495     10.003     13.204
REMARK INTER + INTRA:         -12.839
REMARK INTER:                  -9.997
REMARK INTRA:                  -2.843
REMARK UNBOUND:                -2.564
REMARK SMILES CCCCCCCCCCCCCCCCCCCCCCCC(=O)[O-]
REMARK SMILES IDX 13 1 14 2 15 3 16 4 17 5 18 6 19 7 20 8 21 9 22 10 23 11
REMARK SMILES IDX 24 12 25 13 26 14 12 15 11 16 10 17 9 18 8 19 7 20 6 21 5 22
REMARK SMILES IDX 4 23 3 24 2 25 1 26
REMARK H PARENT
REMARK Flexibility Score: inf
ROOT
ATOM      1  C   UNL     1      -1.087  58.594  45.253  1.00  0.00     0.000 C 
ENDROOT
BRANCH   1   2
ATOM      2  C   UNL     1       0.037  58.528  44.208  1.00  0.00     0.000 C 
BRANCH   2   3
ATOM      3  C   UNL     1       0.845  59.833  44.187  1.00  0.00     0.000 C 
BRANCH   3   4
ATOM      4  C   UNL     1       0.451  60.802  45.317  1.00  0.00     0.000 C 
BRANCH   4   5
ATOM      5  C   UNL     1      -0.106  62.159  44.849  1.00  0.00     0.000 C 
BRANCH   5   6
ATOM      6  C   UNL     1       0.576  63.356  45.528  1.00  0.00     0.000 C 
BRANCH   6   7
ATOM      7  C   UNL     1       2.080  63.108  45.696  1.00  0.00     0.000 C 
BRANCH   7   8
ATOM      8  C   UNL     1       2.729  64.204  46.552  1.00  0.00     0.000 C 
BRANCH   8   9
ATOM      9  C   UNL     1       1.894  64.484  47.810  1.00  0.00     0.000 C 
BRANCH   9  10
ATOM     10  C   UNL     1       1.822  65.981  48.155  1.00  0.00     0.006 C 
BRANCH  10  11
ATOM     11  C   UNL     1       0.688  66.306  49.135  1.00  0.00     0.053 C 
BRANCH  11  12
ATOM     12  C   UNL     1       1.245  66.655  50.480  1.00  0.00     0.041 C 
ATOM     13  O   UNL     1       1.470  65.753  51.326  1.00  0.00    -0.550 OA
ATOM     14  O   UNL     1       1.479  67.983  50.812  1.00  0.00    -0.550 OA
ENDBRANCH  11  12
ENDBRANCH  10  11
ENDBRANCH   9  10
ENDBRANCH   8   9
ENDBRANCH   7   8
ENDBRANCH   6   7
ENDBRANCH   5   6
ENDBRANCH   4   5
ENDBRANCH   3   4
ENDBRANCH   2   3
ENDBRANCH   1   2
BRANCH   1  15
ATOM     15  C   UNL     1      -2.412  58.015  44.732  1.00  0.00     0.000 C 
BRANCH  15  16
ATOM     16  C   UNL     1      -3.141  57.163  45.783  1.00  0.00     0.000 C 
BRANCH  16  17
ATOM     17  C   UNL     1      -2.163  56.656  46.850  1.00  0.00     0.000 C 
BRANCH  17  18
ATOM     18  C   UNL     1      -2.846  56.540  48.221  1.00  0.00    -0.000 C 
BRANCH  18  19
ATOM     19  C   UNL     1      -2.218  57.471  49.269  1.00  0.00    -0.000 C 
BRANCH  19  20
ATOM     20  C   UNL     1      -2.109  58.922  48.771  1.00  0.00    -0.000 C 
BRANCH  20  21
ATOM     21  C   UNL     1      -3.443  59.684  48.852  1.00  0.00    -0.000 C 
BRANCH  21  22
ATOM     22  C   UNL     1      -4.076  60.038  47.490  1.00  0.00    -0.000 C 
BRANCH  22  23
ATOM     23  C   UNL     1      -3.667  61.403  46.907  1.00  0.00    -0.000 C 
BRANCH  23  24
ATOM     24  C   UNL     1      -3.615  61.475  45.368  1.00  0.00    -0.000 C 
BRANCH  24  25
ATOM     25  C   UNL     1      -3.770  62.898  44.795  1.00  0.00    -0.003 C 
ATOM     26  C   UNL     1      -3.433  62.984  43.306  1.00  0.00     0.004 C 
ENDBRANCH  24  25
ENDBRANCH  23  24
ENDBRANCH  22  23
ENDBRANCH  21  22
ENDBRANCH  20  21
ENDBRANCH  19  20
ENDBRANCH  18  19
ENDBRANCH  17  18
ENDBRANCH  16  17
ENDBRANCH  15  16
ENDBRANCH   1  15
TORSDOF 22
ENDMDL
MODEL 7
REMARK VINA RESULT:    -4.462      2.514      7.974
REMARK INTER + INTRA:         -12.764
REMARK INTER:                 -10.366
REMARK INTRA:                  -2.399
REMARK UNBOUND:                -2.564
REMARK SMILES CCCCCCCCCCCCCCCCCCCCCCCC(=O)[O-]
REMARK SMILES IDX 13 1 14 2 15 3 16 4 17 5 18 6 19 7 20 8 21 9 22 10 23 11
REMARK SMILES IDX 24 12 25 13 26 14 12 15 11 16 10 17 9 18 8 19 7 20 6 21 5 22
REMARK SMILES IDX 4 23 3 24 2 25 1 26
REMARK H PARENT
REMARK Flexibility Score: inf
ROOT
ATOM      1  C   UNL     1      11.327  65.260  54.927  1.00  0.00     0.000 C 
ENDROOT
BRANCH   1   2
ATOM      2  C   UNL     1      11.266  63.954  54.119  1.00  0.00     0.000 C 
BRANCH   2   3
ATOM      3  C   UNL     1      10.695  64.202  52.716  1.00  0.00     0.000 C 
BRANCH   3   4
ATOM      4  C   UNL     1      11.136  65.549  52.117  1.00  0.00     0.000 C 
BRANCH   4   5
ATOM      5  C   UNL     1      11.438  65.526  50.607  1.00  0.00     0.000 C 
BRANCH   5   6
ATOM      6  C   UNL     1      10.345  66.199  49.764  1.00  0.00     0.000 C 
BRANCH   6   7
ATOM      7  C   UNL     1       9.989  65.344  48.542  1.00  0.00     0.000 C 
BRANCH   7   8
ATOM      8  C   UNL     1      10.348  63.871  48.774  1.00  0.00     0.000 C 
BRANCH   8   9
ATOM      9  C   UNL     1       9.468  62.951  47.915  1.00  0.00     0.000 C 
BRANCH   9  10
ATOM     10  C   UNL     1       8.570  62.030  48.757  1.00  0.00     0.006 C 
BRANCH  10  11
ATOM     11  C   UNL     1       8.723  62.275  50.264  1.00  0.00     0.053 C 
BRANCH  11  12
ATOM     12  C   UNL     1       7.380  62.399  50.911  1.00  0.00     0.041 C 
ATOM     13  O   UNL     1       6.548  63.242  50.489  1.00  0.00    -0.550 OA
ATOM     14  O   UNL     1       7.063  61.610  52.009  1.00  0.00    -0.550 OA
ENDBRANCH  11  12
ENDBRANCH  10  11
ENDBRANCH   9  10
ENDBRANCH   8   9
ENDBRANCH   7   8
ENDBRANCH   6   7
ENDBRANCH   5   6
ENDBRANCH   4   5
ENDBRANCH   3   4
ENDBRANCH   2   3
ENDBRANCH   1   2
BRANCH   1  15
ATOM     15  C   UNL     1      10.748  65.107  56.342  1.00  0.00     0.000 C 
BRANCH  15  16
ATOM     16  C   UNL     1      10.157  63.710  56.592  1.00  0.00     0.000 C 
BRANCH  16  17
ATOM     17  C   UNL     1       9.785  63.531  58.068  1.00  0.00     0.000 C 
BRANCH  17  18
ATOM     18  C   UNL     1       8.670  62.488  58.239  1.00  0.00    -0.000 C 
BRANCH  18  19
ATOM     19  C   UNL     1       8.308  62.254  59.714  1.00  0.00    -0.000 C 
BRANCH  19  20
ATOM     20  C   UNL     1       6.886  61.693  59.884  1.00  0.00    -0.000 C 
BRANCH  20  21
ATOM     21  C   UNL     1       5.865  62.358  58.946  1.00  0.00    -0.000 C 
BRANCH  21  22
ATOM     22  C   UNL     1       4.925  61.382  58.208  1.00  0.00    -0.000 C 
BRANCH  22  23
ATOM     23  C   UNL     1       5.501  60.754  56.925  1.00  0.00    -0.000 C 
BRANCH  23  24
ATOM     24  C   UNL     1       6.108  59.347  57.095  1.00  0.00    -0.000 C 
BRANCH  24  25
ATOM     25  C   UNL     1       7.594  59.247  56.695  1.00  0.00    -0.003 C 
ATOM     26  C   UNL     1       7.950  60.119  55.490  1.00  0.00     0.004 C 
ENDBRANCH  24  25
ENDBRANCH  23  24
ENDBRANCH  22  23
ENDBRANCH  21  22
ENDBRANCH  20  21
ENDBRANCH  19  20
ENDBRANCH  18  19
ENDBRANCH  17  18
ENDBRANCH  16  17
ENDBRANCH  15  16
ENDBRANCH   1  15
TORSDOF 22
ENDMDL
MODEL 8
REMARK VINA RESULT:    -4.374     11.247     14.844
REMARK INTER + INTRA:         -12.563
REMARK INTER:                  -9.650
REMARK INTRA:                  -2.913
REMARK UNBOUND:                -2.564
REMARK SMILES CCCCCCCCCCCCCCCCCCCCCCCC(=O)[O-]
REMARK SMILES IDX 13 1 14 2 15 3 16 4 17 5 18 6 19 7 20 8 21 9 22 10 23 11
REMARK SMILES IDX 24 12 25 13 26 14 12 15 11 16 10 17 9 18 8 19 7 20 6 21 5 22
REMARK SMILES IDX 4 23 3 24 2 25 1 26
REMARK H PARENT
REMARK Flexibility Score: inf
ROOT
ATOM      1  C   UNL     1       0.994  60.433  44.559  1.00  0.00     0.000 C 
ENDROOT
BRANCH   1   2
ATOM      2  C   UNL     1       1.415  59.250  43.674  1.00  0.00     0.000 C 
BRANCH   2   3
ATOM      3  C   UNL     1       0.376  58.121  43.735  1.00  0.00     0.000 C 
BRANCH   3   4
ATOM      4  C   UNL     1      -0.582  58.250  44.933  1.00  0.00     0.000 C 
BRANCH   4   5
ATOM      5  C   UNL     1      -2.075  58.080  44.597  1.00  0.00     0.000 C 
BRANCH   5   6
ATOM      6  C   UNL     1      -2.953  59.201  45.173  1.00  0.00     0.000 C 
BRANCH   6   7
ATOM      7  C   UNL     1      -2.294  59.838  46.402  1.00  0.00     0.000 C 
BRANCH   7   8
ATOM      8  C   UNL     1      -3.346  60.427  47.351  1.00  0.00     0.000 C 
BRANCH   8   9
ATOM      9  C   UNL     1      -3.461  59.586  48.632  1.00  0.00     0.000 C 
BRANCH   9  10
ATOM     10  C   UNL     1      -2.193  58.767  48.921  1.00  0.00     0.006 C 
BRANCH  10  11
ATOM     11  C   UNL     1      -2.491  57.280  49.150  1.00  0.00     0.053 C 
BRANCH  11  12
ATOM     12  C   UNL     1      -2.364  56.519  47.867  1.00  0.00     0.041 C 
ATOM     13  O   UNL     1      -3.385  56.256  47.182  1.00  0.00    -0.550 OA
ATOM     14  O   UNL     1      -1.120  56.065  47.450  1.00  0.00    -0.550 OA
ENDBRANCH  11  12
ENDBRANCH  10  11
ENDBRANCH   9  10
ENDBRANCH   8   9
ENDBRANCH   7   8
ENDBRANCH   6   7
ENDBRANCH   5   6
ENDBRANCH   4   5
ENDBRANCH   3   4
ENDBRANCH   2   3
ENDBRANCH   1   2
BRANCH   1  15
ATOM     15  C   UNL     1       0.344  61.570  43.754  1.00  0.00     0.000 C 
BRANCH  15  16
ATOM     16  C   UNL     1      -0.508  62.504  44.629  1.00  0.00     0.000 C 
BRANCH  16  17
ATOM     17  C   UNL     1      -1.917  62.662  44.046  1.00  0.00     0.000 C 
BRANCH  17  18
ATOM     18  C   UNL     1      -2.861  63.340  45.051  1.00  0.00    -0.000 C 
BRANCH  18  19
ATOM     19  C   UNL     1      -3.266  64.755  44.611  1.00  0.00    -0.000 C 
BRANCH  19  20
ATOM     20  C   UNL     1      -2.495  65.847  45.371  1.00  0.00    -0.000 C 
BRANCH  20  21
ATOM     21  C   UNL     1      -1.851  65.331  46.670  1.00  0.00    -0.000 C 
BRANCH  21  22
ATOM     22  C   UNL     1      -0.528  66.020  47.061  1.00  0.00    -0.000 C 
BRANCH  22  23
ATOM     23  C   UNL     1      -0.206  66.024  48.567  1.00  0.00    -0.000 C 
BRANCH  23  24
ATOM     24  C   UNL     1      -0.615  67.301  49.327  1.00  0.00    -0.000 C 
BRANCH  24  25
ATOM     25  C   UNL     1       0.192  67.558  50.615  1.00  0.00    -0.003 C 
ATOM     26  C   UNL     1       1.588  68.121  50.344  1.00  0.00     0.004 C 
ENDBRANCH  24  25
ENDBRANCH  23  24
ENDBRANCH  22  23
ENDBRANCH  21  22
ENDBRANCH  20  21
ENDBRANCH  19  20
ENDBRANCH  18  19
ENDBRANCH  17  18
ENDBRANCH  16  17
ENDBRANCH  15  16
ENDBRANCH   1  15
TORSDOF 22
ENDMDL
MODEL 9
REMARK VINA RESULT:    -4.336      2.469      4.334
REMARK INTER + INTRA:         -12.478
REMARK INTER:                 -10.270
REMARK INTRA:                  -2.208
REMARK UNBOUND:                -2.564
REMARK SMILES CCCCCCCCCCCCCCCCCCCCCCCC(=O)[O-]
REMARK SMILES IDX 13 1 14 2 15 3 16 4 17 5 18 6 19 7 20 8 21 9 22 10 23 11
REMARK SMILES IDX 24 12 25 13 26 14 12 15 11 16 10 17 9 18 8 19 7 20 6 21 5 22
REMARK SMILES IDX 4 23 3 24 2 25 1 26
REMARK H PARENT
REMARK Flexibility Score: inf
ROOT
ATOM      1  C   UNL     1       7.596  60.735  55.479  1.00  0.00     0.000 C 
ENDROOT
BRANCH   1   2
ATOM      2  C   UNL     1       7.869  59.328  56.032  1.00  0.00     0.000 C 
BRANCH   2   3
ATOM      3  C   UNL     1       6.668  58.810  56.837  1.00  0.00     0.000 C 
BRANCH   3   4
ATOM      4  C   UNL     1       5.860  59.939  57.502  1.00  0.00     0.000 C 
BRANCH   4   5
ATOM      5  C   UNL     1       5.721  59.828  59.031  1.00  0.00     0.000 C 
BRANCH   5   6
ATOM      6  C   UNL     1       5.758  61.191  59.740  1.00  0.00     0.000 C 
BRANCH   6   7
ATOM      7  C   UNL     1       6.595  62.200  58.945  1.00  0.00     0.000 C 
BRANCH   7   8
ATOM      8  C   UNL     1       8.021  62.298  59.503  1.00  0.00     0.000 C 
BRANCH   8   9
ATOM      9  C   UNL     1       9.060  62.034  58.403  1.00  0.00     0.000 C 
BRANCH   9  10
ATOM     10  C   UNL     1      10.136  63.129  58.326  1.00  0.00     0.006 C 
BRANCH  10  11
ATOM     11  C   UNL     1       9.579  64.470  57.832  1.00  0.00     0.053 C 
BRANCH  11  12
ATOM     12  C   UNL     1      10.192  64.838  56.517  1.00  0.00     0.041 C 
ATOM     13  O   UNL     1      10.505  63.943  55.692  1.00  0.00    -0.550 OA
ATOM     14  O   UNL     1      10.453  66.169  56.221  1.00  0.00    -0.550 OA
ENDBRANCH  11  12
ENDBRANCH  10  11
ENDBRANCH   9  10
ENDBRANCH   8   9
ENDBRANCH   7   8
ENDBRANCH   6   7
ENDBRANCH   5   6
ENDBRANCH   4   5
ENDBRANCH   3   4
ENDBRANCH   2   3
ENDBRANCH   1   2
BRANCH   1  15
ATOM     15  C   UNL     1       8.594  61.142  54.384  1.00  0.00     0.000 C 
BRANCH  15  16
ATOM     16  C   UNL     1       7.905  61.501  53.058  1.00  0.00     0.000 C 
BRANCH  16  17
ATOM     17  C   UNL     1       8.939  61.871  51.988  1.00  0.00     0.000 C 
BRANCH  17  18
ATOM     18  C   UNL     1       8.294  61.951  50.596  1.00  0.00    -0.000 C 
BRANCH  18  19
ATOM     19  C   UNL     1       8.817  63.140  49.775  1.00  0.00    -0.000 C 
BRANCH  19  20
ATOM     20  C   UNL     1       9.143  62.751  48.324  1.00  0.00    -0.000 C 
BRANCH  20  21
ATOM     21  C   UNL     1      10.446  63.388  47.812  1.00  0.00    -0.000 C 
BRANCH  21  22
ATOM     22  C   UNL     1      10.303  64.827  47.275  1.00  0.00    -0.000 C 
BRANCH  22  23
ATOM     23  C   UNL     1      10.739  65.940  48.245  1.00  0.00    -0.000 C 
BRANCH  23  24
ATOM     24  C   UNL     1      12.123  65.744  48.896  1.00  0.00    -0.000 C 
BRANCH  24  25
ATOM     25  C   UNL     1      12.189  66.161  50.379  1.00  0.00    -0.003 C 
ATOM     26  C   UNL     1      11.087  65.527  51.229  1.00  0.00     0.004 C 
ENDBRANCH  24  25
ENDBRANCH  23  24
ENDBRANCH  22  23
ENDBRANCH  21  22
ENDBRANCH  20  21
ENDBRANCH  19  20
ENDBRANCH  18  19
ENDBRANCH  17  18
ENDBRANCH  16  17
ENDBRANCH  15  16
ENDBRANCH   1  15
TORSDOF 22
ENDMDL
