MODEL 1
REMARK VINA RESULT:    -3.652      0.000      0.000
REMARK INTER + INTRA:          -4.909
REMARK INTER:                  -4.400
REMARK INTRA:                  -0.509
REMARK UNBOUND:                -0.509
REMARK SMILES NC(=O)C[C@H]([NH3+])C(=O)[O-]
REMARK SMILES IDX 4 1 5 2 6 3 7 7 8 8 9 9 2 10 3 11 1 12
REMARK H PARENT 6 4 6 5 6 6 1 13 1 14
REMARK Flexibility Score: inf
ROOT
ATOM      1  C   UNL     1      24.302   1.095  19.002  1.00  0.00     0.171 C 
ENDROOT
BRANCH   1   2
ATOM      2  C   UNL     1      25.333   0.340  18.139  1.00  0.00     0.237 C 
BRANCH   2   3
ATOM      3  N   UNL     1      26.027   1.267  17.237  1.00  0.00    -0.350 N 
ATOM      4  H   UNL     1      26.207   0.798  16.320  1.00  0.00     0.345 HD
ATOM      5  H   UNL     1      26.939   1.572  17.649  1.00  0.00     0.345 HD
ATOM      6  H   UNL     1      25.429   2.107  17.063  1.00  0.00     0.345 HD
ENDBRANCH   2   3
BRANCH   2   7
ATOM      7  C   UNL     1      24.675  -0.762  17.349  1.00  0.00     0.100 C 
ATOM      8  O   UNL     1      24.950  -1.969  17.581  1.00  0.00    -0.544 OA
ATOM      9  O   UNL     1      23.771  -0.448  16.342  1.00  0.00    -0.544 OA
ENDBRANCH   2   7
ENDBRANCH   1   2
BRANCH   1  10
ATOM     10  C   UNL     1      23.865   2.375  18.350  1.00  0.00     0.223 C 
ATOM     11  O   UNL     1      24.473   3.448  18.610  1.00  0.00    -0.275 OA
ATOM     12  N   UNL     1      22.742   2.395  17.469  1.00  0.00    -0.369 N 
ATOM     13  H   UNL     1      22.432   3.290  17.030  1.00  0.00     0.159 HD
ATOM     14  H   UNL     1      22.216   1.519  17.257  1.00  0.00     0.159 HD
ENDBRANCH   1  10
TORSDOF 4
ENDMDL
MODEL 2
REMARK VINA RESULT:    -3.511      1.439      4.068
REMARK INTER + INTRA:          -4.738
REMARK INTER:                  -4.471
REMARK INTRA:                  -0.266
REMARK UNBOUND:                -0.509
REMARK SMILES NC(=O)C[C@H]([NH3+])C(=O)[O-]
REMARK SMILES IDX 4 1 5 2 6 3 7 7 8 8 9 9 2 10 3 11 1 12
REMARK H PARENT 6 4 6 5 6 6 1 13 1 14
REMARK Flexibility Score: inf
ROOT
ATOM      1  C   UNL     1      25.273   1.302  17.516  1.00  0.00     0.171 C 
ENDROOT
BRANCH   1   2
ATOM      2  C   UNL     1      24.050   1.983  18.162  1.00  0.00     0.237 C 
BRANCH   2   3
ATOM      3  N   UNL     1      22.810   1.526  17.525  1.00  0.00    -0.350 N 
ATOM      4  H   UNL     1      22.837   1.743  16.502  1.00  0.00     0.345 HD
ATOM      5  H   UNL     1      21.978   1.996  17.951  1.00  0.00     0.345 HD
ATOM      6  H   UNL     1      22.714   0.490  17.636  1.00  0.00     0.345 HD
ENDBRANCH   2   3
BRANCH   2   7
ATOM      7  C   UNL     1      24.157   3.484  18.077  1.00  0.00     0.100 C 
ATOM      8  O   UNL     1      24.740   4.030  17.102  1.00  0.00    -0.544 OA
ATOM      9  O   UNL     1      23.626   4.275  19.087  1.00  0.00    -0.544 OA
ENDBRANCH   2   7
ENDBRANCH   1   2
BRANCH   1  10
ATOM     10  C   UNL     1      25.040  -0.165  17.298  1.00  0.00     0.223 C 
ATOM     11  O   UNL     1      24.772  -0.908  18.281  1.00  0.00    -0.275 OA
ATOM     12  N   UNL     1      25.161  -0.734  15.994  1.00  0.00    -0.369 N 
ATOM     13  H   UNL     1      25.013  -1.758  15.850  1.00  0.00     0.159 HD
ATOM     14  H   UNL     1      25.401  -0.137  15.173  1.00  0.00     0.159 HD
ENDBRANCH   1  10
TORSDOF 4
ENDMDL
MODEL 3
REMARK VINA RESULT:    -3.442      1.794      2.070
REMARK INTER + INTRA:          -4.655
REMARK INTER:                  -4.179
REMARK INTRA:                  -0.476
REMARK UNBOUND:                -0.509
REMARK SMILES NC(=O)C[C@H]([NH3+])C(=O)[O-]
REMARK SMILES IDX 4 1 5 2 6 3 7 7 8 8 9 9 2 10 3 11 1 12
REMARK H PARENT 6 4 6 5 6 6 1 13 1 14
REMARK Flexibility Score: inf
ROOT
ATOM      1  C   UNL     1      24.709  -0.077  18.315  1.00  0.00     0.171 C 
ENDROOT
BRANCH   1   2
ATOM      2  C   UNL     1      24.632  -1.210  17.272  1.00  0.00     0.237 C 
BRANCH   2   3
ATOM      3  N   UNL     1      25.187  -0.766  15.988  1.00  0.00    -0.350 N 
ATOM      4  H   UNL     1      26.029  -0.169  16.155  1.00  0.00     0.345 HD
ATOM      5  H   UNL     1      24.479  -0.215  15.449  1.00  0.00     0.345 HD
ATOM      6  H   UNL     1      25.482  -1.596  15.423  1.00  0.00     0.345 HD
ENDBRANCH   2   3
BRANCH   2   7
ATOM      7  C   UNL     1      23.212  -1.684  17.090  1.00  0.00     0.100 C 
ATOM      8  O   UNL     1      22.256  -1.060  17.621  1.00  0.00    -0.544 OA
ATOM      9  O   UNL     1      22.954  -2.829  16.346  1.00  0.00    -0.544 OA
ENDBRANCH   2   7
ENDBRANCH   1   2
BRANCH   1  10
ATOM     10  C   UNL     1      24.699   1.276  17.665  1.00  0.00     0.223 C 
ATOM     11  O   UNL     1      25.789   1.827  17.353  1.00  0.00    -0.275 OA
ATOM     12  N   UNL     1      23.469   1.962  17.434  1.00  0.00    -0.369 N 
ATOM     13  H   UNL     1      23.468   2.910  16.995  1.00  0.00     0.159 HD
ATOM     14  H   UNL     1      22.558   1.529  17.703  1.00  0.00     0.159 HD
ENDBRANCH   1  10
TORSDOF 4
ENDMDL
MODEL 4
REMARK VINA RESULT:    -3.430      1.792      3.714
REMARK INTER + INTRA:          -4.641
REMARK INTER:                  -4.147
REMARK INTRA:                  -0.494
REMARK UNBOUND:                -0.509
REMARK SMILES NC(=O)C[C@H]([NH3+])C(=O)[O-]
REMARK SMILES IDX 4 1 5 2 6 3 7 7 8 8 9 9 2 10 3 11 1 12
REMARK H PARENT 6 4 6 5 6 6 1 13 1 14
REMARK Flexibility Score: inf
ROOT
ATOM      1  C   UNL     1      24.105  -0.485  18.296  1.00  0.00     0.171 C 
ENDROOT
BRANCH   1   2
ATOM      2  C   UNL     1      22.709   0.169  18.301  1.00  0.00     0.237 C 
BRANCH   2   3
ATOM      3  N   UNL     1      22.306   0.533  16.937  1.00  0.00    -0.350 N 
ATOM      4  H   UNL     1      21.568  -0.126  16.599  1.00  0.00     0.345 HD
ATOM      5  H   UNL     1      23.124   0.492  16.286  1.00  0.00     0.345 HD
ATOM      6  H   UNL     1      21.909   1.500  16.931  1.00  0.00     0.345 HD
ENDBRANCH   2   3
BRANCH   2   7
ATOM      7  C   UNL     1      22.682   1.383  19.194  1.00  0.00     0.100 C 
ATOM      8  O   UNL     1      21.838   1.474  20.125  1.00  0.00    -0.544 OA
ATOM      9  O   UNL     1      23.581   2.420  18.981  1.00  0.00    -0.544 OA
ENDBRANCH   2   7
ENDBRANCH   1   2
BRANCH   1  10
ATOM     10  C   UNL     1      24.904  -0.078  17.091  1.00  0.00     0.223 C 
ATOM     11  O   UNL     1      24.781  -0.721  16.014  1.00  0.00    -0.275 OA
ATOM     12  N   UNL     1      25.831   1.005  17.167  1.00  0.00    -0.369 N 
ATOM     13  H   UNL     1      26.395   1.275  16.330  1.00  0.00     0.159 HD
ATOM     14  H   UNL     1      25.958   1.536  18.056  1.00  0.00     0.159 HD
ENDBRANCH   1  10
TORSDOF 4
ENDMDL
MODEL 5
REMARK VINA RESULT:    -3.362      1.463      3.785
REMARK INTER + INTRA:          -4.559
REMARK INTER:                  -4.078
REMARK INTRA:                  -0.481
REMARK UNBOUND:                -0.509
REMARK SMILES NC(=O)C[C@H]([NH3+])C(=O)[O-]
REMARK SMILES IDX 4 1 5 2 6 3 7 7 8 8 9 9 2 10 3 11 1 12
REMARK H PARENT 6 4 6 5 6 6 1 13 1 14
REMARK Flexibility Score: inf
ROOT
ATOM      1  C   UNL     1      24.210  -0.334  18.347  1.00  0.00     0.171 C 
ENDROOT
BRANCH   1   2
ATOM      2  C   UNL     1      23.603   1.082  18.415  1.00  0.00     0.237 C 
BRANCH   2   3
ATOM      3  N   UNL     1      22.532   1.230  17.422  1.00  0.00    -0.350 N 
ATOM      4  H   UNL     1      22.817   0.775  16.525  1.00  0.00     0.345 HD
ATOM      5  H   UNL     1      22.331   2.241  17.243  1.00  0.00     0.345 HD
ATOM      6  H   UNL     1      21.662   0.761  17.766  1.00  0.00     0.345 HD
ENDBRANCH   2   3
BRANCH   2   7
ATOM      7  C   UNL     1      24.660   2.136  18.202  1.00  0.00     0.100 C 
ATOM      8  O   UNL     1      24.533   3.281  18.710  1.00  0.00    -0.544 OA
ATOM      9  O   UNL     1      25.777   1.850  17.426  1.00  0.00    -0.544 OA
ENDBRANCH   2   7
ENDBRANCH   1   2
BRANCH   1  10
ATOM     10  C   UNL     1      24.056  -0.939  16.982  1.00  0.00     0.223 C 
ATOM     11  O   UNL     1      23.040  -1.636  16.718  1.00  0.00    -0.275 OA
ATOM     12  N   UNL     1      25.070  -0.764  15.992  1.00  0.00    -0.369 N 
ATOM     13  H   UNL     1      24.966  -1.199  15.048  1.00  0.00     0.159 HD
ATOM     14  H   UNL     1      25.927  -0.205  16.199  1.00  0.00     0.159 HD
ENDBRANCH   1  10
TORSDOF 4
ENDMDL
MODEL 6
REMARK VINA RESULT:    -3.290      1.841      3.713
REMARK INTER + INTRA:          -4.472
REMARK INTER:                  -4.159
REMARK INTRA:                  -0.314
REMARK UNBOUND:                -0.509
REMARK SMILES NC(=O)C[C@H]([NH3+])C(=O)[O-]
REMARK SMILES IDX 4 1 5 2 6 3 7 7 8 8 9 9 2 10 3 11 1 12
REMARK H PARENT 6 4 6 5 6 6 1 13 1 14
REMARK Flexibility Score: inf
ROOT
ATOM      1  C   UNL     1      23.618  -0.310  17.228  1.00  0.00     0.171 C 
ENDROOT
BRANCH   1   2
ATOM      2  C   UNL     1      24.357   1.041  17.292  1.00  0.00     0.237 C 
BRANCH   2   3
ATOM      3  N   UNL     1      25.799   0.850  17.097  1.00  0.00    -0.350 N 
ATOM      4  H   UNL     1      26.110  -0.017  17.594  1.00  0.00     0.345 HD
ATOM      5  H   UNL     1      26.335   1.667  17.469  1.00  0.00     0.345 HD
ATOM      6  H   UNL     1      26.007   0.735  16.078  1.00  0.00     0.345 HD
ENDBRANCH   2   3
BRANCH   2   7
ATOM      7  C   UNL     1      24.097   1.740  18.603  1.00  0.00     0.100 C 
ATOM      8  O   UNL     1      24.633   2.852  18.853  1.00  0.00    -0.544 OA
ATOM      9  O   UNL     1      23.273   1.147  19.552  1.00  0.00    -0.544 OA
ENDBRANCH   2   7
ENDBRANCH   1   2
BRANCH   1  10
ATOM     10  C   UNL     1      24.552  -1.464  17.454  1.00  0.00     0.223 C 
ATOM     11  O   UNL     1      25.249  -1.508  18.503  1.00  0.00    -0.275 OA
ATOM     12  N   UNL     1      24.688  -2.491  16.471  1.00  0.00    -0.369 N 
ATOM     13  H   UNL     1      25.350  -3.283  16.626  1.00  0.00     0.159 HD
ATOM     14  H   UNL     1      24.132  -2.461  15.588  1.00  0.00     0.159 HD
ENDBRANCH   1  10
TORSDOF 4
ENDMDL
MODEL 7
REMARK VINA RESULT:    -3.271      2.762      4.365
REMARK INTER + INTRA:          -4.450
REMARK INTER:                  -3.950
REMARK INTRA:                  -0.500
REMARK UNBOUND:                -0.509
REMARK SMILES NC(=O)C[C@H]([NH3+])C(=O)[O-]
REMARK SMILES IDX 4 1 5 2 6 3 7 7 8 8 9 9 2 10 3 11 1 12
REMARK H PARENT 6 4 6 5 6 6 1 13 1 14
REMARK Flexibility Score: inf
ROOT
ATOM      1  C   UNL     1      23.032  -1.516  16.899  1.00  0.00     0.171 C 
ENDROOT
BRANCH   1   2
ATOM      2  C   UNL     1      24.245  -0.566  16.840  1.00  0.00     0.237 C 
BRANCH   2   3
ATOM      3  N   UNL     1      25.086  -0.876  15.678  1.00  0.00    -0.350 N 
ATOM      4  H   UNL     1      26.074  -1.024  15.986  1.00  0.00     0.345 HD
ATOM      5  H   UNL     1      25.059  -0.096  14.981  1.00  0.00     0.345 HD
ATOM      6  H   UNL     1      24.751  -1.757  15.222  1.00  0.00     0.345 HD
ENDBRANCH   2   3
BRANCH   2   7
ATOM      7  C   UNL     1      25.059  -0.645  18.107  1.00  0.00     0.100 C 
ATOM      8  O   UNL     1      25.357   0.400  18.743  1.00  0.00    -0.544 OA
ATOM      9  O   UNL     1      25.500  -1.879  18.571  1.00  0.00    -0.544 OA
ENDBRANCH   2   7
ENDBRANCH   1   2
BRANCH   1  10
ATOM     10  C   UNL     1      23.278  -2.777  16.123  1.00  0.00     0.223 C 
ATOM     11  O   UNL     1      22.913  -2.852  14.919  1.00  0.00    -0.275 OA
ATOM     12  N   UNL     1      23.885  -3.908  16.750  1.00  0.00    -0.369 N 
ATOM     13  H   UNL     1      24.040  -4.789  16.211  1.00  0.00     0.159 HD
ATOM     14  H   UNL     1      24.176  -3.870  17.751  1.00  0.00     0.159 HD
ENDBRANCH   1  10
TORSDOF 4
ENDMDL
MODEL 8
REMARK VINA RESULT:    -3.271      8.978     10.204
REMARK INTER + INTRA:          -4.449
REMARK INTER:                  -3.935
REMARK INTRA:                  -0.514
REMARK UNBOUND:                -0.509
REMARK SMILES NC(=O)C[C@H]([NH3+])C(=O)[O-]
REMARK SMILES IDX 4 1 5 2 6 3 7 7 8 8 9 9 2 10 3 11 1 12
REMARK H PARENT 6 4 6 5 6 6 1 13 1 14
REMARK Flexibility Score: inf
ROOT
ATOM      1  C   UNL     1      24.722  -7.445  14.849  1.00  0.00     0.171 C 
ENDROOT
BRANCH   1   2
ATOM      2  C   UNL     1      24.521  -8.961  15.049  1.00  0.00     0.237 C 
BRANCH   2   3
ATOM      3  N   UNL     1      25.747  -9.579  15.566  1.00  0.00    -0.350 N 
ATOM      4  H   UNL     1      26.367  -8.844  15.978  1.00  0.00     0.345 HD
ATOM      5  H   UNL     1      26.265 -10.072  14.802  1.00  0.00     0.345 HD
ATOM      6  H   UNL     1      25.509 -10.265  16.319  1.00  0.00     0.345 HD
ENDBRANCH   2   3
BRANCH   2   7
ATOM      7  C   UNL     1      24.105  -9.626  13.761  1.00  0.00     0.100 C 
ATOM      8  O   UNL     1      22.954 -10.125  13.641  1.00  0.00    -0.544 OA
ATOM      9  O   UNL     1      25.001  -9.708  12.703  1.00  0.00    -0.544 OA
ENDBRANCH   2   7
ENDBRANCH   1   2
BRANCH   1  10
ATOM     10  C   UNL     1      26.169  -7.100  14.642  1.00  0.00     0.223 C 
ATOM     11  O   UNL     1      26.875  -6.749  15.625  1.00  0.00    -0.275 OA
ATOM     12  N   UNL     1      26.741  -7.128  13.334  1.00  0.00    -0.369 N 
ATOM     13  H   UNL     1      27.744  -6.873  13.193  1.00  0.00     0.159 HD
ATOM     14  H   UNL     1      26.166  -7.398  12.506  1.00  0.00     0.159 HD
ENDBRANCH   1  10
TORSDOF 4
ENDMDL
MODEL 9
REMARK VINA RESULT:    -3.210      9.453      9.966
REMARK INTER + INTRA:          -4.376
REMARK INTER:                  -3.884
REMARK INTRA:                  -0.492
REMARK UNBOUND:                -0.509
REMARK SMILES NC(=O)C[C@H]([NH3+])C(=O)[O-]
REMARK SMILES IDX 4 1 5 2 6 3 7 7 8 8 9 9 2 10 3 11 1 12
REMARK H PARENT 6 4 6 5 6 6 1 13 1 14
REMARK Flexibility Score: inf
ROOT
ATOM      1  C   UNL     1      28.534   3.326   8.659  1.00  0.00     0.171 C 
ENDROOT
BRANCH   1   2
ATOM      2  C   UNL     1      27.497   2.421   7.965  1.00  0.00     0.237 C 
BRANCH   2   3
ATOM      3  N   UNL     1      26.336   2.204   8.837  1.00  0.00    -0.350 N 
ATOM      4  H   UNL     1      25.628   1.615   8.342  1.00  0.00     0.345 HD
ATOM      5  H   UNL     1      25.897   3.116   9.103  1.00  0.00     0.345 HD
ATOM      6  H   UNL     1      26.633   1.699   9.704  1.00  0.00     0.345 HD
ENDBRANCH   2   3
BRANCH   2   7
ATOM      7  C   UNL     1      28.107   1.100   7.572  1.00  0.00     0.100 C 
ATOM      8  O   UNL     1      28.738   0.410   8.416  1.00  0.00    -0.544 OA
ATOM      9  O   UNL     1      27.989   0.644   6.264  1.00  0.00    -0.544 OA
ENDBRANCH   2   7
ENDBRANCH   1   2
BRANCH   1  10
ATOM     10  C   UNL     1      28.391   3.287  10.153  1.00  0.00     0.223 C 
ATOM     11  O   UNL     1      27.646   4.122  10.732  1.00  0.00    -0.275 OA
ATOM     12  N   UNL     1      29.124   2.338  10.928  1.00  0.00    -0.369 N 
ATOM     13  H   UNL     1      29.034   2.324  11.968  1.00  0.00     0.159 HD
ATOM     14  H   UNL     1      29.760   1.651  10.467  1.00  0.00     0.159 HD
ENDBRANCH   1  10
TORSDOF 4
ENDMDL
