MODEL 1
REMARK VINA RESULT:    -5.983      0.000      0.000
REMARK INTER + INTRA:         -11.937
REMARK INTER:                 -10.879
REMARK INTRA:                  -1.058
REMARK UNBOUND:                -1.058
REMARK SMILES CCCCCC=CCC=CCCCCCCCC(=O)[O-]
REMARK SMILES IDX 11 1 12 2 13 3 14 4 15 5 16 6 17 7 18 8 19 9 20 10 10 11
REMARK SMILES IDX 9 12 8 13 7 14 6 15 5 16 4 17 3 18 2 19 1 20
REMARK H PARENT
REMARK Flexibility Score: inf
ROOT
ATOM      1  C   UNL     1      13.070  66.095  19.034  1.00  0.00     0.027 C 
ENDROOT
BRANCH   1   2
ATOM      2  C   UNL     1      13.021  66.997  17.792  1.00  0.00     0.004 C 
BRANCH   2   3
ATOM      3  C   UNL     1      13.144  66.200  16.483  1.00  0.00     0.000 C 
BRANCH   3   4
ATOM      4  C   UNL     1      12.670  64.745  16.632  1.00  0.00     0.000 C 
BRANCH   4   5
ATOM      5  C   UNL     1      12.386  64.068  15.279  1.00  0.00     0.000 C 
BRANCH   5   6
ATOM      6  C   UNL     1      10.918  64.133  14.820  1.00  0.00     0.006 C 
BRANCH   6   7
ATOM      7  C   UNL     1       9.927  64.170  15.991  1.00  0.00     0.053 C 
BRANCH   7   8
ATOM      8  C   UNL     1       8.520  64.204  15.486  1.00  0.00     0.041 C 
ATOM      9  O   UNL     1       7.566  63.900  16.249  1.00  0.00    -0.550 OA
ATOM     10  O   UNL     1       8.258  64.614  14.186  1.00  0.00    -0.550 OA
ENDBRANCH   7   8
ENDBRANCH   6   7
ENDBRANCH   5   6
ENDBRANCH   4   5
ENDBRANCH   3   4
ENDBRANCH   2   3
ENDBRANCH   1   2
BRANCH   1  11
ATOM     11  C   UNL     1      14.275  66.408  19.877  1.00  0.00    -0.031 C 
ATOM     12  C   UNL     1      15.311  65.561  19.961  1.00  0.00    -0.027 C 
BRANCH  12  13
ATOM     13  C   UNL     1      16.522  65.871  20.793  1.00  0.00     0.054 C 
BRANCH  13  14
ATOM     14  C   UNL     1      16.126  66.080  22.232  1.00  0.00    -0.027 C 
ATOM     15  C   UNL     1      16.158  65.147  23.201  1.00  0.00    -0.031 C 
BRANCH  15  16
ATOM     16  C   UNL     1      16.665  63.731  23.051  1.00  0.00     0.027 C 
BRANCH  16  17
ATOM     17  C   UNL     1      16.801  63.033  24.413  1.00  0.00     0.004 C 
BRANCH  17  18
ATOM     18  C   UNL     1      15.736  63.466  25.436  1.00  0.00     0.000 C 
BRANCH  18  19
ATOM     19  C   UNL     1      16.291  63.526  26.866  1.00  0.00    -0.003 C 
ATOM     20  C   UNL     1      17.700  62.945  26.934  1.00  0.00     0.004 C 
ENDBRANCH  18  19
ENDBRANCH  17  18
ENDBRANCH  16  17
ENDBRANCH  15  16
ENDBRANCH  13  14
ENDBRANCH  12  13
ENDBRANCH   1  11
TORSDOF 14
ENDMDL
MODEL 2
REMARK VINA RESULT:    -5.953      3.870      9.599
REMARK INTER + INTRA:         -11.883
REMARK INTER:                 -10.872
REMARK INTRA:                  -1.011
REMARK UNBOUND:                -1.058
REMARK SMILES CCCCCC=CCC=CCCCCCCCC(=O)[O-]
REMARK SMILES IDX 11 1 12 2 13 3 14 4 15 5 16 6 17 7 18 8 19 9 20 10 10 11
REMARK SMILES IDX 9 12 8 13 7 14 6 15 5 16 4 17 3 18 2 19 1 20
REMARK H PARENT
REMARK Flexibility Score: inf
ROOT
ATOM      1  C   UNL     1      16.514  65.890  20.888  1.00  0.00     0.027 C 
ENDROOT
BRANCH   1   2
ATOM      2  C   UNL     1      16.120  65.941  22.371  1.00  0.00     0.004 C 
BRANCH   2   3
ATOM      3  C   UNL     1      15.708  64.564  22.917  1.00  0.00     0.000 C 
BRANCH   3   4
ATOM      4  C   UNL     1      16.912  63.632  23.134  1.00  0.00     0.000 C 
BRANCH   4   5
ATOM      5  C   UNL     1      16.895  62.944  24.511  1.00  0.00     0.000 C 
BRANCH   5   6
ATOM      6  C   UNL     1      16.278  63.784  25.644  1.00  0.00     0.006 C 
BRANCH   6   7
ATOM      7  C   UNL     1      15.761  62.928  26.807  1.00  0.00     0.053 C 
BRANCH   7   8
ATOM      8  C   UNL     1      14.460  62.285  26.446  1.00  0.00     0.041 C 
ATOM      9  O   UNL     1      13.665  62.865  25.660  1.00  0.00    -0.550 OA
ATOM     10  O   UNL     1      14.144  61.027  26.940  1.00  0.00    -0.550 OA
ENDBRANCH   7   8
ENDBRANCH   6   7
ENDBRANCH   5   6
ENDBRANCH   4   5
ENDBRANCH   3   4
ENDBRANCH   2   3
ENDBRANCH   1   2
BRANCH   1  11
ATOM     11  C   UNL     1      15.314  65.618  20.023  1.00  0.00    -0.031 C 
ATOM     12  C   UNL     1      14.323  66.512  19.899  1.00  0.00    -0.027 C 
BRANCH  12  13
ATOM     13  C   UNL     1      13.126  66.252  19.030  1.00  0.00     0.054 C 
BRANCH  13  14
ATOM     14  C   UNL     1      13.320  66.882  17.674  1.00  0.00    -0.027 C 
ATOM     15  C   UNL     1      13.180  66.259  16.489  1.00  0.00    -0.031 C 
BRANCH  15  16
ATOM     16  C   UNL     1      12.734  64.829  16.287  1.00  0.00     0.027 C 
BRANCH  16  17
ATOM     17  C   UNL     1      12.153  64.612  14.881  1.00  0.00     0.004 C 
BRANCH  17  18
ATOM     18  C   UNL     1      10.809  63.864  14.879  1.00  0.00     0.000 C 
BRANCH  18  19
ATOM     19  C   UNL     1       9.970  64.169  16.128  1.00  0.00    -0.003 C 
ATOM     20  C   UNL     1       8.480  64.176  15.803  1.00  0.00     0.004 C 
ENDBRANCH  18  19
ENDBRANCH  17  18
ENDBRANCH  16  17
ENDBRANCH  15  16
ENDBRANCH  13  14
ENDBRANCH  12  13
ENDBRANCH   1  11
TORSDOF 14
ENDMDL
MODEL 3
REMARK VINA RESULT:    -5.917      2.661      4.734
REMARK INTER + INTRA:         -11.818
REMARK INTER:                 -10.093
REMARK INTRA:                  -1.726
REMARK UNBOUND:                -1.058
REMARK SMILES CCCCCC=CCC=CCCCCCCCC(=O)[O-]
REMARK SMILES IDX 11 1 12 2 13 3 14 4 15 5 16 6 17 7 18 8 19 9 20 10 10 11
REMARK SMILES IDX 9 12 8 13 7 14 6 15 5 16 4 17 3 18 2 19 1 20
REMARK H PARENT
REMARK Flexibility Score: inf
ROOT
ATOM      1  C   UNL     1      12.339  64.582  15.031  1.00  0.00     0.027 C 
ENDROOT
BRANCH   1   2
ATOM      2  C   UNL     1      11.153  63.612  15.133  1.00  0.00     0.004 C 
BRANCH   2   3
ATOM      3  C   UNL     1       9.930  64.248  15.814  1.00  0.00     0.000 C 
BRANCH   3   4
ATOM      4  C   UNL     1       9.158  63.247  16.690  1.00  0.00     0.000 C 
BRANCH   4   5
ATOM      5  C   UNL     1       9.028  63.712  18.152  1.00  0.00     0.000 C 
BRANCH   5   6
ATOM      6  C   UNL     1      10.342  64.185  18.799  1.00  0.00     0.006 C 
BRANCH   6   7
ATOM      7  C   UNL     1      10.567  63.593  20.196  1.00  0.00     0.053 C 
BRANCH   7   8
ATOM      8  C   UNL     1      10.170  64.575  21.252  1.00  0.00     0.041 C 
ATOM      9  O   UNL     1       9.001  64.564  21.720  1.00  0.00    -0.550 OA
ATOM     10  O   UNL     1      11.103  65.474  21.751  1.00  0.00    -0.550 OA
ENDBRANCH   7   8
ENDBRANCH   6   7
ENDBRANCH   5   6
ENDBRANCH   4   5
ENDBRANCH   3   4
ENDBRANCH   2   3
ENDBRANCH   1   2
BRANCH   1  11
ATOM     11  C   UNL     1      12.716  65.112  16.386  1.00  0.00    -0.031 C 
ATOM     12  C   UNL     1      13.112  66.382  16.556  1.00  0.00    -0.027 C 
BRANCH  12  13
ATOM     13  C   UNL     1      13.481  66.922  17.908  1.00  0.00     0.054 C 
BRANCH  13  14
ATOM     14  C   UNL     1      13.596  65.797  18.905  1.00  0.00    -0.027 C 
ATOM     15  C   UNL     1      14.113  65.894  20.144  1.00  0.00    -0.031 C 
BRANCH  15  16
ATOM     16  C   UNL     1      14.612  67.160  20.800  1.00  0.00     0.027 C 
BRANCH  16  17
ATOM     17  C   UNL     1      15.843  66.892  21.680  1.00  0.00     0.004 C 
BRANCH  17  18
ATOM     18  C   UNL     1      16.578  65.587  21.329  1.00  0.00     0.000 C 
BRANCH  18  19
ATOM     19  C   UNL     1      16.525  64.563  22.472  1.00  0.00    -0.003 C 
ATOM     20  C   UNL     1      15.839  65.147  23.703  1.00  0.00     0.004 C 
ENDBRANCH  18  19
ENDBRANCH  17  18
ENDBRANCH  16  17
ENDBRANCH  15  16
ENDBRANCH  13  14
ENDBRANCH  12  13
ENDBRANCH   1  11
TORSDOF 14
ENDMDL
MODEL 4
REMARK VINA RESULT:    -5.871      1.698      2.119
REMARK INTER + INTRA:         -11.734
REMARK INTER:                 -10.759
REMARK INTRA:                  -0.976
REMARK UNBOUND:                -1.058
REMARK SMILES CCCCCC=CCC=CCCCCCCCC(=O)[O-]
REMARK SMILES IDX 11 1 12 2 13 3 14 4 15 5 16 6 17 7 18 8 19 9 20 10 10 11
REMARK SMILES IDX 9 12 8 13 7 14 6 15 5 16 4 17 3 18 2 19 1 20
REMARK H PARENT
REMARK Flexibility Score: inf
ROOT
ATOM      1  C   UNL     1      13.278  65.365  19.013  1.00  0.00     0.027 C 
ENDROOT
BRANCH   1   2
ATOM      2  C   UNL     1      13.485  66.603  18.127  1.00  0.00     0.004 C 
BRANCH   2   3
ATOM      3  C   UNL     1      13.130  66.338  16.655  1.00  0.00     0.000 C 
BRANCH   3   4
ATOM      4  C   UNL     1      12.769  64.866  16.392  1.00  0.00     0.000 C 
BRANCH   4   5
ATOM      5  C   UNL     1      12.048  64.659  15.048  1.00  0.00     0.000 C 
BRANCH   5   6
ATOM      6  C   UNL     1      11.693  63.196  14.724  1.00  0.00     0.006 C 
BRANCH   6   7
ATOM      7  C   UNL     1      12.208  62.749  13.349  1.00  0.00     0.053 C 
BRANCH   7   8
ATOM      8  C   UNL     1      11.137  62.018  12.603  1.00  0.00     0.041 C 
ATOM      9  O   UNL     1      11.364  60.873  12.130  1.00  0.00    -0.550 OA
ATOM     10  O   UNL     1       9.875  62.580  12.468  1.00  0.00    -0.550 OA
ENDBRANCH   7   8
ENDBRANCH   6   7
ENDBRANCH   5   6
ENDBRANCH   4   5
ENDBRANCH   3   4
ENDBRANCH   2   3
ENDBRANCH   1   2
BRANCH   1  11
ATOM     11  C   UNL     1      14.336  65.285  20.078  1.00  0.00    -0.031 C 
ATOM     12  C   UNL     1      15.439  66.046  20.029  1.00  0.00    -0.027 C 
BRANCH  12  13
ATOM     13  C   UNL     1      16.496  65.979  21.094  1.00  0.00     0.054 C 
BRANCH  13  14
ATOM     14  C   UNL     1      15.857  65.902  22.457  1.00  0.00    -0.027 C 
ATOM     15  C   UNL     1      15.989  64.886  23.332  1.00  0.00    -0.031 C 
BRANCH  15  16
ATOM     16  C   UNL     1      16.856  63.663  23.145  1.00  0.00     0.027 C 
BRANCH  16  17
ATOM     17  C   UNL     1      16.827  62.757  24.386  1.00  0.00     0.004 C 
BRANCH  17  18
ATOM     18  C   UNL     1      15.772  63.172  25.427  1.00  0.00     0.000 C 
BRANCH  18  19
ATOM     19  C   UNL     1      16.407  63.653  26.740  1.00  0.00    -0.003 C 
ATOM     20  C   UNL     1      17.666  62.857  27.066  1.00  0.00     0.004 C 
ENDBRANCH  18  19
ENDBRANCH  17  18
ENDBRANCH  16  17
ENDBRANCH  15  16
ENDBRANCH  13  14
ENDBRANCH  12  13
ENDBRANCH   1  11
TORSDOF 14
ENDMDL
MODEL 5
REMARK VINA RESULT:    -5.827      5.059      8.595
REMARK INTER + INTRA:         -11.654
REMARK INTER:                  -9.212
REMARK INTRA:                  -2.442
REMARK UNBOUND:                -1.058
REMARK SMILES CCCCCC=CCC=CCCCCCCCC(=O)[O-]
REMARK SMILES IDX 11 1 12 2 13 3 14 4 15 5 16 6 17 7 18 8 19 9 20 10 10 11
REMARK SMILES IDX 9 12 8 13 7 14 6 15 5 16 4 17 3 18 2 19 1 20
REMARK H PARENT
REMARK Flexibility Score: inf
ROOT
ATOM      1  C   UNL     1      15.210  67.203  21.723  1.00  0.00     0.027 C 
ENDROOT
BRANCH   1   2
ATOM      2  C   UNL     1      16.132  65.980  21.613  1.00  0.00     0.004 C 
BRANCH   2   3
ATOM      3  C   UNL     1      16.276  65.230  22.947  1.00  0.00     0.000 C 
BRANCH   3   4
ATOM      4  C   UNL     1      16.923  63.845  22.777  1.00  0.00     0.000 C 
BRANCH   4   5
ATOM      5  C   UNL     1      16.698  62.928  23.993  1.00  0.00     0.000 C 
BRANCH   5   6
ATOM      6  C   UNL     1      15.571  63.378  24.941  1.00  0.00     0.006 C 
BRANCH   6   7
ATOM      7  C   UNL     1      16.080  63.743  26.341  1.00  0.00     0.053 C 
BRANCH   7   8
ATOM      8  C   UNL     1      16.906  62.631  26.905  1.00  0.00     0.041 C 
ATOM      9  O   UNL     1      18.055  62.866  27.364  1.00  0.00    -0.550 OA
ATOM     10  O   UNL     1      16.391  61.343  26.965  1.00  0.00    -0.550 OA
ENDBRANCH   7   8
ENDBRANCH   6   7
ENDBRANCH   5   6
ENDBRANCH   4   5
ENDBRANCH   3   4
ENDBRANCH   2   3
ENDBRANCH   1   2
BRANCH   1  11
ATOM     11  C   UNL     1      14.200  67.216  20.610  1.00  0.00    -0.031 C 
ATOM     12  C   UNL     1      14.510  66.788  19.378  1.00  0.00    -0.027 C 
BRANCH  12  13
ATOM     13  C   UNL     1      13.503  66.789  18.263  1.00  0.00     0.054 C 
BRANCH  13  14
ATOM     14  C   UNL     1      13.021  65.387  17.996  1.00  0.00    -0.027 C 
ATOM     15  C   UNL     1      11.998  64.773  18.622  1.00  0.00    -0.031 C 
BRANCH  15  16
ATOM     16  C   UNL     1      11.093  65.396  19.660  1.00  0.00     0.027 C 
BRANCH  16  17
ATOM     17  C   UNL     1      11.012  64.532  20.928  1.00  0.00     0.004 C 
BRANCH  17  18
ATOM     18  C   UNL     1      12.097  64.862  21.968  1.00  0.00     0.000 C 
BRANCH  18  19
ATOM     19  C   UNL     1      12.867  63.614  22.424  1.00  0.00    -0.003 C 
ATOM     20  C   UNL     1      13.720  63.051  21.292  1.00  0.00     0.004 C 
ENDBRANCH  18  19
ENDBRANCH  17  18
ENDBRANCH  16  17
ENDBRANCH  15  16
ENDBRANCH  13  14
ENDBRANCH  12  13
ENDBRANCH   1  11
TORSDOF 14
ENDMDL
MODEL 6
REMARK VINA RESULT:    -5.765      2.147      4.066
REMARK INTER + INTRA:         -11.542
REMARK INTER:                  -9.540
REMARK INTRA:                  -2.002
REMARK UNBOUND:                -1.058
REMARK SMILES CCCCCC=CCC=CCCCCCCCC(=O)[O-]
REMARK SMILES IDX 11 1 12 2 13 3 14 4 15 5 16 6 17 7 18 8 19 9 20 10 10 11
REMARK SMILES IDX 9 12 8 13 7 14 6 15 5 16 4 17 3 18 2 19 1 20
REMARK H PARENT
REMARK Flexibility Score: inf
ROOT
ATOM      1  C   UNL     1      16.189  65.506  21.150  1.00  0.00     0.027 C 
ENDROOT
BRANCH   1   2
ATOM      2  C   UNL     1      14.738  66.006  21.193  1.00  0.00     0.004 C 
BRANCH   2   3
ATOM      3  C   UNL     1      14.401  66.935  20.016  1.00  0.00     0.000 C 
BRANCH   3   4
ATOM      4  C   UNL     1      13.574  66.230  18.927  1.00  0.00     0.000 C 
BRANCH   4   5
ATOM      5  C   UNL     1      13.454  67.060  17.637  1.00  0.00     0.000 C 
BRANCH   5   6
ATOM      6  C   UNL     1      13.124  66.246  16.373  1.00  0.00     0.006 C 
BRANCH   6   7
ATOM      7  C   UNL     1      12.708  64.802  16.685  1.00  0.00     0.053 C 
BRANCH   7   8
ATOM      8  C   UNL     1      12.003  64.196  15.513  1.00  0.00     0.041 C 
ATOM      9  O   UNL     1      12.392  64.445  14.342  1.00  0.00    -0.550 OA
ATOM     10  O   UNL     1      10.946  63.319  15.715  1.00  0.00    -0.550 OA
ENDBRANCH   7   8
ENDBRANCH   6   7
ENDBRANCH   5   6
ENDBRANCH   4   5
ENDBRANCH   3   4
ENDBRANCH   2   3
ENDBRANCH   1   2
BRANCH   1  11
ATOM     11  C   UNL     1      16.500  64.657  22.351  1.00  0.00    -0.031 C 
ATOM     12  C   UNL     1      15.919  64.883  23.538  1.00  0.00    -0.027 C 
BRANCH  12  13
ATOM     13  C   UNL     1      16.217  64.033  24.740  1.00  0.00     0.054 C 
BRANCH  13  14
ATOM     14  C   UNL     1      16.862  62.739  24.316  1.00  0.00    -0.027 C 
ATOM     15  C   UNL     1      16.343  61.508  24.485  1.00  0.00    -0.031 C 
BRANCH  15  16
ATOM     16  C   UNL     1      14.985  61.192  25.067  1.00  0.00     0.027 C 
BRANCH  16  17
ATOM     17  C   UNL     1      13.904  61.131  23.976  1.00  0.00     0.004 C 
BRANCH  17  18
ATOM     18  C   UNL     1      13.103  62.437  23.831  1.00  0.00     0.000 C 
BRANCH  18  19
ATOM     19  C   UNL     1      12.837  62.797  22.362  1.00  0.00    -0.003 C 
ATOM     20  C   UNL     1      13.956  62.288  21.460  1.00  0.00     0.004 C 
ENDBRANCH  18  19
ENDBRANCH  17  18
ENDBRANCH  16  17
ENDBRANCH  15  16
ENDBRANCH  13  14
ENDBRANCH  12  13
ENDBRANCH   1  11
TORSDOF 14
ENDMDL
MODEL 7
REMARK VINA RESULT:    -5.764      4.543      6.301
REMARK INTER + INTRA:         -11.539
REMARK INTER:                  -8.467
REMARK INTRA:                  -3.072
REMARK UNBOUND:                -1.058
REMARK SMILES CCCCCC=CCC=CCCCCCCCC(=O)[O-]
REMARK SMILES IDX 11 1 12 2 13 3 14 4 15 5 16 6 17 7 18 8 19 9 20 10 10 11
REMARK SMILES IDX 9 12 8 13 7 14 6 15 5 16 4 17 3 18 2 19 1 20
REMARK H PARENT
REMARK Flexibility Score: inf
ROOT
ATOM      1  C   UNL     1      12.187  64.155  23.222  1.00  0.00     0.027 C 
ENDROOT
BRANCH   1   2
ATOM      2  C   UNL     1      13.254  65.143  23.716  1.00  0.00     0.004 C 
BRANCH   2   3
ATOM      3  C   UNL     1      14.469  64.435  24.337  1.00  0.00     0.000 C 
BRANCH   3   4
ATOM      4  C   UNL     1      15.797  65.121  23.979  1.00  0.00     0.000 C 
BRANCH   4   5
ATOM      5  C   UNL     1      16.468  64.511  22.735  1.00  0.00     0.000 C 
BRANCH   5   6
ATOM      6  C   UNL     1      16.540  65.448  21.515  1.00  0.00     0.006 C 
BRANCH   6   7
ATOM      7  C   UNL     1      15.303  65.348  20.612  1.00  0.00     0.053 C 
BRANCH   7   8
ATOM      8  C   UNL     1      14.729  66.705  20.359  1.00  0.00     0.041 C 
ATOM      9  O   UNL     1      14.447  67.065  19.185  1.00  0.00    -0.550 OA
ATOM     10  O   UNL     1      14.462  67.557  21.422  1.00  0.00    -0.550 OA
ENDBRANCH   7   8
ENDBRANCH   6   7
ENDBRANCH   5   6
ENDBRANCH   4   5
ENDBRANCH   3   4
ENDBRANCH   2   3
ENDBRANCH   1   2
BRANCH   1  11
ATOM     11  C   UNL     1      12.785  62.798  22.977  1.00  0.00    -0.031 C 
ATOM     12  C   UNL     1      13.205  62.427  21.758  1.00  0.00    -0.027 C 
BRANCH  12  13
ATOM     13  C   UNL     1      13.812  61.077  21.507  1.00  0.00     0.054 C 
BRANCH  13  14
ATOM     14  C   UNL     1      15.316  61.167  21.540  1.00  0.00    -0.027 C 
ATOM     15  C   UNL     1      16.090  61.003  22.630  1.00  0.00    -0.031 C 
BRANCH  15  16
ATOM     16  C   UNL     1      15.607  60.627  24.011  1.00  0.00     0.027 C 
BRANCH  16  17
ATOM     17  C   UNL     1      16.464  61.282  25.106  1.00  0.00     0.004 C 
BRANCH  17  18
ATOM     18  C   UNL     1      15.656  61.715  26.343  1.00  0.00     0.000 C 
BRANCH  18  19
ATOM     19  C   UNL     1      14.283  61.031  26.411  1.00  0.00    -0.003 C 
ATOM     20  C   UNL     1      13.211  61.998  26.901  1.00  0.00     0.004 C 
ENDBRANCH  18  19
ENDBRANCH  17  18
ENDBRANCH  16  17
ENDBRANCH  15  16
ENDBRANCH  13  14
ENDBRANCH  12  13
ENDBRANCH   1  11
TORSDOF 14
ENDMDL
MODEL 8
REMARK VINA RESULT:    -5.738      6.075      7.999
REMARK INTER + INTRA:         -11.492
REMARK INTER:                  -9.569
REMARK INTRA:                  -1.923
REMARK UNBOUND:                -1.058
REMARK SMILES CCCCCC=CCC=CCCCCCCCC(=O)[O-]
REMARK SMILES IDX 11 1 12 2 13 3 14 4 15 5 16 6 17 7 18 8 19 9 20 10 10 11
REMARK SMILES IDX 9 12 8 13 7 14 6 15 5 16 4 17 3 18 2 19 1 20
REMARK H PARENT
REMARK Flexibility Score: inf
ROOT
ATOM      1  C   UNL     1      15.706  60.602  22.511  1.00  0.00     0.027 C 
ENDROOT
BRANCH   1   2
ATOM      2  C   UNL     1      14.192  60.752  22.304  1.00  0.00     0.004 C 
BRANCH   2   3
ATOM      3  C   UNL     1      13.560  59.506  21.665  1.00  0.00     0.000 C 
BRANCH   3   4
ATOM      4  C   UNL     1      12.264  59.074  22.372  1.00  0.00     0.000 C 
BRANCH   4   5
ATOM      5  C   UNL     1      12.352  59.194  23.904  1.00  0.00     0.000 C 
BRANCH   5   6
ATOM      6  C   UNL     1      11.208  58.507  24.672  1.00  0.00     0.006 C 
BRANCH   6   7
ATOM      7  C   UNL     1       9.963  58.274  23.806  1.00  0.00     0.053 C 
BRANCH   7   8
ATOM      8  C   UNL     1       9.144  57.151  24.359  1.00  0.00     0.041 C 
ATOM      9  O   UNL     1       9.039  56.071  23.720  1.00  0.00    -0.550 OA
ATOM     10  O   UNL     1       8.536  57.279  25.600  1.00  0.00    -0.550 OA
ENDBRANCH   7   8
ENDBRANCH   6   7
ENDBRANCH   5   6
ENDBRANCH   4   5
ENDBRANCH   3   4
ENDBRANCH   2   3
ENDBRANCH   1   2
BRANCH   1  11
ATOM     11  C   UNL     1      16.054  60.636  23.973  1.00  0.00    -0.031 C 
ATOM     12  C   UNL     1      15.151  60.984  24.901  1.00  0.00    -0.027 C 
BRANCH  12  13
ATOM     13  C   UNL     1      15.488  61.010  26.364  1.00  0.00     0.054 C 
BRANCH  13  14
ATOM     14  C   UNL     1      16.785  61.745  26.586  1.00  0.00    -0.027 C 
ATOM     15  C   UNL     1      16.923  63.079  26.705  1.00  0.00    -0.031 C 
BRANCH  15  16
ATOM     16  C   UNL     1      15.799  64.090  26.709  1.00  0.00     0.027 C 
BRANCH  16  17
ATOM     17  C   UNL     1      15.927  65.080  25.541  1.00  0.00     0.004 C 
BRANCH  17  18
ATOM     18  C   UNL     1      15.370  64.540  24.213  1.00  0.00     0.000 C 
BRANCH  18  19
ATOM     19  C   UNL     1      16.482  64.192  23.213  1.00  0.00    -0.003 C 
ATOM     20  C   UNL     1      16.397  65.070  21.969  1.00  0.00     0.004 C 
ENDBRANCH  18  19
ENDBRANCH  17  18
ENDBRANCH  16  17
ENDBRANCH  15  16
ENDBRANCH  13  14
ENDBRANCH  12  13
ENDBRANCH   1  11
TORSDOF 14
ENDMDL
MODEL 9
REMARK VINA RESULT:    -5.690      3.960      7.495
REMARK INTER + INTRA:         -11.405
REMARK INTER:                  -8.619
REMARK INTRA:                  -2.787
REMARK UNBOUND:                -1.058
REMARK SMILES CCCCCC=CCC=CCCCCCCCC(=O)[O-]
REMARK SMILES IDX 11 1 12 2 13 3 14 4 15 5 16 6 17 7 18 8 19 9 20 10 10 11
REMARK SMILES IDX 9 12 8 13 7 14 6 15 5 16 4 17 3 18 2 19 1 20
REMARK H PARENT
REMARK Flexibility Score: inf
ROOT
ATOM      1  C   UNL     1      16.872  63.347  23.914  1.00  0.00     0.027 C 
ENDROOT
BRANCH   1   2
ATOM      2  C   UNL     1      15.814  63.098  24.998  1.00  0.00     0.004 C 
BRANCH   2   3
ATOM      3  C   UNL     1      14.460  63.740  24.656  1.00  0.00     0.000 C 
BRANCH   3   4
ATOM      4  C   UNL     1      13.313  62.715  24.626  1.00  0.00     0.000 C 
BRANCH   4   5
ATOM      5  C   UNL     1      12.494  62.774  23.325  1.00  0.00     0.000 C 
BRANCH   5   6
ATOM      6  C   UNL     1      12.666  61.558  22.397  1.00  0.00     0.006 C 
BRANCH   6   7
ATOM      7  C   UNL     1      13.911  61.660  21.505  1.00  0.00     0.053 C 
BRANCH   7   8
ATOM      8  C   UNL     1      14.827  60.504  21.751  1.00  0.00     0.041 C 
ATOM      9  O   UNL     1      15.209  59.784  20.791  1.00  0.00    -0.550 OA
ATOM     10  O   UNL     1      15.296  60.248  23.033  1.00  0.00    -0.550 OA
ENDBRANCH   7   8
ENDBRANCH   6   7
ENDBRANCH   5   6
ENDBRANCH   4   5
ENDBRANCH   3   4
ENDBRANCH   2   3
ENDBRANCH   1   2
BRANCH   1  11
ATOM     11  C   UNL     1      16.253  63.966  22.691  1.00  0.00    -0.031 C 
ATOM     12  C   UNL     1      16.720  65.111  22.173  1.00  0.00    -0.027 C 
BRANCH  12  13
ATOM     13  C   UNL     1      16.113  65.730  20.947  1.00  0.00     0.054 C 
BRANCH  13  14
ATOM     14  C   UNL     1      15.450  67.038  21.297  1.00  0.00    -0.027 C 
ATOM     15  C   UNL     1      14.188  67.186  21.744  1.00  0.00    -0.031 C 
BRANCH  15  16
ATOM     16  C   UNL     1      13.219  66.067  22.048  1.00  0.00     0.027 C 
BRANCH  16  17
ATOM     17  C   UNL     1      12.245  65.833  20.884  1.00  0.00     0.004 C 
BRANCH  17  18
ATOM     18  C   UNL     1      12.785  64.868  19.813  1.00  0.00     0.000 C 
BRANCH  18  19
ATOM     19  C   UNL     1      12.560  65.393  18.388  1.00  0.00    -0.003 C 
ATOM     20  C   UNL     1      13.461  66.588  18.093  1.00  0.00     0.004 C 
ENDBRANCH  18  19
ENDBRANCH  17  18
ENDBRANCH  16  17
ENDBRANCH  15  16
ENDBRANCH  13  14
ENDBRANCH  12  13
ENDBRANCH   1  11
TORSDOF 14
ENDMDL
