MODEL 1
REMARK VINA RESULT:    -3.345      0.000      0.000
REMARK INTER + INTRA:          -3.752
REMARK INTER:                  -3.736
REMARK INTRA:                  -0.016
REMARK UNBOUND:                -0.016
REMARK SMILES CCCC(=O)[O-]
REMARK SMILES IDX 3 1 4 2 5 3 6 4 2 5 1 6
REMARK H PARENT
REMARK Flexibility Score: inf
ROOT
ATOM      1  C   UNL     1     -15.243  -6.031  38.699  1.00  0.00     0.052 C 
ENDROOT
BRANCH   1   2
ATOM      2  C   UNL     1     -16.726  -6.150  38.870  1.00  0.00     0.041 C 
ATOM      3  O   UNL     1     -17.404  -5.152  39.233  1.00  0.00    -0.550 OA
ATOM      4  O   UNL     1     -17.366  -7.351  38.594  1.00  0.00    -0.550 OA
ENDBRANCH   1   2
BRANCH   1   5
ATOM      5  C   UNL     1     -14.843  -5.978  37.219  1.00  0.00     0.003 C 
ATOM      6  C   UNL     1     -13.648  -6.878  36.906  1.00  0.00     0.004 C 
ENDBRANCH   1   5
TORSDOF 2
ENDMDL
MODEL 2
REMARK VINA RESULT:    -3.277      0.091      1.324
REMARK INTER + INTRA:          -3.677
REMARK INTER:                  -3.655
REMARK INTRA:                  -0.022
REMARK UNBOUND:                -0.016
REMARK SMILES CCCC(=O)[O-]
REMARK SMILES IDX 3 1 4 2 5 3 6 4 2 5 1 6
REMARK H PARENT
REMARK Flexibility Score: inf
ROOT
ATOM      1  C   UNL     1     -15.243  -6.097  38.720  1.00  0.00     0.052 C 
ENDROOT
BRANCH   1   2
ATOM      2  C   UNL     1     -16.733  -6.218  38.803  1.00  0.00     0.041 C 
ATOM      3  O   UNL     1     -17.296  -7.313  38.537  1.00  0.00    -0.550 OA
ATOM      4  O   UNL     1     -17.500  -5.132  39.208  1.00  0.00    -0.550 OA
ENDBRANCH   1   2
BRANCH   1   5
ATOM      5  C   UNL     1     -14.768  -5.901  37.274  1.00  0.00     0.003 C 
ATOM      6  C   UNL     1     -13.669  -6.889  36.884  1.00  0.00     0.004 C 
ENDBRANCH   1   5
TORSDOF 2
ENDMDL
MODEL 3
REMARK VINA RESULT:    -3.223      2.614      3.552
REMARK INTER + INTRA:          -3.616
REMARK INTER:                  -3.610
REMARK INTRA:                  -0.005
REMARK UNBOUND:                -0.016
REMARK SMILES CCCC(=O)[O-]
REMARK SMILES IDX 3 1 4 2 5 3 6 4 2 5 1 6
REMARK H PARENT
REMARK Flexibility Score: inf
ROOT
ATOM      1  C   UNL     1     -14.861  -5.802  38.339  1.00  0.00     0.052 C 
ENDROOT
BRANCH   1   2
ATOM      2  C   UNL     1     -13.981  -6.580  37.410  1.00  0.00     0.041 C 
ATOM      3  O   UNL     1     -14.168  -6.526  36.166  1.00  0.00    -0.550 OA
ATOM      4  O   UNL     1     -12.930  -7.336  37.915  1.00  0.00    -0.550 OA
ENDBRANCH   1   2
BRANCH   1   5
ATOM      5  C   UNL     1     -16.298  -6.339  38.344  1.00  0.00     0.003 C 
ATOM      6  C   UNL     1     -17.156  -5.697  39.434  1.00  0.00     0.004 C 
ENDBRANCH   1   5
TORSDOF 2
ENDMDL
MODEL 4
REMARK VINA RESULT:    -3.100      3.098      4.054
REMARK INTER + INTRA:          -3.479
REMARK INTER:                  -3.440
REMARK INTRA:                  -0.038
REMARK UNBOUND:                -0.016
REMARK SMILES CCCC(=O)[O-]
REMARK SMILES IDX 3 1 4 2 5 3 6 4 2 5 1 6
REMARK H PARENT
REMARK Flexibility Score: inf
ROOT
ATOM      1  C   UNL     1     -13.975  -6.790  36.843  1.00  0.00     0.052 C 
ENDROOT
BRANCH   1   2
ATOM      2  C   UNL     1     -12.820  -7.427  37.553  1.00  0.00     0.041 C 
ATOM      3  O   UNL     1     -12.010  -8.154  36.920  1.00  0.00    -0.550 OA
ATOM      4  O   UNL     1     -12.617  -7.189  38.907  1.00  0.00    -0.550 OA
ENDBRANCH   1   2
BRANCH   1   5
ATOM      5  C   UNL     1     -14.674  -5.742  37.720  1.00  0.00     0.003 C 
ATOM      6  C   UNL     1     -16.043  -6.212  38.209  1.00  0.00     0.004 C 
ENDBRANCH   1   5
TORSDOF 2
ENDMDL
MODEL 5
REMARK VINA RESULT:    -2.962      2.928      3.718
REMARK INTER + INTRA:          -3.325
REMARK INTER:                  -3.315
REMARK INTRA:                  -0.010
REMARK UNBOUND:                -0.016
REMARK SMILES CCCC(=O)[O-]
REMARK SMILES IDX 3 1 4 2 5 3 6 4 2 5 1 6
REMARK H PARENT
REMARK Flexibility Score: inf
ROOT
ATOM      1  C   UNL     1     -12.536  -7.632  37.484  1.00  0.00     0.052 C 
ENDROOT
BRANCH   1   2
ATOM      2  C   UNL     1     -13.761  -6.785  37.335  1.00  0.00     0.041 C 
ATOM      3  O   UNL     1     -14.166  -6.452  36.189  1.00  0.00    -0.550 OA
ATOM      4  O   UNL     1     -14.478  -6.392  38.458  1.00  0.00    -0.550 OA
ENDBRANCH   1   2
BRANCH   1   5
ATOM      5  C   UNL     1     -12.039  -7.664  38.935  1.00  0.00     0.003 C 
ATOM      6  C   UNL     1     -11.048  -8.800  39.187  1.00  0.00     0.004 C 
ENDBRANCH   1   5
TORSDOF 2
ENDMDL
MODEL 6
REMARK VINA RESULT:    -2.943      4.047      4.657
REMARK INTER + INTRA:          -3.303
REMARK INTER:                  -3.295
REMARK INTRA:                  -0.009
REMARK UNBOUND:                -0.016
REMARK SMILES CCCC(=O)[O-]
REMARK SMILES IDX 3 1 4 2 5 3 6 4 2 5 1 6
REMARK H PARENT
REMARK Flexibility Score: inf
ROOT
ATOM      1  C   UNL     1     -12.866  -7.176  38.370  1.00  0.00     0.052 C 
ENDROOT
BRANCH   1   2
ATOM      2  C   UNL     1     -11.827  -8.244  38.228  1.00  0.00     0.041 C 
ATOM      3  O   UNL     1     -11.304  -8.759  39.251  1.00  0.00    -0.550 OA
ATOM      4  O   UNL     1     -11.460  -8.698  36.967  1.00  0.00    -0.550 OA
ENDBRANCH   1   2
BRANCH   1   5
ATOM      5  C   UNL     1     -13.593  -6.909  37.045  1.00  0.00     0.003 C 
ATOM      6  C   UNL     1     -14.803  -5.993  37.219  1.00  0.00     0.004 C 
ENDBRANCH   1   5
TORSDOF 2
ENDMDL
MODEL 7
REMARK VINA RESULT:    -2.936      8.712      9.321
REMARK INTER + INTRA:          -3.295
REMARK INTER:                  -3.258
REMARK INTRA:                  -0.037
REMARK UNBOUND:                -0.016
REMARK SMILES CCCC(=O)[O-]
REMARK SMILES IDX 3 1 4 2 5 3 6 4 2 5 1 6
REMARK H PARENT
REMARK Flexibility Score: inf
ROOT
ATOM      1  C   UNL     1     -15.130 -10.603  45.561  1.00  0.00     0.052 C 
ENDROOT
BRANCH   1   2
ATOM      2  C   UNL     1     -15.452 -11.113  46.932  1.00  0.00     0.041 C 
ATOM      3  O   UNL     1     -16.448 -10.662  47.558  1.00  0.00    -0.550 OA
ATOM      4  O   UNL     1     -14.675 -12.112  47.505  1.00  0.00    -0.550 OA
ENDBRANCH   1   2
BRANCH   1   5
ATOM      5  C   UNL     1     -16.270 -10.876  44.570  1.00  0.00     0.003 C 
ATOM      6  C   UNL     1     -17.038  -9.608  44.203  1.00  0.00     0.004 C 
ENDBRANCH   1   5
TORSDOF 2
ENDMDL
MODEL 8
REMARK VINA RESULT:    -2.894      9.799     10.260
REMARK INTER + INTRA:          -3.249
REMARK INTER:                  -3.210
REMARK INTRA:                  -0.038
REMARK UNBOUND:                -0.016
REMARK SMILES CCCC(=O)[O-]
REMARK SMILES IDX 3 1 4 2 5 3 6 4 2 5 1 6
REMARK H PARENT
REMARK Flexibility Score: inf
ROOT
ATOM      1  C   UNL     1     -15.081 -11.472  47.082  1.00  0.00     0.052 C 
ENDROOT
BRANCH   1   2
ATOM      2  C   UNL     1     -15.552 -10.716  48.286  1.00  0.00     0.041 C 
ATOM      3  O   UNL     1     -16.552  -9.955  48.205  1.00  0.00    -0.550 OA
ATOM      4  O   UNL     1     -14.910 -10.880  49.507  1.00  0.00    -0.550 OA
ENDBRANCH   1   2
BRANCH   1   5
ATOM      5  C   UNL     1     -14.957 -10.563  45.852  1.00  0.00     0.003 C 
ATOM      6  C   UNL     1     -15.956 -10.929  44.754  1.00  0.00     0.004 C 
ENDBRANCH   1   5
TORSDOF 2
ENDMDL
MODEL 9
REMARK VINA RESULT:    -2.862      7.182      7.825
REMARK INTER + INTRA:          -3.213
REMARK INTER:                  -3.174
REMARK INTRA:                  -0.038
REMARK UNBOUND:                -0.016
REMARK SMILES CCCC(=O)[O-]
REMARK SMILES IDX 3 1 4 2 5 3 6 4 2 5 1 6
REMARK H PARENT
REMARK Flexibility Score: inf
ROOT
ATOM      1  C   UNL     1     -16.480 -10.703  44.463  1.00  0.00     0.052 C 
ENDROOT
BRANCH   1   2
ATOM      2  C   UNL     1     -17.316  -9.476  44.273  1.00  0.00     0.041 C 
ATOM      3  O   UNL     1     -17.656  -8.781  45.267  1.00  0.00    -0.550 OA
ATOM      4  O   UNL     1     -17.691  -9.079  42.996  1.00  0.00    -0.550 OA
ENDBRANCH   1   2
BRANCH   1   5
ATOM      5  C   UNL     1     -15.192 -10.400  45.241  1.00  0.00     0.003 C 
ATOM      6  C   UNL     1     -15.161 -11.086  46.606  1.00  0.00     0.004 C 
ENDBRANCH   1   5
TORSDOF 2
ENDMDL
