MODEL 1
REMARK VINA RESULT:    -4.183      0.000      0.000
REMARK INTER + INTRA:          -6.567
REMARK INTER:                  -6.017
REMARK INTRA:                  -0.550
REMARK UNBOUND:                -0.550
REMARK SMILES O=C(CO)[C@@H](O)[C@H](O)[C@@H](O)CO
REMARK SMILES IDX 7 1 9 2 11 3 12 4 10 6 5 8 2 9 1 10 3 11 4 12 6 14 8 16
REMARK H PARENT 12 5 10 7 4 13 6 15 8 17
REMARK Flexibility Score: inf
ROOT
ATOM      1  C   UNL     1     -41.412  25.033   6.710  1.00  0.00     0.181 C 
ENDROOT
BRANCH   1   2
ATOM      2  C   UNL     1     -42.093  24.755   5.341  1.00  0.00     0.171 C 
BRANCH   2   3
ATOM      3  C   UNL     1     -41.529  23.535   4.581  1.00  0.00     0.190 C 
BRANCH   3   4
ATOM      4  O   UNL     1     -40.188  23.757   4.235  1.00  0.00    -0.394 OA
ATOM      5  H   UNL     1     -40.194  24.216   3.354  1.00  0.00     0.210 HD
ENDBRANCH   3   4
ENDBRANCH   2   3
BRANCH   2   6
ATOM      6  O   UNL     1     -42.097  25.908   4.534  1.00  0.00    -0.388 OA
ATOM      7  H   UNL     1     -41.387  25.807   3.848  1.00  0.00     0.211 HD
ENDBRANCH   2   6
ENDBRANCH   1   2
BRANCH   1   8
ATOM      8  C   UNL     1     -41.246  23.787   7.624  1.00  0.00     0.214 C 
BRANCH   8   9
ATOM      9  C   UNL     1     -39.804  23.632   8.075  1.00  0.00     0.189 C 
ATOM     10  O   UNL     1     -39.555  22.881   9.007  1.00  0.00    -0.294 OA
BRANCH   9  11
ATOM     11  C   UNL     1     -38.678  24.378   7.399  1.00  0.00     0.234 C 
BRANCH  11  12
ATOM     12  O   UNL     1     -38.221  23.689   6.265  1.00  0.00    -0.388 OA
ATOM     13  H   UNL     1     -37.529  24.263   5.844  1.00  0.00     0.211 HD
ENDBRANCH  11  12
ENDBRANCH   9  11
ENDBRANCH   8   9
BRANCH   8  14
ATOM     14  O   UNL     1     -42.125  23.812   8.723  1.00  0.00    -0.382 OA
ATOM     15  H   UNL     1     -41.763  24.445   9.395  1.00  0.00     0.211 HD
ENDBRANCH   8  14
ENDBRANCH   1   8
BRANCH   1  16
ATOM     16  O   UNL     1     -42.102  26.043   7.404  1.00  0.00    -0.387 OA
ATOM     17  H   UNL     1     -42.993  26.134   6.975  1.00  0.00     0.211 HD
ENDBRANCH   1  16
TORSDOF 10
ENDMDL
MODEL 2
REMARK VINA RESULT:    -3.937      1.276      3.617
REMARK INTER + INTRA:          -6.213
REMARK INTER:                  -5.570
REMARK INTRA:                  -0.644
REMARK UNBOUND:                -0.550
REMARK SMILES O=C(CO)[C@@H](O)[C@H](O)[C@@H](O)CO
REMARK SMILES IDX 7 1 9 2 11 3 12 4 10 6 5 8 2 9 1 10 3 11 4 12 6 14 8 16
REMARK H PARENT 12 5 10 7 4 13 6 15 8 17
REMARK Flexibility Score: inf
ROOT
ATOM      1  C   UNL     1     -41.146  24.151   8.003  1.00  0.00     0.181 C 
ENDROOT
BRANCH   1   2
ATOM      2  C   UNL     1     -40.141  23.164   8.659  1.00  0.00     0.171 C 
BRANCH   2   3
ATOM      3  C   UNL     1     -38.672  23.361   8.223  1.00  0.00     0.190 C 
BRANCH   3   4
ATOM      4  O   UNL     1     -38.606  23.623   6.847  1.00  0.00    -0.394 OA
ATOM      5  H   UNL     1     -39.226  22.986   6.406  1.00  0.00     0.210 HD
ENDBRANCH   3   4
ENDBRANCH   2   3
BRANCH   2   6
ATOM      6  O   UNL     1     -40.555  21.830   8.486  1.00  0.00    -0.388 OA
ATOM      7  H   UNL     1     -40.930  21.739   7.571  1.00  0.00     0.211 HD
ENDBRANCH   2   6
ENDBRANCH   1   2
BRANCH   1   8
ATOM      8  C   UNL     1     -41.812  23.637   6.697  1.00  0.00     0.214 C 
BRANCH   8   9
ATOM      9  C   UNL     1     -41.719  24.676   5.594  1.00  0.00     0.189 C 
ATOM     10  O   UNL     1     -42.119  25.810   5.817  1.00  0.00    -0.294 OA
BRANCH   9  11
ATOM     11  C   UNL     1     -41.146  24.342   4.237  1.00  0.00     0.234 C 
BRANCH  11  12
ATOM     12  O   UNL     1     -39.897  23.713   4.354  1.00  0.00    -0.388 OA
ATOM     13  H   UNL     1     -39.241  24.295   3.890  1.00  0.00     0.211 HD
ENDBRANCH  11  12
ENDBRANCH   9  11
ENDBRANCH   8   9
BRANCH   8  14
ATOM     14  O   UNL     1     -41.283  22.401   6.280  1.00  0.00    -0.382 OA
ATOM     15  H   UNL     1     -41.475  22.291   5.313  1.00  0.00     0.211 HD
ENDBRANCH   8  14
ENDBRANCH   1   8
BRANCH   1  16
ATOM     16  O   UNL     1     -40.527  25.392   7.765  1.00  0.00    -0.387 OA
ATOM     17  H   UNL     1     -39.547  25.240   7.801  1.00  0.00     0.211 HD
ENDBRANCH   1  16
TORSDOF 10
ENDMDL
MODEL 3
REMARK VINA RESULT:    -3.665      1.455      2.065
REMARK INTER + INTRA:          -5.822
REMARK INTER:                  -4.719
REMARK INTRA:                  -1.103
REMARK UNBOUND:                -0.550
REMARK SMILES O=C(CO)[C@@H](O)[C@H](O)[C@@H](O)CO
REMARK SMILES IDX 7 1 9 2 11 3 12 4 10 6 5 8 2 9 1 10 3 11 4 12 6 14 8 16
REMARK H PARENT 12 5 10 7 4 13 6 15 8 17
REMARK Flexibility Score: inf
ROOT
ATOM      1  C   UNL     1     -42.125  23.257   6.275  1.00  0.00     0.181 C 
ENDROOT
BRANCH   1   2
ATOM      2  C   UNL     1     -41.966  24.242   5.084  1.00  0.00     0.171 C 
BRANCH   2   3
ATOM      3  C   UNL     1     -40.668  24.057   4.268  1.00  0.00     0.190 C 
BRANCH   3   4
ATOM      4  O   UNL     1     -39.584  23.828   5.128  1.00  0.00    -0.394 OA
ATOM      5  H   UNL     1     -39.534  24.610   5.738  1.00  0.00     0.210 HD
ENDBRANCH   3   4
ENDBRANCH   2   3
BRANCH   2   6
ATOM      6  O   UNL     1     -42.125  25.576   5.505  1.00  0.00    -0.388 OA
ATOM      7  H   UNL     1     -43.097  25.771   5.553  1.00  0.00     0.211 HD
ENDBRANCH   2   6
ENDBRANCH   1   2
BRANCH   1   8
ATOM      8  C   UNL     1     -41.839  23.869   7.675  1.00  0.00     0.214 C 
BRANCH   8   9
ATOM      9  C   UNL     1     -41.315  22.814   8.632  1.00  0.00     0.189 C 
ATOM     10  O   UNL     1     -42.077  21.940   9.021  1.00  0.00    -0.294 OA
BRANCH   9  11
ATOM     11  C   UNL     1     -39.882  22.819   9.110  1.00  0.00     0.234 C 
BRANCH  11  12
ATOM     12  O   UNL     1     -38.990  22.965   8.037  1.00  0.00    -0.388 OA
ATOM     13  H   UNL     1     -39.234  22.274   7.368  1.00  0.00     0.211 HD
ENDBRANCH  11  12
ENDBRANCH   9  11
ENDBRANCH   8   9
BRANCH   8  14
ATOM     14  O   UNL     1     -40.969  24.973   7.605  1.00  0.00    -0.382 OA
ATOM     15  H   UNL     1     -40.117  24.725   8.048  1.00  0.00     0.211 HD
ENDBRANCH   8  14
ENDBRANCH   1   8
BRANCH   1  16
ATOM     16  O   UNL     1     -41.320  22.120   6.080  1.00  0.00    -0.387 OA
ATOM     17  H   UNL     1     -41.318  21.614   6.934  1.00  0.00     0.211 HD
ENDBRANCH   1  16
TORSDOF 10
ENDMDL
MODEL 4
REMARK VINA RESULT:    -3.238     16.739     18.647
REMARK INTER + INTRA:          -5.208
REMARK INTER:                  -4.822
REMARK INTRA:                  -0.387
REMARK UNBOUND:                -0.550
REMARK SMILES O=C(CO)[C@@H](O)[C@H](O)[C@@H](O)CO
REMARK SMILES IDX 7 1 9 2 11 3 12 4 10 6 5 8 2 9 1 10 3 11 4 12 6 14 8 16
REMARK H PARENT 12 5 10 7 4 13 6 15 8 17
REMARK Flexibility Score: inf
ROOT
ATOM      1  C   UNL     1     -24.446  32.206   8.784  1.00  0.00     0.181 C 
ENDROOT
BRANCH   1   2
ATOM      2  C   UNL     1     -23.018  32.780   9.001  1.00  0.00     0.171 C 
BRANCH   2   3
ATOM      3  C   UNL     1     -22.958  34.318   9.125  1.00  0.00     0.190 C 
BRANCH   3   4
ATOM      4  O   UNL     1     -22.249  34.863   8.044  1.00  0.00    -0.394 OA
ATOM      5  H   UNL     1     -21.927  35.756   8.336  1.00  0.00     0.210 HD
ENDBRANCH   3   4
ENDBRANCH   2   3
BRANCH   2   6
ATOM      6  O   UNL     1     -22.127  32.306   8.020  1.00  0.00    -0.388 OA
ATOM      7  H   UNL     1     -21.737  33.090   7.553  1.00  0.00     0.211 HD
ENDBRANCH   2   6
ENDBRANCH   1   2
BRANCH   1   8
ATOM      8  C   UNL     1     -24.724  31.663   7.355  1.00  0.00     0.214 C 
BRANCH   8   9
ATOM      9  C   UNL     1     -24.478  30.167   7.285  1.00  0.00     0.189 C 
ATOM     10  O   UNL     1     -23.890  29.622   8.208  1.00  0.00    -0.294 OA
BRANCH   9  11
ATOM     11  C   UNL     1     -24.944  29.341   6.109  1.00  0.00     0.234 C 
BRANCH  11  12
ATOM     12  O   UNL     1     -25.215  30.151   4.995  1.00  0.00    -0.388 OA
ATOM     13  H   UNL     1     -24.631  30.949   5.075  1.00  0.00     0.211 HD
ENDBRANCH  11  12
ENDBRANCH   9  11
ENDBRANCH   8   9
BRANCH   8  14
ATOM     14  O   UNL     1     -26.016  31.991   6.902  1.00  0.00    -0.382 OA
ATOM     15  H   UNL     1     -25.972  32.874   6.453  1.00  0.00     0.211 HD
ENDBRANCH   8  14
ENDBRANCH   1   8
BRANCH   1  16
ATOM     16  O   UNL     1     -25.416  33.166   9.125  1.00  0.00    -0.387 OA
ATOM     17  H   UNL     1     -25.148  34.018   8.690  1.00  0.00     0.211 HD
ENDBRANCH   1  16
TORSDOF 10
ENDMDL
MODEL 5
REMARK VINA RESULT:    -1.881      1.458      3.101
REMARK INTER + INTRA:          -3.256
REMARK INTER:                  -3.881
REMARK INTRA:                   0.626
REMARK UNBOUND:                -0.550
REMARK SMILES O=C(CO)[C@@H](O)[C@H](O)[C@@H](O)CO
REMARK SMILES IDX 7 1 9 2 11 3 12 4 10 6 5 8 2 9 1 10 3 11 4 12 6 14 8 16
REMARK H PARENT 12 5 10 7 4 13 6 15 8 17
REMARK Flexibility Score: inf
ROOT
ATOM      1  C   UNL     1     -41.260  24.496   5.696  1.00  0.00     0.181 C 
ENDROOT
BRANCH   1   2
ATOM      2  C   UNL     1     -39.883  23.780   5.779  1.00  0.00     0.171 C 
BRANCH   2   3
ATOM      3  C   UNL     1     -38.892  24.411   6.781  1.00  0.00     0.190 C 
BRANCH   3   4
ATOM      4  O   UNL     1     -38.440  23.443   7.689  1.00  0.00    -0.394 OA
ATOM      5  H   UNL     1     -38.216  23.923   8.529  1.00  0.00     0.210 HD
ENDBRANCH   3   4
ENDBRANCH   2   3
BRANCH   2   6
ATOM      6  O   UNL     1     -39.307  23.639   4.503  1.00  0.00    -0.388 OA
ATOM      7  H   UNL     1     -39.971  23.199   3.910  1.00  0.00     0.211 HD
ENDBRANCH   2   6
ENDBRANCH   1   2
BRANCH   1   8
ATOM      8  C   UNL     1     -42.028  24.598   7.042  1.00  0.00     0.214 C 
BRANCH   8   9
ATOM      9  C   UNL     1     -41.610  23.490   7.992  1.00  0.00     0.189 C 
ATOM     10  O   UNL     1     -40.838  23.754   8.903  1.00  0.00    -0.294 OA
BRANCH   9  11
ATOM     11  C   UNL     1     -42.125  22.078   7.837  1.00  0.00     0.234 C 
BRANCH  11  12
ATOM     12  O   UNL     1     -41.766  21.283   8.936  1.00  0.00    -0.388 OA
ATOM     13  H   UNL     1     -42.262  20.429   8.843  1.00  0.00     0.211 HD
ENDBRANCH  11  12
ENDBRANCH   9  11
ENDBRANCH   8   9
BRANCH   8  14
ATOM     14  O   UNL     1     -41.887  25.864   7.641  1.00  0.00    -0.382 OA
ATOM     15  H   UNL     1     -42.022  26.555   6.942  1.00  0.00     0.211 HD
ENDBRANCH   8  14
ENDBRANCH   1   8
BRANCH   1  16
ATOM     16  O   UNL     1     -42.074  23.880   4.729  1.00  0.00    -0.387 OA
ATOM     17  H   UNL     1     -41.722  22.961   4.594  1.00  0.00     0.211 HD
ENDBRANCH   1  16
TORSDOF 10
ENDMDL
MODEL 6
REMARK VINA RESULT:    -1.768      1.804      3.843
REMARK INTER + INTRA:          -3.094
REMARK INTER:                  -2.356
REMARK INTRA:                  -0.737
REMARK UNBOUND:                -0.550
REMARK SMILES O=C(CO)[C@@H](O)[C@H](O)[C@@H](O)CO
REMARK SMILES IDX 7 1 9 2 11 3 12 4 10 6 5 8 2 9 1 10 3 11 4 12 6 14 8 16
REMARK H PARENT 12 5 10 7 4 13 6 15 8 17
REMARK Flexibility Score: inf
ROOT
ATOM      1  C   UNL     1     -39.809  24.516   6.497  1.00  0.00     0.181 C 
ENDROOT
BRANCH   1   2
ATOM      2  C   UNL     1     -38.510  24.302   7.324  1.00  0.00     0.171 C 
BRANCH   2   3
ATOM      3  C   UNL     1     -37.203  24.480   6.521  1.00  0.00     0.190 C 
BRANCH   3   4
ATOM      4  O   UNL     1     -36.513  25.617   6.966  1.00  0.00    -0.394 OA
ATOM      5  H   UNL     1     -36.843  26.381   6.424  1.00  0.00     0.210 HD
ENDBRANCH   3   4
ENDBRANCH   2   3
BRANCH   2   6
ATOM      6  O   UNL     1     -38.536  23.068   7.999  1.00  0.00    -0.388 OA
ATOM      7  H   UNL     1     -38.282  22.357   7.354  1.00  0.00     0.211 HD
ENDBRANCH   2   6
ENDBRANCH   1   2
BRANCH   1   8
ATOM      8  C   UNL     1     -41.130  24.271   7.278  1.00  0.00     0.214 C 
BRANCH   8   9
ATOM      9  C   UNL     1     -41.817  23.005   6.799  1.00  0.00     0.189 C 
ATOM     10  O   UNL     1     -42.125  22.910   5.620  1.00  0.00    -0.294 OA
BRANCH   9  11
ATOM     11  C   UNL     1     -42.124  21.865   7.743  1.00  0.00     0.234 C 
BRANCH  11  12
ATOM     12  O   UNL     1     -40.990  21.498   8.483  1.00  0.00    -0.388 OA
ATOM     13  H   UNL     1     -40.963  20.506   8.488  1.00  0.00     0.211 HD
ENDBRANCH  11  12
ENDBRANCH   9  11
ENDBRANCH   8   9
BRANCH   8  14
ATOM     14  O   UNL     1     -40.929  24.249   8.671  1.00  0.00    -0.382 OA
ATOM     15  H   UNL     1     -39.979  24.471   8.850  1.00  0.00     0.211 HD
ENDBRANCH   8  14
ENDBRANCH   1   8
BRANCH   1  16
ATOM     16  O   UNL     1     -39.787  23.719   5.338  1.00  0.00    -0.387 OA
ATOM     17  H   UNL     1     -40.322  22.906   5.533  1.00  0.00     0.211 HD
ENDBRANCH   1  16
TORSDOF 10
ENDMDL
