MODEL 1
REMARK VINA RESULT:    -5.050      0.000      0.000
REMARK INTER + INTRA:         -11.398
REMARK INTER:                  -9.182
REMARK INTRA:                  -2.216
REMARK UNBOUND:                -2.216
REMARK SMILES CCCCCCCCCCCCCCCC(=O)[O-]
REMARK SMILES IDX 9 1 10 2 11 3 12 4 13 5 14 6 15 7 16 8 17 9 18 10 8 11 7 12
REMARK SMILES IDX 6 13 5 14 4 15 3 16 2 17 1 18
REMARK H PARENT
REMARK Flexibility Score: inf
ROOT
ATOM      1  C   UNL     1       2.385  53.892  20.518  1.00  0.00     0.000 C 
ENDROOT
BRANCH   1   2
ATOM      2  C   UNL     1       1.325  55.005  20.626  1.00  0.00     0.000 C 
BRANCH   2   3
ATOM      3  C   UNL     1      -0.134  54.514  20.627  1.00  0.00     0.000 C 
BRANCH   3   4
ATOM      4  C   UNL     1      -1.107  55.348  19.767  1.00  0.00     0.000 C 
BRANCH   4   5
ATOM      5  C   UNL     1      -1.929  54.543  18.744  1.00  0.00     0.000 C 
BRANCH   5   6
ATOM      6  C   UNL     1      -2.814  55.434  17.854  1.00  0.00     0.006 C 
BRANCH   6   7
ATOM      7  C   UNL     1      -3.706  56.370  18.680  1.00  0.00     0.053 C 
BRANCH   7   8
ATOM      8  C   UNL     1      -4.078  57.603  17.914  1.00  0.00     0.041 C 
ATOM      9  O   UNL     1      -3.344  58.013  16.977  1.00  0.00    -0.550 OA
ATOM     10  O   UNL     1      -5.250  58.283  18.218  1.00  0.00    -0.550 OA
ENDBRANCH   7   8
ENDBRANCH   6   7
ENDBRANCH   5   6
ENDBRANCH   4   5
ENDBRANCH   3   4
ENDBRANCH   2   3
ENDBRANCH   1   2
BRANCH   1  11
ATOM     11  C   UNL     1       2.754  53.524  19.064  1.00  0.00     0.000 C 
BRANCH  11  12
ATOM     12  C   UNL     1       1.631  52.762  18.344  1.00  0.00    -0.000 C 
BRANCH  12  13
ATOM     13  C   UNL     1       1.192  53.505  17.073  1.00  0.00    -0.000 C 
BRANCH  13  14
ATOM     14  C   UNL     1       2.376  54.114  16.303  1.00  0.00    -0.000 C 
BRANCH  14  15
ATOM     15  C   UNL     1       2.224  55.630  16.090  1.00  0.00    -0.000 C 
BRANCH  15  16
ATOM     16  C   UNL     1       1.007  56.219  16.826  1.00  0.00    -0.000 C 
BRANCH  16  17
ATOM     17  C   UNL     1       1.340  57.287  17.883  1.00  0.00    -0.003 C 
ATOM     18  C   UNL     1       2.833  57.365  18.204  1.00  0.00     0.004 C 
ENDBRANCH  16  17
ENDBRANCH  15  16
ENDBRANCH  14  15
ENDBRANCH  13  14
ENDBRANCH  12  13
ENDBRANCH  11  12
ENDBRANCH   1  11
TORSDOF 14
ENDMDL
MODEL 2
REMARK VINA RESULT:    -4.951      3.189      5.929
REMARK INTER + INTRA:         -11.220
REMARK INTER:                  -8.893
REMARK INTRA:                  -2.326
REMARK UNBOUND:                -2.216
REMARK SMILES CCCCCCCCCCCCCCCC(=O)[O-]
REMARK SMILES IDX 9 1 10 2 11 3 12 4 13 5 14 6 15 7 16 8 17 9 18 10 8 11 7 12
REMARK SMILES IDX 6 13 5 14 4 15 3 16 2 17 1 18
REMARK H PARENT
REMARK Flexibility Score: inf
ROOT
ATOM      1  C   UNL     1       1.648  52.764  19.421  1.00  0.00     0.000 C 
ENDROOT
BRANCH   1   2
ATOM      2  C   UNL     1       2.077  52.474  17.970  1.00  0.00     0.000 C 
BRANCH   2   3
ATOM      3  C   UNL     1       1.364  53.322  16.901  1.00  0.00     0.000 C 
BRANCH   3   4
ATOM      4  C   UNL     1       1.916  54.752  16.724  1.00  0.00     0.000 C 
BRANCH   4   5
ATOM      5  C   UNL     1       2.779  54.970  15.468  1.00  0.00     0.000 C 
BRANCH   5   6
ATOM      6  C   UNL     1       4.287  54.973  15.771  1.00  0.00     0.006 C 
BRANCH   6   7
ATOM      7  C   UNL     1       4.575  55.122  17.271  1.00  0.00     0.053 C 
BRANCH   7   8
ATOM      8  C   UNL     1       4.898  56.539  17.637  1.00  0.00     0.041 C 
ATOM      9  O   UNL     1       6.032  57.018  17.376  1.00  0.00    -0.550 OA
ATOM     10  O   UNL     1       3.935  57.337  18.241  1.00  0.00    -0.550 OA
ENDBRANCH   7   8
ENDBRANCH   6   7
ENDBRANCH   5   6
ENDBRANCH   4   5
ENDBRANCH   3   4
ENDBRANCH   2   3
ENDBRANCH   1   2
BRANCH   1  11
ATOM     11  C   UNL     1       2.519  53.827  20.126  1.00  0.00     0.000 C 
BRANCH  11  12
ATOM     12  C   UNL     1       1.697  55.021  20.635  1.00  0.00    -0.000 C 
BRANCH  12  13
ATOM     13  C   UNL     1       0.203  54.826  20.334  1.00  0.00    -0.000 C 
BRANCH  13  14
ATOM     14  C   UNL     1      -0.402  56.002  19.549  1.00  0.00    -0.000 C 
BRANCH  14  15
ATOM     15  C   UNL     1      -1.260  55.538  18.359  1.00  0.00    -0.000 C 
BRANCH  15  16
ATOM     16  C   UNL     1      -2.117  54.302  18.684  1.00  0.00    -0.000 C 
BRANCH  16  17
ATOM     17  C   UNL     1      -2.259  53.288  17.535  1.00  0.00    -0.003 C 
ATOM     18  C   UNL     1      -1.937  51.855  17.957  1.00  0.00     0.004 C 
ENDBRANCH  16  17
ENDBRANCH  15  16
ENDBRANCH  14  15
ENDBRANCH  13  14
ENDBRANCH  12  13
ENDBRANCH  11  12
ENDBRANCH   1  11
TORSDOF 14
ENDMDL
MODEL 3
REMARK VINA RESULT:    -4.883      1.151      2.512
REMARK INTER + INTRA:         -11.096
REMARK INTER:                  -8.857
REMARK INTRA:                  -2.239
REMARK UNBOUND:                -2.216
REMARK SMILES CCCCCCCCCCCCCCCC(=O)[O-]
REMARK SMILES IDX 9 1 10 2 11 3 12 4 13 5 14 6 15 7 16 8 17 9 18 10 8 11 7 12
REMARK SMILES IDX 6 13 5 14 4 15 3 16 2 17 1 18
REMARK H PARENT
REMARK Flexibility Score: inf
ROOT
ATOM      1  C   UNL     1       1.703  52.241  19.129  1.00  0.00     0.000 C 
ENDROOT
BRANCH   1   2
ATOM      2  C   UNL     1       0.178  52.425  19.018  1.00  0.00     0.000 C 
BRANCH   2   3
ATOM      3  C   UNL     1      -0.354  52.588  17.582  1.00  0.00     0.000 C 
BRANCH   3   4
ATOM      4  C   UNL     1      -1.865  52.878  17.472  1.00  0.00     0.000 C 
BRANCH   4   5
ATOM      5  C   UNL     1      -2.401  53.939  18.449  1.00  0.00     0.000 C 
BRANCH   5   6
ATOM      6  C   UNL     1      -2.649  55.301  17.778  1.00  0.00     0.006 C 
BRANCH   6   7
ATOM      7  C   UNL     1      -3.019  56.388  18.795  1.00  0.00     0.053 C 
BRANCH   7   8
ATOM      8  C   UNL     1      -4.029  57.347  18.242  1.00  0.00     0.041 C 
ATOM      9  O   UNL     1      -5.177  57.423  18.752  1.00  0.00    -0.550 OA
ATOM     10  O   UNL     1      -3.691  58.177  17.180  1.00  0.00    -0.550 OA
ENDBRANCH   7   8
ENDBRANCH   6   7
ENDBRANCH   5   6
ENDBRANCH   4   5
ENDBRANCH   3   4
ENDBRANCH   2   3
ENDBRANCH   1   2
BRANCH   1  11
ATOM     11  C   UNL     1       2.410  53.368  19.913  1.00  0.00     0.000 C 
BRANCH  11  12
ATOM     12  C   UNL     1       1.426  54.407  20.471  1.00  0.00    -0.000 C 
BRANCH  12  13
ATOM     13  C   UNL     1       1.731  55.806  19.913  1.00  0.00    -0.000 C 
BRANCH  13  14
ATOM     14  C   UNL     1       0.692  56.271  18.879  1.00  0.00    -0.000 C 
BRANCH  14  15
ATOM     15  C   UNL     1       1.327  56.637  17.527  1.00  0.00    -0.000 C 
BRANCH  15  16
ATOM     16  C   UNL     1       1.504  55.420  16.600  1.00  0.00    -0.000 C 
BRANCH  16  17
ATOM     17  C   UNL     1       2.893  55.294  15.949  1.00  0.00    -0.003 C 
ATOM     18  C   UNL     1       3.931  54.660  16.873  1.00  0.00     0.004 C 
ENDBRANCH  16  17
ENDBRANCH  15  16
ENDBRANCH  14  15
ENDBRANCH  13  14
ENDBRANCH  12  13
ENDBRANCH  11  12
ENDBRANCH   1  11
TORSDOF 14
ENDMDL
MODEL 4
REMARK VINA RESULT:    -4.848      4.997      7.859
REMARK INTER + INTRA:         -11.031
REMARK INTER:                  -9.190
REMARK INTRA:                  -1.841
REMARK UNBOUND:                -2.216
REMARK SMILES CCCCCCCCCCCCCCCC(=O)[O-]
REMARK SMILES IDX 9 1 10 2 11 3 12 4 13 5 14 6 15 7 16 8 17 9 18 10 8 11 7 12
REMARK SMILES IDX 6 13 5 14 4 15 3 16 2 17 1 18
REMARK H PARENT
REMARK Flexibility Score: inf
ROOT
ATOM      1  C   UNL     1       1.860  54.010  16.642  1.00  0.00     0.000 C 
ENDROOT
BRANCH   1   2
ATOM      2  C   UNL     1       2.541  54.992  15.669  1.00  0.00     0.000 C 
BRANCH   2   3
ATOM      3  C   UNL     1       4.039  55.233  15.932  1.00  0.00     0.000 C 
BRANCH   3   4
ATOM      4  C   UNL     1       4.356  56.381  16.913  1.00  0.00     0.000 C 
BRANCH   4   5
ATOM      5  C   UNL     1       5.686  56.243  17.674  1.00  0.00     0.000 C 
BRANCH   5   6
ATOM      6  C   UNL     1       6.792  57.156  17.116  1.00  0.00     0.006 C 
BRANCH   6   7
ATOM      7  C   UNL     1       7.624  57.804  18.231  1.00  0.00     0.053 C 
BRANCH   7   8
ATOM      8  C   UNL     1       8.976  58.227  17.742  1.00  0.00     0.041 C 
ATOM      9  O   UNL     1       9.229  59.446  17.556  1.00  0.00    -0.550 OA
ATOM     10  O   UNL     1       9.964  57.277  17.519  1.00  0.00    -0.550 OA
ENDBRANCH   7   8
ENDBRANCH   6   7
ENDBRANCH   5   6
ENDBRANCH   4   5
ENDBRANCH   3   4
ENDBRANCH   2   3
ENDBRANCH   1   2
BRANCH   1  11
ATOM     11  C   UNL     1       0.474  54.482  17.133  1.00  0.00     0.000 C 
BRANCH  11  12
ATOM     12  C   UNL     1       0.397  56.005  17.312  1.00  0.00    -0.000 C 
BRANCH  12  13
ATOM     13  C   UNL     1       0.940  56.424  18.687  1.00  0.00    -0.000 C 
BRANCH  13  14
ATOM     14  C   UNL     1       0.183  55.760  19.850  1.00  0.00    -0.000 C 
BRANCH  14  15
ATOM     15  C   UNL     1       1.097  54.891  20.731  1.00  0.00    -0.000 C 
BRANCH  15  16
ATOM     16  C   UNL     1       2.534  54.791  20.186  1.00  0.00    -0.000 C 
BRANCH  16  17
ATOM     17  C   UNL     1       3.184  53.402  20.318  1.00  0.00    -0.003 C 
ATOM     18  C   UNL     1       4.253  53.140  19.258  1.00  0.00     0.004 C 
ENDBRANCH  16  17
ENDBRANCH  15  16
ENDBRANCH  14  15
ENDBRANCH  13  14
ENDBRANCH  12  13
ENDBRANCH  11  12
ENDBRANCH   1  11
TORSDOF 14
ENDMDL
MODEL 5
REMARK VINA RESULT:    -4.827      1.273      2.186
REMARK INTER + INTRA:         -10.994
REMARK INTER:                  -8.956
REMARK INTRA:                  -2.038
REMARK UNBOUND:                -2.216
REMARK SMILES CCCCCCCCCCCCCCCC(=O)[O-]
REMARK SMILES IDX 9 1 10 2 11 3 12 4 13 5 14 6 15 7 16 8 17 9 18 10 8 11 7 12
REMARK SMILES IDX 6 13 5 14 4 15 3 16 2 17 1 18
REMARK H PARENT
REMARK Flexibility Score: inf
ROOT
ATOM      1  C   UNL     1       0.615  55.265  20.177  1.00  0.00     0.000 C 
ENDROOT
BRANCH   1   2
ATOM      2  C   UNL     1      -0.189  54.198  20.944  1.00  0.00     0.000 C 
BRANCH   2   3
ATOM      3  C   UNL     1      -1.030  53.259  20.060  1.00  0.00     0.000 C 
BRANCH   3   4
ATOM      4  C   UNL     1      -0.640  53.240  18.567  1.00  0.00     0.000 C 
BRANCH   4   5
ATOM      5  C   UNL     1      -1.785  53.555  17.588  1.00  0.00     0.000 C 
BRANCH   5   6
ATOM      6  C   UNL     1      -2.777  54.592  18.142  1.00  0.00     0.006 C 
BRANCH   6   7
ATOM      7  C   UNL     1      -2.421  56.021  17.710  1.00  0.00     0.053 C 
BRANCH   7   8
ATOM      8  C   UNL     1      -3.528  56.985  18.011  1.00  0.00     0.041 C 
ATOM      9  O   UNL     1      -3.751  57.954  17.239  1.00  0.00    -0.550 OA
ATOM     10  O   UNL     1      -4.330  56.796  19.128  1.00  0.00    -0.550 OA
ENDBRANCH   7   8
ENDBRANCH   6   7
ENDBRANCH   5   6
ENDBRANCH   4   5
ENDBRANCH   3   4
ENDBRANCH   2   3
ENDBRANCH   1   2
BRANCH   1  11
ATOM     11  C   UNL     1       2.117  55.289  20.537  1.00  0.00     0.000 C 
BRANCH  11  12
ATOM     12  C   UNL     1       2.747  53.889  20.539  1.00  0.00    -0.000 C 
BRANCH  12  13
ATOM     13  C   UNL     1       2.901  53.355  19.107  1.00  0.00    -0.000 C 
BRANCH  13  14
ATOM     14  C   UNL     1       4.326  53.536  18.556  1.00  0.00    -0.000 C 
BRANCH  14  15
ATOM     15  C   UNL     1       4.340  54.164  17.152  1.00  0.00    -0.000 C 
BRANCH  15  16
ATOM     16  C   UNL     1       3.533  55.473  17.072  1.00  0.00    -0.000 C 
BRANCH  16  17
ATOM     17  C   UNL     1       2.331  55.439  16.112  1.00  0.00    -0.003 C 
ATOM     18  C   UNL     1       1.107  56.172  16.659  1.00  0.00     0.004 C 
ENDBRANCH  16  17
ENDBRANCH  15  16
ENDBRANCH  14  15
ENDBRANCH  13  14
ENDBRANCH  12  13
ENDBRANCH  11  12
ENDBRANCH   1  11
TORSDOF 14
ENDMDL
MODEL 6
REMARK VINA RESULT:    -4.735      3.029      3.550
REMARK INTER + INTRA:         -10.826
REMARK INTER:                  -8.564
REMARK INTRA:                  -2.263
REMARK UNBOUND:                -2.216
REMARK SMILES CCCCCCCCCCCCCCCC(=O)[O-]
REMARK SMILES IDX 9 1 10 2 11 3 12 4 13 5 14 6 15 7 16 8 17 9 18 10 8 11 7 12
REMARK SMILES IDX 6 13 5 14 4 15 3 16 2 17 1 18
REMARK H PARENT
REMARK Flexibility Score: inf
ROOT
ATOM      1  C   UNL     1       2.216  54.699  20.381  1.00  0.00     0.000 C 
ENDROOT
BRANCH   1   2
ATOM      2  C   UNL     1       0.752  55.102  20.639  1.00  0.00     0.000 C 
BRANCH   2   3
ATOM      3  C   UNL     1      -0.276  53.971  20.450  1.00  0.00     0.000 C 
BRANCH   3   4
ATOM      4  C   UNL     1      -1.648  54.417  19.904  1.00  0.00     0.000 C 
BRANCH   4   5
ATOM      5  C   UNL     1      -1.722  54.581  18.375  1.00  0.00     0.000 C 
BRANCH   5   6
ATOM      6  C   UNL     1      -1.176  53.360  17.616  1.00  0.00     0.006 C 
BRANCH   6   7
ATOM      7  C   UNL     1      -2.222  52.244  17.488  1.00  0.00     0.053 C 
BRANCH   7   8
ATOM      8  C   UNL     1      -1.869  51.052  18.325  1.00  0.00     0.041 C 
ATOM      9  O   UNL     1      -0.691  50.607  18.329  1.00  0.00    -0.550 OA
ATOM     10  O   UNL     1      -2.834  50.452  19.123  1.00  0.00    -0.550 OA
ENDBRANCH   7   8
ENDBRANCH   6   7
ENDBRANCH   5   6
ENDBRANCH   4   5
ENDBRANCH   3   4
ENDBRANCH   2   3
ENDBRANCH   1   2
BRANCH   1  11
ATOM     11  C   UNL     1       2.370  53.340  19.664  1.00  0.00     0.000 C 
BRANCH  11  12
ATOM     12  C   UNL     1       3.789  53.115  19.121  1.00  0.00    -0.000 C 
BRANCH  12  13
ATOM     13  C   UNL     1       4.091  54.078  17.963  1.00  0.00    -0.000 C 
BRANCH  13  14
ATOM     14  C   UNL     1       2.982  54.090  16.897  1.00  0.00    -0.000 C 
BRANCH  14  15
ATOM     15  C   UNL     1       2.628  55.512  16.430  1.00  0.00    -0.000 C 
BRANCH  15  16
ATOM     16  C   UNL     1       1.252  55.984  16.935  1.00  0.00    -0.000 C 
BRANCH  16  17
ATOM     17  C   UNL     1       1.265  57.313  17.710  1.00  0.00    -0.003 C 
ATOM     18  C   UNL     1       2.633  57.647  18.304  1.00  0.00     0.004 C 
ENDBRANCH  16  17
ENDBRANCH  15  16
ENDBRANCH  14  15
ENDBRANCH  13  14
ENDBRANCH  12  13
ENDBRANCH  11  12
ENDBRANCH   1  11
TORSDOF 14
ENDMDL
MODEL 7
REMARK VINA RESULT:    -4.734      1.639      3.312
REMARK INTER + INTRA:         -10.825
REMARK INTER:                  -8.971
REMARK INTRA:                  -1.854
REMARK UNBOUND:                -2.216
REMARK SMILES CCCCCCCCCCCCCCCC(=O)[O-]
REMARK SMILES IDX 9 1 10 2 11 3 12 4 13 5 14 6 15 7 16 8 17 9 18 10 8 11 7 12
REMARK SMILES IDX 6 13 5 14 4 15 3 16 2 17 1 18
REMARK H PARENT
REMARK Flexibility Score: inf
ROOT
ATOM      1  C   UNL     1       0.325  54.634  20.650  1.00  0.00     0.000 C 
ENDROOT
BRANCH   1   2
ATOM      2  C   UNL     1      -0.592  55.602  19.878  1.00  0.00     0.000 C 
BRANCH   2   3
ATOM      3  C   UNL     1       0.016  56.183  18.588  1.00  0.00     0.000 C 
BRANCH   3   4
ATOM      4  C   UNL     1      -1.008  56.693  17.553  1.00  0.00     0.000 C 
BRANCH   4   5
ATOM      5  C   UNL     1      -2.396  56.030  17.623  1.00  0.00     0.000 C 
BRANCH   5   6
ATOM      6  C   UNL     1      -3.512  57.018  18.004  1.00  0.00     0.006 C 
BRANCH   6   7
ATOM      7  C   UNL     1      -4.441  56.452  19.087  1.00  0.00     0.053 C 
BRANCH   7   8
ATOM      8  C   UNL     1      -5.588  57.372  19.372  1.00  0.00     0.041 C 
ATOM      9  O   UNL     1      -6.096  57.413  20.523  1.00  0.00    -0.550 OA
ATOM     10  O   UNL     1      -6.077  58.204  18.374  1.00  0.00    -0.550 OA
ENDBRANCH   7   8
ENDBRANCH   6   7
ENDBRANCH   5   6
ENDBRANCH   4   5
ENDBRANCH   3   4
ENDBRANCH   2   3
ENDBRANCH   1   2
BRANCH   1  11
ATOM     11  C   UNL     1       1.819  55.022  20.603  1.00  0.00     0.000 C 
BRANCH  11  12
ATOM     12  C   UNL     1       2.719  53.858  20.162  1.00  0.00    -0.000 C 
BRANCH  12  13
ATOM     13  C   UNL     1       3.002  53.924  18.654  1.00  0.00    -0.000 C 
BRANCH  13  14
ATOM     14  C   UNL     1       2.401  52.735  17.885  1.00  0.00    -0.000 C 
BRANCH  14  15
ATOM     15  C   UNL     1       1.043  53.072  17.245  1.00  0.00    -0.000 C 
BRANCH  15  16
ATOM     16  C   UNL     1      -0.129  52.310  17.891  1.00  0.00    -0.000 C 
BRANCH  16  17
ATOM     17  C   UNL     1      -1.518  52.646  17.320  1.00  0.00    -0.003 C 
ATOM     18  C   UNL     1      -2.577  51.601  17.668  1.00  0.00     0.004 C 
ENDBRANCH  16  17
ENDBRANCH  15  16
ENDBRANCH  14  15
ENDBRANCH  13  14
ENDBRANCH  12  13
ENDBRANCH  11  12
ENDBRANCH   1  11
TORSDOF 14
ENDMDL
MODEL 8
REMARK VINA RESULT:    -4.725      1.296      1.822
REMARK INTER + INTRA:         -10.808
REMARK INTER:                  -8.719
REMARK INTRA:                  -2.089
REMARK UNBOUND:                -2.216
REMARK SMILES CCCCCCCCCCCCCCCC(=O)[O-]
REMARK SMILES IDX 9 1 10 2 11 3 12 4 13 5 14 6 15 7 16 8 17 9 18 10 8 11 7 12
REMARK SMILES IDX 6 13 5 14 4 15 3 16 2 17 1 18
REMARK H PARENT
REMARK Flexibility Score: inf
ROOT
ATOM      1  C   UNL     1       2.626  53.417  19.898  1.00  0.00     0.000 C 
ENDROOT
BRANCH   1   2
ATOM      2  C   UNL     1       2.238  54.679  20.691  1.00  0.00     0.000 C 
BRANCH   2   3
ATOM      3  C   UNL     1       0.728  54.853  20.937  1.00  0.00     0.000 C 
BRANCH   3   4
ATOM      4  C   UNL     1      -0.173  53.809  20.245  1.00  0.00     0.000 C 
BRANCH   4   5
ATOM      5  C   UNL     1      -1.634  53.782  20.728  1.00  0.00     0.000 C 
BRANCH   5   6
ATOM      6  C   UNL     1      -2.647  53.946  19.582  1.00  0.00     0.006 C 
BRANCH   6   7
ATOM      7  C   UNL     1      -2.039  54.669  18.373  1.00  0.00     0.053 C 
BRANCH   7   8
ATOM      8  C   UNL     1      -2.762  55.946  18.067  1.00  0.00     0.041 C 
ATOM      9  O   UNL     1      -3.880  56.183  18.594  1.00  0.00    -0.550 OA
ATOM     10  O   UNL     1      -2.185  56.885  17.222  1.00  0.00    -0.550 OA
ENDBRANCH   7   8
ENDBRANCH   6   7
ENDBRANCH   5   6
ENDBRANCH   4   5
ENDBRANCH   3   4
ENDBRANCH   2   3
ENDBRANCH   1   2
BRANCH   1  11
ATOM     11  C   UNL     1       4.118  53.366  19.502  1.00  0.00     0.000 C 
BRANCH  11  12
ATOM     12  C   UNL     1       4.328  53.426  17.981  1.00  0.00    -0.000 C 
BRANCH  12  13
ATOM     13  C   UNL     1       2.996  53.664  17.253  1.00  0.00    -0.000 C 
BRANCH  13  14
ATOM     14  C   UNL     1       3.111  54.714  16.135  1.00  0.00    -0.000 C 
BRANCH  14  15
ATOM     15  C   UNL     1       1.881  55.636  16.063  1.00  0.00    -0.000 C 
BRANCH  15  16
ATOM     16  C   UNL     1       1.276  55.936  17.446  1.00  0.00    -0.000 C 
BRANCH  16  17
ATOM     17  C   UNL     1       1.568  57.346  17.992  1.00  0.00    -0.003 C 
ATOM     18  C   UNL     1       3.005  57.509  18.488  1.00  0.00     0.004 C 
ENDBRANCH  16  17
ENDBRANCH  15  16
ENDBRANCH  14  15
ENDBRANCH  13  14
ENDBRANCH  12  13
ENDBRANCH  11  12
ENDBRANCH   1  11
TORSDOF 14
ENDMDL
MODEL 9
REMARK VINA RESULT:    -4.696      3.190      5.853
REMARK INTER + INTRA:         -10.755
REMARK INTER:                  -8.407
REMARK INTRA:                  -2.348
REMARK UNBOUND:                -2.216
REMARK SMILES CCCCCCCCCCCCCCCC(=O)[O-]
REMARK SMILES IDX 9 1 10 2 11 3 12 4 13 5 14 6 15 7 16 8 17 9 18 10 8 11 7 12
REMARK SMILES IDX 6 13 5 14 4 15 3 16 2 17 1 18
REMARK H PARENT
REMARK Flexibility Score: inf
ROOT
ATOM      1  C   UNL     1       1.884  54.921  20.688  1.00  0.00     0.000 C 
ENDROOT
BRANCH   1   2
ATOM      2  C   UNL     1       2.631  53.704  20.110  1.00  0.00     0.000 C 
BRANCH   2   3
ATOM      3  C   UNL     1       1.827  52.870  19.096  1.00  0.00     0.000 C 
BRANCH   3   4
ATOM      4  C   UNL     1       2.205  53.093  17.617  1.00  0.00     0.000 C 
BRANCH   4   5
ATOM      5  C   UNL     1       1.318  54.097  16.859  1.00  0.00     0.000 C 
BRANCH   5   6
ATOM      6  C   UNL     1       1.955  55.493  16.747  1.00  0.00     0.006 C 
BRANCH   6   7
ATOM      7  C   UNL     1       3.483  55.422  16.626  1.00  0.00     0.053 C 
BRANCH   7   8
ATOM      8  C   UNL     1       4.161  56.375  17.563  1.00  0.00     0.041 C 
ATOM      9  O   UNL     1       3.477  57.124  18.309  1.00  0.00    -0.550 OA
ATOM     10  O   UNL     1       5.547  56.414  17.633  1.00  0.00    -0.550 OA
ENDBRANCH   7   8
ENDBRANCH   6   7
ENDBRANCH   5   6
ENDBRANCH   4   5
ENDBRANCH   3   4
ENDBRANCH   2   3
ENDBRANCH   1   2
BRANCH   1  11
ATOM     11  C   UNL     1       0.355  54.870  20.476  1.00  0.00     0.000 C 
BRANCH  11  12
ATOM     12  C   UNL     1      -0.173  56.079  19.689  1.00  0.00    -0.000 C 
BRANCH  12  13
ATOM     13  C   UNL     1      -1.497  55.740  18.988  1.00  0.00    -0.000 C 
BRANCH  13  14
ATOM     14  C   UNL     1      -1.850  54.246  19.076  1.00  0.00    -0.000 C 
BRANCH  14  15
ATOM     15  C   UNL     1      -2.289  53.662  17.722  1.00  0.00    -0.000 C 
BRANCH  15  16
ATOM     16  C   UNL     1      -1.742  52.244  17.476  1.00  0.00    -0.000 C 
BRANCH  16  17
ATOM     17  C   UNL     1      -2.673  51.102  17.921  1.00  0.00    -0.003 C 
ATOM     18  C   UNL     1      -2.040  50.191  18.973  1.00  0.00     0.004 C 
ENDBRANCH  16  17
ENDBRANCH  15  16
ENDBRANCH  14  15
ENDBRANCH  13  14
ENDBRANCH  12  13
ENDBRANCH  11  12
ENDBRANCH   1  11
TORSDOF 14
ENDMDL
