MODEL 1
REMARK VINA RESULT:    -4.513      0.000      0.000
REMARK INTER + INTRA:         -16.188
REMARK INTER:                 -11.901
REMARK INTRA:                  -4.287
REMARK UNBOUND:                -4.287
REMARK SMILES CCCCCCCCCCCCCCCCCCCCCCCCCCCCCC(=O)[O-]
REMARK SMILES IDX 16 1 17 2 18 3 19 4 20 5 21 6 22 7 23 8 24 9 25 10 26 11
REMARK SMILES IDX 27 12 28 13 29 14 30 15 31 16 32 17 15 18 14 19 13 20 12 21
REMARK SMILES IDX 11 22 10 23 9 24 8 25 7 26 6 27 5 28 4 29 3 30 2 31 1 32
REMARK H PARENT
REMARK Flexibility Score: inf
ROOT
ATOM      1  C   UNL     1     -15.139 -13.402   1.136  1.00  0.00     0.000 C 
ENDROOT
BRANCH   1   2
ATOM      2  C   UNL     1     -14.783 -11.948   0.772  1.00  0.00     0.000 C 
BRANCH   2   3
ATOM      3  C   UNL     1     -15.717 -11.326  -0.286  1.00  0.00     0.000 C 
BRANCH   3   4
ATOM      4  C   UNL     1     -14.990 -11.006  -1.602  1.00  0.00     0.000 C 
BRANCH   4   5
ATOM      5  C   UNL     1     -15.798 -10.022  -2.464  1.00  0.00     0.000 C 
BRANCH   5   6
ATOM      6  C   UNL     1     -14.960  -8.807  -2.899  1.00  0.00     0.000 C 
BRANCH   6   7
ATOM      7  C   UNL     1     -13.950  -8.372  -1.827  1.00  0.00     0.000 C 
BRANCH   7   8
ATOM      8  C   UNL     1     -12.588  -8.054  -2.454  1.00  0.00     0.000 C 
BRANCH   8   9
ATOM      9  C   UNL     1     -11.453  -8.292  -1.451  1.00  0.00     0.000 C 
BRANCH   9  10
ATOM     10  C   UNL     1     -10.184  -7.527  -1.860  1.00  0.00     0.000 C 
BRANCH  10  11
ATOM     11  C   UNL     1      -9.012  -8.459  -2.224  1.00  0.00     0.000 C 
BRANCH  11  12
ATOM     12  C   UNL     1      -7.857  -7.781  -2.982  1.00  0.00     0.000 C 
BRANCH  12  13
ATOM     13  C   UNL     1      -7.337  -8.628  -4.155  1.00  0.00     0.006 C 
BRANCH  13  14
ATOM     14  C   UNL     1      -7.047 -10.075  -3.739  1.00  0.00     0.053 C 
BRANCH  14  15
ATOM     15  C   UNL     1      -6.990 -10.991  -4.926  1.00  0.00     0.041 C 
ATOM     16  O   UNL     1      -6.944 -12.239  -4.764  1.00  0.00    -0.550 OA
ATOM     17  O   UNL     1      -6.986 -10.463  -6.212  1.00  0.00    -0.550 OA
ENDBRANCH  14  15
ENDBRANCH  13  14
ENDBRANCH  12  13
ENDBRANCH  11  12
ENDBRANCH  10  11
ENDBRANCH   9  10
ENDBRANCH   8   9
ENDBRANCH   7   8
ENDBRANCH   6   7
ENDBRANCH   5   6
ENDBRANCH   4   5
ENDBRANCH   3   4
ENDBRANCH   2   3
ENDBRANCH   1   2
BRANCH   1  18
ATOM     18  C   UNL     1     -16.410 -13.901   0.421  1.00  0.00     0.000 C 
BRANCH  18  19
ATOM     19  C   UNL     1     -16.109 -15.029  -0.585  1.00  0.00     0.000 C 
BRANCH  19  20
ATOM     20  C   UNL     1     -15.415 -14.550  -1.876  1.00  0.00     0.000 C 
BRANCH  20  21
ATOM     21  C   UNL     1     -16.361 -14.071  -2.997  1.00  0.00     0.000 C 
BRANCH  21  22
ATOM     22  C   UNL     1     -17.596 -14.976  -3.201  1.00  0.00     0.000 C 
BRANCH  22  23
ATOM     23  C   UNL     1     -18.919 -14.196  -3.090  1.00  0.00     0.000 C 
BRANCH  23  24
ATOM     24  C   UNL     1     -18.745 -12.851  -2.363  1.00  0.00    -0.000 C 
BRANCH  24  25
ATOM     25  C   UNL     1     -19.342 -12.874  -0.944  1.00  0.00    -0.000 C 
BRANCH  25  26
ATOM     26  C   UNL     1     -19.397 -11.471  -0.310  1.00  0.00    -0.000 C 
BRANCH  26  27
ATOM     27  C   UNL     1     -19.160 -10.328  -1.314  1.00  0.00    -0.000 C 
BRANCH  27  28
ATOM     28  C   UNL     1     -18.842  -8.995  -0.616  1.00  0.00    -0.000 C 
BRANCH  28  29
ATOM     29  C   UNL     1     -18.515  -9.216   0.868  1.00  0.00    -0.000 C 
BRANCH  29  30
ATOM     30  C   UNL     1     -17.959  -7.936   1.504  1.00  0.00    -0.000 C 
BRANCH  30  31
ATOM     31  C   UNL     1     -16.688  -7.465   0.785  1.00  0.00    -0.003 C 
ATOM     32  C   UNL     1     -15.461  -8.219   1.292  1.00  0.00     0.004 C 
ENDBRANCH  30  31
ENDBRANCH  29  30
ENDBRANCH  28  29
ENDBRANCH  27  28
ENDBRANCH  26  27
ENDBRANCH  25  26
ENDBRANCH  24  25
ENDBRANCH  23  24
ENDBRANCH  22  23
ENDBRANCH  21  22
ENDBRANCH  20  21
ENDBRANCH  19  20
ENDBRANCH  18  19
ENDBRANCH   1  18
TORSDOF 28
ENDMDL
MODEL 2
REMARK VINA RESULT:    -4.467      4.097      7.482
REMARK INTER + INTRA:         -16.067
REMARK INTER:                 -10.716
REMARK INTRA:                  -5.351
REMARK UNBOUND:                -4.287
REMARK SMILES CCCCCCCCCCCCCCCCCCCCCCCCCCCCCC(=O)[O-]
REMARK SMILES IDX 16 1 17 2 18 3 19 4 20 5 21 6 22 7 23 8 24 9 25 10 26 11
REMARK SMILES IDX 27 12 28 13 29 14 30 15 31 16 32 17 15 18 14 19 13 20 12 21
REMARK SMILES IDX 11 22 10 23 9 24 8 25 7 26 6 27 5 28 4 29 3 30 2 31 1 32
REMARK H PARENT
REMARK Flexibility Score: inf
ROOT
ATOM      1  C   UNL     1     -17.967 -10.889  -1.940  1.00  0.00     0.000 C 
ENDROOT
BRANCH   1   2
ATOM      2  C   UNL     1     -18.184 -11.786  -0.707  1.00  0.00     0.000 C 
BRANCH   2   3
ATOM      3  C   UNL     1     -19.175 -12.944  -0.948  1.00  0.00     0.000 C 
BRANCH   3   4
ATOM      4  C   UNL     1     -19.827 -12.884  -2.339  1.00  0.00     0.000 C 
BRANCH   4   5
ATOM      5  C   UNL     1     -19.373 -14.059  -3.221  1.00  0.00     0.000 C 
BRANCH   5   6
ATOM      6  C   UNL     1     -18.522 -15.077  -2.442  1.00  0.00     0.000 C 
BRANCH   6   7
ATOM      7  C   UNL     1     -17.072 -15.140  -2.943  1.00  0.00     0.000 C 
BRANCH   7   8
ATOM      8  C   UNL     1     -16.726 -13.903  -3.779  1.00  0.00     0.000 C 
BRANCH   8   9
ATOM      9  C   UNL     1     -15.465 -13.215  -3.246  1.00  0.00     0.000 C 
BRANCH   9  10
ATOM     10  C   UNL     1     -14.661 -14.159  -2.337  1.00  0.00     0.000 C 
BRANCH  10  11
ATOM     11  C   UNL     1     -13.954 -13.423  -1.183  1.00  0.00     0.000 C 
BRANCH  11  12
ATOM     12  C   UNL     1     -14.497 -12.013  -0.885  1.00  0.00     0.000 C 
BRANCH  12  13
ATOM     13  C   UNL     1     -15.151 -11.909   0.503  1.00  0.00     0.006 C 
BRANCH  13  14
ATOM     14  C   UNL     1     -14.601 -12.954   1.482  1.00  0.00     0.053 C 
BRANCH  14  15
ATOM     15  C   UNL     1     -15.603 -14.034   1.760  1.00  0.00     0.041 C 
ATOM     16  O   UNL     1     -16.456 -14.348   0.888  1.00  0.00    -0.550 OA
ATOM     17  O   UNL     1     -15.594 -14.693   2.984  1.00  0.00    -0.550 OA
ENDBRANCH  14  15
ENDBRANCH  13  14
ENDBRANCH  12  13
ENDBRANCH  11  12
ENDBRANCH  10  11
ENDBRANCH   9  10
ENDBRANCH   8   9
ENDBRANCH   7   8
ENDBRANCH   6   7
ENDBRANCH   5   6
ENDBRANCH   4   5
ENDBRANCH   3   4
ENDBRANCH   2   3
ENDBRANCH   1   2
BRANCH   1  18
ATOM     18  C   UNL     1     -18.453  -9.443  -1.719  1.00  0.00     0.000 C 
BRANCH  18  19
ATOM     19  C   UNL     1     -19.397  -9.323  -0.506  1.00  0.00     0.000 C 
BRANCH  19  20
ATOM     20  C   UNL     1     -19.101  -8.112   0.402  1.00  0.00     0.000 C 
BRANCH  20  21
ATOM     21  C   UNL     1     -18.176  -8.397   1.604  1.00  0.00     0.000 C 
BRANCH  21  22
ATOM     22  C   UNL     1     -16.672  -8.263   1.278  1.00  0.00     0.000 C 
BRANCH  22  23
ATOM     23  C   UNL     1     -16.360  -6.999   0.456  1.00  0.00     0.000 C 
BRANCH  23  24
ATOM     24  C   UNL     1     -15.694  -7.329  -0.891  1.00  0.00    -0.000 C 
BRANCH  24  25
ATOM     25  C   UNL     1     -14.907  -8.652  -0.845  1.00  0.00    -0.000 C 
BRANCH  25  26
ATOM     26  C   UNL     1     -13.649  -8.616  -1.733  1.00  0.00    -0.000 C 
BRANCH  26  27
ATOM     27  C   UNL     1     -13.954  -8.678  -3.241  1.00  0.00    -0.000 C 
BRANCH  27  28
ATOM     28  C   UNL     1     -14.842  -9.880  -3.606  1.00  0.00    -0.000 C 
BRANCH  28  29
ATOM     29  C   UNL     1     -16.010  -9.448  -4.503  1.00  0.00    -0.000 C 
BRANCH  29  30
ATOM     30  C   UNL     1     -16.327  -7.959  -4.315  1.00  0.00    -0.000 C 
BRANCH  30  31
ATOM     31  C   UNL     1     -16.987  -7.369  -5.567  1.00  0.00    -0.003 C 
ATOM     32  C   UNL     1     -16.395  -6.003  -5.908  1.00  0.00     0.004 C 
ENDBRANCH  30  31
ENDBRANCH  29  30
ENDBRANCH  28  29
ENDBRANCH  27  28
ENDBRANCH  26  27
ENDBRANCH  25  26
ENDBRANCH  24  25
ENDBRANCH  23  24
ENDBRANCH  22  23
ENDBRANCH  21  22
ENDBRANCH  20  21
ENDBRANCH  19  20
ENDBRANCH  18  19
ENDBRANCH   1  18
TORSDOF 28
ENDMDL
MODEL 3
REMARK VINA RESULT:    -4.414      1.404      4.350
REMARK INTER + INTRA:         -15.926
REMARK INTER:                 -12.216
REMARK INTRA:                  -3.710
REMARK UNBOUND:                -4.287
REMARK SMILES CCCCCCCCCCCCCCCCCCCCCCCCCCCCCC(=O)[O-]
REMARK SMILES IDX 16 1 17 2 18 3 19 4 20 5 21 6 22 7 23 8 24 9 25 10 26 11
REMARK SMILES IDX 27 12 28 13 29 14 30 15 31 16 32 17 15 18 14 19 13 20 12 21
REMARK SMILES IDX 11 22 10 23 9 24 8 25 7 26 6 27 5 28 4 29 3 30 2 31 1 32
REMARK H PARENT
REMARK Flexibility Score: inf
ROOT
ATOM      1  C   UNL     1     -15.684  -8.394   0.299  1.00  0.00     0.000 C 
ENDROOT
BRANCH   1   2
ATOM      2  C   UNL     1     -15.415  -7.597  -0.991  1.00  0.00     0.000 C 
BRANCH   2   3
ATOM      3  C   UNL     1     -15.312  -8.477  -2.254  1.00  0.00     0.000 C 
BRANCH   3   4
ATOM      4  C   UNL     1     -13.901  -9.051  -2.461  1.00  0.00     0.000 C 
BRANCH   4   5
ATOM      5  C   UNL     1     -12.829  -7.952  -2.364  1.00  0.00     0.000 C 
BRANCH   5   6
ATOM      6  C   UNL     1     -11.683  -8.340  -1.413  1.00  0.00     0.000 C 
BRANCH   6   7
ATOM      7  C   UNL     1     -10.386  -7.576  -1.712  1.00  0.00     0.000 C 
BRANCH   7   8
ATOM      8  C   UNL     1      -9.382  -8.466  -2.452  1.00  0.00     0.000 C 
BRANCH   8   9
ATOM      9  C   UNL     1      -7.985  -7.835  -2.455  1.00  0.00     0.000 C 
BRANCH   9  10
ATOM     10  C   UNL     1      -7.359  -7.886  -3.858  1.00  0.00     0.000 C 
BRANCH  10  11
ATOM     11  C   UNL     1      -6.276  -8.974  -3.993  1.00  0.00     0.000 C 
BRANCH  11  12
ATOM     12  C   UNL     1      -6.136  -9.903  -2.774  1.00  0.00     0.000 C 
BRANCH  12  13
ATOM     13  C   UNL     1      -6.295 -11.389  -3.136  1.00  0.00     0.006 C 
BRANCH  13  14
ATOM     14  C   UNL     1      -6.978 -12.187  -2.019  1.00  0.00     0.053 C 
BRANCH  14  15
ATOM     15  C   UNL     1      -7.204 -13.615  -2.418  1.00  0.00     0.041 C 
ATOM     16  O   UNL     1      -7.533 -14.471  -1.555  1.00  0.00    -0.550 OA
ATOM     17  O   UNL     1      -7.050 -13.999  -3.745  1.00  0.00    -0.550 OA
ENDBRANCH  14  15
ENDBRANCH  13  14
ENDBRANCH  12  13
ENDBRANCH  11  12
ENDBRANCH  10  11
ENDBRANCH   9  10
ENDBRANCH   8   9
ENDBRANCH   7   8
ENDBRANCH   6   7
ENDBRANCH   5   6
ENDBRANCH   4   5
ENDBRANCH   3   4
ENDBRANCH   2   3
ENDBRANCH   1   2
BRANCH   1  18
ATOM     18  C   UNL     1     -17.007  -7.993   0.982  1.00  0.00     0.000 C 
BRANCH  18  19
ATOM     19  C   UNL     1     -18.138  -9.002   0.702  1.00  0.00     0.000 C 
BRANCH  19  20
ATOM     20  C   UNL     1     -18.619  -9.016  -0.763  1.00  0.00     0.000 C 
BRANCH  20  21
ATOM     21  C   UNL     1     -18.967 -10.407  -1.332  1.00  0.00     0.000 C 
BRANCH  21  22
ATOM     22  C   UNL     1     -18.988 -11.528  -0.270  1.00  0.00     0.000 C 
BRANCH  22  23
ATOM     23  C   UNL     1     -19.068 -12.931  -0.900  1.00  0.00     0.000 C 
BRANCH  23  24
ATOM     24  C   UNL     1     -18.603 -12.940  -2.366  1.00  0.00    -0.000 C 
BRANCH  24  25
ATOM     25  C   UNL     1     -18.155 -14.339  -2.828  1.00  0.00    -0.000 C 
BRANCH  25  26
ATOM     26  C   UNL     1     -16.680 -14.366  -3.270  1.00  0.00    -0.000 C 
BRANCH  26  27
ATOM     27  C   UNL     1     -15.938 -13.037  -3.033  1.00  0.00    -0.000 C 
BRANCH  27  28
ATOM     28  C   UNL     1     -15.054 -13.081  -1.775  1.00  0.00    -0.000 C 
BRANCH  28  29
ATOM     29  C   UNL     1     -15.310 -11.861  -0.880  1.00  0.00    -0.000 C 
BRANCH  29  30
ATOM     30  C   UNL     1     -15.605 -12.291   0.563  1.00  0.00    -0.000 C 
BRANCH  30  31
ATOM     31  C   UNL     1     -15.738 -13.815   0.671  1.00  0.00    -0.003 C 
ATOM     32  C   UNL     1     -15.584 -14.278   2.118  1.00  0.00     0.004 C 
ENDBRANCH  30  31
ENDBRANCH  29  30
ENDBRANCH  28  29
ENDBRANCH  27  28
ENDBRANCH  26  27
ENDBRANCH  25  26
ENDBRANCH  24  25
ENDBRANCH  23  24
ENDBRANCH  22  23
ENDBRANCH  21  22
ENDBRANCH  20  21
ENDBRANCH  19  20
ENDBRANCH  18  19
ENDBRANCH   1  18
TORSDOF 28
ENDMDL
MODEL 4
REMARK VINA RESULT:    -4.411      1.054      3.730
REMARK INTER + INTRA:         -15.918
REMARK INTER:                 -12.414
REMARK INTRA:                  -3.503
REMARK UNBOUND:                -4.287
REMARK SMILES CCCCCCCCCCCCCCCCCCCCCCCCCCCCCC(=O)[O-]
REMARK SMILES IDX 16 1 17 2 18 3 19 4 20 5 21 6 22 7 23 8 24 9 25 10 26 11
REMARK SMILES IDX 27 12 28 13 29 14 30 15 31 16 32 17 15 18 14 19 13 20 12 21
REMARK SMILES IDX 11 22 10 23 9 24 8 25 7 26 6 27 5 28 4 29 3 30 2 31 1 32
REMARK H PARENT
REMARK Flexibility Score: inf
ROOT
ATOM      1  C   UNL     1     -18.123  -9.049   0.750  1.00  0.00     0.000 C 
ENDROOT
BRANCH   1   2
ATOM      2  C   UNL     1     -16.626  -9.017   0.391  1.00  0.00     0.000 C 
BRANCH   2   3
ATOM      3  C   UNL     1     -16.054  -7.592   0.238  1.00  0.00     0.000 C 
BRANCH   3   4
ATOM      4  C   UNL     1     -15.770  -7.223  -1.227  1.00  0.00     0.000 C 
BRANCH   4   5
ATOM      5  C   UNL     1     -15.839  -8.459  -2.139  1.00  0.00     0.000 C 
BRANCH   5   6
ATOM      6  C   UNL     1     -14.475  -8.795  -2.767  1.00  0.00     0.000 C 
BRANCH   6   7
ATOM      7  C   UNL     1     -13.339  -8.813  -1.735  1.00  0.00     0.000 C 
BRANCH   7   8
ATOM      8  C   UNL     1     -12.212  -7.858  -2.143  1.00  0.00     0.000 C 
BRANCH   8   9
ATOM      9  C   UNL     1     -10.897  -8.229  -1.447  1.00  0.00     0.000 C 
BRANCH   9  10
ATOM     10  C   UNL     1      -9.701  -7.536  -2.119  1.00  0.00     0.000 C 
BRANCH  10  11
ATOM     11  C   UNL     1      -8.538  -8.502  -2.418  1.00  0.00     0.000 C 
BRANCH  11  12
ATOM     12  C   UNL     1      -7.571  -8.031  -3.519  1.00  0.00     0.000 C 
BRANCH  12  13
ATOM     13  C   UNL     1      -6.418  -9.018  -3.760  1.00  0.00     0.006 C 
BRANCH  13  14
ATOM     14  C   UNL     1      -6.583  -9.792  -5.074  1.00  0.00     0.053 C 
BRANCH  14  15
ATOM     15  C   UNL     1      -7.004 -11.210  -4.831  1.00  0.00     0.041 C 
ATOM     16  O   UNL     1      -7.436 -11.916  -5.781  1.00  0.00    -0.550 OA
ATOM     17  O   UNL     1      -6.920 -11.752  -3.554  1.00  0.00    -0.550 OA
ENDBRANCH  14  15
ENDBRANCH  13  14
ENDBRANCH  12  13
ENDBRANCH  11  12
ENDBRANCH  10  11
ENDBRANCH   9  10
ENDBRANCH   8   9
ENDBRANCH   7   8
ENDBRANCH   6   7
ENDBRANCH   5   6
ENDBRANCH   4   5
ENDBRANCH   3   4
ENDBRANCH   2   3
ENDBRANCH   1   2
BRANCH   1  18
ATOM     18  C   UNL     1     -19.025  -9.303  -0.475  1.00  0.00     0.000 C 
BRANCH  18  19
ATOM     19  C   UNL     1     -18.733 -10.659  -1.144  1.00  0.00     0.000 C 
BRANCH  19  20
ATOM     20  C   UNL     1     -18.907 -11.872  -0.207  1.00  0.00     0.000 C 
BRANCH  20  21
ATOM     21  C   UNL     1     -19.012 -13.241  -0.910  1.00  0.00     0.000 C 
BRANCH  21  22
ATOM     22  C   UNL     1     -19.490 -13.155  -2.376  1.00  0.00     0.000 C 
BRANCH  22  23
ATOM     23  C   UNL     1     -18.862 -14.245  -3.263  1.00  0.00     0.000 C 
BRANCH  23  24
ATOM     24  C   UNL     1     -17.447 -14.632  -2.798  1.00  0.00    -0.000 C 
BRANCH  24  25
ATOM     25  C   UNL     1     -16.356 -13.796  -3.491  1.00  0.00    -0.000 C 
BRANCH  25  26
ATOM     26  C   UNL     1     -16.252 -12.373  -2.910  1.00  0.00    -0.000 C 
BRANCH  26  27
ATOM     27  C   UNL     1     -15.051 -12.176  -1.966  1.00  0.00    -0.000 C 
BRANCH  27  28
ATOM     28  C   UNL     1     -14.280 -13.484  -1.723  1.00  0.00    -0.000 C 
BRANCH  28  29
ATOM     29  C   UNL     1     -13.920 -13.644  -0.240  1.00  0.00    -0.000 C 
BRANCH  29  30
ATOM     30  C   UNL     1     -14.938 -12.925   0.653  1.00  0.00    -0.000 C 
BRANCH  30  31
ATOM     31  C   UNL     1     -15.992 -13.901   1.191  1.00  0.00    -0.003 C 
ATOM     32  C   UNL     1     -15.613 -14.406   2.581  1.00  0.00     0.004 C 
ENDBRANCH  30  31
ENDBRANCH  29  30
ENDBRANCH  28  29
ENDBRANCH  27  28
ENDBRANCH  26  27
ENDBRANCH  25  26
ENDBRANCH  24  25
ENDBRANCH  23  24
ENDBRANCH  22  23
ENDBRANCH  21  22
ENDBRANCH  20  21
ENDBRANCH  19  20
ENDBRANCH  18  19
ENDBRANCH   1  18
TORSDOF 28
ENDMDL
MODEL 5
REMARK VINA RESULT:    -4.259      3.096      8.205
REMARK INTER + INTRA:         -15.518
REMARK INTER:                 -12.259
REMARK INTRA:                  -3.260
REMARK UNBOUND:                -4.287
REMARK SMILES CCCCCCCCCCCCCCCCCCCCCCCCCCCCCC(=O)[O-]
REMARK SMILES IDX 16 1 17 2 18 3 19 4 20 5 21 6 22 7 23 8 24 9 25 10 26 11
REMARK SMILES IDX 27 12 28 13 29 14 30 15 31 16 32 17 15 18 14 19 13 20 12 21
REMARK SMILES IDX 11 22 10 23 9 24 8 25 7 26 6 27 5 28 4 29 3 30 2 31 1 32
REMARK H PARENT
REMARK Flexibility Score: inf
ROOT
ATOM      1  C   UNL     1     -17.973 -14.835  -2.945  1.00  0.00     0.000 C 
ENDROOT
BRANCH   1   2
ATOM      2  C   UNL     1     -19.152 -13.844  -2.953  1.00  0.00     0.000 C 
BRANCH   2   3
ATOM      3  C   UNL     1     -18.865 -12.531  -2.197  1.00  0.00     0.000 C 
BRANCH   3   4
ATOM      4  C   UNL     1     -19.052 -12.670  -0.678  1.00  0.00     0.000 C 
BRANCH   4   5
ATOM      5  C   UNL     1     -18.867 -11.321   0.035  1.00  0.00     0.000 C 
BRANCH   5   6
ATOM      6  C   UNL     1     -19.437 -10.148  -0.781  1.00  0.00     0.000 C 
BRANCH   6   7
ATOM      7  C   UNL     1     -18.963  -8.782  -0.263  1.00  0.00     0.000 C 
BRANCH   7   8
ATOM      8  C   UNL     1     -18.184  -8.933   1.048  1.00  0.00     0.000 C 
BRANCH   8   9
ATOM      9  C   UNL     1     -17.202  -7.772   1.241  1.00  0.00     0.000 C 
BRANCH   9  10
ATOM     10  C   UNL     1     -15.929  -7.979   0.404  1.00  0.00     0.000 C 
BRANCH  10  11
ATOM     11  C   UNL     1     -15.527  -9.462   0.281  1.00  0.00     0.000 C 
BRANCH  11  12
ATOM     12  C   UNL     1     -14.937  -9.862  -1.083  1.00  0.00     0.000 C 
BRANCH  12  13
ATOM     13  C   UNL     1     -16.013 -10.299  -2.091  1.00  0.00     0.006 C 
BRANCH  13  14
ATOM     14  C   UNL     1     -16.618  -9.108  -2.844  1.00  0.00     0.053 C 
BRANCH  14  15
ATOM     15  C   UNL     1     -15.971  -8.914  -4.183  1.00  0.00     0.041 C 
ATOM     16  O   UNL     1     -16.483  -8.135  -5.029  1.00  0.00    -0.550 OA
ATOM     17  O   UNL     1     -14.801  -9.597  -4.495  1.00  0.00    -0.550 OA
ENDBRANCH  14  15
ENDBRANCH  13  14
ENDBRANCH  12  13
ENDBRANCH  11  12
ENDBRANCH  10  11
ENDBRANCH   9  10
ENDBRANCH   8   9
ENDBRANCH   7   8
ENDBRANCH   6   7
ENDBRANCH   5   6
ENDBRANCH   4   5
ENDBRANCH   3   4
ENDBRANCH   2   3
ENDBRANCH   1   2
BRANCH   1  18
ATOM     18  C   UNL     1     -16.658 -14.194  -2.459  1.00  0.00     0.000 C 
BRANCH  18  19
ATOM     19  C   UNL     1     -16.231 -14.714  -1.073  1.00  0.00     0.000 C 
BRANCH  19  20
ATOM     20  C   UNL     1     -15.066 -13.928  -0.439  1.00  0.00     0.000 C 
BRANCH  20  21
ATOM     21  C   UNL     1     -13.948 -13.500  -1.413  1.00  0.00     0.000 C 
BRANCH  21  22
ATOM     22  C   UNL     1     -12.724 -14.442  -1.409  1.00  0.00     0.000 C 
BRANCH  22  23
ATOM     23  C   UNL     1     -11.966 -14.424  -2.749  1.00  0.00     0.000 C 
BRANCH  23  24
ATOM     24  C   UNL     1     -10.672 -15.255  -2.699  1.00  0.00    -0.000 C 
BRANCH  24  25
ATOM     25  C   UNL     1      -9.412 -14.372  -2.671  1.00  0.00    -0.000 C 
BRANCH  25  26
ATOM     26  C   UNL     1      -8.118 -15.201  -2.563  1.00  0.00    -0.000 C 
BRANCH  26  27
ATOM     27  C   UNL     1      -6.834 -14.353  -2.606  1.00  0.00    -0.000 C 
BRANCH  27  28
ATOM     28  C   UNL     1      -6.544 -13.805  -4.013  1.00  0.00    -0.000 C 
BRANCH  28  29
ATOM     29  C   UNL     1      -6.489 -12.271  -4.007  1.00  0.00    -0.000 C 
BRANCH  29  30
ATOM     30  C   UNL     1      -6.697 -11.720  -2.591  1.00  0.00    -0.000 C 
BRANCH  30  31
ATOM     31  C   UNL     1      -6.370 -10.223  -2.524  1.00  0.00    -0.003 C 
ATOM     32  C   UNL     1      -7.440  -9.395  -3.233  1.00  0.00     0.004 C 
ENDBRANCH  30  31
ENDBRANCH  29  30
ENDBRANCH  28  29
ENDBRANCH  27  28
ENDBRANCH  26  27
ENDBRANCH  25  26
ENDBRANCH  24  25
ENDBRANCH  23  24
ENDBRANCH  22  23
ENDBRANCH  21  22
ENDBRANCH  20  21
ENDBRANCH  19  20
ENDBRANCH  18  19
ENDBRANCH   1  18
TORSDOF 28
ENDMDL
MODEL 6
REMARK VINA RESULT:    -4.227      2.456      4.604
REMARK INTER + INTRA:         -15.434
REMARK INTER:                 -12.413
REMARK INTRA:                  -3.020
REMARK UNBOUND:                -4.287
REMARK SMILES CCCCCCCCCCCCCCCCCCCCCCCCCCCCCC(=O)[O-]
REMARK SMILES IDX 16 1 17 2 18 3 19 4 20 5 21 6 22 7 23 8 24 9 25 10 26 11
REMARK SMILES IDX 27 12 28 13 29 14 30 15 31 16 32 17 15 18 14 19 13 20 12 21
REMARK SMILES IDX 11 22 10 23 9 24 8 25 7 26 6 27 5 28 4 29 3 30 2 31 1 32
REMARK H PARENT
REMARK Flexibility Score: inf
ROOT
ATOM      1  C   UNL     1     -16.237 -14.378  -0.560  1.00  0.00     0.000 C 
ENDROOT
BRANCH   1   2
ATOM      2  C   UNL     1     -14.925 -13.650  -0.212  1.00  0.00     0.000 C 
BRANCH   2   3
ATOM      3  C   UNL     1     -13.994 -13.436  -1.424  1.00  0.00     0.000 C 
BRANCH   3   4
ATOM      4  C   UNL     1     -12.797 -14.401  -1.426  1.00  0.00     0.000 C 
BRANCH   4   5
ATOM      5  C   UNL     1     -12.097 -14.420  -2.795  1.00  0.00     0.000 C 
BRANCH   5   6
ATOM      6  C   UNL     1     -10.758 -15.177  -2.752  1.00  0.00     0.000 C 
BRANCH   6   7
ATOM      7  C   UNL     1      -9.568 -14.255  -2.446  1.00  0.00     0.000 C 
BRANCH   7   8
ATOM      8  C   UNL     1      -8.254 -15.043  -2.424  1.00  0.00     0.000 C 
BRANCH   8   9
ATOM      9  C   UNL     1      -7.127 -14.216  -1.797  1.00  0.00     0.000 C 
BRANCH   9  10
ATOM     10  C   UNL     1      -7.080 -12.801  -2.396  1.00  0.00     0.000 C 
BRANCH  10  11
ATOM     11  C   UNL     1      -6.465 -12.767  -3.808  1.00  0.00     0.000 C 
BRANCH  11  12
ATOM     12  C   UNL     1      -6.956 -11.613  -4.701  1.00  0.00     0.000 C 
BRANCH  12  13
ATOM     13  C   UNL     1      -6.261 -10.279  -4.383  1.00  0.00     0.006 C 
BRANCH  13  14
ATOM     14  C   UNL     1      -7.265  -9.137  -4.181  1.00  0.00     0.053 C 
BRANCH  14  15
ATOM     15  C   UNL     1      -6.945  -8.329  -2.960  1.00  0.00     0.041 C 
ATOM     16  O   UNL     1      -6.334  -8.854  -1.992  1.00  0.00    -0.550 OA
ATOM     17  O   UNL     1      -7.323  -6.993  -2.892  1.00  0.00    -0.550 OA
ENDBRANCH  14  15
ENDBRANCH  13  14
ENDBRANCH  12  13
ENDBRANCH  11  12
ENDBRANCH  10  11
ENDBRANCH   9  10
ENDBRANCH   8   9
ENDBRANCH   7   8
ENDBRANCH   6   7
ENDBRANCH   5   6
ENDBRANCH   4   5
ENDBRANCH   3   4
ENDBRANCH   2   3
ENDBRANCH   1   2
BRANCH   1  18
ATOM     18  C   UNL     1     -16.300 -14.823  -2.034  1.00  0.00     0.000 C 
BRANCH  18  19
ATOM     19  C   UNL     1     -17.720 -14.704  -2.620  1.00  0.00     0.000 C 
BRANCH  19  20
ATOM     20  C   UNL     1     -18.479 -13.438  -2.173  1.00  0.00     0.000 C 
BRANCH  20  21
ATOM     21  C   UNL     1     -17.792 -12.099  -2.515  1.00  0.00     0.000 C 
BRANCH  21  22
ATOM     22  C   UNL     1     -17.824 -11.071  -1.364  1.00  0.00     0.000 C 
BRANCH  22  23
ATOM     23  C   UNL     1     -19.197 -10.387  -1.226  1.00  0.00     0.000 C 
BRANCH  23  24
ATOM     24  C   UNL     1     -19.132  -9.115  -0.363  1.00  0.00    -0.000 C 
BRANCH  24  25
ATOM     25  C   UNL     1     -18.156  -9.261   0.819  1.00  0.00    -0.000 C 
BRANCH  25  26
ATOM     26  C   UNL     1     -17.625  -7.902   1.311  1.00  0.00    -0.000 C 
BRANCH  26  27
ATOM     27  C   UNL     1     -16.314  -7.466   0.631  1.00  0.00    -0.000 C 
BRANCH  27  28
ATOM     28  C   UNL     1     -15.428  -8.665   0.252  1.00  0.00    -0.000 C 
BRANCH  28  29
ATOM     29  C   UNL     1     -15.038  -8.614  -1.231  1.00  0.00    -0.000 C 
BRANCH  29  30
ATOM     30  C   UNL     1     -15.928  -7.630  -2.000  1.00  0.00    -0.000 C 
BRANCH  30  31
ATOM     31  C   UNL     1     -16.693  -8.336  -3.125  1.00  0.00    -0.003 C 
ATOM     32  C   UNL     1     -15.750  -8.762  -4.248  1.00  0.00     0.004 C 
ENDBRANCH  30  31
ENDBRANCH  29  30
ENDBRANCH  28  29
ENDBRANCH  27  28
ENDBRANCH  26  27
ENDBRANCH  25  26
ENDBRANCH  24  25
ENDBRANCH  23  24
ENDBRANCH  22  23
ENDBRANCH  21  22
ENDBRANCH  20  21
ENDBRANCH  19  20
ENDBRANCH  18  19
ENDBRANCH   1  18
TORSDOF 28
ENDMDL
MODEL 7
REMARK VINA RESULT:    -4.214      2.450      5.308
REMARK INTER + INTRA:         -15.399
REMARK INTER:                 -11.757
REMARK INTRA:                  -3.642
REMARK UNBOUND:                -4.287
REMARK SMILES CCCCCCCCCCCCCCCCCCCCCCCCCCCCCC(=O)[O-]
REMARK SMILES IDX 16 1 17 2 18 3 19 4 20 5 21 6 22 7 23 8 24 9 25 10 26 11
REMARK SMILES IDX 27 12 28 13 29 14 30 15 31 16 32 17 15 18 14 19 13 20 12 21
REMARK SMILES IDX 11 22 10 23 9 24 8 25 7 26 6 27 5 28 4 29 3 30 2 31 1 32
REMARK H PARENT
REMARK Flexibility Score: inf
ROOT
ATOM      1  C   UNL     1     -18.757 -13.422  -2.895  1.00  0.00     0.000 C 
ENDROOT
BRANCH   1   2
ATOM      2  C   UNL     1     -17.906 -14.705  -2.944  1.00  0.00     0.000 C 
BRANCH   2   3
ATOM      3  C   UNL     1     -16.398 -14.459  -2.729  1.00  0.00     0.000 C 
BRANCH   3   4
ATOM      4  C   UNL     1     -15.921 -14.901  -1.336  1.00  0.00     0.000 C 
BRANCH   4   5
ATOM      5  C   UNL     1     -15.343 -13.718  -0.541  1.00  0.00     0.000 C 
BRANCH   5   6
ATOM      6  C   UNL     1     -13.995 -13.239  -1.108  1.00  0.00     0.000 C 
BRANCH   6   7
ATOM      7  C   UNL     1     -13.007 -14.393  -1.334  1.00  0.00     0.000 C 
BRANCH   7   8
ATOM      8  C   UNL     1     -12.316 -14.264  -2.696  1.00  0.00     0.000 C 
BRANCH   8   9
ATOM      9  C   UNL     1     -11.043 -15.117  -2.749  1.00  0.00     0.000 C 
BRANCH   9  10
ATOM     10  C   UNL     1      -9.797 -14.272  -2.439  1.00  0.00     0.000 C 
BRANCH  10  11
ATOM     11  C   UNL     1      -8.501 -15.104  -2.404  1.00  0.00     0.000 C 
BRANCH  11  12
ATOM     12  C   UNL     1      -7.308 -14.476  -3.146  1.00  0.00     0.000 C 
BRANCH  12  13
ATOM     13  C   UNL     1      -7.212 -12.955  -2.939  1.00  0.00     0.006 C 
BRANCH  13  14
ATOM     14  C   UNL     1      -6.039 -12.568  -2.031  1.00  0.00     0.053 C 
BRANCH  14  15
ATOM     15  C   UNL     1      -6.267 -11.243  -1.366  1.00  0.00     0.041 C 
ATOM     16  O   UNL     1      -6.271 -10.184  -2.046  1.00  0.00    -0.550 OA
ATOM     17  O   UNL     1      -6.476 -11.181   0.007  1.00  0.00    -0.550 OA
ENDBRANCH  14  15
ENDBRANCH  13  14
ENDBRANCH  12  13
ENDBRANCH  11  12
ENDBRANCH  10  11
ENDBRANCH   9  10
ENDBRANCH   8   9
ENDBRANCH   7   8
ENDBRANCH   6   7
ENDBRANCH   5   6
ENDBRANCH   4   5
ENDBRANCH   3   4
ENDBRANCH   2   3
ENDBRANCH   1   2
BRANCH   1  18
ATOM     18  C   UNL     1     -19.640 -13.340  -1.635  1.00  0.00     0.000 C 
BRANCH  18  19
ATOM     19  C   UNL     1     -18.892 -12.725  -0.436  1.00  0.00     0.000 C 
BRANCH  19  20
ATOM     20  C   UNL     1     -18.176 -11.398  -0.757  1.00  0.00     0.000 C 
BRANCH  20  21
ATOM     21  C   UNL     1     -19.083 -10.269  -1.290  1.00  0.00     0.000 C 
BRANCH  21  22
ATOM     22  C   UNL     1     -19.326  -9.132  -0.273  1.00  0.00     0.000 C 
BRANCH  22  23
ATOM     23  C   UNL     1     -18.255  -9.097   0.833  1.00  0.00     0.000 C 
BRANCH  23  24
ATOM     24  C   UNL     1     -17.912  -7.661   1.268  1.00  0.00    -0.000 C 
BRANCH  24  25
ATOM     25  C   UNL     1     -16.449  -7.292   0.962  1.00  0.00    -0.000 C 
BRANCH  25  26
ATOM     26  C   UNL     1     -15.567  -8.535   0.737  1.00  0.00    -0.000 C 
BRANCH  26  27
ATOM     27  C   UNL     1     -15.064  -8.683  -0.711  1.00  0.00    -0.000 C 
BRANCH  27  28
ATOM     28  C   UNL     1     -15.672  -7.628  -1.650  1.00  0.00    -0.000 C 
BRANCH  28  29
ATOM     29  C   UNL     1     -16.668  -8.268  -2.626  1.00  0.00    -0.000 C 
BRANCH  29  30
ATOM     30  C   UNL     1     -16.047  -8.424  -4.020  1.00  0.00    -0.000 C 
BRANCH  30  31
ATOM     31  C   UNL     1     -15.061  -9.599  -4.060  1.00  0.00    -0.003 C 
ATOM     32  C   UNL     1     -15.699 -10.870  -3.504  1.00  0.00     0.004 C 
ENDBRANCH  30  31
ENDBRANCH  29  30
ENDBRANCH  28  29
ENDBRANCH  27  28
ENDBRANCH  26  27
ENDBRANCH  25  26
ENDBRANCH  24  25
ENDBRANCH  23  24
ENDBRANCH  22  23
ENDBRANCH  21  22
ENDBRANCH  20  21
ENDBRANCH  19  20
ENDBRANCH  18  19
ENDBRANCH   1  18
TORSDOF 28
ENDMDL
MODEL 8
REMARK VINA RESULT:    -4.097      3.223      8.616
REMARK INTER + INTRA:         -15.090
REMARK INTER:                 -12.056
REMARK INTRA:                  -3.034
REMARK UNBOUND:                -4.287
REMARK SMILES CCCCCCCCCCCCCCCCCCCCCCCCCCCCCC(=O)[O-]
REMARK SMILES IDX 16 1 17 2 18 3 19 4 20 5 21 6 22 7 23 8 24 9 25 10 26 11
REMARK SMILES IDX 27 12 28 13 29 14 30 15 31 16 32 17 15 18 14 19 13 20 12 21
REMARK SMILES IDX 11 22 10 23 9 24 8 25 7 26 6 27 5 28 4 29 3 30 2 31 1 32
REMARK H PARENT
REMARK Flexibility Score: inf
ROOT
ATOM      1  C   UNL     1     -14.896 -13.556  -0.021  1.00  0.00     0.000 C 
ENDROOT
BRANCH   1   2
ATOM      2  C   UNL     1     -16.411 -13.337   0.140  1.00  0.00     0.000 C 
BRANCH   2   3
ATOM      3  C   UNL     1     -17.221 -13.631  -1.139  1.00  0.00     0.000 C 
BRANCH   3   4
ATOM      4  C   UNL     1     -18.637 -13.033  -1.094  1.00  0.00     0.000 C 
BRANCH   4   5
ATOM      5  C   UNL     1     -18.669 -11.733  -0.274  1.00  0.00     0.000 C 
BRANCH   5   6
ATOM      6  C   UNL     1     -18.736 -10.483  -1.169  1.00  0.00     0.000 C 
BRANCH   6   7
ATOM      7  C   UNL     1     -19.050  -9.206  -0.376  1.00  0.00     0.000 C 
BRANCH   7   8
ATOM      8  C   UNL     1     -18.208  -9.133   0.902  1.00  0.00     0.000 C 
BRANCH   8   9
ATOM      9  C   UNL     1     -17.608  -7.734   1.086  1.00  0.00     0.000 C 
BRANCH   9  10
ATOM     10  C   UNL     1     -16.111  -7.724   0.738  1.00  0.00     0.000 C 
BRANCH  10  11
ATOM     11  C   UNL     1     -15.535  -9.138   0.526  1.00  0.00     0.000 C 
BRANCH  11  12
ATOM     12  C   UNL     1     -15.138  -9.464  -0.925  1.00  0.00     0.000 C 
BRANCH  12  13
ATOM     13  C   UNL     1     -15.120  -8.221  -1.831  1.00  0.00     0.006 C 
BRANCH  13  14
ATOM     14  C   UNL     1     -16.358  -8.144  -2.732  1.00  0.00     0.053 C 
BRANCH  14  15
ATOM     15  C   UNL     1     -16.027  -8.475  -4.156  1.00  0.00     0.041 C 
ATOM     16  O   UNL     1     -16.577  -7.847  -5.099  1.00  0.00    -0.550 OA
ATOM     17  O   UNL     1     -15.110  -9.480  -4.441  1.00  0.00    -0.550 OA
ENDBRANCH  14  15
ENDBRANCH  13  14
ENDBRANCH  12  13
ENDBRANCH  11  12
ENDBRANCH  10  11
ENDBRANCH   9  10
ENDBRANCH   8   9
ENDBRANCH   7   8
ENDBRANCH   6   7
ENDBRANCH   5   6
ENDBRANCH   4   5
ENDBRANCH   3   4
ENDBRANCH   2   3
ENDBRANCH   1   2
BRANCH   1  18
ATOM     18  C   UNL     1     -14.390 -13.213  -1.436  1.00  0.00     0.000 C 
BRANCH  18  19
ATOM     19  C   UNL     1     -13.578 -14.363  -2.061  1.00  0.00     0.000 C 
BRANCH  19  20
ATOM     20  C   UNL     1     -12.083 -14.355  -1.680  1.00  0.00     0.000 C 
BRANCH  20  21
ATOM     21  C   UNL     1     -11.123 -14.904  -2.756  1.00  0.00     0.000 C 
BRANCH  21  22
ATOM     22  C   UNL     1      -9.741 -14.215  -2.769  1.00  0.00     0.000 C 
BRANCH  22  23
ATOM     23  C   UNL     1      -8.599 -15.186  -2.419  1.00  0.00     0.000 C 
BRANCH  23  24
ATOM     24  C   UNL     1      -7.407 -14.472  -1.757  1.00  0.00    -0.000 C 
BRANCH  24  25
ATOM     25  C   UNL     1      -6.156 -14.471  -2.653  1.00  0.00    -0.000 C 
BRANCH  25  26
ATOM     26  C   UNL     1      -6.056 -13.201  -3.519  1.00  0.00    -0.000 C 
BRANCH  26  27
ATOM     27  C   UNL     1      -6.629 -13.373  -4.939  1.00  0.00    -0.000 C 
BRANCH  27  28
ATOM     28  C   UNL     1      -7.091 -12.039  -5.546  1.00  0.00    -0.000 C 
BRANCH  28  29
ATOM     29  C   UNL     1      -6.244 -10.872  -5.021  1.00  0.00    -0.000 C 
BRANCH  29  30
ATOM     30  C   UNL     1      -7.126  -9.671  -4.659  1.00  0.00    -0.000 C 
BRANCH  30  31
ATOM     31  C   UNL     1      -7.194  -9.471  -3.139  1.00  0.00    -0.003 C 
ATOM     32  C   UNL     1      -7.981  -8.211  -2.787  1.00  0.00     0.004 C 
ENDBRANCH  30  31
ENDBRANCH  29  30
ENDBRANCH  28  29
ENDBRANCH  27  28
ENDBRANCH  26  27
ENDBRANCH  25  26
ENDBRANCH  24  25
ENDBRANCH  23  24
ENDBRANCH  22  23
ENDBRANCH  21  22
ENDBRANCH  20  21
ENDBRANCH  19  20
ENDBRANCH  18  19
ENDBRANCH   1  18
TORSDOF 28
ENDMDL
MODEL 9
REMARK VINA RESULT:    -4.064      2.438      5.600
REMARK INTER + INTRA:         -15.003
REMARK INTER:                 -11.589
REMARK INTRA:                  -3.414
REMARK UNBOUND:                -4.287
REMARK SMILES CCCCCCCCCCCCCCCCCCCCCCCCCCCCCC(=O)[O-]
REMARK SMILES IDX 16 1 17 2 18 3 19 4 20 5 21 6 22 7 23 8 24 9 25 10 26 11
REMARK SMILES IDX 27 12 28 13 29 14 30 15 31 16 32 17 15 18 14 19 13 20 12 21
REMARK SMILES IDX 11 22 10 23 9 24 8 25 7 26 6 27 5 28 4 29 3 30 2 31 1 32
REMARK H PARENT
REMARK Flexibility Score: inf
ROOT
ATOM      1  C   UNL     1     -15.851 -10.881  -3.302  1.00  0.00     0.000 C 
ENDROOT
BRANCH   1   2
ATOM      2  C   UNL     1     -15.192 -11.587  -2.102  1.00  0.00     0.000 C 
BRANCH   2   3
ATOM      3  C   UNL     1     -14.695 -13.013  -2.416  1.00  0.00     0.000 C 
BRANCH   3   4
ATOM      4  C   UNL     1     -14.344 -13.810  -1.150  1.00  0.00     0.000 C 
BRANCH   4   5
ATOM      5  C   UNL     1     -12.913 -14.367  -1.216  1.00  0.00     0.000 C 
BRANCH   5   6
ATOM      6  C   UNL     1     -12.332 -14.310  -2.640  1.00  0.00     0.000 C 
BRANCH   6   7
ATOM      7  C   UNL     1     -11.060 -15.157  -2.793  1.00  0.00     0.000 C 
BRANCH   7   8
ATOM      8  C   UNL     1      -9.817 -14.356  -2.394  1.00  0.00     0.000 C 
BRANCH   8   9
ATOM      9  C   UNL     1      -8.535 -15.137  -2.706  1.00  0.00     0.000 C 
BRANCH   9  10
ATOM     10  C   UNL     1      -7.416 -14.785  -1.713  1.00  0.00     0.000 C 
BRANCH  10  11
ATOM     11  C   UNL     1      -6.582 -13.567  -2.156  1.00  0.00     0.000 C 
BRANCH  11  12
ATOM     12  C   UNL     1      -6.487 -12.435  -1.117  1.00  0.00     0.000 C 
BRANCH  12  13
ATOM     13  C   UNL     1      -6.274 -11.054  -1.760  1.00  0.00     0.006 C 
BRANCH  13  14
ATOM     14  C   UNL     1      -6.827 -10.990  -3.189  1.00  0.00     0.053 C 
BRANCH  14  15
ATOM     15  C   UNL     1      -7.231  -9.596  -3.564  1.00  0.00     0.041 C 
ATOM     16  O   UNL     1      -7.178  -9.220  -4.765  1.00  0.00    -0.550 OA
ATOM     17  O   UNL     1      -7.666  -8.711  -2.584  1.00  0.00    -0.550 OA
ENDBRANCH  14  15
ENDBRANCH  13  14
ENDBRANCH  12  13
ENDBRANCH  11  12
ENDBRANCH  10  11
ENDBRANCH   9  10
ENDBRANCH   8   9
ENDBRANCH   7   8
ENDBRANCH   6   7
ENDBRANCH   5   6
ENDBRANCH   4   5
ENDBRANCH   3   4
ENDBRANCH   2   3
ENDBRANCH   1   2
BRANCH   1  18
ATOM     18  C   UNL     1     -15.304  -9.458  -3.530  1.00  0.00     0.000 C 
BRANCH  18  19
ATOM     19  C   UNL     1     -16.307  -8.371  -3.099  1.00  0.00     0.000 C 
BRANCH  19  20
ATOM     20  C   UNL     1     -15.878  -7.581  -1.846  1.00  0.00     0.000 C 
BRANCH  20  21
ATOM     21  C   UNL     1     -15.028  -8.369  -0.827  1.00  0.00     0.000 C 
BRANCH  21  22
ATOM     22  C   UNL     1     -15.735  -8.603   0.525  1.00  0.00     0.000 C 
BRANCH  22  23
ATOM     23  C   UNL     1     -16.910  -7.634   0.749  1.00  0.00     0.000 C 
BRANCH  23  24
ATOM     24  C   UNL     1     -18.164  -8.349   1.279  1.00  0.00    -0.000 C 
BRANCH  24  25
ATOM     25  C   UNL     1     -19.247  -8.509   0.196  1.00  0.00    -0.000 C 
BRANCH  25  26
ATOM     26  C   UNL     1     -19.011  -9.747  -0.689  1.00  0.00    -0.000 C 
BRANCH  26  27
ATOM     27  C   UNL     1     -19.077 -11.079   0.080  1.00  0.00    -0.000 C 
BRANCH  27  28
ATOM     28  C   UNL     1     -17.845 -11.963  -0.178  1.00  0.00    -0.000 C 
BRANCH  28  29
ATOM     29  C   UNL     1     -18.241 -13.267  -0.882  1.00  0.00    -0.000 C 
BRANCH  29  30
ATOM     30  C   UNL     1     -18.610 -13.010  -2.348  1.00  0.00    -0.000 C 
BRANCH  30  31
ATOM     31  C   UNL     1     -18.738 -14.324  -3.128  1.00  0.00    -0.003 C 
ATOM     32  C   UNL     1     -17.425 -15.104  -3.110  1.00  0.00     0.004 C 
ENDBRANCH  30  31
ENDBRANCH  29  30
ENDBRANCH  28  29
ENDBRANCH  27  28
ENDBRANCH  26  27
ENDBRANCH  25  26
ENDBRANCH  24  25
ENDBRANCH  23  24
ENDBRANCH  22  23
ENDBRANCH  21  22
ENDBRANCH  20  21
ENDBRANCH  19  20
ENDBRANCH  18  19
ENDBRANCH   1  18
TORSDOF 28
ENDMDL
