MODEL 1
REMARK VINA RESULT:    -4.903      0.000      0.000
REMARK INTER + INTRA:          -5.666
REMARK INTER:                  -5.619
REMARK INTRA:                  -0.046
REMARK UNBOUND:                -0.046
REMARK SMILES O=C([O-])c1cc(O)c(O)c(O)c1
REMARK SMILES IDX 4 1 5 2 12 3 6 4 10 5 8 6 2 7 1 8 3 9 7 10 11 12 9 14
REMARK H PARENT 7 11 11 13 9 15
REMARK Flexibility Score: inf
ROOT
ATOM      1  C   UNL     1      19.439  -0.952 -18.117  1.00  0.00     0.005 A 
ATOM      2  C   UNL     1      18.905  -0.958 -19.418  1.00  0.00     0.060 A 
ATOM      3  C   UNL     1      20.661  -0.300 -17.885  1.00  0.00     0.060 A 
ATOM      4  C   UNL     1      19.581  -0.323 -20.468  1.00  0.00     0.162 A 
ATOM      5  C   UNL     1      21.341   0.338 -18.932  1.00  0.00     0.162 A 
ATOM      6  C   UNL     1      20.799   0.326 -20.228  1.00  0.00     0.200 A 
ENDROOT
BRANCH   1   7
ATOM      7  C   UNL     1      18.727  -1.622 -17.007  1.00  0.00     0.072 C 
ATOM      8  O   UNL     1      18.301  -0.958 -16.024  1.00  0.00    -0.545 OA
ATOM      9  O   UNL     1      18.518  -2.997 -17.031  1.00  0.00    -0.545 OA
ENDBRANCH   1   7
BRANCH   4  10
ATOM     10  O   UNL     1      19.047  -0.331 -21.756  1.00  0.00    -0.504 OA
ATOM     11  H   UNL     1      18.054  -0.216 -21.919  1.00  0.00     0.293 HD
ENDBRANCH   4  10
BRANCH   5  12
ATOM     12  O   UNL     1      22.554   0.982 -18.689  1.00  0.00    -0.504 OA
ATOM     13  H   UNL     1      23.412   0.462 -18.546  1.00  0.00     0.293 HD
ENDBRANCH   5  12
BRANCH   6  14
ATOM     14  O   UNL     1      21.457   0.953 -21.286  1.00  0.00    -0.502 OA
ATOM     15  H   UNL     1      20.985   1.185 -22.152  1.00  0.00     0.293 HD
ENDBRANCH   6  14
TORSDOF 4
ENDMDL
MODEL 2
REMARK VINA RESULT:    -4.889      0.027      2.422
REMARK INTER + INTRA:          -5.650
REMARK INTER:                  -5.604
REMARK INTRA:                  -0.046
REMARK UNBOUND:                -0.046
REMARK SMILES O=C([O-])c1cc(O)c(O)c(O)c1
REMARK SMILES IDX 4 1 5 2 12 3 6 4 10 5 8 6 2 7 1 8 3 9 7 10 11 12 9 14
REMARK H PARENT 7 11 11 13 9 15
REMARK Flexibility Score: inf
ROOT
ATOM      1  C   UNL     1      19.435  -0.946 -18.109  1.00  0.00     0.005 A 
ATOM      2  C   UNL     1      20.658  -0.288 -17.891  1.00  0.00     0.060 A 
ATOM      3  C   UNL     1      18.890  -0.961 -19.404  1.00  0.00     0.060 A 
ATOM      4  C   UNL     1      21.326   0.342 -18.949  1.00  0.00     0.162 A 
ATOM      5  C   UNL     1      19.554  -0.333 -20.466  1.00  0.00     0.162 A 
ATOM      6  C   UNL     1      20.776   0.322 -20.238  1.00  0.00     0.200 A 
ENDROOT
BRANCH   1   7
ATOM      7  C   UNL     1      18.727  -1.612 -16.993  1.00  0.00     0.072 C 
ATOM      8  O   UNL     1      18.319  -0.946 -16.004  1.00  0.00    -0.545 OA
ATOM      9  O   UNL     1      18.504  -2.984 -17.019  1.00  0.00    -0.545 OA
ENDBRANCH   1   7
BRANCH   4  10
ATOM     10  O   UNL     1      22.539   0.993 -18.728  1.00  0.00    -0.504 OA
ATOM     11  H   UNL     1      23.192   1.167 -19.482  1.00  0.00     0.293 HD
ENDBRANCH   4  10
BRANCH   5  12
ATOM     12  O   UNL     1      19.004  -0.355 -21.747  1.00  0.00    -0.504 OA
ATOM     13  H   UNL     1      18.640  -1.208 -22.154  1.00  0.00     0.293 HD
ENDBRANCH   5  12
BRANCH   6  14
ATOM     14  O   UNL     1      21.457   0.955 -21.278  1.00  0.00    -0.502 OA
ATOM     15  H   UNL     1      22.155   1.669 -21.110  1.00  0.00     0.293 HD
ENDBRANCH   6  14
TORSDOF 4
ENDMDL
MODEL 3
REMARK VINA RESULT:    -4.725     14.901     16.564
REMARK INTER + INTRA:          -5.462
REMARK INTER:                  -5.415
REMARK INTRA:                  -0.047
REMARK UNBOUND:                -0.046
REMARK SMILES O=C([O-])c1cc(O)c(O)c(O)c1
REMARK SMILES IDX 4 1 5 2 12 3 6 4 10 5 8 6 2 7 1 8 3 9 7 10 11 12 9 14
REMARK H PARENT 7 11 11 13 9 15
REMARK Flexibility Score: inf
ROOT
ATOM      1  C   UNL     1       8.517  -7.253  -9.455  1.00  0.00     0.005 A 
ATOM      2  C   UNL     1       7.850  -6.850  -8.285  1.00  0.00     0.060 A 
ATOM      3  C   UNL     1       9.892  -6.991  -9.581  1.00  0.00     0.060 A 
ATOM      4  C   UNL     1       8.545  -6.197  -7.258  1.00  0.00     0.162 A 
ATOM      5  C   UNL     1      10.592  -6.338  -8.556  1.00  0.00     0.162 A 
ATOM      6  C   UNL     1       9.915  -5.939  -7.391  1.00  0.00     0.200 A 
ENDROOT
BRANCH   1   7
ATOM      7  C   UNL     1       7.786  -7.943 -10.540  1.00  0.00     0.072 C 
ATOM      8  O   UNL     1       7.105  -8.976 -10.299  1.00  0.00    -0.545 OA
ATOM      9  O   UNL     1       7.842  -7.463 -11.844  1.00  0.00    -0.545 OA
ENDBRANCH   1   7
BRANCH   4  10
ATOM     10  O   UNL     1       7.878  -5.800  -6.100  1.00  0.00    -0.504 OA
ATOM     11  H   UNL     1       6.883  -5.949  -5.982  1.00  0.00     0.293 HD
ENDBRANCH   4  10
BRANCH   5  12
ATOM     12  O   UNL     1      11.955  -6.083  -8.692  1.00  0.00    -0.504 OA
ATOM     13  H   UNL     1      12.412  -6.106  -9.597  1.00  0.00     0.293 HD
ENDBRANCH   5  12
BRANCH   6  14
ATOM     14  O   UNL     1      10.589  -5.287  -6.358  1.00  0.00    -0.502 OA
ATOM     15  H   UNL     1      10.770  -4.291  -6.377  1.00  0.00     0.293 HD
ENDBRANCH   6  14
TORSDOF 4
ENDMDL
MODEL 4
REMARK VINA RESULT:    -4.690     14.888     16.552
REMARK INTER + INTRA:          -5.422
REMARK INTER:                  -5.374
REMARK INTRA:                  -0.047
REMARK UNBOUND:                -0.046
REMARK SMILES O=C([O-])c1cc(O)c(O)c(O)c1
REMARK SMILES IDX 4 1 5 2 12 3 6 4 10 5 8 6 2 7 1 8 3 9 7 10 11 12 9 14
REMARK H PARENT 7 11 11 13 9 15
REMARK Flexibility Score: inf
ROOT
ATOM      1  C   UNL     1       8.486  -7.211  -9.629  1.00  0.00     0.005 A 
ATOM      2  C   UNL     1       9.871  -6.982  -9.702  1.00  0.00     0.060 A 
ATOM      3  C   UNL     1       7.788  -6.808  -8.478  1.00  0.00     0.060 A 
ATOM      4  C   UNL     1      10.547  -6.362  -8.643  1.00  0.00     0.162 A 
ATOM      5  C   UNL     1       8.459  -6.187  -7.416  1.00  0.00     0.162 A 
ATOM      6  C   UNL     1       9.844  -5.963  -7.498  1.00  0.00     0.200 A 
ENDROOT
BRANCH   1   7
ATOM      7  C   UNL     1       7.771  -7.866 -10.747  1.00  0.00     0.072 C 
ATOM      8  O   UNL     1       7.060  -8.886 -10.543  1.00  0.00    -0.545 OA
ATOM      9  O   UNL     1       7.872  -7.364 -12.040  1.00  0.00    -0.545 OA
ENDBRANCH   1   7
BRANCH   4  10
ATOM     10  O   UNL     1      11.921  -6.137  -8.720  1.00  0.00    -0.504 OA
ATOM     11  H   UNL     1      12.297  -5.229  -8.966  1.00  0.00     0.293 HD
ENDBRANCH   4  10
BRANCH   5  12
ATOM     12  O   UNL     1       7.756  -5.792  -6.279  1.00  0.00    -0.504 OA
ATOM     13  H   UNL     1       8.162  -5.164  -5.595  1.00  0.00     0.293 HD
ENDBRANCH   5  12
BRANCH   6  14
ATOM     14  O   UNL     1      10.534  -5.347  -6.455  1.00  0.00    -0.502 OA
ATOM     15  H   UNL     1      10.149  -4.562  -5.944  1.00  0.00     0.293 HD
ENDBRANCH   6  14
TORSDOF 4
ENDMDL
MODEL 5
REMARK VINA RESULT:    -4.529     14.270     15.661
REMARK INTER + INTRA:          -5.237
REMARK INTER:                  -5.191
REMARK INTRA:                  -0.046
REMARK UNBOUND:                -0.046
REMARK SMILES O=C([O-])c1cc(O)c(O)c(O)c1
REMARK SMILES IDX 4 1 5 2 12 3 6 4 10 5 8 6 2 7 1 8 3 9 7 10 11 12 9 14
REMARK H PARENT 7 11 11 13 9 15
REMARK Flexibility Score: inf
ROOT
ATOM      1  C   UNL     1       8.744  -5.771 -10.545  1.00  0.00     0.005 A 
ATOM      2  C   UNL     1       7.965  -5.416  -9.430  1.00  0.00     0.060 A 
ATOM      3  C   UNL     1      10.105  -6.068 -10.358  1.00  0.00     0.060 A 
ATOM      4  C   UNL     1       8.534  -5.360  -8.151  1.00  0.00     0.162 A 
ATOM      5  C   UNL     1      10.680  -6.014  -9.081  1.00  0.00     0.162 A 
ATOM      6  C   UNL     1       9.891  -5.659  -7.973  1.00  0.00     0.200 A 
ENDROOT
BRANCH   1   7
ATOM      7  C   UNL     1       8.145  -5.831 -11.896  1.00  0.00     0.072 C 
ATOM      8  O   UNL     1       8.068  -6.925 -12.516  1.00  0.00    -0.545 OA
ATOM      9  O   UNL     1       7.658  -4.678 -12.503  1.00  0.00    -0.545 OA
ENDBRANCH   1   7
BRANCH   4  10
ATOM     10  O   UNL     1       7.756  -5.009  -7.049  1.00  0.00    -0.504 OA
ATOM     11  H   UNL     1       6.758  -5.183  -7.027  1.00  0.00     0.293 HD
ENDBRANCH   4  10
BRANCH   5  12
ATOM     12  O   UNL     1      12.031  -6.311  -8.908  1.00  0.00    -0.504 OA
ATOM     13  H   UNL     1      12.366  -7.267  -8.890  1.00  0.00     0.293 HD
ENDBRANCH   5  12
BRANCH   6  14
ATOM     14  O   UNL     1      10.440  -5.597  -6.692  1.00  0.00    -0.502 OA
ATOM     15  H   UNL     1      10.010  -6.058  -5.900  1.00  0.00     0.293 HD
ENDBRANCH   6  14
TORSDOF 4
ENDMDL
MODEL 6
REMARK VINA RESULT:    -4.506     17.027     19.015
REMARK INTER + INTRA:          -5.210
REMARK INTER:                  -5.158
REMARK INTRA:                  -0.052
REMARK UNBOUND:                -0.046
REMARK SMILES O=C([O-])c1cc(O)c(O)c(O)c1
REMARK SMILES IDX 4 1 5 2 12 3 6 4 10 5 8 6 2 7 1 8 3 9 7 10 11 12 9 14
REMARK H PARENT 7 11 11 13 9 15
REMARK Flexibility Score: inf
ROOT
ATOM      1  C   UNL     1       7.920  -7.221  -7.335  1.00  0.00     0.005 A 
ATOM      2  C   UNL     1       7.585  -8.226  -6.412  1.00  0.00     0.060 A 
ATOM      3  C   UNL     1       8.263  -5.944  -6.858  1.00  0.00     0.060 A 
ATOM      4  C   UNL     1       7.592  -7.961  -5.036  1.00  0.00     0.162 A 
ATOM      5  C   UNL     1       8.273  -5.674  -5.483  1.00  0.00     0.162 A 
ATOM      6  C   UNL     1       7.936  -6.686  -4.568  1.00  0.00     0.200 A 
ENDROOT
BRANCH   1   7
ATOM      7  C   UNL     1       7.913  -7.498  -8.788  1.00  0.00     0.072 C 
ATOM      8  O   UNL     1       7.933  -6.553  -9.622  1.00  0.00    -0.545 OA
ATOM      9  O   UNL     1       7.883  -8.807  -9.256  1.00  0.00    -0.545 OA
ENDBRANCH   1   7
BRANCH   4  10
ATOM     10  O   UNL     1       7.259  -8.963  -4.125  1.00  0.00    -0.504 OA
ATOM     11  H   UNL     1       7.564  -8.924  -3.160  1.00  0.00     0.293 HD
ENDBRANCH   4  10
BRANCH   5  12
ATOM     12  O   UNL     1       8.615  -4.404  -5.021  1.00  0.00    -0.504 OA
ATOM     13  H   UNL     1       8.022  -3.897  -4.374  1.00  0.00     0.293 HD
ENDBRANCH   5  12
BRANCH   6  14
ATOM     14  O   UNL     1       7.938  -6.442  -3.195  1.00  0.00    -0.502 OA
ATOM     15  H   UNL     1       7.708  -5.535  -2.809  1.00  0.00     0.293 HD
ENDBRANCH   6  14
TORSDOF 4
ENDMDL
MODEL 7
REMARK VINA RESULT:    -4.459     14.391     16.419
REMARK INTER + INTRA:          -5.157
REMARK INTER:                  -5.104
REMARK INTRA:                  -0.053
REMARK UNBOUND:                -0.046
REMARK SMILES O=C([O-])c1cc(O)c(O)c(O)c1
REMARK SMILES IDX 4 1 5 2 12 3 6 4 10 5 8 6 2 7 1 8 3 9 7 10 11 12 9 14
REMARK H PARENT 7 11 11 13 9 15
REMARK Flexibility Score: inf
ROOT
ATOM      1  C   UNL     1       8.733  -5.990 -10.203  1.00  0.00     0.005 A 
ATOM      2  C   UNL     1       9.768  -6.100  -9.259  1.00  0.00     0.060 A 
ATOM      3  C   UNL     1       7.491  -5.475  -9.797  1.00  0.00     0.060 A 
ATOM      4  C   UNL     1       9.566  -5.702  -7.930  1.00  0.00     0.162 A 
ATOM      5  C   UNL     1       7.283  -5.075  -8.469  1.00  0.00     0.162 A 
ATOM      6  C   UNL     1       8.324  -5.189  -7.533  1.00  0.00     0.200 A 
ENDROOT
BRANCH   1   7
ATOM      7  C   UNL     1       8.945  -6.409 -11.606  1.00  0.00     0.072 C 
ATOM      8  O   UNL     1       9.996  -7.017 -11.942  1.00  0.00    -0.545 OA
ATOM      9  O   UNL     1       7.986  -6.137 -12.576  1.00  0.00    -0.545 OA
ENDBRANCH   1   7
BRANCH   4  10
ATOM     10  O   UNL     1      10.596  -5.813  -6.997  1.00  0.00    -0.504 OA
ATOM     11  H   UNL     1      11.562  -5.649  -7.252  1.00  0.00     0.293 HD
ENDBRANCH   4  10
BRANCH   5  12
ATOM     12  O   UNL     1       6.046  -4.565  -8.077  1.00  0.00    -0.504 OA
ATOM     13  H   UNL     1       5.970  -3.709  -7.540  1.00  0.00     0.293 HD
ENDBRANCH   5  12
BRANCH   6  14
ATOM     14  O   UNL     1       8.142  -4.798  -6.206  1.00  0.00    -0.502 OA
ATOM     15  H   UNL     1       7.284  -4.365  -5.885  1.00  0.00     0.293 HD
ENDBRANCH   6  14
TORSDOF 4
ENDMDL
MODEL 8
REMARK VINA RESULT:    -4.452     14.987     17.188
REMARK INTER + INTRA:          -5.149
REMARK INTER:                  -5.103
REMARK INTRA:                  -0.045
REMARK UNBOUND:                -0.046
REMARK SMILES O=C([O-])c1cc(O)c(O)c(O)c1
REMARK SMILES IDX 4 1 5 2 12 3 6 4 10 5 8 6 2 7 1 8 3 9 7 10 11 12 9 14
REMARK H PARENT 7 11 11 13 9 15
REMARK Flexibility Score: inf
ROOT
ATOM      1  C   UNL     1       9.508  -7.136  -8.786  1.00  0.00     0.005 A 
ATOM      2  C   UNL     1       8.325  -7.717  -8.298  1.00  0.00     0.060 A 
ATOM      3  C   UNL     1      10.191  -6.205  -7.987  1.00  0.00     0.060 A 
ATOM      4  C   UNL     1       7.833  -7.374  -7.032  1.00  0.00     0.162 A 
ATOM      5  C   UNL     1       9.703  -5.858  -6.719  1.00  0.00     0.162 A 
ATOM      6  C   UNL     1       8.519  -6.444  -6.240  1.00  0.00     0.200 A 
ENDROOT
BRANCH   1   7
ATOM      7  C   UNL     1      10.029  -7.498 -10.123  1.00  0.00     0.072 C 
ATOM      8  O   UNL     1      11.080  -8.184 -10.238  1.00  0.00    -0.545 OA
ATOM      9  O   UNL     1       9.367  -7.083 -11.274  1.00  0.00    -0.545 OA
ENDBRANCH   1   7
BRANCH   4  10
ATOM     10  O   UNL     1       6.659  -7.954  -6.552  1.00  0.00    -0.504 OA
ATOM     11  H   UNL     1       5.780  -7.860  -7.046  1.00  0.00     0.293 HD
ENDBRANCH   4  10
BRANCH   5  12
ATOM     12  O   UNL     1      10.389  -4.932  -5.934  1.00  0.00    -0.504 OA
ATOM     13  H   UNL     1      10.499  -3.968  -6.225  1.00  0.00     0.293 HD
ENDBRANCH   5  12
BRANCH   6  14
ATOM     14  O   UNL     1       8.014  -6.116  -4.982  1.00  0.00    -0.502 OA
ATOM     15  H   UNL     1       7.596  -5.213  -4.789  1.00  0.00     0.293 HD
ENDBRANCH   6  14
TORSDOF 4
ENDMDL
MODEL 9
REMARK VINA RESULT:    -4.434     17.245     19.090
REMARK INTER + INTRA:          -5.128
REMARK INTER:                  -5.082
REMARK INTRA:                  -0.045
REMARK UNBOUND:                -0.046
REMARK SMILES O=C([O-])c1cc(O)c(O)c(O)c1
REMARK SMILES IDX 4 1 5 2 12 3 6 4 10 5 8 6 2 7 1 8 3 9 7 10 11 12 9 14
REMARK H PARENT 7 11 11 13 9 15
REMARK Flexibility Score: inf
ROOT
ATOM      1  C   UNL     1       8.226  -7.611  -7.220  1.00  0.00     0.005 A 
ATOM      2  C   UNL     1       8.673  -6.342  -6.815  1.00  0.00     0.060 A 
ATOM      3  C   UNL     1       7.665  -8.474  -6.264  1.00  0.00     0.060 A 
ATOM      4  C   UNL     1       8.561  -5.941  -5.477  1.00  0.00     0.162 A 
ATOM      5  C   UNL     1       7.549  -8.077  -4.924  1.00  0.00     0.162 A 
ATOM      6  C   UNL     1       7.999  -6.806  -4.529  1.00  0.00     0.200 A 
ENDROOT
BRANCH   1   7
ATOM      7  C   UNL     1       8.343  -8.037  -8.632  1.00  0.00     0.072 C 
ATOM      8  O   UNL     1       7.590  -7.545  -9.515  1.00  0.00    -0.545 OA
ATOM      9  O   UNL     1       9.287  -8.988  -9.006  1.00  0.00    -0.545 OA
ENDBRANCH   1   7
BRANCH   4  10
ATOM     10  O   UNL     1       9.005  -4.680  -5.081  1.00  0.00    -0.504 OA
ATOM     11  H   UNL     1       8.373  -3.891  -5.014  1.00  0.00     0.293 HD
ENDBRANCH   4  10
BRANCH   5  12
ATOM     12  O   UNL     1       6.991  -8.941  -3.984  1.00  0.00    -0.504 OA
ATOM     13  H   UNL     1       6.116  -8.727  -3.518  1.00  0.00     0.293 HD
ENDBRANCH   5  12
BRANCH   6  14
ATOM     14  O   UNL     1       7.896  -6.388  -3.202  1.00  0.00    -0.502 OA
ATOM     15  H   UNL     1       7.490  -5.496  -2.949  1.00  0.00     0.293 HD
ENDBRANCH   6  14
TORSDOF 4
ENDMDL
