MODEL 1
REMARK VINA RESULT:    -4.943      0.000      0.000
REMARK INTER + INTRA:          -4.943
REMARK INTER:                  -4.943
REMARK INTRA:                   0.000
REMARK UNBOUND:                 0.000
REMARK SMILES c1ccc2ccccc2c1
REMARK SMILES IDX 2 1 1 2 10 3 9 4 8 5 7 6 6 7 5 8 4 9 3 10
REMARK H PARENT
REMARK Flexibility Score: inf
ROOT
ATOM      1  C   UNL     1       0.955  -3.384   8.669  1.00  0.00     0.001 A 
ATOM      2  C   UNL     1       2.165  -3.034   9.277  1.00  0.00     0.001 A 
ATOM      3  C   UNL     1       2.525  -1.690   9.403  1.00  0.00     0.009 A 
ATOM      4  C   UNL     1       1.674  -0.684   8.919  1.00  0.00    -0.018 A 
ATOM      5  C   UNL     1       2.025   0.670   9.040  1.00  0.00     0.009 A 
ATOM      6  C   UNL     1       1.168   1.662   8.553  1.00  0.00     0.001 A 
ATOM      7  C   UNL     1      -0.042   1.312   7.945  1.00  0.00     0.001 A 
ATOM      8  C   UNL     1      -0.402  -0.033   7.819  1.00  0.00     0.009 A 
ATOM      9  C   UNL     1       0.449  -1.038   8.303  1.00  0.00    -0.018 A 
ATOM     10  C   UNL     1       0.098  -2.393   8.182  1.00  0.00     0.009 A 
ENDROOT
TORSDOF 0
ENDMDL
MODEL 2
REMARK VINA RESULT:    -4.941      0.047      2.082
REMARK INTER + INTRA:          -4.941
REMARK INTER:                  -4.941
REMARK INTRA:                   0.000
REMARK UNBOUND:                 0.000
REMARK SMILES c1ccc2ccccc2c1
REMARK SMILES IDX 2 1 1 2 10 3 9 4 8 5 7 6 6 7 5 8 4 9 3 10
REMARK H PARENT
REMARK Flexibility Score: inf
ROOT
ATOM      1  C   UNL     1       2.160  -3.020   9.305  1.00  0.00     0.001 A 
ATOM      2  C   UNL     1       0.964  -3.364   8.668  1.00  0.00     0.001 A 
ATOM      3  C   UNL     1       0.126  -2.367   8.159  1.00  0.00     0.009 A 
ATOM      4  C   UNL     1       0.483  -1.016   8.286  1.00  0.00    -0.018 A 
ATOM      5  C   UNL     1      -0.350  -0.005   7.778  1.00  0.00     0.009 A 
ATOM      6  C   UNL     1       0.017   1.337   7.911  1.00  0.00     0.001 A 
ATOM      7  C   UNL     1       1.213   1.682   8.549  1.00  0.00     0.001 A 
ATOM      8  C   UNL     1       2.050   0.685   9.057  1.00  0.00     0.009 A 
ATOM      9  C   UNL     1       1.694  -0.667   8.931  1.00  0.00    -0.018 A 
ATOM     10  C   UNL     1       2.526  -1.678   9.439  1.00  0.00     0.009 A 
ENDROOT
TORSDOF 0
ENDMDL
MODEL 3
REMARK VINA RESULT:    -4.941      0.077      3.436
REMARK INTER + INTRA:          -4.941
REMARK INTER:                  -4.941
REMARK INTRA:                   0.000
REMARK UNBOUND:                 0.000
REMARK SMILES c1ccc2ccccc2c1
REMARK SMILES IDX 2 1 1 2 10 3 9 4 8 5 7 6 6 7 5 8 4 9 3 10
REMARK H PARENT
REMARK Flexibility Score: inf
ROOT
ATOM      1  C   UNL     1       0.059   1.364   7.972  1.00  0.00     0.001 A 
ATOM      2  C   UNL     1       1.268   1.669   8.605  1.00  0.00     0.001 A 
ATOM      3  C   UNL     1       2.087   0.644   9.087  1.00  0.00     0.009 A 
ATOM      4  C   UNL     1       1.700  -0.697   8.936  1.00  0.00    -0.018 A 
ATOM      5  C   UNL     1       2.514  -1.736   9.414  1.00  0.00     0.009 A 
ATOM      6  C   UNL     1       2.116  -3.067   9.258  1.00  0.00     0.001 A 
ATOM      7  C   UNL     1       0.907  -3.371   8.625  1.00  0.00     0.001 A 
ATOM      8  C   UNL     1       0.088  -2.346   8.144  1.00  0.00     0.009 A 
ATOM      9  C   UNL     1       0.475  -1.006   8.294  1.00  0.00    -0.018 A 
ATOM     10  C   UNL     1      -0.339   0.034   7.816  1.00  0.00     0.009 A 
ENDROOT
TORSDOF 0
ENDMDL
MODEL 4
REMARK VINA RESULT:    -4.938      0.092      4.018
REMARK INTER + INTRA:          -4.938
REMARK INTER:                  -4.938
REMARK INTRA:                   0.000
REMARK UNBOUND:                 0.000
REMARK SMILES c1ccc2ccccc2c1
REMARK SMILES IDX 2 1 1 2 10 3 9 4 8 5 7 6 6 7 5 8 4 9 3 10
REMARK H PARENT
REMARK Flexibility Score: inf
ROOT
ATOM      1  C   UNL     1       1.261   1.713   8.614  1.00  0.00     0.001 A 
ATOM      2  C   UNL     1       0.056   1.390   7.982  1.00  0.00     0.001 A 
ATOM      3  C   UNL     1      -0.321   0.052   7.831  1.00  0.00     0.009 A 
ATOM      4  C   UNL     1       0.508  -0.972   8.313  1.00  0.00    -0.018 A 
ATOM      5  C   UNL     1       0.140  -2.320   8.168  1.00  0.00     0.009 A 
ATOM      6  C   UNL     1       0.975  -3.330   8.652  1.00  0.00     0.001 A 
ATOM      7  C   UNL     1       2.180  -3.007   9.284  1.00  0.00     0.001 A 
ATOM      8  C   UNL     1       2.557  -1.670   9.435  1.00  0.00     0.009 A 
ATOM      9  C   UNL     1       1.728  -0.645   8.953  1.00  0.00    -0.018 A 
ATOM     10  C   UNL     1       2.097   0.702   9.098  1.00  0.00     0.009 A 
ENDROOT
TORSDOF 0
ENDMDL
MODEL 5
REMARK VINA RESULT:    -4.755      0.873      2.391
REMARK INTER + INTRA:          -4.755
REMARK INTER:                  -4.755
REMARK INTRA:                   0.000
REMARK UNBOUND:                 0.000
REMARK SMILES c1ccc2ccccc2c1
REMARK SMILES IDX 2 1 1 2 10 3 9 4 8 5 7 6 6 7 5 8 4 9 3 10
REMARK H PARENT
REMARK Flexibility Score: inf
ROOT
ATOM      1  C   UNL     1       3.760  -1.377   9.968  1.00  0.00     0.001 A 
ATOM      2  C   UNL     1       3.025  -2.525   9.655  1.00  0.00     0.001 A 
ATOM      3  C   UNL     1       1.778  -2.412   9.032  1.00  0.00     0.009 A 
ATOM      4  C   UNL     1       1.260  -1.147   8.718  1.00  0.00    -0.018 A 
ATOM      5  C   UNL     1       0.009  -1.020   8.092  1.00  0.00     0.009 A 
ATOM      6  C   UNL     1      -0.496   0.247   7.786  1.00  0.00     0.001 A 
ATOM      7  C   UNL     1       0.239   1.394   8.099  1.00  0.00     0.001 A 
ATOM      8  C   UNL     1       1.486   1.281   8.722  1.00  0.00     0.009 A 
ATOM      9  C   UNL     1       2.005   0.016   9.036  1.00  0.00    -0.018 A 
ATOM     10  C   UNL     1       3.255  -0.111   9.662  1.00  0.00     0.009 A 
ENDROOT
TORSDOF 0
ENDMDL
MODEL 6
REMARK VINA RESULT:    -4.718      0.867      3.386
REMARK INTER + INTRA:          -4.718
REMARK INTER:                  -4.718
REMARK INTRA:                   0.000
REMARK UNBOUND:                 0.000
REMARK SMILES c1ccc2ccccc2c1
REMARK SMILES IDX 2 1 1 2 10 3 9 4 8 5 7 6 6 7 5 8 4 9 3 10
REMARK H PARENT
REMARK Flexibility Score: inf
ROOT
ATOM      1  C   UNL     1      -0.420   0.126   7.817  1.00  0.00     0.001 A 
ATOM      2  C   UNL     1       0.340   1.246   8.169  1.00  0.00     0.001 A 
ATOM      3  C   UNL     1       1.572   1.085   8.809  1.00  0.00     0.009 A 
ATOM      4  C   UNL     1       2.052  -0.201   9.101  1.00  0.00    -0.018 A 
ATOM      5  C   UNL     1       3.289  -0.376   9.742  1.00  0.00     0.009 A 
ATOM      6  C   UNL     1       3.755  -1.662  10.028  1.00  0.00     0.001 A 
ATOM      7  C   UNL     1       2.994  -2.782   9.676  1.00  0.00     0.001 A 
ATOM      8  C   UNL     1       1.762  -2.621   9.036  1.00  0.00     0.009 A 
ATOM      9  C   UNL     1       1.282  -1.335   8.744  1.00  0.00    -0.018 A 
ATOM     10  C   UNL     1       0.045  -1.160   8.103  1.00  0.00     0.009 A 
ENDROOT
TORSDOF 0
ENDMDL
MODEL 7
REMARK VINA RESULT:    -4.702      0.846      1.767
REMARK INTER + INTRA:          -4.702
REMARK INTER:                  -4.702
REMARK INTRA:                   0.000
REMARK UNBOUND:                 0.000
REMARK SMILES c1ccc2ccccc2c1
REMARK SMILES IDX 2 1 1 2 10 3 9 4 8 5 7 6 6 7 5 8 4 9 3 10
REMARK H PARENT
REMARK Flexibility Score: inf
ROOT
ATOM      1  C   UNL     1       3.190  -2.148   9.738  1.00  0.00     0.001 A 
ATOM      2  C   UNL     1       3.852  -0.941   9.982  1.00  0.00     0.001 A 
ATOM      3  C   UNL     1       3.262   0.272   9.615  1.00  0.00     0.009 A 
ATOM      4  C   UNL     1       2.001   0.284   8.999  1.00  0.00    -0.018 A 
ATOM      5  C   UNL     1       1.397   1.495   8.627  1.00  0.00     0.009 A 
ATOM      6  C   UNL     1       0.141   1.493   8.014  1.00  0.00     0.001 A 
ATOM      7  C   UNL     1      -0.522   0.286   7.769  1.00  0.00     0.001 A 
ATOM      8  C   UNL     1       0.068  -0.927   8.136  1.00  0.00     0.009 A 
ATOM      9  C   UNL     1       1.330  -0.939   8.752  1.00  0.00    -0.018 A 
ATOM     10  C   UNL     1       1.934  -2.151   9.125  1.00  0.00     0.009 A 
ENDROOT
TORSDOF 0
ENDMDL
MODEL 8
REMARK VINA RESULT:    -4.416      0.823      3.441
REMARK INTER + INTRA:          -4.416
REMARK INTER:                  -4.416
REMARK INTRA:                   0.000
REMARK UNBOUND:                 0.000
REMARK SMILES c1ccc2ccccc2c1
REMARK SMILES IDX 2 1 1 2 10 3 9 4 8 5 7 6 6 7 5 8 4 9 3 10
REMARK H PARENT
REMARK Flexibility Score: inf
ROOT
ATOM      1  C   UNL     1       1.572   2.277   8.634  1.00  0.00     0.001 A 
ATOM      2  C   UNL     1       2.783   1.870   9.204  1.00  0.00     0.001 A 
ATOM      3  C   UNL     1       3.040   0.513   9.414  1.00  0.00     0.009 A 
ATOM      4  C   UNL     1       2.084  -0.449   9.054  1.00  0.00    -0.018 A 
ATOM      5  C   UNL     1       2.331  -1.817   9.259  1.00  0.00     0.009 A 
ATOM      6  C   UNL     1       1.370  -2.764   8.896  1.00  0.00     0.001 A 
ATOM      7  C   UNL     1       0.159  -2.358   8.326  1.00  0.00     0.001 A 
ATOM      8  C   UNL     1      -0.098  -1.000   8.115  1.00  0.00     0.009 A 
ATOM      9  C   UNL     1       0.858  -0.038   8.476  1.00  0.00    -0.018 A 
ATOM     10  C   UNL     1       0.611   1.329   8.271  1.00  0.00     0.009 A 
ENDROOT
TORSDOF 0
ENDMDL
MODEL 9
REMARK VINA RESULT:    -4.336      1.004      3.371
REMARK INTER + INTRA:          -4.336
REMARK INTER:                  -4.336
REMARK INTRA:                   0.000
REMARK UNBOUND:                 0.000
REMARK SMILES c1ccc2ccccc2c1
REMARK SMILES IDX 2 1 1 2 10 3 9 4 8 5 7 6 6 7 5 8 4 9 3 10
REMARK H PARENT
REMARK Flexibility Score: inf
ROOT
ATOM      1  C   UNL     1      -0.471   0.525   7.866  1.00  0.00     0.001 A 
ATOM      2  C   UNL     1      -0.615  -0.865   7.920  1.00  0.00     0.001 A 
ATOM      3  C   UNL     1       0.415  -1.658   8.433  1.00  0.00     0.009 A 
ATOM      4  C   UNL     1       1.598  -1.063   8.897  1.00  0.00    -0.018 A 
ATOM      5  C   UNL     1       2.640  -1.849   9.416  1.00  0.00     0.009 A 
ATOM      6  C   UNL     1       3.813  -1.243   9.875  1.00  0.00     0.001 A 
ATOM      7  C   UNL     1       3.957   0.147   9.821  1.00  0.00     0.001 A 
ATOM      8  C   UNL     1       2.927   0.940   9.308  1.00  0.00     0.009 A 
ATOM      9  C   UNL     1       1.743   0.345   8.843  1.00  0.00    -0.018 A 
ATOM     10  C   UNL     1       0.702   1.131   8.325  1.00  0.00     0.009 A 
ENDROOT
TORSDOF 0
ENDMDL
