MODEL 1
REMARK VINA RESULT:     9.779      0.000      0.000
REMARK INTER + INTRA:          22.456
REMARK INTER:                  24.643
REMARK INTRA:                  -2.187
REMARK UNBOUND:                -2.187
REMARK SMILES CCCCCCCCCCCCCCCCCCCCCCCCCCCC(=O)[O-]
REMARK SMILES IDX 15 1 16 2 17 3 18 4 19 5 20 6 21 7 22 8 23 9 24 10 25 11
REMARK SMILES IDX 26 12 27 13 28 14 29 15 30 16 14 17 13 18 12 19 11 20 10 21
REMARK SMILES IDX 9 22 8 23 7 24 6 25 5 26 4 27 3 28 2 29 1 30
REMARK H PARENT
REMARK Flexibility Score: inf
ROOT
ATOM      1  C   UNL     1      -6.868  13.251 -11.428  1.00  0.00     0.000 C 
ENDROOT
BRANCH   1   2
ATOM      2  C   UNL     1      -7.547  13.430 -12.798  1.00  0.00     0.000 C 
BRANCH   2   3
ATOM      3  C   UNL     1      -6.864  12.614 -13.906  1.00  0.00     0.000 C 
BRANCH   3   4
ATOM      4  C   UNL     1      -6.214  13.502 -14.980  1.00  0.00     0.000 C 
BRANCH   4   5
ATOM      5  C   UNL     1      -6.939  14.848 -15.147  1.00  0.00     0.000 C 
BRANCH   5   6
ATOM      6  C   UNL     1      -5.965  16.015 -15.394  1.00  0.00     0.000 C 
BRANCH   6   7
ATOM      7  C   UNL     1      -6.634  17.192 -16.125  1.00  0.00     0.000 C 
BRANCH   7   8
ATOM      8  C   UNL     1      -6.316  18.546 -15.467  1.00  0.00     0.000 C 
BRANCH   8   9
ATOM      9  C   UNL     1      -7.141  19.700 -16.061  1.00  0.00     0.000 C 
BRANCH   9  10
ATOM     10  C   UNL     1      -8.099  20.335 -15.039  1.00  0.00     0.000 C 
BRANCH  10  11
ATOM     11  C   UNL     1      -7.727  20.000 -13.585  1.00  0.00     0.000 C 
BRANCH  11  12
ATOM     12  C   UNL     1      -8.789  19.190 -12.812  1.00  0.00     0.006 C 
BRANCH  12  13
ATOM     13  C   UNL     1      -8.503  17.682 -12.729  1.00  0.00     0.053 C 
BRANCH  13  14
ATOM     14  C   UNL     1      -9.506  16.879 -13.498  1.00  0.00     0.041 C 
ATOM     15  O   UNL     1     -10.411  16.246 -12.892  1.00  0.00    -0.550 OA
ATOM     16  O   UNL     1      -9.417  16.794 -14.881  1.00  0.00    -0.550 OA
ENDBRANCH  13  14
ENDBRANCH  12  13
ENDBRANCH  11  12
ENDBRANCH  10  11
ENDBRANCH   9  10
ENDBRANCH   8   9
ENDBRANCH   7   8
ENDBRANCH   6   7
ENDBRANCH   5   6
ENDBRANCH   4   5
ENDBRANCH   3   4
ENDBRANCH   2   3
ENDBRANCH   1   2
BRANCH   1  17
ATOM     17  C   UNL     1      -7.788  13.665 -10.260  1.00  0.00     0.000 C 
BRANCH  17  18
ATOM     18  C   UNL     1      -7.028  14.058  -8.978  1.00  0.00     0.000 C 
BRANCH  18  19
ATOM     19  C   UNL     1      -6.716  12.894  -8.022  1.00  0.00     0.000 C 
BRANCH  19  20
ATOM     20  C   UNL     1      -6.861  13.287  -6.541  1.00  0.00     0.000 C 
BRANCH  20  21
ATOM     21  C   UNL     1      -7.182  12.084  -5.640  1.00  0.00     0.000 C 
BRANCH  21  22
ATOM     22  C   UNL     1      -8.380  11.268  -6.156  1.00  0.00    -0.000 C 
BRANCH  22  23
ATOM     23  C   UNL     1      -9.469  11.064  -5.089  1.00  0.00    -0.000 C 
BRANCH  23  24
ATOM     24  C   UNL     1     -10.870  11.578  -5.475  1.00  0.00    -0.000 C 
BRANCH  24  25
ATOM     25  C   UNL     1     -10.865  12.946  -6.191  1.00  0.00    -0.000 C 
BRANCH  25  26
ATOM     26  C   UNL     1     -10.675  12.809  -7.713  1.00  0.00    -0.000 C 
BRANCH  26  27
ATOM     27  C   UNL     1     -11.450  13.869  -8.515  1.00  0.00    -0.000 C 
BRANCH  27  28
ATOM     28  C   UNL     1     -12.850  14.203  -7.965  1.00  0.00    -0.000 C 
BRANCH  28  29
ATOM     29  C   UNL     1     -13.009  15.686  -7.602  1.00  0.00    -0.003 C 
ATOM     30  C   UNL     1     -12.640  15.938  -6.141  1.00  0.00     0.004 C 
ENDBRANCH  28  29
ENDBRANCH  27  28
ENDBRANCH  26  27
ENDBRANCH  25  26
ENDBRANCH  24  25
ENDBRANCH  23  24
ENDBRANCH  22  23
ENDBRANCH  21  22
ENDBRANCH  20  21
ENDBRANCH  19  20
ENDBRANCH  18  19
ENDBRANCH  17  18
ENDBRANCH   1  17
TORSDOF 26
ENDMDL
MODEL 2
REMARK VINA RESULT:     9.879      3.205      8.425
REMARK INTER + INTRA:          22.708
REMARK INTER:                  22.030
REMARK INTRA:                   0.677
REMARK UNBOUND:                -2.187
REMARK SMILES CCCCCCCCCCCCCCCCCCCCCCCCCCCC(=O)[O-]
REMARK SMILES IDX 15 1 16 2 17 3 18 4 19 5 20 6 21 7 22 8 23 9 24 10 25 11
REMARK SMILES IDX 26 12 27 13 28 14 29 15 30 16 14 17 13 18 12 19 11 20 10 21
REMARK SMILES IDX 9 22 8 23 7 24 6 25 5 26 4 27 3 28 2 29 1 30
REMARK H PARENT
REMARK Flexibility Score: inf
ROOT
ATOM      1  C   UNL     1      -8.699  14.147 -14.084  1.00  0.00     0.000 C 
ENDROOT
BRANCH   1   2
ATOM      2  C   UNL     1      -8.733  12.678 -14.541  1.00  0.00     0.000 C 
BRANCH   2   3
ATOM      3  C   UNL     1      -8.061  12.470 -15.908  1.00  0.00     0.000 C 
BRANCH   3   4
ATOM      4  C   UNL     1      -6.575  12.867 -15.903  1.00  0.00     0.000 C 
BRANCH   4   5
ATOM      5  C   UNL     1      -5.984  12.913 -14.485  1.00  0.00     0.000 C 
BRANCH   5   6
ATOM      6  C   UNL     1      -5.987  11.534 -13.800  1.00  0.00     0.000 C 
BRANCH   6   7
ATOM      7  C   UNL     1      -6.210  11.635 -12.281  1.00  0.00     0.000 C 
BRANCH   7   8
ATOM      8  C   UNL     1      -6.517  13.073 -11.829  1.00  0.00     0.000 C 
BRANCH   8   9
ATOM      9  C   UNL     1      -7.458  13.123 -10.614  1.00  0.00     0.000 C 
BRANCH   9  10
ATOM     10  C   UNL     1      -6.789  12.625  -9.321  1.00  0.00     0.000 C 
BRANCH  10  11
ATOM     11  C   UNL     1      -7.635  12.905  -8.067  1.00  0.00     0.000 C 
BRANCH  11  12
ATOM     12  C   UNL     1      -6.862  12.838  -6.733  1.00  0.00     0.006 C 
BRANCH  12  13
ATOM     13  C   UNL     1      -7.728  12.492  -5.512  1.00  0.00     0.053 C 
BRANCH  13  14
ATOM     14  C   UNL     1      -8.974  11.757  -5.899  1.00  0.00     0.041 C 
ATOM     15  O   UNL     1      -8.915  10.547  -6.243  1.00  0.00    -0.550 OA
ATOM     16  O   UNL     1     -10.194  12.419  -5.923  1.00  0.00    -0.550 OA
ENDBRANCH  13  14
ENDBRANCH  12  13
ENDBRANCH  11  12
ENDBRANCH  10  11
ENDBRANCH   9  10
ENDBRANCH   8   9
ENDBRANCH   7   8
ENDBRANCH   6   7
ENDBRANCH   5   6
ENDBRANCH   4   5
ENDBRANCH   3   4
ENDBRANCH   2   3
ENDBRANCH   1   2
BRANCH   1  17
ATOM     17  C   UNL     1      -8.514  15.123 -15.264  1.00  0.00     0.000 C 
BRANCH  17  18
ATOM     18  C   UNL     1      -7.283  16.041 -15.126  1.00  0.00     0.000 C 
BRANCH  18  19
ATOM     19  C   UNL     1      -7.226  17.210 -16.125  1.00  0.00     0.000 C 
BRANCH  19  20
ATOM     20  C   UNL     1      -8.260  18.307 -15.813  1.00  0.00     0.000 C 
BRANCH  20  21
ATOM     21  C   UNL     1      -7.644  19.715 -15.810  1.00  0.00     0.000 C 
BRANCH  21  22
ATOM     22  C   UNL     1      -6.277  19.755 -15.104  1.00  0.00    -0.000 C 
BRANCH  22  23
ATOM     23  C   UNL     1      -6.029  21.077 -14.357  1.00  0.00    -0.000 C 
BRANCH  23  24
ATOM     24  C   UNL     1      -6.472  21.089 -12.880  1.00  0.00    -0.000 C 
BRANCH  24  25
ATOM     25  C   UNL     1      -7.957  20.724 -12.664  1.00  0.00    -0.000 C 
BRANCH  25  26
ATOM     26  C   UNL     1      -8.147  19.238 -12.307  1.00  0.00    -0.000 C 
BRANCH  26  27
ATOM     27  C   UNL     1      -9.529  18.694 -12.712  1.00  0.00    -0.000 C 
BRANCH  27  28
ATOM     28  C   UNL     1      -9.695  17.170 -12.564  1.00  0.00    -0.000 C 
BRANCH  28  29
ATOM     29  C   UNL     1      -8.593  16.531 -11.706  1.00  0.00    -0.003 C 
ATOM     30  C   UNL     1      -7.234  16.625 -12.396  1.00  0.00     0.004 C 
ENDBRANCH  28  29
ENDBRANCH  27  28
ENDBRANCH  26  27
ENDBRANCH  25  26
ENDBRANCH  24  25
ENDBRANCH  23  24
ENDBRANCH  22  23
ENDBRANCH  21  22
ENDBRANCH  20  21
ENDBRANCH  19  20
ENDBRANCH  18  19
ENDBRANCH  17  18
ENDBRANCH   1  17
TORSDOF 26
ENDMDL
MODEL 3
REMARK VINA RESULT:    10.014      1.443      2.421
REMARK INTER + INTRA:          23.048
REMARK INTER:                  24.469
REMARK INTRA:                  -1.421
REMARK UNBOUND:                -2.187
REMARK SMILES CCCCCCCCCCCCCCCCCCCCCCCCCCCC(=O)[O-]
REMARK SMILES IDX 15 1 16 2 17 3 18 4 19 5 20 6 21 7 22 8 23 9 24 10 25 11
REMARK SMILES IDX 26 12 27 13 28 14 29 15 30 16 14 17 13 18 12 19 11 20 10 21
REMARK SMILES IDX 9 22 8 23 7 24 6 25 5 26 4 27 3 28 2 29 1 30
REMARK H PARENT
REMARK Flexibility Score: inf
ROOT
ATOM      1  C   UNL     1      -7.031  14.570 -10.324  1.00  0.00     0.000 C 
ENDROOT
BRANCH   1   2
ATOM      2  C   UNL     1      -8.119  14.507 -11.411  1.00  0.00     0.000 C 
BRANCH   2   3
ATOM      3  C   UNL     1      -7.945  13.306 -12.353  1.00  0.00     0.000 C 
BRANCH   3   4
ATOM      4  C   UNL     1      -7.000  13.609 -13.528  1.00  0.00     0.000 C 
BRANCH   4   5
ATOM      5  C   UNL     1      -7.422  12.891 -14.821  1.00  0.00     0.000 C 
BRANCH   5   6
ATOM      6  C   UNL     1      -8.587  13.600 -15.535  1.00  0.00     0.000 C 
BRANCH   6   7
ATOM      7  C   UNL     1      -8.172  14.960 -16.125  1.00  0.00     0.000 C 
BRANCH   7   8
ATOM      8  C   UNL     1      -8.161  16.076 -15.067  1.00  0.00     0.000 C 
BRANCH   8   9
ATOM      9  C   UNL     1      -6.765  16.690 -14.870  1.00  0.00     0.000 C 
BRANCH   9  10
ATOM     10  C   UNL     1      -6.386  17.679 -15.987  1.00  0.00     0.000 C 
BRANCH  10  11
ATOM     11  C   UNL     1      -6.292  19.131 -15.490  1.00  0.00     0.000 C 
BRANCH  11  12
ATOM     12  C   UNL     1      -7.398  20.071 -16.013  1.00  0.00     0.006 C 
BRANCH  12  13
ATOM     13  C   UNL     1      -8.526  20.349 -15.008  1.00  0.00     0.053 C 
BRANCH  13  14
ATOM     14  C   UNL     1      -8.084  20.122 -13.595  1.00  0.00     0.041 C 
ATOM     15  O   UNL     1      -7.305  20.939 -13.036  1.00  0.00    -0.550 OA
ATOM     16  O   UNL     1      -8.498  18.989 -12.909  1.00  0.00    -0.550 OA
ENDBRANCH  13  14
ENDBRANCH  12  13
ENDBRANCH  11  12
ENDBRANCH  10  11
ENDBRANCH   9  10
ENDBRANCH   8   9
ENDBRANCH   7   8
ENDBRANCH   6   7
ENDBRANCH   5   6
ENDBRANCH   4   5
ENDBRANCH   3   4
ENDBRANCH   2   3
ENDBRANCH   1   2
BRANCH   1  17
ATOM     17  C   UNL     1      -7.327  13.621  -9.144  1.00  0.00     0.000 C 
BRANCH  17  18
ATOM     18  C   UNL     1      -6.450  13.880  -7.903  1.00  0.00     0.000 C 
BRANCH  18  19
ATOM     19  C   UNL     1      -6.393  12.721  -6.892  1.00  0.00     0.000 C 
BRANCH  19  20
ATOM     20  C   UNL     1      -7.528  12.782  -5.855  1.00  0.00     0.000 C 
BRANCH  20  21
ATOM     21  C   UNL     1      -7.911  11.395  -5.316  1.00  0.00     0.000 C 
BRANCH  21  22
ATOM     22  C   UNL     1      -9.126  10.798  -6.048  1.00  0.00    -0.000 C 
BRANCH  22  23
ATOM     23  C   UNL     1     -10.467  11.232  -5.431  1.00  0.00    -0.000 C 
BRANCH  23  24
ATOM     24  C   UNL     1     -10.900  12.677  -5.753  1.00  0.00    -0.000 C 
BRANCH  24  25
ATOM     25  C   UNL     1     -10.828  13.038  -7.253  1.00  0.00    -0.000 C 
BRANCH  25  26
ATOM     26  C   UNL     1     -12.215  13.341  -7.848  1.00  0.00    -0.000 C 
BRANCH  26  27
ATOM     27  C   UNL     1     -12.274  14.694  -8.579  1.00  0.00    -0.000 C 
BRANCH  27  28
ATOM     28  C   UNL     1     -12.480  15.917  -7.665  1.00  0.00    -0.000 C 
BRANCH  28  29
ATOM     29  C   UNL     1     -12.775  15.529  -6.209  1.00  0.00    -0.003 C 
ATOM     30  C   UNL     1     -13.128  16.758  -5.373  1.00  0.00     0.004 C 
ENDBRANCH  28  29
ENDBRANCH  27  28
ENDBRANCH  26  27
ENDBRANCH  25  26
ENDBRANCH  24  25
ENDBRANCH  23  24
ENDBRANCH  22  23
ENDBRANCH  21  22
ENDBRANCH  20  21
ENDBRANCH  19  20
ENDBRANCH  18  19
ENDBRANCH  17  18
ENDBRANCH   1  17
TORSDOF 26
ENDMDL
MODEL 4
REMARK VINA RESULT:    10.103      1.655      9.149
REMARK INTER + INTRA:          23.271
REMARK INTER:                  23.020
REMARK INTRA:                   0.252
REMARK UNBOUND:                -2.187
REMARK SMILES CCCCCCCCCCCCCCCCCCCCCCCCCCCC(=O)[O-]
REMARK SMILES IDX 15 1 16 2 17 3 18 4 19 5 20 6 21 7 22 8 23 9 24 10 25 11
REMARK SMILES IDX 26 12 27 13 28 14 29 15 30 16 14 17 13 18 12 19 11 20 10 21
REMARK SMILES IDX 9 22 8 23 7 24 6 25 5 26 4 27 3 28 2 29 1 30
REMARK H PARENT
REMARK Flexibility Score: inf
ROOT
ATOM      1  C   UNL     1      -7.980  14.289 -11.443  1.00  0.00     0.000 C 
ENDROOT
BRANCH   1   2
ATOM      2  C   UNL     1      -7.405  13.201 -10.519  1.00  0.00     0.000 C 
BRANCH   2   3
ATOM      3  C   UNL     1      -7.277  13.672  -9.062  1.00  0.00     0.000 C 
BRANCH   3   4
ATOM      4  C   UNL     1      -6.785  12.558  -8.122  1.00  0.00     0.000 C 
BRANCH   4   5
ATOM      5  C   UNL     1      -6.411  13.088  -6.728  1.00  0.00     0.000 C 
BRANCH   5   6
ATOM      6  C   UNL     1      -7.562  12.948  -5.715  1.00  0.00     0.000 C 
BRANCH   6   7
ATOM      7  C   UNL     1      -7.167  12.103  -4.492  1.00  0.00     0.000 C 
BRANCH   7   8
ATOM      8  C   UNL     1      -7.948  10.779  -4.420  1.00  0.00     0.000 C 
BRANCH   8   9
ATOM      9  C   UNL     1      -8.751  10.496  -5.701  1.00  0.00     0.000 C 
BRANCH   9  10
ATOM     10  C   UNL     1     -10.120  11.197  -5.713  1.00  0.00     0.000 C 
BRANCH  10  11
ATOM     11  C   UNL     1     -10.167  12.396  -6.676  1.00  0.00     0.000 C 
BRANCH  11  12
ATOM     12  C   UNL     1     -11.304  13.403  -6.406  1.00  0.00     0.006 C 
BRANCH  12  13
ATOM     13  C   UNL     1     -12.319  13.540  -7.551  1.00  0.00     0.053 C 
BRANCH  13  14
ATOM     14  C   UNL     1     -12.305  14.914  -8.150  1.00  0.00     0.041 C 
ATOM     15  O   UNL     1     -12.842  15.876  -7.540  1.00  0.00    -0.550 OA
ATOM     16  O   UNL     1     -11.737  15.123  -9.399  1.00  0.00    -0.550 OA
ENDBRANCH  13  14
ENDBRANCH  12  13
ENDBRANCH  11  12
ENDBRANCH  10  11
ENDBRANCH   9  10
ENDBRANCH   8   9
ENDBRANCH   7   8
ENDBRANCH   6   7
ENDBRANCH   5   6
ENDBRANCH   4   5
ENDBRANCH   3   4
ENDBRANCH   2   3
ENDBRANCH   1   2
BRANCH   1  17
ATOM     17  C   UNL     1      -7.250  14.348 -12.802  1.00  0.00     0.000 C 
BRANCH  17  18
ATOM     18  C   UNL     1      -7.263  13.013 -13.573  1.00  0.00     0.000 C 
BRANCH  18  19
ATOM     19  C   UNL     1      -6.578  13.050 -14.950  1.00  0.00     0.000 C 
BRANCH  19  20
ATOM     20  C   UNL     1      -7.586  13.110 -16.112  1.00  0.00     0.000 C 
BRANCH  20  21
ATOM     21  C   UNL     1      -8.640  14.212 -15.922  1.00  0.00     0.000 C 
BRANCH  21  22
ATOM     22  C   UNL     1      -8.007  15.593 -15.678  1.00  0.00    -0.000 C 
BRANCH  22  23
ATOM     23  C   UNL     1      -6.493  15.612 -15.946  1.00  0.00    -0.000 C 
BRANCH  23  24
ATOM     24  C   UNL     1      -5.875  17.014 -16.125  1.00  0.00    -0.000 C 
BRANCH  24  25
ATOM     25  C   UNL     1      -5.975  17.911 -14.872  1.00  0.00    -0.000 C 
BRANCH  25  26
ATOM     26  C   UNL     1      -7.278  18.732 -14.843  1.00  0.00    -0.000 C 
BRANCH  26  27
ATOM     27  C   UNL     1      -7.448  19.546 -13.548  1.00  0.00    -0.000 C 
BRANCH  27  28
ATOM     28  C   UNL     1      -8.796  19.347 -12.829  1.00  0.00    -0.000 C 
BRANCH  28  29
ATOM     29  C   UNL     1      -8.940  17.950 -12.209  1.00  0.00    -0.003 C 
ATOM     30  C   UNL     1      -9.633  16.989 -13.172  1.00  0.00     0.004 C 
ENDBRANCH  28  29
ENDBRANCH  27  28
ENDBRANCH  26  27
ENDBRANCH  25  26
ENDBRANCH  24  25
ENDBRANCH  23  24
ENDBRANCH  22  23
ENDBRANCH  21  22
ENDBRANCH  20  21
ENDBRANCH  19  20
ENDBRANCH  18  19
ENDBRANCH  17  18
ENDBRANCH   1  17
TORSDOF 26
ENDMDL
MODEL 5
REMARK VINA RESULT:    10.270      1.822      2.524
REMARK INTER + INTRA:          23.693
REMARK INTER:                  24.550
REMARK INTRA:                  -0.857
REMARK UNBOUND:                -2.187
REMARK SMILES CCCCCCCCCCCCCCCCCCCCCCCCCCCC(=O)[O-]
REMARK SMILES IDX 15 1 16 2 17 3 18 4 19 5 20 6 21 7 22 8 23 9 24 10 25 11
REMARK SMILES IDX 26 12 27 13 28 14 29 15 30 16 14 17 13 18 12 19 11 20 10 21
REMARK SMILES IDX 9 22 8 23 7 24 6 25 5 26 4 27 3 28 2 29 1 30
REMARK H PARENT
REMARK Flexibility Score: inf
ROOT
ATOM      1  C   UNL     1      -7.902  14.127 -11.823  1.00  0.00     0.000 C 
ENDROOT
BRANCH   1   2
ATOM      2  C   UNL     1      -6.841  13.415 -12.683  1.00  0.00     0.000 C 
BRANCH   2   3
ATOM      3  C   UNL     1      -7.440  12.306 -13.561  1.00  0.00     0.000 C 
BRANCH   3   4
ATOM      4  C   UNL     1      -6.922  12.353 -15.009  1.00  0.00     0.000 C 
BRANCH   4   5
ATOM      5  C   UNL     1      -8.050  12.579 -16.029  1.00  0.00     0.000 C 
BRANCH   5   6
ATOM      6  C   UNL     1      -9.145  13.521 -15.498  1.00  0.00     0.000 C 
BRANCH   6   7
ATOM      7  C   UNL     1      -8.765  15.005 -15.648  1.00  0.00     0.000 C 
BRANCH   7   8
ATOM      8  C   UNL     1      -7.314  15.191 -16.124  1.00  0.00     0.000 C 
BRANCH   8   9
ATOM      9  C   UNL     1      -6.839  16.650 -16.017  1.00  0.00     0.000 C 
BRANCH   9  10
ATOM     10  C   UNL     1      -7.995  17.661 -16.116  1.00  0.00     0.000 C 
BRANCH  10  11
ATOM     11  C   UNL     1      -8.831  17.739 -14.827  1.00  0.00     0.000 C 
BRANCH  11  12
ATOM     12  C   UNL     1      -8.043  18.145 -13.564  1.00  0.00     0.006 C 
BRANCH  12  13
ATOM     13  C   UNL     1      -8.209  19.618 -13.156  1.00  0.00     0.053 C 
BRANCH  13  14
ATOM     14  C   UNL     1      -6.987  20.426 -13.465  1.00  0.00     0.041 C 
ATOM     15  O   UNL     1      -6.186  20.741 -12.545  1.00  0.00    -0.550 OA
ATOM     16  O   UNL     1      -6.752  20.867 -14.760  1.00  0.00    -0.550 OA
ENDBRANCH  13  14
ENDBRANCH  12  13
ENDBRANCH  11  12
ENDBRANCH  10  11
ENDBRANCH   9  10
ENDBRANCH   8   9
ENDBRANCH   7   8
ENDBRANCH   6   7
ENDBRANCH   5   6
ENDBRANCH   4   5
ENDBRANCH   3   4
ENDBRANCH   2   3
ENDBRANCH   1   2
BRANCH   1  17
ATOM     17  C   UNL     1      -8.151  13.402 -10.484  1.00  0.00     0.000 C 
BRANCH  17  18
ATOM     18  C   UNL     1      -6.924  13.382  -9.550  1.00  0.00     0.000 C 
BRANCH  18  19
ATOM     19  C   UNL     1      -7.227  13.675  -8.070  1.00  0.00     0.000 C 
BRANCH  19  20
ATOM     20  C   UNL     1      -6.833  12.512  -7.143  1.00  0.00     0.000 C 
BRANCH  20  21
ATOM     21  C   UNL     1      -6.494  12.982  -5.719  1.00  0.00     0.000 C 
BRANCH  21  22
ATOM     22  C   UNL     1      -7.611  12.655  -4.712  1.00  0.00    -0.000 C 
BRANCH  22  23
ATOM     23  C   UNL     1      -7.872  11.144  -4.580  1.00  0.00    -0.000 C 
BRANCH  23  24
ATOM     24  C   UNL     1      -9.157  10.638  -5.267  1.00  0.00    -0.000 C 
BRANCH  24  25
ATOM     25  C   UNL     1      -9.505  11.378  -6.578  1.00  0.00    -0.000 C 
BRANCH  25  26
ATOM     26  C   UNL     1     -10.680  12.356  -6.402  1.00  0.00    -0.000 C 
BRANCH  26  27
ATOM     27  C   UNL     1     -10.932  13.224  -7.649  1.00  0.00    -0.000 C 
BRANCH  27  28
ATOM     28  C   UNL     1     -12.395  13.665  -7.847  1.00  0.00    -0.000 C 
BRANCH  28  29
ATOM     29  C   UNL     1     -12.756  14.914  -7.029  1.00  0.00    -0.003 C 
ATOM     30  C   UNL     1     -12.687  16.174  -7.889  1.00  0.00     0.004 C 
ENDBRANCH  28  29
ENDBRANCH  27  28
ENDBRANCH  26  27
ENDBRANCH  25  26
ENDBRANCH  24  25
ENDBRANCH  23  24
ENDBRANCH  22  23
ENDBRANCH  21  22
ENDBRANCH  20  21
ENDBRANCH  19  20
ENDBRANCH  18  19
ENDBRANCH  17  18
ENDBRANCH   1  17
TORSDOF 26
ENDMDL
MODEL 6
REMARK VINA RESULT:    10.503      1.819      9.311
REMARK INTER + INTRA:          24.281
REMARK INTER:                  25.593
REMARK INTRA:                  -1.312
REMARK UNBOUND:                -2.187
REMARK SMILES CCCCCCCCCCCCCCCCCCCCCCCCCCCC(=O)[O-]
REMARK SMILES IDX 15 1 16 2 17 3 18 4 19 5 20 6 21 7 22 8 23 9 24 10 25 11
REMARK SMILES IDX 26 12 27 13 28 14 29 15 30 16 14 17 13 18 12 19 11 20 10 21
REMARK SMILES IDX 9 22 8 23 7 24 6 25 5 26 4 27 3 28 2 29 1 30
REMARK H PARENT
REMARK Flexibility Score: inf
ROOT
ATOM      1  C   UNL     1      -8.087  14.337 -10.332  1.00  0.00     0.000 C 
ENDROOT
BRANCH   1   2
ATOM      2  C   UNL     1      -7.036  13.420  -9.681  1.00  0.00     0.000 C 
BRANCH   2   3
ATOM      3  C   UNL     1      -7.032  13.523  -8.147  1.00  0.00     0.000 C 
BRANCH   3   4
ATOM      4  C   UNL     1      -6.205  12.409  -7.483  1.00  0.00     0.000 C 
BRANCH   4   5
ATOM      5  C   UNL     1      -6.107  12.580  -5.958  1.00  0.00     0.000 C 
BRANCH   5   6
ATOM      6  C   UNL     1      -7.482  12.512  -5.268  1.00  0.00     0.000 C 
BRANCH   6   7
ATOM      7  C   UNL     1      -7.536  11.430  -4.175  1.00  0.00     0.000 C 
BRANCH   7   8
ATOM      8  C   UNL     1      -8.737  10.484  -4.348  1.00  0.00     0.000 C 
BRANCH   8   9
ATOM      9  C   UNL     1      -9.061  10.205  -5.825  1.00  0.00     0.000 C 
BRANCH   9  10
ATOM     10  C   UNL     1      -9.563  11.453  -6.572  1.00  0.00     0.000 C 
BRANCH  10  11
ATOM     11  C   UNL     1     -10.788  12.097  -5.901  1.00  0.00     0.000 C 
BRANCH  11  12
ATOM     12  C   UNL     1     -11.146  13.506  -6.417  1.00  0.00     0.006 C 
BRANCH  12  13
ATOM     13  C   UNL     1     -11.923  13.521  -7.742  1.00  0.00     0.053 C 
BRANCH  13  14
ATOM     14  C   UNL     1     -12.372  14.902  -8.112  1.00  0.00     0.041 C 
ATOM     15  O   UNL     1     -12.944  15.631  -7.259  1.00  0.00    -0.550 OA
ATOM     16  O   UNL     1     -12.200  15.367  -9.408  1.00  0.00    -0.550 OA
ENDBRANCH  13  14
ENDBRANCH  12  13
ENDBRANCH  11  12
ENDBRANCH  10  11
ENDBRANCH   9  10
ENDBRANCH   8   9
ENDBRANCH   7   8
ENDBRANCH   6   7
ENDBRANCH   5   6
ENDBRANCH   4   5
ENDBRANCH   3   4
ENDBRANCH   2   3
ENDBRANCH   1   2
BRANCH   1  17
ATOM     17  C   UNL     1      -7.746  14.668 -11.800  1.00  0.00     0.000 C 
BRANCH  17  18
ATOM     18  C   UNL     1      -7.916  13.475 -12.762  1.00  0.00     0.000 C 
BRANCH  18  19
ATOM     19  C   UNL     1      -6.642  13.066 -13.523  1.00  0.00     0.000 C 
BRANCH  19  20
ATOM     20  C   UNL     1      -6.725  13.376 -15.028  1.00  0.00     0.000 C 
BRANCH  20  21
ATOM     21  C   UNL     1      -8.097  13.029 -15.627  1.00  0.00     0.000 C 
BRANCH  21  22
ATOM     22  C   UNL     1      -8.851  14.275 -16.124  1.00  0.00    -0.000 C 
BRANCH  22  23
ATOM     23  C   UNL     1      -8.142  15.589 -15.756  1.00  0.00    -0.000 C 
BRANCH  23  24
ATOM     24  C   UNL     1      -8.731  16.336 -14.543  1.00  0.00    -0.000 C 
BRANCH  24  25
ATOM     25  C   UNL     1      -7.918  17.575 -14.109  1.00  0.00    -0.000 C 
BRANCH  25  26
ATOM     26  C   UNL     1      -6.856  17.972 -15.151  1.00  0.00    -0.000 C 
BRANCH  26  27
ATOM     27  C   UNL     1      -6.381  19.429 -15.002  1.00  0.00    -0.000 C 
BRANCH  27  28
ATOM     28  C   UNL     1      -7.510  20.469 -14.873  1.00  0.00    -0.000 C 
BRANCH  28  29
ATOM     29  C   UNL     1      -7.591  21.092 -13.472  1.00  0.00    -0.003 C 
ATOM     30  C   UNL     1      -6.257  20.970 -12.738  1.00  0.00     0.004 C 
ENDBRANCH  28  29
ENDBRANCH  27  28
ENDBRANCH  26  27
ENDBRANCH  25  26
ENDBRANCH  24  25
ENDBRANCH  23  24
ENDBRANCH  22  23
ENDBRANCH  21  22
ENDBRANCH  20  21
ENDBRANCH  19  20
ENDBRANCH  18  19
ENDBRANCH  17  18
ENDBRANCH   1  17
TORSDOF 26
ENDMDL
MODEL 7
REMARK VINA RESULT:    10.741      2.091      9.120
REMARK INTER + INTRA:          24.880
REMARK INTER:                  26.436
REMARK INTRA:                  -1.556
REMARK UNBOUND:                -2.187
REMARK SMILES CCCCCCCCCCCCCCCCCCCCCCCCCCCC(=O)[O-]
REMARK SMILES IDX 15 1 16 2 17 3 18 4 19 5 20 6 21 7 22 8 23 9 24 10 25 11
REMARK SMILES IDX 26 12 27 13 28 14 29 15 30 16 14 17 13 18 12 19 11 20 10 21
REMARK SMILES IDX 9 22 8 23 7 24 6 25 5 26 4 27 3 28 2 29 1 30
REMARK H PARENT
REMARK Flexibility Score: inf
ROOT
ATOM      1  C   UNL     1      -7.522  14.086 -12.295  1.00  0.00     0.000 C 
ENDROOT
BRANCH   1   2
ATOM      2  C   UNL     1      -8.113  13.966 -10.879  1.00  0.00     0.000 C 
BRANCH   2   3
ATOM      3  C   UNL     1      -7.068  14.215  -9.780  1.00  0.00     0.000 C 
BRANCH   3   4
ATOM      4  C   UNL     1      -6.845  12.984  -8.886  1.00  0.00     0.000 C 
BRANCH   4   5
ATOM      5  C   UNL     1      -6.121  13.333  -7.575  1.00  0.00     0.000 C 
BRANCH   5   6
ATOM      6  C   UNL     1      -7.048  13.244  -6.349  1.00  0.00     0.000 C 
BRANCH   6   7
ATOM      7  C   UNL     1      -6.646  12.109  -5.391  1.00  0.00     0.000 C 
BRANCH   7   8
ATOM      8  C   UNL     1      -7.814  11.659  -4.496  1.00  0.00     0.000 C 
BRANCH   8   9
ATOM      9  C   UNL     1      -8.647  10.535  -5.133  1.00  0.00     0.000 C 
BRANCH   9  10
ATOM     10  C   UNL     1     -10.044  11.005  -5.574  1.00  0.00     0.000 C 
BRANCH  10  11
ATOM     11  C   UNL     1     -10.002  12.298  -6.407  1.00  0.00     0.000 C 
BRANCH  11  12
ATOM     12  C   UNL     1     -11.182  12.480  -7.384  1.00  0.00     0.006 C 
BRANCH  12  13
ATOM     13  C   UNL     1     -11.154  13.794  -8.179  1.00  0.00     0.053 C 
BRANCH  13  14
ATOM     14  C   UNL     1     -12.411  14.587  -7.997  1.00  0.00     0.041 C 
ATOM     15  O   UNL     1     -12.365  15.745  -7.503  1.00  0.00    -0.550 OA
ATOM     16  O   UNL     1     -13.639  14.032  -8.331  1.00  0.00    -0.550 OA
ENDBRANCH  13  14
ENDBRANCH  12  13
ENDBRANCH  11  12
ENDBRANCH  10  11
ENDBRANCH   9  10
ENDBRANCH   8   9
ENDBRANCH   7   8
ENDBRANCH   6   7
ENDBRANCH   5   6
ENDBRANCH   4   5
ENDBRANCH   3   4
ENDBRANCH   2   3
ENDBRANCH   1   2
BRANCH   1  17
ATOM     17  C   UNL     1      -6.335  13.126 -12.517  1.00  0.00     0.000 C 
BRANCH  17  18
ATOM     18  C   UNL     1      -6.659  11.943 -13.453  1.00  0.00     0.000 C 
BRANCH  18  19
ATOM     19  C   UNL     1      -5.899  11.944 -14.790  1.00  0.00     0.000 C 
BRANCH  19  20
ATOM     20  C   UNL     1      -6.732  12.527 -15.946  1.00  0.00     0.000 C 
BRANCH  20  21
ATOM     21  C   UNL     1      -7.656  13.667 -15.490  1.00  0.00     0.000 C 
BRANCH  21  22
ATOM     22  C   UNL     1      -7.261  15.022 -16.104  1.00  0.00    -0.000 C 
BRANCH  22  23
ATOM     23  C   UNL     1      -6.222  15.780 -15.260  1.00  0.00    -0.000 C 
BRANCH  23  24
ATOM     24  C   UNL     1      -6.233  17.313 -15.428  1.00  0.00    -0.000 C 
BRANCH  24  25
ATOM     25  C   UNL     1      -7.643  17.920 -15.590  1.00  0.00    -0.000 C 
BRANCH  25  26
ATOM     26  C   UNL     1      -8.622  17.422 -14.510  1.00  0.00    -0.000 C 
BRANCH  26  27
ATOM     27  C   UNL     1      -8.892  18.467 -13.413  1.00  0.00    -0.000 C 
BRANCH  27  28
ATOM     28  C   UNL     1      -8.164  19.811 -13.605  1.00  0.00    -0.000 C 
BRANCH  28  29
ATOM     29  C   UNL     1      -7.110  20.079 -12.520  1.00  0.00    -0.003 C 
ATOM     30  C   UNL     1      -6.084  21.107 -12.992  1.00  0.00     0.004 C 
ENDBRANCH  28  29
ENDBRANCH  27  28
ENDBRANCH  26  27
ENDBRANCH  25  26
ENDBRANCH  24  25
ENDBRANCH  23  24
ENDBRANCH  22  23
ENDBRANCH  21  22
ENDBRANCH  20  21
ENDBRANCH  19  20
ENDBRANCH  18  19
ENDBRANCH  17  18
ENDBRANCH   1  17
TORSDOF 26
ENDMDL
MODEL 8
REMARK VINA RESULT:    10.787      3.338      8.989
REMARK INTER + INTRA:          24.995
REMARK INTER:                  24.594
REMARK INTRA:                   0.401
REMARK UNBOUND:                -2.187
REMARK SMILES CCCCCCCCCCCCCCCCCCCCCCCCCCCC(=O)[O-]
REMARK SMILES IDX 15 1 16 2 17 3 18 4 19 5 20 6 21 7 22 8 23 9 24 10 25 11
REMARK SMILES IDX 26 12 27 13 28 14 29 15 30 16 14 17 13 18 12 19 11 20 10 21
REMARK SMILES IDX 9 22 8 23 7 24 6 25 5 26 4 27 3 28 2 29 1 30
REMARK H PARENT
REMARK Flexibility Score: inf
ROOT
ATOM      1  C   UNL     1      -8.413  15.173 -14.774  1.00  0.00     0.000 C 
ENDROOT
BRANCH   1   2
ATOM      2  C   UNL     1      -9.318  14.011 -15.220  1.00  0.00     0.000 C 
BRANCH   2   3
ATOM      3  C   UNL     1      -8.524  12.734 -15.538  1.00  0.00     0.000 C 
BRANCH   3   4
ATOM      4  C   UNL     1      -7.825  12.149 -14.299  1.00  0.00     0.000 C 
BRANCH   4   5
ATOM      5  C   UNL     1      -7.127  13.227 -13.454  1.00  0.00     0.000 C 
BRANCH   5   6
ATOM      6  C   UNL     1      -7.148  12.901 -11.949  1.00  0.00     0.000 C 
BRANCH   6   7
ATOM      7  C   UNL     1      -8.081  13.836 -11.159  1.00  0.00     0.000 C 
BRANCH   7   8
ATOM      8  C   UNL     1      -9.108  13.061 -10.317  1.00  0.00     0.000 C 
BRANCH   8   9
ATOM      9  C   UNL     1      -9.160  13.544  -8.858  1.00  0.00     0.000 C 
BRANCH   9  10
ATOM     10  C   UNL     1     -10.557  13.394  -8.230  1.00  0.00     0.000 C 
BRANCH  10  11
ATOM     11  C   UNL     1     -10.661  12.179  -7.292  1.00  0.00     0.000 C 
BRANCH  11  12
ATOM     12  C   UNL     1      -9.314  11.521  -6.928  1.00  0.00     0.006 C 
BRANCH  12  13
ATOM     13  C   UNL     1      -8.488  12.293  -5.888  1.00  0.00     0.053 C 
BRANCH  13  14
ATOM     14  C   UNL     1      -8.037  11.411  -4.765  1.00  0.00     0.041 C 
ATOM     15  O   UNL     1      -7.364  11.890  -3.813  1.00  0.00    -0.550 OA
ATOM     16  O   UNL     1      -8.321  10.052  -4.789  1.00  0.00    -0.550 OA
ENDBRANCH  13  14
ENDBRANCH  12  13
ENDBRANCH  11  12
ENDBRANCH  10  11
ENDBRANCH   9  10
ENDBRANCH   8   9
ENDBRANCH   7   8
ENDBRANCH   6   7
ENDBRANCH   5   6
ENDBRANCH   4   5
ENDBRANCH   3   4
ENDBRANCH   2   3
ENDBRANCH   1   2
BRANCH   1  17
ATOM     17  C   UNL     1      -7.615  15.777 -15.949  1.00  0.00     0.000 C 
BRANCH  17  18
ATOM     18  C   UNL     1      -6.340  16.528 -15.514  1.00  0.00     0.000 C 
BRANCH  18  19
ATOM     19  C   UNL     1      -6.276  18.004 -15.942  1.00  0.00     0.000 C 
BRANCH  19  20
ATOM     20  C   UNL     1      -7.670  18.640 -16.090  1.00  0.00     0.000 C 
BRANCH  20  21
ATOM     21  C   UNL     1      -7.618  20.176 -16.118  1.00  0.00     0.000 C 
BRANCH  21  22
ATOM     22  C   UNL     1      -6.190  20.717 -15.936  1.00  0.00    -0.000 C 
BRANCH  22  23
ATOM     23  C   UNL     1      -5.876  21.096 -14.478  1.00  0.00    -0.000 C 
BRANCH  23  24
ATOM     24  C   UNL     1      -6.117  19.979 -13.443  1.00  0.00    -0.000 C 
BRANCH  24  25
ATOM     25  C   UNL     1      -7.140  20.345 -12.346  1.00  0.00    -0.000 C 
BRANCH  25  26
ATOM     26  C   UNL     1      -8.582  20.394 -12.883  1.00  0.00    -0.000 C 
BRANCH  26  27
ATOM     27  C   UNL     1      -9.087  19.026 -13.375  1.00  0.00    -0.000 C 
BRANCH  27  28
ATOM     28  C   UNL     1      -9.541  18.063 -12.261  1.00  0.00    -0.000 C 
BRANCH  28  29
ATOM     29  C   UNL     1      -8.999  16.638 -12.448  1.00  0.00    -0.003 C 
ATOM     30  C   UNL     1      -7.551  16.534 -11.973  1.00  0.00     0.004 C 
ENDBRANCH  28  29
ENDBRANCH  27  28
ENDBRANCH  26  27
ENDBRANCH  25  26
ENDBRANCH  24  25
ENDBRANCH  23  24
ENDBRANCH  22  23
ENDBRANCH  21  22
ENDBRANCH  20  21
ENDBRANCH  19  20
ENDBRANCH  18  19
ENDBRANCH  17  18
ENDBRANCH   1  17
TORSDOF 26
ENDMDL
MODEL 9
REMARK VINA RESULT:    11.227      1.639      3.946
REMARK INTER + INTRA:          26.104
REMARK INTER:                  22.219
REMARK INTRA:                   3.884
REMARK UNBOUND:                -2.187
REMARK SMILES CCCCCCCCCCCCCCCCCCCCCCCCCCCC(=O)[O-]
REMARK SMILES IDX 15 1 16 2 17 3 18 4 19 5 20 6 21 7 22 8 23 9 24 10 25 11
REMARK SMILES IDX 26 12 27 13 28 14 29 15 30 16 14 17 13 18 12 19 11 20 10 21
REMARK SMILES IDX 9 22 8 23 7 24 6 25 5 26 4 27 3 28 2 29 1 30
REMARK H PARENT
REMARK Flexibility Score: inf
ROOT
ATOM      1  C   UNL     1      -7.550  14.688 -11.476  1.00  0.00     0.000 C 
ENDROOT
BRANCH   1   2
ATOM      2  C   UNL     1      -8.153  13.400 -12.065  1.00  0.00     0.000 C 
BRANCH   2   3
ATOM      3  C   UNL     1      -7.194  12.689 -13.033  1.00  0.00     0.000 C 
BRANCH   3   4
ATOM      4  C   UNL     1      -7.366  13.160 -14.487  1.00  0.00     0.000 C 
BRANCH   4   5
ATOM      5  C   UNL     1      -8.645  13.988 -14.690  1.00  0.00     0.000 C 
BRANCH   5   6
ATOM      6  C   UNL     1      -8.358  15.385 -15.269  1.00  0.00     0.000 C 
BRANCH   6   7
ATOM      7  C   UNL     1      -6.973  15.469 -15.935  1.00  0.00     0.000 C 
BRANCH   7   8
ATOM      8  C   UNL     1      -5.881  15.936 -14.956  1.00  0.00     0.000 C 
BRANCH   8   9
ATOM      9  C   UNL     1      -5.875  17.461 -14.761  1.00  0.00     0.000 C 
BRANCH   9  10
ATOM     10  C   UNL     1      -7.289  18.068 -14.763  1.00  0.00     0.000 C 
BRANCH  10  11
ATOM     11  C   UNL     1      -7.603  18.846 -16.052  1.00  0.00     0.000 C 
BRANCH  11  12
ATOM     12  C   UNL     1      -7.304  20.358 -15.988  1.00  0.00     0.006 C 
BRANCH  12  13
ATOM     13  C   UNL     1      -7.445  20.977 -14.588  1.00  0.00     0.053 C 
BRANCH  13  14
ATOM     14  C   UNL     1      -7.834  19.957 -13.563  1.00  0.00     0.041 C 
ATOM     15  O   UNL     1      -9.036  19.597 -13.452  1.00  0.00    -0.550 OA
ATOM     16  O   UNL     1      -6.879  19.437 -12.700  1.00  0.00    -0.550 OA
ENDBRANCH  13  14
ENDBRANCH  12  13
ENDBRANCH  11  12
ENDBRANCH  10  11
ENDBRANCH   9  10
ENDBRANCH   8   9
ENDBRANCH   7   8
ENDBRANCH   6   7
ENDBRANCH   5   6
ENDBRANCH   4   5
ENDBRANCH   3   4
ENDBRANCH   2   3
ENDBRANCH   1   2
BRANCH   1  17
ATOM     17  C   UNL     1      -8.494  15.899 -11.631  1.00  0.00     0.000 C 
BRANCH  17  18
ATOM     18  C   UNL     1      -9.973  15.577 -11.334  1.00  0.00     0.000 C 
BRANCH  18  19
ATOM     19  C   UNL     1     -10.203  14.548 -10.214  1.00  0.00     0.000 C 
BRANCH  19  20
ATOM     20  C   UNL     1     -11.394  14.912  -9.309  1.00  0.00     0.000 C 
BRANCH  20  21
ATOM     21  C   UNL     1     -11.780  13.771  -8.355  1.00  0.00     0.000 C 
BRANCH  21  22
ATOM     22  C   UNL     1     -10.565  12.933  -7.920  1.00  0.00    -0.000 C 
BRANCH  22  23
ATOM     23  C   UNL     1     -10.663  12.450  -6.463  1.00  0.00    -0.000 C 
BRANCH  23  24
ATOM     24  C   UNL     1      -9.634  11.376  -6.057  1.00  0.00    -0.000 C 
BRANCH  24  25
ATOM     25  C   UNL     1      -9.784  10.877  -4.603  1.00  0.00    -0.000 C 
BRANCH  25  26
ATOM     26  C   UNL     1      -8.754  11.519  -3.655  1.00  0.00    -0.000 C 
BRANCH  26  27
ATOM     27  C   UNL     1      -7.330  10.970  -3.852  1.00  0.00    -0.000 C 
BRANCH  27  28
ATOM     28  C   UNL     1      -6.521  11.653  -4.971  1.00  0.00    -0.000 C 
BRANCH  28  29
ATOM     29  C   UNL     1      -7.215  12.903  -5.531  1.00  0.00    -0.003 C 
ATOM     30  C   UNL     1      -6.484  13.433  -6.762  1.00  0.00     0.004 C 
ENDBRANCH  28  29
ENDBRANCH  27  28
ENDBRANCH  26  27
ENDBRANCH  25  26
ENDBRANCH  24  25
ENDBRANCH  23  24
ENDBRANCH  22  23
ENDBRANCH  21  22
ENDBRANCH  20  21
ENDBRANCH  19  20
ENDBRANCH  18  19
ENDBRANCH  17  18
ENDBRANCH   1  17
TORSDOF 26
ENDMDL
