MODEL 1
REMARK VINA RESULT:    -4.947      0.000      0.000
REMARK INTER + INTRA:          -5.938
REMARK INTER:                  -5.814
REMARK INTRA:                  -0.124
REMARK UNBOUND:                -0.124
REMARK SMILES O=C([O-])C=Cc1ccc(O)c(O)c1
REMARK SMILES IDX 6 1 13 2 7 3 11 4 8 5 9 6 5 7 4 8 2 9 1 10 3 11 12 12 10 14
REMARK H PARENT 12 13 10 15
REMARK Flexibility Score: inf
ROOT
ATOM      1  C   UNL     1      11.864  14.306  10.213  1.00  0.00    -0.022 A 
ATOM      2  C   UNL     1      11.394  15.372   9.420  1.00  0.00     0.058 A 
ATOM      3  C   UNL     1      12.003  14.501  11.598  1.00  0.00     0.012 A 
ATOM      4  C   UNL     1      11.096  16.615  10.001  1.00  0.00     0.157 A 
ATOM      5  C   UNL     1      11.707  15.738  12.175  1.00  0.00     0.051 A 
ATOM      6  C   UNL     1      11.256  16.798  11.380  1.00  0.00     0.157 A 
ENDROOT
BRANCH   1   7
ATOM      7  C   UNL     1      12.183  12.971   9.650  1.00  0.00     0.010 C 
ATOM      8  C   UNL     1      11.336  12.262   8.891  1.00  0.00     0.025 C 
BRANCH   8   9
ATOM      9  C   UNL     1      11.697  10.946   8.343  1.00  0.00     0.064 C 
ATOM     10  O   UNL     1      11.966  10.835   7.118  1.00  0.00    -0.545 OA
ATOM     11  O   UNL     1      11.746   9.819   9.156  1.00  0.00    -0.545 OA
ENDBRANCH   8   9
ENDBRANCH   1   7
BRANCH   4  12
ATOM     12  O   UNL     1      10.635  17.669   9.215  1.00  0.00    -0.504 OA
ATOM     13  H   UNL     1      10.726  18.633   9.513  1.00  0.00     0.293 HD
ENDBRANCH   4  12
BRANCH   6  14
ATOM     14  O   UNL     1      10.960  18.034  11.952  1.00  0.00    -0.504 OA
ATOM     15  H   UNL     1      11.551  18.844  11.800  1.00  0.00     0.293 HD
ENDBRANCH   6  14
TORSDOF 4
ENDMDL
MODEL 2
REMARK VINA RESULT:    -4.806      3.952      4.737
REMARK INTER + INTRA:          -5.772
REMARK INTER:                  -5.649
REMARK INTRA:                  -0.123
REMARK UNBOUND:                -0.124
REMARK SMILES O=C([O-])C=Cc1ccc(O)c(O)c1
REMARK SMILES IDX 6 1 13 2 7 3 11 4 8 5 9 6 5 7 4 8 2 9 1 10 3 11 12 12 10 14
REMARK H PARENT 12 13 10 15
REMARK Flexibility Score: inf
ROOT
ATOM      1  C   UNL     1      13.941  16.195  10.436  1.00  0.00    -0.022 A 
ATOM      2  C   UNL     1      13.044  17.086   9.814  1.00  0.00     0.058 A 
ATOM      3  C   UNL     1      13.495  15.441  11.534  1.00  0.00     0.012 A 
ATOM      4  C   UNL     1      11.736  17.236  10.300  1.00  0.00     0.157 A 
ATOM      5  C   UNL     1      12.193  15.591  12.018  1.00  0.00     0.051 A 
ATOM      6  C   UNL     1      11.312  16.490  11.406  1.00  0.00     0.157 A 
ENDROOT
BRANCH   1   7
ATOM      7  C   UNL     1      15.329  15.991   9.953  1.00  0.00     0.010 C 
ATOM      8  C   UNL     1      15.867  16.666   8.928  1.00  0.00     0.025 C 
BRANCH   8   9
ATOM      9  C   UNL     1      17.253  16.441   8.489  1.00  0.00     0.064 C 
ATOM     10  O   UNL     1      18.179  17.143   8.972  1.00  0.00    -0.545 OA
ATOM     11  O   UNL     1      17.558  15.465   7.547  1.00  0.00    -0.545 OA
ENDBRANCH   8   9
ENDBRANCH   1   7
BRANCH   4  12
ATOM     12  O   UNL     1      10.852  18.121   9.686  1.00  0.00    -0.504 OA
ATOM     13  H   UNL     1      10.696  18.107   8.685  1.00  0.00     0.293 HD
ENDBRANCH   4  12
BRANCH   6  14
ATOM     14  O   UNL     1      10.013  16.644  11.888  1.00  0.00    -0.504 OA
ATOM     15  H   UNL     1       9.411  17.390  11.559  1.00  0.00     0.293 HD
ENDBRANCH   6  14
TORSDOF 4
ENDMDL
MODEL 3
REMARK VINA RESULT:    -4.763      3.938      5.092
REMARK INTER + INTRA:          -5.722
REMARK INTER:                  -5.570
REMARK INTRA:                  -0.153
REMARK UNBOUND:                -0.124
REMARK SMILES O=C([O-])C=Cc1ccc(O)c(O)c1
REMARK SMILES IDX 6 1 13 2 7 3 11 4 8 5 9 6 5 7 4 8 2 9 1 10 3 11 12 12 10 14
REMARK H PARENT 12 13 10 15
REMARK Flexibility Score: inf
ROOT
ATOM      1  C   UNL     1      13.826  17.030  10.112  1.00  0.00    -0.022 A 
ATOM      2  C   UNL     1      13.419  17.669  11.300  1.00  0.00     0.058 A 
ATOM      3  C   UNL     1      12.899  16.233   9.419  1.00  0.00     0.012 A 
ATOM      4  C   UNL     1      12.117  17.492  11.795  1.00  0.00     0.157 A 
ATOM      5  C   UNL     1      11.604  16.056   9.913  1.00  0.00     0.051 A 
ATOM      6  C   UNL     1      11.210  16.681  11.101  1.00  0.00     0.157 A 
ENDROOT
BRANCH   1   7
ATOM      7  C   UNL     1      15.186  17.194   9.542  1.00  0.00     0.010 C 
ATOM      8  C   UNL     1      15.709  16.376   8.619  1.00  0.00     0.025 C 
BRANCH   8   9
ATOM      9  C   UNL     1      17.059  16.583   8.071  1.00  0.00     0.064 C 
ATOM     10  O   UNL     1      17.544  17.743   8.036  1.00  0.00    -0.545 OA
ATOM     11  O   UNL     1      17.809  15.516   7.588  1.00  0.00    -0.545 OA
ENDBRANCH   8   9
ENDBRANCH   1   7
BRANCH   4  12
ATOM     12  O   UNL     1      11.717  18.122  12.971  1.00  0.00    -0.504 OA
ATOM     13  H   UNL     1      12.392  18.473  13.642  1.00  0.00     0.293 HD
ENDBRANCH   4  12
BRANCH   6  14
ATOM     14  O   UNL     1       9.920  16.505  11.598  1.00  0.00    -0.504 OA
ATOM     15  H   UNL     1       9.347  17.293  11.878  1.00  0.00     0.293 HD
ENDBRANCH   6  14
TORSDOF 4
ENDMDL
MODEL 4
REMARK VINA RESULT:    -4.635      4.314      5.987
REMARK INTER + INTRA:          -5.572
REMARK INTER:                  -5.443
REMARK INTRA:                  -0.129
REMARK UNBOUND:                -0.124
REMARK SMILES O=C([O-])C=Cc1ccc(O)c(O)c1
REMARK SMILES IDX 6 1 13 2 7 3 11 4 8 5 9 6 5 7 4 8 2 9 1 10 3 11 12 12 10 14
REMARK H PARENT 12 13 10 15
REMARK Flexibility Score: inf
ROOT
ATOM      1  C   UNL     1      14.167  16.963  11.945  1.00  0.00    -0.022 A 
ATOM      2  C   UNL     1      13.529  15.707  11.963  1.00  0.00     0.058 A 
ATOM      3  C   UNL     1      13.377  18.125  11.968  1.00  0.00     0.012 A 
ATOM      4  C   UNL     1      12.129  15.619  11.977  1.00  0.00     0.157 A 
ATOM      5  C   UNL     1      11.983  18.037  11.981  1.00  0.00     0.051 A 
ATOM      6  C   UNL     1      11.355  16.786  11.982  1.00  0.00     0.157 A 
ENDROOT
BRANCH   1   7
ATOM      7  C   UNL     1      15.644  17.110  11.942  1.00  0.00     0.010 C 
ATOM      8  C   UNL     1      16.372  17.284  10.831  1.00  0.00     0.025 C 
BRANCH   8   9
ATOM      9  C   UNL     1      17.834  17.437  10.874  1.00  0.00     0.064 C 
ATOM     10  O   UNL     1      18.406  17.639  11.977  1.00  0.00    -0.545 OA
ATOM     11  O   UNL     1      18.598  17.364   9.715  1.00  0.00    -0.545 OA
ENDBRANCH   8   9
ENDBRANCH   1   7
BRANCH   4  12
ATOM     12  O   UNL     1      11.500  14.376  11.990  1.00  0.00    -0.504 OA
ATOM     13  H   UNL     1      10.669  14.195  11.437  1.00  0.00     0.293 HD
ENDBRANCH   4  12
BRANCH   6  14
ATOM     14  O   UNL     1       9.964  16.694  11.993  1.00  0.00    -0.504 OA
ATOM     15  H   UNL     1       9.492  15.820  12.192  1.00  0.00     0.293 HD
ENDBRANCH   6  14
TORSDOF 4
ENDMDL
MODEL 5
REMARK VINA RESULT:    -4.596      3.293      5.561
REMARK INTER + INTRA:          -5.526
REMARK INTER:                  -5.401
REMARK INTRA:                  -0.125
REMARK UNBOUND:                -0.124
REMARK SMILES O=C([O-])C=Cc1ccc(O)c(O)c1
REMARK SMILES IDX 6 1 13 2 7 3 11 4 8 5 9 6 5 7 4 8 2 9 1 10 3 11 12 12 10 14
REMARK H PARENT 12 13 10 15
REMARK Flexibility Score: inf
ROOT
ATOM      1  C   UNL     1      12.845  16.155  10.727  1.00  0.00    -0.022 A 
ATOM      2  C   UNL     1      13.168  17.090   9.723  1.00  0.00     0.058 A 
ATOM      3  C   UNL     1      11.977  15.096  10.414  1.00  0.00     0.012 A 
ATOM      4  C   UNL     1      12.609  16.979   8.440  1.00  0.00     0.157 A 
ATOM      5  C   UNL     1      11.420  14.987   9.138  1.00  0.00     0.051 A 
ATOM      6  C   UNL     1      11.731  15.928   8.149  1.00  0.00     0.157 A 
ENDROOT
BRANCH   1   7
ATOM      7  C   UNL     1      13.418  16.222  12.094  1.00  0.00     0.010 C 
ATOM      8  C   UNL     1      14.635  16.711  12.368  1.00  0.00     0.025 C 
BRANCH   8   9
ATOM      9  C   UNL     1      15.160  16.769  13.742  1.00  0.00     0.064 C 
ATOM     10  O   UNL     1      15.170  17.867  14.357  1.00  0.00    -0.545 OA
ATOM     11  O   UNL     1      15.647  15.630  14.372  1.00  0.00    -0.545 OA
ENDBRANCH   8   9
ENDBRANCH   1   7
BRANCH   4  12
ATOM     12  O   UNL     1      12.925  17.907   7.450  1.00  0.00    -0.504 OA
ATOM     13  H   UNL     1      13.876  18.029   7.121  1.00  0.00     0.293 HD
ENDBRANCH   4  12
BRANCH   6  14
ATOM     14  O   UNL     1      11.176  15.823   6.875  1.00  0.00    -0.504 OA
ATOM     15  H   UNL     1      10.284  15.368   6.720  1.00  0.00     0.293 HD
ENDBRANCH   6  14
TORSDOF 4
ENDMDL
MODEL 6
REMARK VINA RESULT:    -4.484      4.203      5.799
REMARK INTER + INTRA:          -5.394
REMARK INTER:                  -5.266
REMARK INTRA:                  -0.128
REMARK UNBOUND:                -0.124
REMARK SMILES O=C([O-])C=Cc1ccc(O)c(O)c1
REMARK SMILES IDX 6 1 13 2 7 3 11 4 8 5 9 6 5 7 4 8 2 9 1 10 3 11 12 12 10 14
REMARK H PARENT 12 13 10 15
REMARK Flexibility Score: inf
ROOT
ATOM      1  C   UNL     1      14.005  16.244  11.228  1.00  0.00    -0.022 A 
ATOM      2  C   UNL     1      12.773  16.919  11.116  1.00  0.00     0.058 A 
ATOM      3  C   UNL     1      14.794  16.079  10.077  1.00  0.00     0.012 A 
ATOM      4  C   UNL     1      12.331  17.394   9.872  1.00  0.00     0.157 A 
ATOM      5  C   UNL     1      14.353  16.552   8.839  1.00  0.00     0.051 A 
ATOM      6  C   UNL     1      13.121  17.207   8.731  1.00  0.00     0.157 A 
ENDROOT
BRANCH   1   7
ATOM      7  C   UNL     1      14.522  15.733  12.521  1.00  0.00     0.010 C 
ATOM      8  C   UNL     1      15.204  16.482  13.397  1.00  0.00     0.025 C 
BRANCH   8   9
ATOM      9  C   UNL     1      15.689  15.937  14.675  1.00  0.00     0.064 C 
ATOM     10  O   UNL     1      16.282  14.827  14.693  1.00  0.00    -0.545 OA
ATOM     11  O   UNL     1      15.502  16.629  15.867  1.00  0.00    -0.545 OA
ENDBRANCH   8   9
ENDBRANCH   1   7
BRANCH   4  12
ATOM     12  O   UNL     1      11.110  18.058   9.763  1.00  0.00    -0.504 OA
ATOM     13  H   UNL     1      10.895  18.870  10.331  1.00  0.00     0.293 HD
ENDBRANCH   4  12
BRANCH   6  14
ATOM     14  O   UNL     1      12.676  17.678   7.497  1.00  0.00    -0.504 OA
ATOM     15  H   UNL     1      12.815  18.642   7.216  1.00  0.00     0.293 HD
ENDBRANCH   6  14
TORSDOF 4
ENDMDL
MODEL 7
REMARK VINA RESULT:    -4.439      4.770      6.032
REMARK INTER + INTRA:          -5.341
REMARK INTER:                  -5.210
REMARK INTRA:                  -0.131
REMARK UNBOUND:                -0.124
REMARK SMILES O=C([O-])C=Cc1ccc(O)c(O)c1
REMARK SMILES IDX 6 1 13 2 7 3 11 4 8 5 9 6 5 7 4 8 2 9 1 10 3 11 12 12 10 14
REMARK H PARENT 12 13 10 15
REMARK Flexibility Score: inf
ROOT
ATOM      1  C   UNL     1      14.737  16.909   9.922  1.00  0.00    -0.022 A 
ATOM      2  C   UNL     1      14.156  16.718   8.653  1.00  0.00     0.058 A 
ATOM      3  C   UNL     1      13.912  17.287  10.995  1.00  0.00     0.012 A 
ATOM      4  C   UNL     1      12.782  16.929   8.459  1.00  0.00     0.157 A 
ATOM      5  C   UNL     1      12.545  17.498  10.801  1.00  0.00     0.051 A 
ATOM      6  C   UNL     1      11.977  17.323   9.534  1.00  0.00     0.157 A 
ENDROOT
BRANCH   1   7
ATOM      7  C   UNL     1      16.181  16.688  10.182  1.00  0.00     0.010 C 
ATOM      8  C   UNL     1      17.040  17.669  10.489  1.00  0.00     0.025 C 
BRANCH   8   9
ATOM      9  C   UNL     1      18.464  17.404  10.751  1.00  0.00     0.064 C 
ATOM     10  O   UNL     1      19.219  17.072   9.801  1.00  0.00    -0.545 OA
ATOM     11  O   UNL     1      18.989  17.511  12.034  1.00  0.00    -0.545 OA
ENDBRANCH   8   9
ENDBRANCH   1   7
BRANCH   4  12
ATOM     12  O   UNL     1      12.211  16.744   7.201  1.00  0.00    -0.504 OA
ATOM     13  H   UNL     1      12.778  16.692   6.363  1.00  0.00     0.293 HD
ENDBRANCH   4  12
BRANCH   6  14
ATOM     14  O   UNL     1      10.613  17.534   9.336  1.00  0.00    -0.504 OA
ATOM     15  H   UNL     1      10.203  17.514   8.410  1.00  0.00     0.293 HD
ENDBRANCH   6  14
TORSDOF 4
ENDMDL
MODEL 8
REMARK VINA RESULT:    -4.421      7.657      9.702
REMARK INTER + INTRA:          -5.320
REMARK INTER:                  -5.184
REMARK INTRA:                  -0.136
REMARK UNBOUND:                -0.124
REMARK SMILES O=C([O-])C=Cc1ccc(O)c(O)c1
REMARK SMILES IDX 6 1 13 2 7 3 11 4 8 5 9 6 5 7 4 8 2 9 1 10 3 11 12 12 10 14
REMARK H PARENT 12 13 10 15
REMARK Flexibility Score: inf
ROOT
ATOM      1  C   UNL     1      16.440  14.843  16.837  1.00  0.00    -0.022 A 
ATOM      2  C   UNL     1      17.470  15.113  17.760  1.00  0.00     0.058 A 
ATOM      3  C   UNL     1      15.941  13.533  16.743  1.00  0.00     0.012 A 
ATOM      4  C   UNL     1      18.005  14.085  18.552  1.00  0.00     0.157 A 
ATOM      5  C   UNL     1      16.473  12.511  17.531  1.00  0.00     0.051 A 
ATOM      6  C   UNL     1      17.507  12.782  18.434  1.00  0.00     0.157 A 
ENDROOT
BRANCH   1   7
ATOM      7  C   UNL     1      15.834  15.896  15.985  1.00  0.00     0.010 C 
ATOM      8  C   UNL     1      15.829  15.858  14.646  1.00  0.00     0.025 C 
BRANCH   8   9
ATOM      9  C   UNL     1      15.205  16.919  13.840  1.00  0.00     0.064 C 
ATOM     10  O   UNL     1      15.509  18.122  14.053  1.00  0.00    -0.545 OA
ATOM     11  O   UNL     1      14.281  16.615  12.845  1.00  0.00    -0.545 OA
ENDBRANCH   8   9
ENDBRANCH   1   7
BRANCH   4  12
ATOM     12  O   UNL     1      19.026  14.354  19.462  1.00  0.00    -0.504 OA
ATOM     13  H   UNL     1      19.010  13.979  20.404  1.00  0.00     0.293 HD
ENDBRANCH   4  12
BRANCH   6  14
ATOM     14  O   UNL     1      18.043  11.763  19.221  1.00  0.00    -0.504 OA
ATOM     15  H   UNL     1      18.701  11.091  18.843  1.00  0.00     0.293 HD
ENDBRANCH   6  14
TORSDOF 4
ENDMDL
MODEL 9
REMARK VINA RESULT:    -4.386      4.246      5.891
REMARK INTER + INTRA:          -5.279
REMARK INTER:                  -5.136
REMARK INTRA:                  -0.143
REMARK UNBOUND:                -0.124
REMARK SMILES O=C([O-])C=Cc1ccc(O)c(O)c1
REMARK SMILES IDX 6 1 13 2 7 3 11 4 8 5 9 6 5 7 4 8 2 9 1 10 3 11 12 12 10 14
REMARK H PARENT 12 13 10 15
REMARK Flexibility Score: inf
ROOT
ATOM      1  C   UNL     1      14.177  16.984  10.994  1.00  0.00    -0.022 A 
ATOM      2  C   UNL     1      13.088  17.395  11.790  1.00  0.00     0.058 A 
ATOM      3  C   UNL     1      13.978  16.803   9.615  1.00  0.00     0.012 A 
ATOM      4  C   UNL     1      11.822  17.593  11.217  1.00  0.00     0.157 A 
ATOM      5  C   UNL     1      12.718  16.999   9.046  1.00  0.00     0.051 A 
ATOM      6  C   UNL     1      11.637  17.391   9.844  1.00  0.00     0.157 A 
ENDROOT
BRANCH   1   7
ATOM      7  C   UNL     1      15.536  16.772  11.549  1.00  0.00     0.010 C 
ATOM      8  C   UNL     1      16.662  17.114  10.908  1.00  0.00     0.025 C 
BRANCH   8   9
ATOM      9  C   UNL     1      17.992  16.897  11.500  1.00  0.00     0.064 C 
ATOM     10  O   UNL     1      18.549  15.775  11.381  1.00  0.00    -0.545 OA
ATOM     11  O   UNL     1      18.643  17.912  12.193  1.00  0.00    -0.545 OA
ENDBRANCH   8   9
ENDBRANCH   1   7
BRANCH   4  12
ATOM     12  O   UNL     1      10.746  17.996  12.006  1.00  0.00    -0.504 OA
ATOM     13  H   UNL     1      10.286  17.355  12.643  1.00  0.00     0.293 HD
ENDBRANCH   4  12
BRANCH   6  14
ATOM     14  O   UNL     1      10.377  17.587   9.280  1.00  0.00    -0.504 OA
ATOM     15  H   UNL     1       9.812  16.809   8.959  1.00  0.00     0.293 HD
ENDBRANCH   6  14
TORSDOF 4
ENDMDL
