MODEL 1
REMARK VINA RESULT:    -4.348      0.000      0.000
REMARK INTER + INTRA:          -5.394
REMARK INTER:                  -5.237
REMARK INTRA:                  -0.157
REMARK UNBOUND:                -0.157
REMARK SMILES NC(=O)C[C@@H]([NH3+])C(=O)[O-]
REMARK SMILES IDX 4 1 5 2 6 3 7 7 8 8 9 9 2 10 3 11 1 12
REMARK H PARENT 6 4 6 5 6 6 1 13 1 14
REMARK Flexibility Score: inf
ROOT
ATOM      1  C   UNL     1     127.118 141.166 122.083  1.00  0.00     0.171 C 
ENDROOT
BRANCH   1   2
ATOM      2  C   UNL     1     127.009 142.604 122.627  1.00  0.00     0.237 C 
BRANCH   2   3
ATOM      3  N   UNL     1     127.786 143.528 121.794  1.00  0.00    -0.350 N 
ATOM      4  H   UNL     1     128.740 143.142 121.603  1.00  0.00     0.345 HD
ATOM      5  H   UNL     1     127.292 143.690 120.886  1.00  0.00     0.345 HD
ATOM      6  H   UNL     1     127.882 144.449 122.281  1.00  0.00     0.345 HD
ENDBRANCH   2   3
BRANCH   2   7
ATOM      7  C   UNL     1     125.570 143.048 122.688  1.00  0.00     0.100 C 
ATOM      8  O   UNL     1     125.272 144.164 123.189  1.00  0.00    -0.544 OA
ATOM      9  O   UNL     1     124.561 142.223 122.203  1.00  0.00    -0.544 OA
ENDBRANCH   2   7
ENDBRANCH   1   2
BRANCH   1  10
ATOM     10  C   UNL     1     127.187 140.156 123.193  1.00  0.00     0.223 C 
ATOM     11  O   UNL     1     128.225 139.456 123.338  1.00  0.00    -0.275 OA
ATOM     12  N   UNL     1     126.102 140.011 124.109  1.00  0.00    -0.369 N 
ATOM     13  H   UNL     1     126.160 139.319 124.888  1.00  0.00     0.159 HD
ATOM     14  H   UNL     1     125.243 140.596 124.014  1.00  0.00     0.159 HD
ENDBRANCH   1  10
TORSDOF 4
ENDMDL
MODEL 2
REMARK VINA RESULT:    -4.178      1.871      2.086
REMARK INTER + INTRA:          -5.190
REMARK INTER:                  -4.720
REMARK INTRA:                  -0.470
REMARK UNBOUND:                -0.157
REMARK SMILES NC(=O)C[C@@H]([NH3+])C(=O)[O-]
REMARK SMILES IDX 4 1 5 2 6 3 7 7 8 8 9 9 2 10 3 11 1 12
REMARK H PARENT 6 4 6 5 6 6 1 13 1 14
REMARK Flexibility Score: inf
ROOT
ATOM      1  C   UNL     1     127.431 140.169 122.946  1.00  0.00     0.171 C 
ENDROOT
BRANCH   1   2
ATOM      2  C   UNL     1     126.752 141.529 122.691  1.00  0.00     0.237 C 
BRANCH   2   3
ATOM      3  N   UNL     1     127.402 142.226 121.576  1.00  0.00    -0.350 N 
ATOM      4  H   UNL     1     127.362 141.648 120.704  1.00  0.00     0.345 HD
ATOM      5  H   UNL     1     126.928 143.142 121.403  1.00  0.00     0.345 HD
ATOM      6  H   UNL     1     128.403 142.417 121.812  1.00  0.00     0.345 HD
ENDBRANCH   2   3
BRANCH   2   7
ATOM      7  C   UNL     1     125.283 141.351 122.402  1.00  0.00     0.100 C 
ATOM      8  O   UNL     1     124.607 142.310 121.945  1.00  0.00    -0.544 OA
ATOM      9  O   UNL     1     124.663 140.132 122.651  1.00  0.00    -0.544 OA
ENDBRANCH   2   7
ENDBRANCH   1   2
BRANCH   1  10
ATOM     10  C   UNL     1     127.909 139.540 121.669  1.00  0.00     0.223 C 
ATOM     11  O   UNL     1     129.089 139.740 121.277  1.00  0.00    -0.275 OA
ATOM     12  N   UNL     1     127.049 138.685 120.916  1.00  0.00    -0.369 N 
ATOM     13  H   UNL     1     127.390 138.237 120.037  1.00  0.00     0.159 HD
ATOM     14  H   UNL     1     126.074 138.492 121.237  1.00  0.00     0.159 HD
ENDBRANCH   1  10
TORSDOF 4
ENDMDL
MODEL 3
REMARK VINA RESULT:    -4.167     17.824     18.823
REMARK INTER + INTRA:          -5.176
REMARK INTER:                  -4.933
REMARK INTRA:                  -0.244
REMARK UNBOUND:                -0.157
REMARK SMILES NC(=O)C[C@@H]([NH3+])C(=O)[O-]
REMARK SMILES IDX 4 1 5 2 6 3 7 7 8 8 9 9 2 10 3 11 1 12
REMARK H PARENT 6 4 6 5 6 6 1 13 1 14
REMARK Flexibility Score: inf
ROOT
ATOM      1  C   UNL     1     140.673 130.748 123.850  1.00  0.00     0.171 C 
ENDROOT
BRANCH   1   2
ATOM      2  C   UNL     1     139.292 130.065 123.794  1.00  0.00     0.237 C 
BRANCH   2   3
ATOM      3  N   UNL     1     138.926 129.759 122.407  1.00  0.00    -0.350 N 
ATOM      4  H   UNL     1     138.649 128.754 122.309  1.00  0.00     0.345 HD
ATOM      5  H   UNL     1     138.129 130.366 122.107  1.00  0.00     0.345 HD
ATOM      6  H   UNL     1     139.738 129.952 121.775  1.00  0.00     0.345 HD
ENDBRANCH   2   3
BRANCH   2   7
ATOM      7  C   UNL     1     139.282 128.804 124.621  1.00  0.00     0.100 C 
ATOM      8  O   UNL     1     139.227 128.872 125.877  1.00  0.00    -0.544 OA
ATOM      9  O   UNL     1     139.346 127.561 124.004  1.00  0.00    -0.544 OA
ENDBRANCH   2   7
ENDBRANCH   1   2
BRANCH   1  10
ATOM     10  C   UNL     1     141.789 129.751 123.718  1.00  0.00     0.223 C 
ATOM     11  O   UNL     1     141.973 129.161 122.620  1.00  0.00    -0.275 OA
ATOM     12  N   UNL     1     142.667 129.497 124.813  1.00  0.00    -0.369 N 
ATOM     13  H   UNL     1     143.451 128.815 124.712  1.00  0.00     0.159 HD
ATOM     14  H   UNL     1     142.541 129.992 125.724  1.00  0.00     0.159 HD
ENDBRANCH   1  10
TORSDOF 4
ENDMDL
MODEL 4
REMARK VINA RESULT:    -4.105      1.992      2.635
REMARK INTER + INTRA:          -5.102
REMARK INTER:                  -5.013
REMARK INTRA:                  -0.089
REMARK UNBOUND:                -0.157
REMARK SMILES NC(=O)C[C@@H]([NH3+])C(=O)[O-]
REMARK SMILES IDX 4 1 5 2 6 3 7 7 8 8 9 9 2 10 3 11 1 12
REMARK H PARENT 6 4 6 5 6 6 1 13 1 14
REMARK Flexibility Score: inf
ROOT
ATOM      1  C   UNL     1     127.035 140.794 122.034  1.00  0.00     0.171 C 
ENDROOT
BRANCH   1   2
ATOM      2  C   UNL     1     125.716 140.463 122.760  1.00  0.00     0.237 C 
BRANCH   2   3
ATOM      3  N   UNL     1     125.982 140.033 124.137  1.00  0.00    -0.350 N 
ATOM      4  H   UNL     1     125.190 139.457 124.505  1.00  0.00     0.345 HD
ATOM      5  H   UNL     1     126.863 139.469 124.169  1.00  0.00     0.345 HD
ATOM      6  H   UNL     1     126.110 140.871 124.751  1.00  0.00     0.345 HD
ENDBRANCH   2   3
BRANCH   2   7
ATOM      7  C   UNL     1     124.789 141.652 122.760  1.00  0.00     0.100 C 
ATOM      8  O   UNL     1     123.542 141.482 122.814  1.00  0.00    -0.544 OA
ATOM      9  O   UNL     1     125.303 142.941 122.686  1.00  0.00    -0.544 OA
ENDBRANCH   2   7
ENDBRANCH   1   2
BRANCH   1  10
ATOM     10  C   UNL     1     127.667 139.565 121.446  1.00  0.00     0.223 C 
ATOM     11  O   UNL     1     128.907 139.380 121.570  1.00  0.00    -0.275 OA
ATOM     12  N   UNL     1     126.869 138.586 120.782  1.00  0.00    -0.369 N 
ATOM     13  H   UNL     1     127.311 137.726 120.388  1.00  0.00     0.159 HD
ATOM     14  H   UNL     1     125.837 138.714 120.686  1.00  0.00     0.159 HD
ENDBRANCH   1  10
TORSDOF 4
ENDMDL
MODEL 5
REMARK VINA RESULT:    -4.077      2.176      3.973
REMARK INTER + INTRA:          -5.069
REMARK INTER:                  -4.824
REMARK INTRA:                  -0.246
REMARK UNBOUND:                -0.157
REMARK SMILES NC(=O)C[C@@H]([NH3+])C(=O)[O-]
REMARK SMILES IDX 4 1 5 2 6 3 7 7 8 8 9 9 2 10 3 11 1 12
REMARK H PARENT 6 4 6 5 6 6 1 13 1 14
REMARK Flexibility Score: inf
ROOT
ATOM      1  C   UNL     1     126.217 141.037 121.741  1.00  0.00     0.171 C 
ENDROOT
BRANCH   1   2
ATOM      2  C   UNL     1     126.855 139.719 121.261  1.00  0.00     0.237 C 
BRANCH   2   3
ATOM      3  N   UNL     1     126.934 139.691 119.796  1.00  0.00    -0.350 N 
ATOM      4  H   UNL     1     127.389 138.809 119.466  1.00  0.00     0.345 HD
ATOM      5  H   UNL     1     125.973 139.757 119.386  1.00  0.00     0.345 HD
ATOM      6  H   UNL     1     127.490 140.510 119.455  1.00  0.00     0.345 HD
ENDBRANCH   2   3
BRANCH   2   7
ATOM      7  C   UNL     1     128.229 139.538 121.855  1.00  0.00     0.100 C 
ATOM      8  O   UNL     1     129.245 139.544 121.113  1.00  0.00    -0.544 OA
ATOM      9  O   UNL     1     128.380 139.350 123.224  1.00  0.00    -0.544 OA
ENDBRANCH   2   7
ENDBRANCH   1   2
BRANCH   1  10
ATOM     10  C   UNL     1     125.205 140.800 122.825  1.00  0.00     0.223 C 
ATOM     11  O   UNL     1     124.212 141.569 122.932  1.00  0.00    -0.275 OA
ATOM     12  N   UNL     1     125.336 139.688 123.709  1.00  0.00    -0.369 N 
ATOM     13  H   UNL     1     124.622 139.518 124.451  1.00  0.00     0.159 HD
ATOM     14  H   UNL     1     126.142 139.030 123.622  1.00  0.00     0.159 HD
ENDBRANCH   1  10
TORSDOF 4
ENDMDL
MODEL 6
REMARK VINA RESULT:    -4.061      2.725      3.100
REMARK INTER + INTRA:          -5.049
REMARK INTER:                  -4.562
REMARK INTRA:                  -0.486
REMARK UNBOUND:                -0.157
REMARK SMILES NC(=O)C[C@@H]([NH3+])C(=O)[O-]
REMARK SMILES IDX 4 1 5 2 6 3 7 7 8 8 9 9 2 10 3 11 1 12
REMARK H PARENT 6 4 6 5 6 6 1 13 1 14
REMARK Flexibility Score: inf
ROOT
ATOM      1  C   UNL     1     126.885 140.884 121.902  1.00  0.00     0.171 C 
ENDROOT
BRANCH   1   2
ATOM      2  C   UNL     1     126.424 139.989 120.735  1.00  0.00     0.237 C 
BRANCH   2   3
ATOM      3  N   UNL     1     126.968 138.634 120.882  1.00  0.00    -0.350 N 
ATOM      4  H   UNL     1     127.443 138.524 121.809  1.00  0.00     0.345 HD
ATOM      5  H   UNL     1     126.197 137.931 120.805  1.00  0.00     0.345 HD
ATOM      6  H   UNL     1     127.659 138.444 120.120  1.00  0.00     0.345 HD
ENDBRANCH   2   3
BRANCH   2   7
ATOM      7  C   UNL     1     124.920 139.936 120.660  1.00  0.00     0.100 C 
ATOM      8  O   UNL     1     124.318 140.431 119.670  1.00  0.00    -0.544 OA
ATOM      9  O   UNL     1     124.186 139.354 121.687  1.00  0.00    -0.544 OA
ENDBRANCH   2   7
ENDBRANCH   1   2
BRANCH   1  10
ATOM     10  C   UNL     1     127.107 140.088 123.157  1.00  0.00     0.223 C 
ATOM     11  O   UNL     1     128.218 139.525 123.352  1.00  0.00    -0.275 OA
ATOM     12  N   UNL     1     126.084 139.997 124.148  1.00  0.00    -0.369 N 
ATOM     13  H   UNL     1     126.248 139.455 125.025  1.00  0.00     0.159 HD
ATOM     14  H   UNL     1     125.165 140.472 124.011  1.00  0.00     0.159 HD
ENDBRANCH   1  10
TORSDOF 4
ENDMDL
MODEL 7
REMARK VINA RESULT:    -4.055     17.584     18.598
REMARK INTER + INTRA:          -5.041
REMARK INTER:                  -4.772
REMARK INTRA:                  -0.270
REMARK UNBOUND:                -0.157
REMARK SMILES NC(=O)C[C@@H]([NH3+])C(=O)[O-]
REMARK SMILES IDX 4 1 5 2 6 3 7 7 8 8 9 9 2 10 3 11 1 12
REMARK H PARENT 6 4 6 5 6 6 1 13 1 14
REMARK Flexibility Score: inf
ROOT
ATOM      1  C   UNL     1     140.227 129.149 124.367  1.00  0.00     0.171 C 
ENDROOT
BRANCH   1   2
ATOM      2  C   UNL     1     139.925 129.232 122.857  1.00  0.00     0.237 C 
BRANCH   2   3
ATOM      3  N   UNL     1     138.931 130.278 122.590  1.00  0.00    -0.350 N 
ATOM      4  H   UNL     1     139.353 131.229 122.704  1.00  0.00     0.345 HD
ATOM      5  H   UNL     1     138.565 130.179 121.614  1.00  0.00     0.345 HD
ATOM      6  H   UNL     1     138.126 130.180 123.251  1.00  0.00     0.345 HD
ENDBRANCH   2   3
BRANCH   2   7
ATOM      7  C   UNL     1     141.183 129.502 122.072  1.00  0.00     0.100 C 
ATOM      8  O   UNL     1     141.236 129.220 120.846  1.00  0.00    -0.544 OA
ATOM      9  O   UNL     1     142.296 130.052 122.698  1.00  0.00    -0.544 OA
ENDBRANCH   2   7
ENDBRANCH   1   2
BRANCH   1  10
ATOM     10  C   UNL     1     138.972 128.972 125.173  1.00  0.00     0.223 C 
ATOM     11  O   UNL     1     138.425 129.975 125.706  1.00  0.00    -0.275 OA
ATOM     12  N   UNL     1     138.372 127.684 125.309  1.00  0.00    -0.369 N 
ATOM     13  H   UNL     1     137.492 127.569 125.858  1.00  0.00     0.159 HD
ATOM     14  H   UNL     1     138.802 126.846 124.858  1.00  0.00     0.159 HD
ENDBRANCH   1  10
TORSDOF 4
ENDMDL
MODEL 8
REMARK VINA RESULT:    -3.981      1.741      2.057
REMARK INTER + INTRA:          -4.953
REMARK INTER:                  -4.859
REMARK INTRA:                  -0.095
REMARK UNBOUND:                -0.157
REMARK SMILES NC(=O)C[C@@H]([NH3+])C(=O)[O-]
REMARK SMILES IDX 4 1 5 2 6 3 7 7 8 8 9 9 2 10 3 11 1 12
REMARK H PARENT 6 4 6 5 6 6 1 13 1 14
REMARK Flexibility Score: inf
ROOT
ATOM      1  C   UNL     1     126.900 140.339 121.490  1.00  0.00     0.171 C 
ENDROOT
BRANCH   1   2
ATOM      2  C   UNL     1     126.640 141.695 122.175  1.00  0.00     0.237 C 
BRANCH   2   3
ATOM      3  N   UNL     1     127.551 142.718 121.650  1.00  0.00    -0.350 N 
ATOM      4  H   UNL     1     127.034 143.401 121.048  1.00  0.00     0.345 HD
ATOM      5  H   UNL     1     128.004 143.231 122.442  1.00  0.00     0.345 HD
ATOM      6  H   UNL     1     128.304 142.265 121.082  1.00  0.00     0.345 HD
ENDBRANCH   2   3
BRANCH   2   7
ATOM      7  C   UNL     1     125.209 142.130 121.982  1.00  0.00     0.100 C 
ATOM      8  O   UNL     1     124.471 141.529 121.158  1.00  0.00    -0.544 OA
ATOM      9  O   UNL     1     124.700 143.204 122.702  1.00  0.00    -0.544 OA
ENDBRANCH   2   7
ENDBRANCH   1   2
BRANCH   1  10
ATOM     10  C   UNL     1     128.102 139.648 122.068  1.00  0.00     0.223 C 
ATOM     11  O   UNL     1     128.182 139.467 123.312  1.00  0.00    -0.275 OA
ATOM     12  N   UNL     1     129.138 139.161 121.215  1.00  0.00    -0.369 N 
ATOM     13  H   UNL     1     129.964 138.668 121.619  1.00  0.00     0.159 HD
ATOM     14  H   UNL     1     129.079 139.286 120.180  1.00  0.00     0.159 HD
ENDBRANCH   1  10
TORSDOF 4
ENDMDL
MODEL 9
REMARK VINA RESULT:    -3.890     18.238     19.397
REMARK INTER + INTRA:          -4.843
REMARK INTER:                  -4.648
REMARK INTRA:                  -0.195
REMARK UNBOUND:                -0.157
REMARK SMILES NC(=O)C[C@@H]([NH3+])C(=O)[O-]
REMARK SMILES IDX 4 1 5 2 6 3 7 7 8 8 9 9 2 10 3 11 1 12
REMARK H PARENT 6 4 6 5 6 6 1 13 1 14
REMARK Flexibility Score: inf
ROOT
ATOM      1  C   UNL     1     142.246 129.970 122.535  1.00  0.00     0.171 C 
ENDROOT
BRANCH   1   2
ATOM      2  C   UNL     1     141.679 129.277 123.790  1.00  0.00     0.237 C 
BRANCH   2   3
ATOM      3  N   UNL     1     142.567 129.491 124.938  1.00  0.00    -0.350 N 
ATOM      4  H   UNL     1     142.143 129.101 125.812  1.00  0.00     0.345 HD
ATOM      5  H   UNL     1     143.489 129.026 124.767  1.00  0.00     0.345 HD
ATOM      6  H   UNL     1     142.737 130.515 125.069  1.00  0.00     0.345 HD
ENDBRANCH   2   3
BRANCH   2   7
ATOM      7  C   UNL     1     140.295 129.783 124.105  1.00  0.00     0.100 C 
ATOM      8  O   UNL     1     139.602 129.220 124.993  1.00  0.00    -0.544 OA
ATOM      9  O   UNL     1     139.769 130.866 123.410  1.00  0.00    -0.544 OA
ENDBRANCH   2   7
ENDBRANCH   1   2
BRANCH   1  10
ATOM     10  C   UNL     1     141.955 129.183 121.289  1.00  0.00     0.223 C 
ATOM     11  O   UNL     1     142.862 128.479 120.769  1.00  0.00    -0.275 OA
ATOM     12  N   UNL     1     140.651 129.196 120.710  1.00  0.00    -0.369 N 
ATOM     13  H   UNL     1     140.450 128.636 119.853  1.00  0.00     0.159 HD
ATOM     14  H   UNL     1     139.883 129.760 121.138  1.00  0.00     0.159 HD
ENDBRANCH   1  10
TORSDOF 4
ENDMDL
