MODEL 1
REMARK VINA RESULT:    -7.291      0.000      0.000
REMARK INTER + INTRA:          -7.504
REMARK INTER:                  -7.504
REMARK INTRA:                   0.000
REMARK UNBOUND:                 0.000
REMARK SMILES C[C@H]1CC[C@]2(OC1)O[C@@H]1C[C@H]3[C@H]4CC=C5C[C@H](O)CC[C@@]5(C)[C@H]4CC[C@]3(C)[C@@H]1[C@H]2C
REMARK SMILES IDX 1 1 2 2 3 3 4 4 5 5 29 6 28 7 9 8 8 9 10 10 11 11 26 12
REMARK SMILES IDX 25 13 24 14 23 15 12 16 13 17 14 18 15 19 21 20 20 21 19 22
REMARK SMILES IDX 17 23 16 24 22 25 27 26 30 27 6 28 7 29 18 30
REMARK H PARENT 18 31
REMARK Flexibility Score: inf
ROOT
ATOM      1  C   UNL     1      -0.644 -16.682 -32.606  1.00  0.00     0.010 C 
ATOM      2  C   UNL     1      -0.408 -15.302 -33.242  1.00  0.00     0.012 C 
ATOM      3  C   UNL     1       1.018 -14.798 -33.052  1.00  0.00     0.011 C 
ATOM      4  C   UNL     1       1.997 -15.629 -33.872  1.00  0.00     0.066 C 
ATOM      5  C   UNL     1       1.550 -15.882 -35.347  1.00  0.00     0.171 C 
ATOM      6  C   UNL     1       2.099 -14.819 -36.337  1.00  0.00     0.052 C 
ATOM      7  C   UNL     1       2.208 -15.611 -37.639  1.00  0.00     0.033 C 
ATOM      8  C   UNL     1       2.347 -17.058 -37.135  1.00  0.00     0.126 C 
ATOM      9  O   UNL     1       2.195 -17.077 -35.733  1.00  0.00    -0.346 OA
ATOM     10  C   UNL     1       3.757 -17.553 -37.519  1.00  0.00     0.037 C 
ATOM     11  C   UNL     1       4.498 -16.277 -37.877  1.00  0.00     0.002 C 
ATOM     12  C   UNL     1       3.453 -15.373 -38.549  1.00  0.00    -0.024 C 
ATOM     13  C   UNL     1       4.040 -13.945 -38.611  1.00  0.00     0.008 C 
ATOM     14  C   UNL     1       5.401 -13.924 -39.352  1.00  0.00     0.005 C 
ATOM     15  C   UNL     1       6.458 -14.923 -38.775  1.00  0.00     0.003 C 
ATOM     16  C   UNL     1       5.881 -16.361 -38.563  1.00  0.00     0.000 C 
ATOM     17  C   UNL     1       5.948 -17.296 -39.797  1.00  0.00     0.031 C 
ATOM     18  C   UNL     1       6.902 -16.872 -40.886  1.00  0.00    -0.027 C 
ATOM     19  C   UNL     1       7.731 -15.810 -40.816  1.00  0.00    -0.065 C 
ATOM     20  C   UNL     1       7.837 -14.962 -39.549  1.00  0.00    -0.008 C 
ATOM     21  C   UNL     1       8.313 -13.518 -39.918  1.00  0.00     0.014 C 
ATOM     22  C   UNL     1       9.514 -13.484 -40.872  1.00  0.00     0.033 C 
ATOM     23  C   UNL     1       9.177 -14.224 -42.171  1.00  0.00     0.118 C 
ATOM     24  C   UNL     1       8.806 -15.684 -41.885  1.00  0.00     0.063 C 
ATOM     25  C   UNL     1       8.911 -15.610 -38.631  1.00  0.00     0.016 C 
ATOM     26  C   UNL     1       3.028 -15.800 -39.988  1.00  0.00     0.012 C 
ATOM     27  C   UNL     1       1.288 -13.528 -36.519  1.00  0.00     0.014 C 
ATOM     28  O   UNL     1       0.146 -16.125 -35.503  1.00  0.00    -0.349 OA
ATOM     29  C   UNL     1      -0.725 -15.305 -34.738  1.00  0.00     0.167 C 
ENDROOT
BRANCH  23  30
ATOM     30  O   UNL     1      10.289 -14.180 -43.026  1.00  0.00    -0.393 OA
ATOM     31  H   UNL     1      10.414 -13.230 -43.291  1.00  0.00     0.210 HD
ENDBRANCH  23  30
TORSDOF 1
ENDMDL
MODEL 2
REMARK VINA RESULT:    -6.663      1.911      8.757
REMARK INTER + INTRA:          -6.857
REMARK INTER:                  -6.857
REMARK INTRA:                   0.000
REMARK UNBOUND:                 0.000
REMARK SMILES C[C@H]1CC[C@]2(OC1)O[C@@H]1C[C@H]3[C@H]4CC=C5C[C@H](O)CC[C@@]5(C)[C@H]4CC[C@]3(C)[C@@H]1[C@H]2C
REMARK SMILES IDX 1 1 2 2 3 3 4 4 5 5 29 6 28 7 9 8 8 9 10 10 11 11 26 12
REMARK SMILES IDX 25 13 24 14 23 15 12 16 13 17 14 18 15 19 21 20 20 21 19 22
REMARK SMILES IDX 17 23 16 24 22 25 27 26 30 27 6 28 7 29 18 30
REMARK H PARENT 18 31
REMARK Flexibility Score: inf
ROOT
ATOM      1  C   UNL     1       8.791 -14.040 -42.558  1.00  0.00     0.010 C 
ATOM      2  C   UNL     1       8.589 -15.332 -41.749  1.00  0.00     0.012 C 
ATOM      3  C   UNL     1       8.665 -15.106 -40.243  1.00  0.00     0.011 C 
ATOM      4  C   UNL     1       7.461 -14.308 -39.756  1.00  0.00     0.066 C 
ATOM      5  C   UNL     1       6.089 -14.812 -40.306  1.00  0.00     0.171 C 
ATOM      6  C   UNL     1       5.400 -15.839 -39.368  1.00  0.00     0.052 C 
ATOM      7  C   UNL     1       3.919 -15.602 -39.655  1.00  0.00     0.033 C 
ATOM      8  C   UNL     1       3.908 -14.149 -40.162  1.00  0.00     0.126 C 
ATOM      9  O   UNL     1       5.236 -13.687 -40.271  1.00  0.00    -0.346 OA
ATOM     10  C   UNL     1       3.138 -13.300 -39.130  1.00  0.00     0.037 C 
ATOM     11  C   UNL     1       3.069 -14.198 -37.907  1.00  0.00     0.002 C 
ATOM     12  C   UNL     1       2.918 -15.625 -38.457  1.00  0.00    -0.024 C 
ATOM     13  C   UNL     1       3.201 -16.606 -37.298  1.00  0.00     0.008 C 
ATOM     14  C   UNL     1       2.269 -16.340 -36.089  1.00  0.00     0.005 C 
ATOM     15  C   UNL     1       2.301 -14.863 -35.573  1.00  0.00     0.003 C 
ATOM     16  C   UNL     1       2.152 -13.815 -36.724  1.00  0.00     0.000 C 
ATOM     17  C   UNL     1       0.696 -13.450 -37.111  1.00  0.00     0.031 C 
ATOM     18  C   UNL     1      -0.359 -13.813 -36.096  1.00  0.00    -0.027 C 
ATOM     19  C   UNL     1      -0.112 -14.341 -34.880  1.00  0.00    -0.065 C 
ATOM     20  C   UNL     1       1.316 -14.550 -34.376  1.00  0.00    -0.008 C 
ATOM     21  C   UNL     1       1.339 -15.702 -33.316  1.00  0.00     0.014 C 
ATOM     22  C   UNL     1       0.241 -15.587 -32.250  1.00  0.00     0.033 C 
ATOM     23  C   UNL     1      -1.140 -15.575 -32.914  1.00  0.00     0.118 C 
ATOM     24  C   UNL     1      -1.265 -14.397 -33.888  1.00  0.00     0.063 C 
ATOM     25  C   UNL     1       1.772 -13.237 -33.679  1.00  0.00     0.016 C 
ATOM     26  C   UNL     1       1.521 -15.961 -39.064  1.00  0.00     0.012 C 
ATOM     27  C   UNL     1       5.783 -17.317 -39.524  1.00  0.00     0.014 C 
ATOM     28  O   UNL     1       6.123 -15.235 -41.676  1.00  0.00    -0.349 OA
ATOM     29  C   UNL     1       7.252 -16.000 -42.071  1.00  0.00     0.167 C 
ENDROOT
BRANCH  23  30
ATOM     30  O   UNL     1      -2.125 -15.469 -31.920  1.00  0.00    -0.393 OA
ATOM     31  H   UNL     1      -1.660 -15.524 -31.043  1.00  0.00     0.210 HD
ENDBRANCH  23  30
TORSDOF 1
ENDMDL
MODEL 3
REMARK VINA RESULT:    -6.579      1.854      8.996
REMARK INTER + INTRA:          -6.771
REMARK INTER:                  -6.771
REMARK INTRA:                   0.000
REMARK UNBOUND:                 0.000
REMARK SMILES C[C@H]1CC[C@]2(OC1)O[C@@H]1C[C@H]3[C@H]4CC=C5C[C@H](O)CC[C@@]5(C)[C@H]4CC[C@]3(C)[C@@H]1[C@H]2C
REMARK SMILES IDX 1 1 2 2 3 3 4 4 5 5 29 6 28 7 9 8 8 9 10 10 11 11 26 12
REMARK SMILES IDX 25 13 24 14 23 15 12 16 13 17 14 18 15 19 21 20 20 21 19 22
REMARK SMILES IDX 17 23 16 24 22 25 27 26 30 27 6 28 7 29 18 30
REMARK H PARENT 18 31
REMARK Flexibility Score: inf
ROOT
ATOM      1  C   UNL     1      11.415 -13.753 -45.124  1.00  0.00     0.010 C 
ATOM      2  C   UNL     1      10.440 -12.723 -44.530  1.00  0.00     0.012 C 
ATOM      3  C   UNL     1       8.978 -13.082 -44.774  1.00  0.00     0.011 C 
ATOM      4  C   UNL     1       8.581 -14.309 -43.962  1.00  0.00     0.066 C 
ATOM      5  C   UNL     1       9.038 -14.268 -42.468  1.00  0.00     0.171 C 
ATOM      6  C   UNL     1       7.961 -13.674 -41.522  1.00  0.00     0.052 C 
ATOM      7  C   UNL     1       8.252 -14.389 -40.204  1.00  0.00     0.033 C 
ATOM      8  C   UNL     1       8.946 -15.679 -40.675  1.00  0.00     0.126 C 
ATOM      9  O   UNL     1       9.136 -15.619 -42.071  1.00  0.00    -0.346 OA
ATOM     10  C   UNL     1       8.022 -16.863 -40.320  1.00  0.00     0.037 C 
ATOM     11  C   UNL     1       6.691 -16.198 -40.015  1.00  0.00     0.002 C 
ATOM     12  C   UNL     1       7.046 -14.866 -39.337  1.00  0.00    -0.024 C 
ATOM     13  C   UNL     1       5.773 -13.991 -39.327  1.00  0.00     0.008 C 
ATOM     14  C   UNL     1       4.594 -14.714 -38.626  1.00  0.00     0.005 C 
ATOM     15  C   UNL     1       4.277 -16.131 -39.208  1.00  0.00     0.003 C 
ATOM     16  C   UNL     1       5.554 -17.020 -39.367  1.00  0.00     0.000 C 
ATOM     17  C   UNL     1       5.962 -17.834 -38.113  1.00  0.00     0.031 C 
ATOM     18  C   UNL     1       4.890 -17.994 -37.063  1.00  0.00    -0.027 C 
ATOM     19  C   UNL     1       3.619 -17.559 -37.183  1.00  0.00    -0.065 C 
ATOM     20  C   UNL     1       3.116 -16.913 -38.474  1.00  0.00    -0.008 C 
ATOM     21  C   UNL     1       1.914 -15.963 -38.155  1.00  0.00     0.014 C 
ATOM     22  C   UNL     1       0.855 -16.586 -37.237  1.00  0.00     0.033 C 
ATOM     23  C   UNL     1       1.492 -17.014 -35.911  1.00  0.00     0.118 C 
ATOM     24  C   UNL     1       2.610 -18.036 -36.149  1.00  0.00     0.063 C 
ATOM     25  C   UNL     1       2.606 -18.048 -39.406  1.00  0.00     0.016 C 
ATOM     26  C   UNL     1       7.580 -14.983 -37.875  1.00  0.00     0.012 C 
ATOM     27  C   UNL     1       7.927 -12.148 -41.348  1.00  0.00     0.014 C 
ATOM     28  O   UNL     1      10.340 -13.704 -42.266  1.00  0.00    -0.349 OA
ATOM     29  C   UNL     1      10.650 -12.545 -43.026  1.00  0.00     0.167 C 
ENDROOT
BRANCH  23  30
ATOM     30  O   UNL     1       0.505 -17.581 -35.090  1.00  0.00    -0.393 OA
ATOM     31  H   UNL     1       0.095 -16.837 -34.573  1.00  0.00     0.210 HD
ENDBRANCH  23  30
TORSDOF 1
ENDMDL
MODEL 4
REMARK VINA RESULT:    -6.445      1.977      8.592
REMARK INTER + INTRA:          -6.633
REMARK INTER:                  -6.633
REMARK INTRA:                   0.000
REMARK UNBOUND:                 0.000
REMARK SMILES C[C@H]1CC[C@]2(OC1)O[C@@H]1C[C@H]3[C@H]4CC=C5C[C@H](O)CC[C@@]5(C)[C@H]4CC[C@]3(C)[C@@H]1[C@H]2C
REMARK SMILES IDX 1 1 2 2 3 3 4 4 5 5 29 6 28 7 9 8 8 9 10 10 11 11 26 12
REMARK SMILES IDX 25 13 24 14 23 15 12 16 13 17 14 18 15 19 21 20 20 21 19 22
REMARK SMILES IDX 17 23 16 24 22 25 27 26 30 27 6 28 7 29 18 30
REMARK H PARENT 18 31
REMARK Flexibility Score: inf
ROOT
ATOM      1  C   UNL     1      11.380 -13.711 -40.753  1.00  0.00     0.010 C 
ATOM      2  C   UNL     1      11.260 -14.755 -39.631  1.00  0.00     0.012 C 
ATOM      3  C   UNL     1      10.471 -14.247 -38.430  1.00  0.00     0.011 C 
ATOM      4  C   UNL     1       8.998 -14.081 -38.783  1.00  0.00     0.066 C 
ATOM      5  C   UNL     1       8.378 -15.294 -39.548  1.00  0.00     0.171 C 
ATOM      6  C   UNL     1       7.717 -16.332 -38.602  1.00  0.00     0.052 C 
ATOM      7  C   UNL     1       6.618 -16.923 -39.483  1.00  0.00     0.033 C 
ATOM      8  C   UNL     1       6.360 -15.792 -40.494  1.00  0.00     0.126 C 
ATOM      9  O   UNL     1       7.297 -14.760 -40.282  1.00  0.00    -0.346 OA
ATOM     10  C   UNL     1       4.930 -15.265 -40.251  1.00  0.00     0.037 C 
ATOM     11  C   UNL     1       4.567 -15.834 -38.890  1.00  0.00     0.002 C 
ATOM     12  C   UNL     1       5.229 -17.219 -38.836  1.00  0.00    -0.024 C 
ATOM     13  C   UNL     1       5.203 -17.694 -37.367  1.00  0.00     0.008 C 
ATOM     14  C   UNL     1       3.760 -17.709 -36.801  1.00  0.00     0.005 C 
ATOM     15  C   UNL     1       3.003 -16.347 -36.947  1.00  0.00     0.003 C 
ATOM     16  C   UNL     1       3.108 -15.747 -38.388  1.00  0.00     0.000 C 
ATOM     17  C   UNL     1       2.035 -16.235 -39.394  1.00  0.00     0.031 C 
ATOM     18  C   UNL     1       0.815 -16.880 -38.784  1.00  0.00    -0.027 C 
ATOM     19  C   UNL     1       0.572 -16.979 -37.461  1.00  0.00    -0.065 C 
ATOM     20  C   UNL     1       1.509 -16.351 -36.430  1.00  0.00    -0.008 C 
ATOM     21  C   UNL     1       1.389 -17.117 -35.071  1.00  0.00     0.014 C 
ATOM     22  C   UNL     1      -0.057 -17.370 -34.625  1.00  0.00     0.033 C 
ATOM     23  C   UNL     1      -0.807 -18.170 -35.695  1.00  0.00     0.118 C 
ATOM     24  C   UNL     1      -0.820 -17.416 -37.030  1.00  0.00     0.063 C 
ATOM     25  C   UNL     1       1.052 -14.882 -36.203  1.00  0.00     0.016 C 
ATOM     26  C   UNL     1       4.559 -18.313 -39.725  1.00  0.00     0.012 C 
ATOM     27  C   UNL     1       8.616 -17.422 -38.001  1.00  0.00     0.014 C 
ATOM     28  O   UNL     1       9.253 -15.889 -40.516  1.00  0.00    -0.349 OA
ATOM     29  C   UNL     1      10.609 -16.047 -40.127  1.00  0.00     0.167 C 
ENDROOT
BRANCH  23  30
ATOM     30  O   UNL     1      -2.125 -18.388 -35.266  1.00  0.00    -0.393 OA
ATOM     31  H   UNL     1      -2.705 -17.767 -35.783  1.00  0.00     0.210 HD
ENDBRANCH  23  30
TORSDOF 1
ENDMDL
MODEL 5
REMARK VINA RESULT:    -6.172      2.410      4.554
REMARK INTER + INTRA:          -6.352
REMARK INTER:                  -6.352
REMARK INTRA:                   0.000
REMARK UNBOUND:                 0.000
REMARK SMILES C[C@H]1CC[C@]2(OC1)O[C@@H]1C[C@H]3[C@H]4CC=C5C[C@H](O)CC[C@@]5(C)[C@H]4CC[C@]3(C)[C@@H]1[C@H]2C
REMARK SMILES IDX 1 1 2 2 3 3 4 4 5 5 29 6 28 7 9 8 8 9 10 10 11 11 26 12
REMARK SMILES IDX 25 13 24 14 23 15 12 16 13 17 14 18 15 19 21 20 20 21 19 22
REMARK SMILES IDX 17 23 16 24 22 25 27 26 30 27 6 28 7 29 18 30
REMARK H PARENT 18 31
REMARK Flexibility Score: inf
ROOT
ATOM      1  C   UNL     1       0.525 -17.827 -36.540  1.00  0.00     0.010 C 
ATOM      2  C   UNL     1       1.634 -18.728 -37.108  1.00  0.00     0.012 C 
ATOM      3  C   UNL     1       1.753 -18.636 -38.626  1.00  0.00     0.011 C 
ATOM      4  C   UNL     1       2.291 -17.272 -39.042  1.00  0.00     0.066 C 
ATOM      5  C   UNL     1       3.533 -16.793 -38.227  1.00  0.00     0.171 C 
ATOM      6  C   UNL     1       4.881 -17.185 -38.890  1.00  0.00     0.052 C 
ATOM      7  C   UNL     1       5.812 -16.066 -38.425  1.00  0.00     0.033 C 
ATOM      8  C   UNL     1       4.830 -14.915 -38.145  1.00  0.00     0.126 C 
ATOM      9  O   UNL     1       3.510 -15.383 -38.304  1.00  0.00    -0.346 OA
ATOM     10  C   UNL     1       5.119 -13.796 -39.167  1.00  0.00     0.037 C 
ATOM     11  C   UNL     1       5.973 -14.483 -40.218  1.00  0.00     0.002 C 
ATOM     12  C   UNL     1       6.842 -15.487 -39.445  1.00  0.00    -0.024 C 
ATOM     13  C   UNL     1       7.464 -16.458 -40.473  1.00  0.00     0.008 C 
ATOM     14  C   UNL     1       8.267 -15.696 -41.558  1.00  0.00     0.005 C 
ATOM     15  C   UNL     1       7.453 -14.578 -42.288  1.00  0.00     0.003 C 
ATOM     16  C   UNL     1       6.689 -13.639 -41.297  1.00  0.00     0.000 C 
ATOM     17  C   UNL     1       7.501 -12.434 -40.758  1.00  0.00     0.031 C 
ATOM     18  C   UNL     1       8.742 -12.082 -41.540  1.00  0.00    -0.027 C 
ATOM     19  C   UNL     1       9.128 -12.678 -42.687  1.00  0.00    -0.065 C 
ATOM     20  C   UNL     1       8.266 -13.746 -43.359  1.00  0.00    -0.008 C 
ATOM     21  C   UNL     1       9.170 -14.684 -44.227  1.00  0.00     0.014 C 
ATOM     22  C   UNL     1      10.163 -13.934 -45.124  1.00  0.00     0.033 C 
ATOM     23  C   UNL     1      11.074 -13.044 -44.273  1.00  0.00     0.118 C 
ATOM     24  C   UNL     1      10.251 -12.024 -43.478  1.00  0.00     0.063 C 
ATOM     25  C   UNL     1       7.263 -13.026 -44.304  1.00  0.00     0.016 C 
ATOM     26  C   UNL     1       7.990 -14.860 -38.595  1.00  0.00     0.012 C 
ATOM     27  C   UNL     1       5.455 -18.574 -38.573  1.00  0.00     0.014 C 
ATOM     28  O   UNL     1       3.479 -17.111 -36.830  1.00  0.00    -0.349 OA
ATOM     29  C   UNL     1       2.997 -18.403 -36.496  1.00  0.00     0.167 C 
ENDROOT
BRANCH  23  30
ATOM     30  O   UNL     1      11.972 -12.369 -45.115  1.00  0.00    -0.393 OA
ATOM     31  H   UNL     1      11.602 -11.458 -45.263  1.00  0.00     0.210 HD
ENDBRANCH  23  30
TORSDOF 1
ENDMDL
MODEL 6
REMARK VINA RESULT:    -5.956      1.966      2.759
REMARK INTER + INTRA:          -6.131
REMARK INTER:                  -6.131
REMARK INTRA:                   0.000
REMARK UNBOUND:                 0.000
REMARK SMILES C[C@H]1CC[C@]2(OC1)O[C@@H]1C[C@H]3[C@H]4CC=C5C[C@H](O)CC[C@@]5(C)[C@H]4CC[C@]3(C)[C@@H]1[C@H]2C
REMARK SMILES IDX 1 1 2 2 3 3 4 4 5 5 29 6 28 7 9 8 8 9 10 10 11 11 26 12
REMARK SMILES IDX 25 13 24 14 23 15 12 16 13 17 14 18 15 19 21 20 20 21 19 22
REMARK SMILES IDX 17 23 16 24 22 25 27 26 30 27 6 28 7 29 18 30
REMARK H PARENT 18 31
REMARK Flexibility Score: inf
ROOT
ATOM      1  C   UNL     1      -0.492 -18.250 -35.373  1.00  0.00     0.010 C 
ATOM      2  C   UNL     1      -0.512 -17.397 -36.653  1.00  0.00     0.012 C 
ATOM      3  C   UNL     1       0.139 -16.031 -36.465  1.00  0.00     0.011 C 
ATOM      4  C   UNL     1       1.644 -16.173 -36.276  1.00  0.00     0.066 C 
ATOM      5  C   UNL     1       2.335 -17.128 -37.302  1.00  0.00     0.171 C 
ATOM      6  C   UNL     1       2.872 -16.385 -38.554  1.00  0.00     0.052 C 
ATOM      7  C   UNL     1       4.059 -17.254 -38.966  1.00  0.00     0.033 C 
ATOM      8  C   UNL     1       4.443 -17.938 -37.642  1.00  0.00     0.126 C 
ATOM      9  O   UNL     1       3.499 -17.594 -36.653  1.00  0.00    -0.346 OA
ATOM     10  C   UNL     1       5.841 -17.424 -37.239  1.00  0.00     0.037 C 
ATOM     11  C   UNL     1       6.040 -16.202 -38.120  1.00  0.00     0.002 C 
ATOM     12  C   UNL     1       5.362 -16.547 -39.455  1.00  0.00    -0.024 C 
ATOM     13  C   UNL     1       5.214 -15.235 -40.257  1.00  0.00     0.008 C 
ATOM     14  C   UNL     1       6.582 -14.534 -40.455  1.00  0.00     0.005 C 
ATOM     15  C   UNL     1       7.364 -14.274 -39.125  1.00  0.00     0.003 C 
ATOM     16  C   UNL     1       7.432 -15.537 -38.205  1.00  0.00     0.000 C 
ATOM     17  C   UNL     1       8.608 -16.506 -38.487  1.00  0.00     0.031 C 
ATOM     18  C   UNL     1       9.744 -15.935 -39.300  1.00  0.00    -0.027 C 
ATOM     19  C   UNL     1       9.832 -14.654 -39.710  1.00  0.00    -0.065 C 
ATOM     20  C   UNL     1       8.789 -13.612 -39.303  1.00  0.00    -0.008 C 
ATOM     21  C   UNL     1       8.745 -12.465 -40.367  1.00  0.00     0.014 C 
ATOM     22  C   UNL     1      10.128 -11.936 -40.769  1.00  0.00     0.033 C 
ATOM     23  C   UNL     1      10.987 -13.075 -41.327  1.00  0.00     0.118 C 
ATOM     24  C   UNL     1      11.161 -14.188 -40.286  1.00  0.00     0.063 C 
ATOM     25  C   UNL     1       9.233 -13.000 -37.944  1.00  0.00     0.016 C 
ATOM     26  C   UNL     1       6.117 -17.588 -40.337  1.00  0.00     0.012 C 
ATOM     27  C   UNL     1       1.899 -16.156 -39.720  1.00  0.00     0.014 C 
ATOM     28  O   UNL     1       1.571 -18.297 -37.625  1.00  0.00    -0.349 OA
ATOM     29  C   UNL     1       0.178 -18.106 -37.819  1.00  0.00     0.167 C 
ENDROOT
BRANCH  23  30
ATOM     30  O   UNL     1      12.245 -12.568 -41.687  1.00  0.00    -0.393 OA
ATOM     31  H   UNL     1      12.874 -12.807 -40.955  1.00  0.00     0.210 HD
ENDBRANCH  23  30
TORSDOF 1
ENDMDL
MODEL 7
REMARK VINA RESULT:    -5.882      1.764      2.576
REMARK INTER + INTRA:          -6.054
REMARK INTER:                  -6.054
REMARK INTRA:                   0.000
REMARK UNBOUND:                 0.000
REMARK SMILES C[C@H]1CC[C@]2(OC1)O[C@@H]1C[C@H]3[C@H]4CC=C5C[C@H](O)CC[C@@]5(C)[C@H]4CC[C@]3(C)[C@@H]1[C@H]2C
REMARK SMILES IDX 1 1 2 2 3 3 4 4 5 5 29 6 28 7 9 8 8 9 10 10 11 11 26 12
REMARK SMILES IDX 25 13 24 14 23 15 12 16 13 17 14 18 15 19 21 20 20 21 19 22
REMARK SMILES IDX 17 23 16 24 22 25 27 26 30 27 6 28 7 29 18 30
REMARK H PARENT 18 31
REMARK Flexibility Score: inf
ROOT
ATOM      1  C   UNL     1      -1.949 -16.365 -32.448  1.00  0.00     0.010 C 
ATOM      2  C   UNL     1      -0.929 -15.240 -32.204  1.00  0.00     0.012 C 
ATOM      3  C   UNL     1       0.514 -15.701 -32.369  1.00  0.00     0.011 C 
ATOM      4  C   UNL     1       0.818 -16.010 -33.830  1.00  0.00     0.066 C 
ATOM      5  C   UNL     1       0.327 -14.918 -34.835  1.00  0.00     0.171 C 
ATOM      6  C   UNL     1       1.414 -13.856 -35.152  1.00  0.00     0.052 C 
ATOM      7  C   UNL     1       1.048 -13.428 -36.572  1.00  0.00     0.033 C 
ATOM      8  C   UNL     1       0.292 -14.659 -37.103  1.00  0.00     0.126 C 
ATOM      9  O   UNL     1       0.140 -15.595 -36.059  1.00  0.00    -0.346 OA
ATOM     10  C   UNL     1       1.135 -15.271 -38.241  1.00  0.00     0.037 C 
ATOM     11  C   UNL     1       2.495 -14.616 -38.069  1.00  0.00     0.002 C 
ATOM     12  C   UNL     1       2.202 -13.185 -37.594  1.00  0.00    -0.024 C 
ATOM     13  C   UNL     1       3.524 -12.588 -37.062  1.00  0.00     0.008 C 
ATOM     14  C   UNL     1       4.640 -12.636 -38.136  1.00  0.00     0.005 C 
ATOM     15  C   UNL     1       4.888 -14.059 -38.736  1.00  0.00     0.003 C 
ATOM     16  C   UNL     1       3.566 -14.771 -39.173  1.00  0.00     0.000 C 
ATOM     17  C   UNL     1       3.080 -14.455 -40.610  1.00  0.00     0.031 C 
ATOM     18  C   UNL     1       4.113 -13.855 -41.531  1.00  0.00    -0.027 C 
ATOM     19  C   UNL     1       5.410 -13.661 -41.215  1.00  0.00    -0.065 C 
ATOM     20  C   UNL     1       5.983 -14.125 -39.876  1.00  0.00    -0.008 C 
ATOM     21  C   UNL     1       7.230 -13.255 -39.505  1.00  0.00     0.014 C 
ATOM     22  C   UNL     1       8.228 -13.076 -40.657  1.00  0.00     0.033 C 
ATOM     23  C   UNL     1       7.534 -12.431 -41.861  1.00  0.00     0.118 C 
ATOM     24  C   UNL     1       6.363 -13.296 -42.343  1.00  0.00     0.063 C 
ATOM     25  C   UNL     1       6.448 -15.599 -40.041  1.00  0.00     0.016 C 
ATOM     26  C   UNL     1       1.625 -12.226 -38.682  1.00  0.00     0.012 C 
ATOM     27  C   UNL     1       1.532 -12.652 -34.206  1.00  0.00     0.014 C 
ATOM     28  O   UNL     1      -0.944 -14.344 -34.505  1.00  0.00    -0.349 OA
ATOM     29  C   UNL     1      -1.166 -14.049 -33.134  1.00  0.00     0.167 C 
ENDROOT
BRANCH  23  30
ATOM     30  O   UNL     1       8.465 -12.278 -42.899  1.00  0.00    -0.393 OA
ATOM     31  H   UNL     1       9.325 -12.660 -42.577  1.00  0.00     0.210 HD
ENDBRANCH  23  30
TORSDOF 1
ENDMDL
MODEL 8
REMARK VINA RESULT:    -5.799      2.309      8.790
REMARK INTER + INTRA:          -5.968
REMARK INTER:                  -5.968
REMARK INTRA:                   0.000
REMARK UNBOUND:                 0.000
REMARK SMILES C[C@H]1CC[C@]2(OC1)O[C@@H]1C[C@H]3[C@H]4CC=C5C[C@H](O)CC[C@@]5(C)[C@H]4CC[C@]3(C)[C@@H]1[C@H]2C
REMARK SMILES IDX 1 1 2 2 3 3 4 4 5 5 29 6 28 7 9 8 8 9 10 10 11 11 26 12
REMARK SMILES IDX 25 13 24 14 23 15 12 16 13 17 14 18 15 19 21 20 20 21 19 22
REMARK SMILES IDX 17 23 16 24 22 25 27 26 30 27 6 28 7 29 18 30
REMARK H PARENT 18 31
REMARK Flexibility Score: inf
ROOT
ATOM      1  C   UNL     1       9.511 -14.147 -44.301  1.00  0.00     0.010 C 
ATOM      2  C   UNL     1       8.073 -13.655 -44.540  1.00  0.00     0.012 C 
ATOM      3  C   UNL     1       7.067 -14.795 -44.651  1.00  0.00     0.011 C 
ATOM      4  C   UNL     1       6.882 -15.484 -43.305  1.00  0.00     0.066 C 
ATOM      5  C   UNL     1       6.681 -14.506 -42.103  1.00  0.00     0.171 C 
ATOM      6  C   UNL     1       5.186 -14.207 -41.809  1.00  0.00     0.052 C 
ATOM      7  C   UNL     1       5.197 -13.932 -40.307  1.00  0.00     0.033 C 
ATOM      8  C   UNL     1       6.447 -14.699 -39.839  1.00  0.00     0.126 C 
ATOM      9  O   UNL     1       7.119 -15.218 -40.965  1.00  0.00    -0.346 OA
ATOM     10  C   UNL     1       5.975 -15.852 -38.929  1.00  0.00     0.037 C 
ATOM     11  C   UNL     1       4.485 -15.941 -39.210  1.00  0.00     0.002 C 
ATOM     12  C   UNL     1       4.025 -14.493 -39.442  1.00  0.00    -0.024 C 
ATOM     13  C   UNL     1       2.618 -14.545 -40.078  1.00  0.00     0.008 C 
ATOM     14  C   UNL     1       1.626 -15.343 -39.196  1.00  0.00     0.005 C 
ATOM     15  C   UNL     1       2.113 -16.786 -38.833  1.00  0.00     0.003 C 
ATOM     16  C   UNL     1       3.585 -16.814 -38.306  1.00  0.00     0.000 C 
ATOM     17  C   UNL     1       3.754 -16.576 -36.784  1.00  0.00     0.031 C 
ATOM     18  C   UNL     1       2.508 -16.757 -35.953  1.00  0.00    -0.027 C 
ATOM     19  C   UNL     1       1.318 -17.178 -36.427  1.00  0.00    -0.065 C 
ATOM     20  C   UNL     1       1.144 -17.601 -37.885  1.00  0.00    -0.008 C 
ATOM     21  C   UNL     1      -0.349 -17.415 -38.315  1.00  0.00     0.014 C 
ATOM     22  C   UNL     1      -1.361 -17.978 -37.309  1.00  0.00     0.033 C 
ATOM     23  C   UNL     1      -1.169 -17.315 -35.941  1.00  0.00     0.118 C 
ATOM     24  C   UNL     1       0.249 -17.557 -35.412  1.00  0.00     0.063 C 
ATOM     25  C   UNL     1       1.496 -19.112 -37.988  1.00  0.00     0.016 C 
ATOM     26  C   UNL     1       3.961 -13.601 -38.164  1.00  0.00     0.012 C 
ATOM     27  C   UNL     1       4.519 -13.067 -42.594  1.00  0.00     0.014 C 
ATOM     28  O   UNL     1       7.491 -13.325 -42.163  1.00  0.00    -0.349 OA
ATOM     29  C   UNL     1       7.609 -12.705 -43.435  1.00  0.00     0.167 C 
ENDROOT
BRANCH  23  30
ATOM     30  O   UNL     1      -2.104 -17.845 -35.039  1.00  0.00    -0.393 OA
ATOM     31  H   UNL     1      -2.835 -17.176 -34.951  1.00  0.00     0.210 HD
ENDBRANCH  23  30
TORSDOF 1
ENDMDL
MODEL 9
REMARK VINA RESULT:    -5.578      2.283      3.729
REMARK INTER + INTRA:          -5.741
REMARK INTER:                  -5.741
REMARK INTRA:                   0.000
REMARK UNBOUND:                 0.000
REMARK SMILES C[C@H]1CC[C@]2(OC1)O[C@@H]1C[C@H]3[C@H]4CC=C5C[C@H](O)CC[C@@]5(C)[C@H]4CC[C@]3(C)[C@@H]1[C@H]2C
REMARK SMILES IDX 1 1 2 2 3 3 4 4 5 5 29 6 28 7 9 8 8 9 10 10 11 11 26 12
REMARK SMILES IDX 25 13 24 14 23 15 12 16 13 17 14 18 15 19 21 20 20 21 19 22
REMARK SMILES IDX 17 23 16 24 22 25 27 26 30 27 6 28 7 29 18 30
REMARK H PARENT 18 31
REMARK Flexibility Score: inf
ROOT
ATOM      1  C   UNL     1      -1.834 -17.547 -36.258  1.00  0.00     0.010 C 
ATOM      2  C   UNL     1      -0.414 -18.119 -36.111  1.00  0.00     0.012 C 
ATOM      3  C   UNL     1       0.149 -18.652 -37.423  1.00  0.00     0.011 C 
ATOM      4  C   UNL     1       0.432 -17.511 -38.392  1.00  0.00     0.066 C 
ATOM      5  C   UNL     1       1.193 -16.302 -37.760  1.00  0.00     0.171 C 
ATOM      6  C   UNL     1       2.734 -16.408 -37.916  1.00  0.00     0.052 C 
ATOM      7  C   UNL     1       3.160 -14.941 -37.955  1.00  0.00     0.033 C 
ATOM      8  C   UNL     1       1.885 -14.240 -38.456  1.00  0.00     0.126 C 
ATOM      9  O   UNL     1       0.843 -15.186 -38.549  1.00  0.00    -0.346 OA
ATOM     10  C   UNL     1       2.190 -13.653 -39.849  1.00  0.00     0.037 C 
ATOM     11  C   UNL     1       3.475 -14.353 -40.257  1.00  0.00     0.002 C 
ATOM     12  C   UNL     1       4.279 -14.521 -38.958  1.00  0.00    -0.024 C 
ATOM     13  C   UNL     1       5.415 -15.530 -39.237  1.00  0.00     0.008 C 
ATOM     14  C   UNL     1       6.301 -15.071 -40.423  1.00  0.00     0.005 C 
ATOM     15  C   UNL     1       5.506 -14.770 -41.736  1.00  0.00     0.003 C 
ATOM     16  C   UNL     1       4.260 -13.856 -41.493  1.00  0.00     0.000 C 
ATOM     17  C   UNL     1       4.532 -12.331 -41.531  1.00  0.00     0.031 C 
ATOM     18  C   UNL     1       5.826 -11.916 -42.186  1.00  0.00    -0.027 C 
ATOM     19  C   UNL     1       6.689 -12.756 -42.793  1.00  0.00    -0.065 C 
ATOM     20  C   UNL     1       6.380 -14.245 -42.944  1.00  0.00    -0.008 C 
ATOM     21  C   UNL     1       7.715 -15.053 -43.062  1.00  0.00     0.014 C 
ATOM     22  C   UNL     1       8.720 -14.453 -44.054  1.00  0.00     0.033 C 
ATOM     23  C   UNL     1       9.063 -13.015 -43.653  1.00  0.00     0.118 C 
ATOM     24  C   UNL     1       7.803 -12.141 -43.627  1.00  0.00     0.063 C 
ATOM     25  C   UNL     1       5.579 -14.433 -44.264  1.00  0.00     0.016 C 
ATOM     26  C   UNL     1       4.905 -13.211 -38.387  1.00  0.00     0.012 C 
ATOM     27  C   UNL     1       3.506 -17.199 -36.851  1.00  0.00     0.014 C 
ATOM     28  O   UNL     1       0.782 -15.982 -36.424  1.00  0.00    -0.349 OA
ATOM     29  C   UNL     1       0.559 -17.080 -35.552  1.00  0.00     0.167 C 
ENDROOT
BRANCH  23  30
ATOM     30  O   UNL     1       9.981 -12.488 -44.574  1.00  0.00    -0.393 OA
ATOM     31  H   UNL     1       9.916 -11.497 -44.515  1.00  0.00     0.210 HD
ENDBRANCH  23  30
TORSDOF 1
ENDMDL
