MODEL 1
REMARK VINA RESULT:    -5.735      0.000      0.000
REMARK INTER + INTRA:          -6.237
REMARK INTER:                  -6.237
REMARK INTRA:                   0.000
REMARK UNBOUND:                 0.000
REMARK SMILES Cc1cc(O)c2c(c1)C(=O)c1cc(O)cc(O)c1C2=O
REMARK SMILES IDX 1 1 2 2 8 3 7 4 6 5 4 6 3 7 19 8 20 9 18 10 11 11 9 12 10 13
REMARK SMILES IDX 12 14 13 15 15 16 16 17 5 18 17 20 14 22
REMARK H PARENT 5 19 17 21 14 23
REMARK Flexibility Score: inf
ROOT
ATOM      1  C   UNL     1      29.125  32.133  23.253  1.00  0.00     0.044 C 
ATOM      2  C   UNL     1      28.439  33.435  22.965  1.00  0.00    -0.047 A 
ATOM      3  C   UNL     1      28.674  34.105  21.759  1.00  0.00     0.016 A 
ATOM      4  C   UNL     1      28.003  35.302  21.461  1.00  0.00     0.038 A 
ATOM      5  C   UNL     1      27.059  35.826  22.374  1.00  0.00     0.076 A 
ATOM      6  C   UNL     1      26.857  35.167  23.615  1.00  0.00     0.127 A 
ATOM      7  C   UNL     1      27.523  33.966  23.880  1.00  0.00     0.050 A 
ATOM      8  C   UNL     1      26.264  37.011  21.959  1.00  0.00     0.201 C 
ATOM      9  O   UNL     1      25.095  37.169  22.405  1.00  0.00    -0.288 OA
ATOM     10  C   UNL     1      26.770  37.898  20.880  1.00  0.00     0.076 A 
ATOM     11  C   UNL     1      27.713  37.370  19.970  1.00  0.00     0.041 A 
ATOM     12  C   UNL     1      28.282  36.020  20.195  1.00  0.00     0.194 C 
ATOM     13  O   UNL     1      29.024  35.495  19.321  1.00  0.00    -0.289 OA
ATOM     14  C   UNL     1      28.112  38.131  18.857  1.00  0.00     0.059 A 
ATOM     15  C   UNL     1      27.596  39.409  18.651  1.00  0.00     0.120 A 
ATOM     16  C   UNL     1      26.693  39.952  19.570  1.00  0.00     0.093 A 
ATOM     17  C   UNL     1      26.296  39.224  20.696  1.00  0.00     0.131 A 
ENDROOT
BRANCH   6  18
ATOM     18  O   UNL     1      26.037  35.684  24.620  1.00  0.00    -0.507 OA
ATOM     19  H   UNL     1      26.205  36.570  25.078  1.00  0.00     0.293 HD
ENDBRANCH   6  18
BRANCH  17  20
ATOM     20  O   UNL     1      25.464  39.863  21.616  1.00  0.00    -0.507 OA
ATOM     21  H   UNL     1      24.932  40.696  21.405  1.00  0.00     0.293 HD
ENDBRANCH  17  20
BRANCH  15  22
ATOM     22  O   UNL     1      27.996  40.140  17.534  1.00  0.00    -0.508 OA
ATOM     23  H   UNL     1      27.363  40.318  16.763  1.00  0.00     0.293 HD
ENDBRANCH  15  22
TORSDOF 3
ENDMDL
MODEL 2
REMARK VINA RESULT:    -5.722      2.098      3.334
REMARK INTER + INTRA:          -6.224
REMARK INTER:                  -6.224
REMARK INTRA:                   0.000
REMARK UNBOUND:                 0.000
REMARK SMILES Cc1cc(O)c2c(c1)C(=O)c1cc(O)cc(O)c1C2=O
REMARK SMILES IDX 1 1 2 2 8 3 7 4 6 5 4 6 3 7 19 8 20 9 18 10 11 11 9 12 10 13
REMARK SMILES IDX 12 14 13 15 15 16 16 17 5 18 17 20 14 22
REMARK H PARENT 5 19 17 21 14 23
REMARK Flexibility Score: inf
ROOT
ATOM      1  C   UNL     1      29.119  34.362  19.521  1.00  0.00     0.044 C 
ATOM      2  C   UNL     1      28.467  35.668  19.866  1.00  0.00    -0.047 A 
ATOM      3  C   UNL     1      28.726  36.810  19.100  1.00  0.00     0.016 A 
ATOM      4  C   UNL     1      28.087  38.026  19.388  1.00  0.00     0.038 A 
ATOM      5  C   UNL     1      27.150  38.097  20.444  1.00  0.00     0.076 A 
ATOM      6  C   UNL     1      26.925  36.949  21.247  1.00  0.00     0.127 A 
ATOM      7  C   UNL     1      27.559  35.743  20.928  1.00  0.00     0.050 A 
ATOM      8  C   UNL     1      26.387  39.360  20.623  1.00  0.00     0.201 C 
ATOM      9  O   UNL     1      25.221  39.325  21.099  1.00  0.00    -0.288 OA
ATOM     10  C   UNL     1      26.922  40.630  20.068  1.00  0.00     0.076 A 
ATOM     11  C   UNL     1      27.857  40.555  19.011  1.00  0.00     0.041 A 
ATOM     12  C   UNL     1      28.391  39.238  18.589  1.00  0.00     0.194 C 
ATOM     13  O   UNL     1      29.125  39.153  17.567  1.00  0.00    -0.289 OA
ATOM     14  C   UNL     1      28.281  41.731  18.368  1.00  0.00     0.059 A 
ATOM     15  C   UNL     1      27.798  42.974  18.774  1.00  0.00     0.120 A 
ATOM     16  C   UNL     1      26.903  43.057  19.844  1.00  0.00     0.093 A 
ATOM     17  C   UNL     1      26.482  41.904  20.514  1.00  0.00     0.131 A 
ENDROOT
BRANCH   6  18
ATOM     18  O   UNL     1      26.112  36.968  22.382  1.00  0.00    -0.507 OA
ATOM     19  H   UNL     1      25.650  36.148  22.752  1.00  0.00     0.293 HD
ENDBRANCH   6  18
BRANCH  17  20
ATOM     20  O   UNL     1      25.660  42.071  21.630  1.00  0.00    -0.507 OA
ATOM     21  H   UNL     1      25.143  42.918  21.822  1.00  0.00     0.293 HD
ENDBRANCH  17  20
BRANCH  15  22
ATOM     22  O   UNL     1      28.223  44.125  18.113  1.00  0.00    -0.508 OA
ATOM     23  H   UNL     1      27.662  44.558  17.389  1.00  0.00     0.293 HD
ENDBRANCH  15  22
TORSDOF 3
ENDMDL
MODEL 3
REMARK VINA RESULT:    -5.056      3.354      6.319
REMARK INTER + INTRA:          -5.500
REMARK INTER:                  -5.500
REMARK INTRA:                   0.000
REMARK UNBOUND:                 0.000
REMARK SMILES Cc1cc(O)c2c(c1)C(=O)c1cc(O)cc(O)c1C2=O
REMARK SMILES IDX 1 1 2 2 8 3 7 4 6 5 4 6 3 7 19 8 20 9 18 10 11 11 9 12 10 13
REMARK SMILES IDX 12 14 13 15 15 16 16 17 5 18 17 20 14 22
REMARK H PARENT 5 19 17 21 14 23
REMARK Flexibility Score: inf
ROOT
ATOM      1  C   UNL     1      29.125  44.124  18.043  1.00  0.00     0.044 C 
ATOM      2  C   UNL     1      28.236  43.118  18.712  1.00  0.00    -0.047 A 
ATOM      3  C   UNL     1      28.311  41.766  18.359  1.00  0.00     0.016 A 
ATOM      4  C   UNL     1      27.514  40.810  19.010  1.00  0.00     0.038 A 
ATOM      5  C   UNL     1      26.646  41.209  20.052  1.00  0.00     0.076 A 
ATOM      6  C   UNL     1      26.541  42.586  20.375  1.00  0.00     0.127 A 
ATOM      7  C   UNL     1      27.358  43.517  19.726  1.00  0.00     0.050 A 
ATOM      8  C   UNL     1      25.932  40.151  20.814  1.00  0.00     0.201 C 
ATOM      9  O   UNL     1      25.638  40.342  22.024  1.00  0.00    -0.288 OA
ATOM     10  C   UNL     1      25.737  38.809  20.207  1.00  0.00     0.076 A 
ATOM     11  C   UNL     1      26.608  38.414  19.166  1.00  0.00     0.041 A 
ATOM     12  C   UNL     1      27.578  39.385  18.607  1.00  0.00     0.194 C 
ATOM     13  O   UNL     1      28.441  39.002  17.770  1.00  0.00    -0.289 OA
ATOM     14  C   UNL     1      26.544  37.104  18.662  1.00  0.00     0.059 A 
ATOM     15  C   UNL     1      25.619  36.193  19.169  1.00  0.00     0.120 A 
ATOM     16  C   UNL     1      24.729  36.590  20.172  1.00  0.00     0.093 A 
ATOM     17  C   UNL     1      24.758  37.894  20.676  1.00  0.00     0.131 A 
ENDROOT
BRANCH   6  18
ATOM     18  O   UNL     1      25.620  43.076  21.303  1.00  0.00    -0.507 OA
ATOM     19  H   UNL     1      25.843  43.779  21.994  1.00  0.00     0.293 HD
ENDBRANCH   6  18
BRANCH  17  20
ATOM     20  O   UNL     1      23.781  38.245  21.609  1.00  0.00    -0.507 OA
ATOM     21  H   UNL     1      23.674  39.178  21.983  1.00  0.00     0.293 HD
ENDBRANCH  17  20
BRANCH  15  22
ATOM     22  O   UNL     1      25.584  34.895  18.663  1.00  0.00    -0.508 OA
ATOM     23  H   UNL     1      25.224  34.697  17.737  1.00  0.00     0.293 HD
ENDBRANCH  15  22
TORSDOF 3
ENDMDL
MODEL 4
REMARK VINA RESULT:    -4.909      1.524      3.570
REMARK INTER + INTRA:          -5.340
REMARK INTER:                  -5.340
REMARK INTRA:                   0.000
REMARK UNBOUND:                 0.000
REMARK SMILES Cc1cc(O)c2c(c1)C(=O)c1cc(O)cc(O)c1C2=O
REMARK SMILES IDX 1 1 2 2 8 3 7 4 6 5 4 6 3 7 19 8 20 9 18 10 11 11 9 12 10 13
REMARK SMILES IDX 12 14 13 15 15 16 16 17 5 18 17 20 14 22
REMARK H PARENT 5 19 17 21 14 23
REMARK Flexibility Score: inf
ROOT
ATOM      1  C   UNL     1      29.122  31.362  24.191  1.00  0.00     0.044 C 
ATOM      2  C   UNL     1      28.735  32.399  23.178  1.00  0.00    -0.047 A 
ATOM      3  C   UNL     1      28.023  33.537  23.571  1.00  0.00     0.016 A 
ATOM      4  C   UNL     1      27.694  34.535  22.639  1.00  0.00     0.038 A 
ATOM      5  C   UNL     1      28.108  34.405  21.294  1.00  0.00     0.076 A 
ATOM      6  C   UNL     1      28.791  33.228  20.891  1.00  0.00     0.127 A 
ATOM      7  C   UNL     1      29.124  32.257  21.841  1.00  0.00     0.050 A 
ATOM      8  C   UNL     1      27.871  35.547  20.373  1.00  0.00     0.201 C 
ATOM      9  O   UNL     1      28.661  35.752  19.412  1.00  0.00    -0.288 OA
ATOM     10  C   UNL     1      26.822  36.548  20.695  1.00  0.00     0.076 A 
ATOM     11  C   UNL     1      26.411  36.675  22.042  1.00  0.00     0.041 A 
ATOM     12  C   UNL     1      26.912  35.722  23.059  1.00  0.00     0.194 C 
ATOM     13  O   UNL     1      26.652  35.907  24.279  1.00  0.00    -0.289 OA
ATOM     14  C   UNL     1      25.524  37.702  22.408  1.00  0.00     0.059 A 
ATOM     15  C   UNL     1      25.033  38.589  21.451  1.00  0.00     0.120 A 
ATOM     16  C   UNL     1      25.405  38.444  20.111  1.00  0.00     0.093 A 
ATOM     17  C   UNL     1      26.270  37.418  19.718  1.00  0.00     0.131 A 
ENDROOT
BRANCH   6  18
ATOM     18  O   UNL     1      29.125  32.966  19.561  1.00  0.00    -0.507 OA
ATOM     19  H   UNL     1      28.606  33.329  18.772  1.00  0.00     0.293 HD
ENDBRANCH   6  18
BRANCH  17  20
ATOM     20  O   UNL     1      26.525  37.279  18.352  1.00  0.00    -0.507 OA
ATOM     21  H   UNL     1      27.043  37.954  17.808  1.00  0.00     0.293 HD
ENDBRANCH  17  20
BRANCH  15  22
ATOM     22  O   UNL     1      24.165  39.608  21.839  1.00  0.00    -0.508 OA
ATOM     23  H   UNL     1      23.959  40.390  21.229  1.00  0.00     0.293 HD
ENDBRANCH  15  22
TORSDOF 3
ENDMDL
MODEL 5
REMARK VINA RESULT:    -4.824      3.172      4.881
REMARK INTER + INTRA:          -5.247
REMARK INTER:                  -5.247
REMARK INTRA:                   0.000
REMARK UNBOUND:                 0.000
REMARK SMILES Cc1cc(O)c2c(c1)C(=O)c1cc(O)cc(O)c1C2=O
REMARK SMILES IDX 1 1 2 2 8 3 7 4 6 5 4 6 3 7 19 8 20 9 18 10 11 11 9 12 10 13
REMARK SMILES IDX 12 14 13 15 15 16 16 17 5 18 17 20 14 22
REMARK H PARENT 5 19 17 21 14 23
REMARK Flexibility Score: inf
ROOT
ATOM      1  C   UNL     1      23.921  36.949  22.763  1.00  0.00     0.044 C 
ATOM      2  C   UNL     1      24.864  37.374  21.677  1.00  0.00    -0.047 A 
ATOM      3  C   UNL     1      25.296  38.703  21.598  1.00  0.00     0.016 A 
ATOM      4  C   UNL     1      26.213  39.101  20.612  1.00  0.00     0.038 A 
ATOM      5  C   UNL     1      26.730  38.148  19.704  1.00  0.00     0.076 A 
ATOM      6  C   UNL     1      26.255  36.812  19.760  1.00  0.00     0.127 A 
ATOM      7  C   UNL     1      25.356  36.435  20.763  1.00  0.00     0.050 A 
ATOM      8  C   UNL     1      27.806  38.576  18.774  1.00  0.00     0.201 C 
ATOM      9  O   UNL     1      28.667  37.741  18.385  1.00  0.00    -0.288 OA
ATOM     10  C   UNL     1      27.977  40.017  18.457  1.00  0.00     0.076 A 
ATOM     11  C   UNL     1      27.460  40.967  19.367  1.00  0.00     0.041 A 
ATOM     12  C   UNL     1      26.640  40.517  20.517  1.00  0.00     0.194 C 
ATOM     13  O   UNL     1      26.285  41.345  21.400  1.00  0.00    -0.289 OA
ATOM     14  C   UNL     1      27.721  42.335  19.173  1.00  0.00     0.059 A 
ATOM     15  C   UNL     1      28.474  42.765  18.082  1.00  0.00     0.120 A 
ATOM     16  C   UNL     1      28.954  41.833  17.158  1.00  0.00     0.093 A 
ATOM     17  C   UNL     1      28.692  40.469  17.316  1.00  0.00     0.131 A 
ENDROOT
BRANCH   6  18
ATOM     18  O   UNL     1      26.620  35.841  18.826  1.00  0.00    -0.507 OA
ATOM     19  H   UNL     1      27.547  35.768  18.429  1.00  0.00     0.293 HD
ENDBRANCH   6  18
BRANCH  17  20
ATOM     20  O   UNL     1      29.125  39.608  16.306  1.00  0.00    -0.507 OA
ATOM     21  H   UNL     1      29.832  39.854  15.627  1.00  0.00     0.293 HD
ENDBRANCH  17  20
BRANCH  15  22
ATOM     22  O   UNL     1      28.731  44.125  17.918  1.00  0.00    -0.508 OA
ATOM     23  H   UNL     1      29.570  44.554  18.290  1.00  0.00     0.293 HD
ENDBRANCH  15  22
TORSDOF 3
ENDMDL
MODEL 6
REMARK VINA RESULT:    -4.528      3.049      6.883
REMARK INTER + INTRA:          -4.925
REMARK INTER:                  -4.925
REMARK INTRA:                   0.000
REMARK UNBOUND:                 0.000
REMARK SMILES Cc1cc(O)c2c(c1)C(=O)c1cc(O)cc(O)c1C2=O
REMARK SMILES IDX 1 1 2 2 8 3 7 4 6 5 4 6 3 7 19 8 20 9 18 10 11 11 9 12 10 13
REMARK SMILES IDX 12 14 13 15 15 16 16 17 5 18 17 20 14 22
REMARK H PARENT 5 19 17 21 14 23
REMARK Flexibility Score: inf
ROOT
ATOM      1  C   UNL     1      29.125  44.125  18.807  1.00  0.00     0.044 C 
ATOM      2  C   UNL     1      28.593  42.725  18.731  1.00  0.00    -0.047 A 
ATOM      3  C   UNL     1      27.660  42.273  19.671  1.00  0.00     0.016 A 
ATOM      4  C   UNL     1      27.123  40.978  19.583  1.00  0.00     0.038 A 
ATOM      5  C   UNL     1      27.505  40.128  18.520  1.00  0.00     0.076 A 
ATOM      6  C   UNL     1      28.485  40.575  17.595  1.00  0.00     0.127 A 
ATOM      7  C   UNL     1      28.991  41.875  17.692  1.00  0.00     0.050 A 
ATOM      8  C   UNL     1      26.806  38.825  18.377  1.00  0.00     0.201 C 
ATOM      9  O   UNL     1      26.659  38.315  17.234  1.00  0.00    -0.288 OA
ATOM     10  C   UNL     1      26.119  38.224  19.549  1.00  0.00     0.076 A 
ATOM     11  C   UNL     1      25.738  39.077  20.610  1.00  0.00     0.041 A 
ATOM     12  C   UNL     1      26.159  40.498  20.601  1.00  0.00     0.194 C 
ATOM     13  O   UNL     1      25.716  41.291  21.476  1.00  0.00    -0.289 OA
ATOM     14  C   UNL     1      24.968  38.571  21.671  1.00  0.00     0.059 A 
ATOM     15  C   UNL     1      24.587  37.231  21.694  1.00  0.00     0.120 A 
ATOM     16  C   UNL     1      24.994  36.374  20.668  1.00  0.00     0.093 A 
ATOM     17  C   UNL     1      25.779  36.847  19.612  1.00  0.00     0.131 A 
ENDROOT
BRANCH   6  18
ATOM     18  O   UNL     1      29.006  39.756  16.593  1.00  0.00    -0.507 OA
ATOM     19  H   UNL     1      28.938  38.747  16.603  1.00  0.00     0.293 HD
ENDBRANCH   6  18
BRANCH  17  20
ATOM     20  O   UNL     1      26.224  35.915  18.672  1.00  0.00    -0.507 OA
ATOM     21  H   UNL     1      25.993  35.959  17.689  1.00  0.00     0.293 HD
ENDBRANCH  17  20
BRANCH  15  22
ATOM     22  O   UNL     1      23.811  36.755  22.750  1.00  0.00    -0.508 OA
ATOM     23  H   UNL     1      24.038  35.891  23.227  1.00  0.00     0.293 HD
ENDBRANCH  15  22
TORSDOF 3
ENDMDL
MODEL 7
REMARK VINA RESULT:    -3.807      3.663      7.952
REMARK INTER + INTRA:          -4.141
REMARK INTER:                  -4.141
REMARK INTRA:                   0.000
REMARK UNBOUND:                 0.000
REMARK SMILES Cc1cc(O)c2c(c1)C(=O)c1cc(O)cc(O)c1C2=O
REMARK SMILES IDX 1 1 2 2 8 3 7 4 6 5 4 6 3 7 19 8 20 9 18 10 11 11 9 12 10 13
REMARK SMILES IDX 12 14 13 15 15 16 16 17 5 18 17 20 14 22
REMARK H PARENT 5 19 17 21 14 23
REMARK Flexibility Score: inf
ROOT
ATOM      1  C   UNL     1      28.317  35.503  20.243  1.00  0.00     0.044 C 
ATOM      2  C   UNL     1      28.331  34.690  21.503  1.00  0.00    -0.047 A 
ATOM      3  C   UNL     1      28.572  33.313  21.450  1.00  0.00     0.016 A 
ATOM      4  C   UNL     1      28.631  32.550  22.628  1.00  0.00     0.038 A 
ATOM      5  C   UNL     1      28.474  33.180  23.884  1.00  0.00     0.076 A 
ATOM      6  C   UNL     1      28.185  34.568  23.929  1.00  0.00     0.127 A 
ATOM      7  C   UNL     1      28.150  35.311  22.744  1.00  0.00     0.050 A 
ATOM      8  C   UNL     1      28.689  32.367  25.109  1.00  0.00     0.201 C 
ATOM      9  O   UNL     1      29.125  32.916  26.156  1.00  0.00    -0.288 OA
ATOM     10  C   UNL     1      28.574  30.888  25.042  1.00  0.00     0.076 A 
ATOM     11  C   UNL     1      28.733  30.262  23.785  1.00  0.00     0.041 A 
ATOM     12  C   UNL     1      28.855  31.086  22.560  1.00  0.00     0.194 C 
ATOM     13  O   UNL     1      29.125  30.539  21.456  1.00  0.00    -0.289 OA
ATOM     14  C   UNL     1      28.768  28.859  23.702  1.00  0.00     0.059 A 
ATOM     15  C   UNL     1      28.633  28.078  24.849  1.00  0.00     0.120 A 
ATOM     16  C   UNL     1      28.436  28.691  26.090  1.00  0.00     0.093 A 
ATOM     17  C   UNL     1      28.377  30.084  26.196  1.00  0.00     0.131 A 
ENDROOT
BRANCH   6  18
ATOM     18  O   UNL     1      27.895  35.241  25.117  1.00  0.00    -0.507 OA
ATOM     19  H   UNL     1      27.415  36.131  25.154  1.00  0.00     0.293 HD
ENDBRANCH   6  18
BRANCH  17  20
ATOM     20  O   UNL     1      28.087  30.623  27.451  1.00  0.00    -0.507 OA
ATOM     21  H   UNL     1      27.528  31.453  27.587  1.00  0.00     0.293 HD
ENDBRANCH  17  20
BRANCH  15  22
ATOM     22  O   UNL     1      28.685  26.689  24.745  1.00  0.00    -0.508 OA
ATOM     23  H   UNL     1      28.518  26.217  23.864  1.00  0.00     0.293 HD
ENDBRANCH  15  22
TORSDOF 3
ENDMDL
MODEL 8
REMARK VINA RESULT:    -3.712      3.795      6.815
REMARK INTER + INTRA:          -4.038
REMARK INTER:                  -4.038
REMARK INTRA:                   0.000
REMARK UNBOUND:                 0.000
REMARK SMILES Cc1cc(O)c2c(c1)C(=O)c1cc(O)cc(O)c1C2=O
REMARK SMILES IDX 1 1 2 2 8 3 7 4 6 5 4 6 3 7 19 8 20 9 18 10 11 11 9 12 10 13
REMARK SMILES IDX 12 14 13 15 15 16 16 17 5 18 17 20 14 22
REMARK H PARENT 5 19 17 21 14 23
REMARK Flexibility Score: inf
ROOT
ATOM      1  C   UNL     1      26.852  44.125  24.367  1.00  0.00     0.044 C 
ATOM      2  C   UNL     1      27.100  43.422  23.066  1.00  0.00    -0.047 A 
ATOM      3  C   UNL     1      26.440  42.222  22.776  1.00  0.00     0.016 A 
ATOM      4  C   UNL     1      26.632  41.578  21.543  1.00  0.00     0.038 A 
ATOM      5  C   UNL     1      27.478  42.159  20.570  1.00  0.00     0.076 A 
ATOM      6  C   UNL     1      28.179  43.351  20.886  1.00  0.00     0.127 A 
ATOM      7  C   UNL     1      27.957  43.984  22.114  1.00  0.00     0.050 A 
ATOM      8  C   UNL     1      27.540  41.527  19.226  1.00  0.00     0.201 C 
ATOM      9  O   UNL     1      27.767  42.237  18.210  1.00  0.00    -0.288 OA
ATOM     10  C   UNL     1      27.147  40.104  19.062  1.00  0.00     0.076 A 
ATOM     11  C   UNL     1      26.300  39.528  20.036  1.00  0.00     0.041 A 
ATOM     12  C   UNL     1      25.953  40.292  21.258  1.00  0.00     0.194 C 
ATOM     13  O   UNL     1      25.099  39.835  22.066  1.00  0.00    -0.289 OA
ATOM     14  C   UNL     1      25.797  38.229  19.845  1.00  0.00     0.059 A 
ATOM     15  C   UNL     1      26.137  37.498  18.708  1.00  0.00     0.120 A 
ATOM     16  C   UNL     1      27.005  38.047  17.761  1.00  0.00     0.093 A 
ATOM     17  C   UNL     1      27.536  39.329  17.937  1.00  0.00     0.131 A 
ENDROOT
BRANCH   6  18
ATOM     18  O   UNL     1      29.125  43.920  20.032  1.00  0.00    -0.507 OA
ATOM     19  H   UNL     1      28.899  44.609  19.327  1.00  0.00     0.293 HD
ENDBRANCH   6  18
BRANCH  17  20
ATOM     20  O   UNL     1      28.467  39.776  16.997  1.00  0.00    -0.507 OA
ATOM     21  H   UNL     1      29.209  40.428  17.212  1.00  0.00     0.293 HD
ENDBRANCH  17  20
BRANCH  15  22
ATOM     22  O   UNL     1      25.615  36.217  18.533  1.00  0.00    -0.508 OA
ATOM     23  H   UNL     1      26.093  35.522  17.972  1.00  0.00     0.293 HD
ENDBRANCH  15  22
TORSDOF 3
ENDMDL
MODEL 9
REMARK VINA RESULT:    -3.488      1.741      6.160
REMARK INTER + INTRA:          -3.794
REMARK INTER:                  -3.794
REMARK INTRA:                   0.000
REMARK UNBOUND:                 0.000
REMARK SMILES Cc1cc(O)c2c(c1)C(=O)c1cc(O)cc(O)c1C2=O
REMARK SMILES IDX 1 1 2 2 8 3 7 4 6 5 4 6 3 7 19 8 20 9 18 10 11 11 9 12 10 13
REMARK SMILES IDX 12 14 13 15 15 16 16 17 5 18 17 20 14 22
REMARK H PARENT 5 19 17 21 14 23
REMARK Flexibility Score: inf
ROOT
ATOM      1  C   UNL     1      25.212  40.634  21.635  1.00  0.00     0.044 C 
ATOM      2  C   UNL     1      25.834  39.335  21.214  1.00  0.00    -0.047 A 
ATOM      3  C   UNL     1      26.063  38.326  22.155  1.00  0.00     0.016 A 
ATOM      4  C   UNL     1      26.604  37.090  21.764  1.00  0.00     0.038 A 
ATOM      5  C   UNL     1      26.896  36.849  20.402  1.00  0.00     0.076 A 
ATOM      6  C   UNL     1      26.705  37.892  19.459  1.00  0.00     0.127 A 
ATOM      7  C   UNL     1      26.147  39.107  19.869  1.00  0.00     0.050 A 
ATOM      8  C   UNL     1      27.327  35.483  20.007  1.00  0.00     0.201 C 
ATOM      9  O   UNL     1      27.054  35.048  18.856  1.00  0.00    -0.288 OA
ATOM     10  C   UNL     1      27.905  34.569  21.025  1.00  0.00     0.076 A 
ATOM     11  C   UNL     1      27.610  34.812  22.386  1.00  0.00     0.041 A 
ATOM     12  C   UNL     1      26.872  36.038  22.773  1.00  0.00     0.194 C 
ATOM     13  O   UNL     1      26.495  36.196  23.967  1.00  0.00    -0.289 OA
ATOM     14  C   UNL     1      28.023  33.894  23.366  1.00  0.00     0.059 A 
ATOM     15  C   UNL     1      28.735  32.750  23.010  1.00  0.00     0.120 A 
ATOM     16  C   UNL     1      29.064  32.524  21.671  1.00  0.00     0.093 A 
ATOM     17  C   UNL     1      28.683  33.433  20.679  1.00  0.00     0.131 A 
ENDROOT
BRANCH   6  18
ATOM     18  O   UNL     1      27.083  37.778  18.120  1.00  0.00    -0.507 OA
ATOM     19  H   UNL     1      26.901  36.959  17.555  1.00  0.00     0.293 HD
ENDBRANCH   6  18
BRANCH  17  20
ATOM     20  O   UNL     1      29.125  33.189  19.377  1.00  0.00    -0.507 OA
ATOM     21  H   UNL     1      28.779  32.433  18.802  1.00  0.00     0.293 HD
ENDBRANCH  17  20
BRANCH  15  22
ATOM     22  O   UNL     1      29.123  31.846  23.998  1.00  0.00    -0.508 OA
ATOM     23  H   UNL     1      28.524  31.079  24.279  1.00  0.00     0.293 HD
ENDBRANCH  15  22
TORSDOF 3
ENDMDL
