MODEL 1
REMARK VINA RESULT:    -3.269      0.000      0.000
REMARK INTER + INTRA:          -3.905
REMARK INTER:                  -3.842
REMARK INTRA:                  -0.063
REMARK UNBOUND:                -0.063
REMARK SMILES CCCCC(=O)[O-]
REMARK SMILES IDX 4 1 5 2 6 3 7 4 3 5 2 6 1 7
REMARK H PARENT
REMARK Flexibility Score: inf
ROOT
ATOM      1  C   UNL     1      49.584  15.200  17.884  1.00  0.00     0.053 C 
ENDROOT
BRANCH   1   2
ATOM      2  C   UNL     1      49.139  13.809  17.550  1.00  0.00     0.041 C 
ATOM      3  O   UNL     1      48.352  13.609  16.587  1.00  0.00    -0.550 OA
ATOM      4  O   UNL     1      49.570  12.736  18.320  1.00  0.00    -0.550 OA
ENDBRANCH   1   2
BRANCH   1   5
ATOM      5  C   UNL     1      49.633  15.438  19.402  1.00  0.00     0.006 C 
BRANCH   5   6
ATOM      6  C   UNL     1      48.250  15.500  20.075  1.00  0.00    -0.003 C 
ATOM      7  C   UNL     1      48.313  16.002  21.517  1.00  0.00     0.004 C 
ENDBRANCH   5   6
ENDBRANCH   1   5
TORSDOF 3
ENDMDL
MODEL 2
REMARK VINA RESULT:    -3.153      1.467      2.010
REMARK INTER + INTRA:          -3.769
REMARK INTER:                  -3.719
REMARK INTRA:                  -0.051
REMARK UNBOUND:                -0.063
REMARK SMILES CCCCC(=O)[O-]
REMARK SMILES IDX 4 1 5 2 6 3 7 4 3 5 2 6 1 7
REMARK H PARENT
REMARK Flexibility Score: inf
ROOT
ATOM      1  C   UNL     1      49.653  12.977  17.500  1.00  0.00     0.053 C 
ENDROOT
BRANCH   1   2
ATOM      2  C   UNL     1      49.328  13.427  16.109  1.00  0.00     0.041 C 
ATOM      3  O   UNL     1      48.162  13.805  15.821  1.00  0.00    -0.550 OA
ATOM      4  O   UNL     1      50.305  13.398  15.122  1.00  0.00    -0.550 OA
ENDBRANCH   1   2
BRANCH   1   5
ATOM      5  C   UNL     1      48.727  13.622  18.544  1.00  0.00     0.006 C 
BRANCH   5   6
ATOM      6  C   UNL     1      49.222  14.981  19.071  1.00  0.00    -0.003 C 
ATOM      7  C   UNL     1      48.343  15.541  20.188  1.00  0.00     0.004 C 
ENDBRANCH   5   6
ENDBRANCH   1   5
TORSDOF 3
ENDMDL
MODEL 3
REMARK VINA RESULT:    -3.113      6.323      6.681
REMARK INTER + INTRA:          -3.722
REMARK INTER:                  -3.676
REMARK INTRA:                  -0.046
REMARK UNBOUND:                -0.063
REMARK SMILES CCCCC(=O)[O-]
REMARK SMILES IDX 4 1 5 2 6 3 7 4 3 5 2 6 1 7
REMARK H PARENT
REMARK Flexibility Score: inf
ROOT
ATOM      1  C   UNL     1      49.348   8.678  17.843  1.00  0.00     0.053 C 
ENDROOT
BRANCH   1   2
ATOM      2  C   UNL     1      49.631   8.309  16.419  1.00  0.00     0.041 C 
ATOM      3  O   UNL     1      49.229   9.046  15.481  1.00  0.00    -0.550 OA
ATOM      4  O   UNL     1      50.311   7.134  16.127  1.00  0.00    -0.550 OA
ENDBRANCH   1   2
BRANCH   1   5
ATOM      5  C   UNL     1      50.600   8.559  18.727  1.00  0.00     0.006 C 
BRANCH   5   6
ATOM      6  C   UNL     1      50.382   7.755  20.022  1.00  0.00    -0.003 C 
ATOM      7  C   UNL     1      49.009   7.999  20.649  1.00  0.00     0.004 C 
ENDBRANCH   5   6
ENDBRANCH   1   5
TORSDOF 3
ENDMDL
MODEL 4
REMARK VINA RESULT:    -3.081     17.265     18.518
REMARK INTER + INTRA:          -3.684
REMARK INTER:                  -3.575
REMARK INTRA:                  -0.109
REMARK UNBOUND:                -0.063
REMARK SMILES CCCCC(=O)[O-]
REMARK SMILES IDX 4 1 5 2 6 3 7 4 3 5 2 6 1 7
REMARK H PARENT
REMARK Flexibility Score: inf
ROOT
ATOM      1  C   UNL     1      55.512  -1.220  18.887  1.00  0.00     0.053 C 
ENDROOT
BRANCH   1   2
ATOM      2  C   UNL     1      54.366  -2.111  19.255  1.00  0.00     0.041 C 
ATOM      3  O   UNL     1      53.626  -1.821  20.233  1.00  0.00    -0.550 OA
ATOM      4  O   UNL     1      54.133  -3.278  18.539  1.00  0.00    -0.550 OA
ENDBRANCH   1   2
BRANCH   1   5
ATOM      5  C   UNL     1      56.863  -1.813  19.319  1.00  0.00     0.006 C 
BRANCH   5   6
ATOM      6  C   UNL     1      57.725  -2.331  18.153  1.00  0.00    -0.003 C 
ATOM      7  C   UNL     1      57.629  -3.846  17.972  1.00  0.00     0.004 C 
ENDBRANCH   5   6
ENDBRANCH   1   5
TORSDOF 3
ENDMDL
MODEL 5
REMARK VINA RESULT:    -3.072     17.592     18.580
REMARK INTER + INTRA:          -3.674
REMARK INTER:                  -3.613
REMARK INTRA:                  -0.061
REMARK UNBOUND:                -0.063
REMARK SMILES CCCCC(=O)[O-]
REMARK SMILES IDX 4 1 5 2 6 3 7 4 3 5 2 6 1 7
REMARK H PARENT
REMARK Flexibility Score: inf
ROOT
ATOM      1  C   UNL     1      56.718  -2.232  19.232  1.00  0.00     0.053 C 
ENDROOT
BRANCH   1   2
ATOM      2  C   UNL     1      57.673  -1.783  18.169  1.00  0.00     0.041 C 
ATOM      3  O   UNL     1      58.254  -2.630  17.441  1.00  0.00    -0.550 OA
ATOM      4  O   UNL     1      57.944  -0.431  18.003  1.00  0.00    -0.550 OA
ENDBRANCH   1   2
BRANCH   1   5
ATOM      5  C   UNL     1      55.314  -1.638  19.033  1.00  0.00     0.006 C 
BRANCH   5   6
ATOM      6  C   UNL     1      54.177  -2.674  19.094  1.00  0.00    -0.003 C 
ATOM      7  C   UNL     1      54.508  -3.964  18.344  1.00  0.00     0.004 C 
ENDBRANCH   5   6
ENDBRANCH   1   5
TORSDOF 3
ENDMDL
MODEL 6
REMARK VINA RESULT:    -3.033      2.497      3.078
REMARK INTER + INTRA:          -3.627
REMARK INTER:                  -3.555
REMARK INTRA:                  -0.072
REMARK UNBOUND:                -0.063
REMARK SMILES CCCCC(=O)[O-]
REMARK SMILES IDX 4 1 5 2 6 3 7 4 3 5 2 6 1 7
REMARK H PARENT
REMARK Flexibility Score: inf
ROOT
ATOM      1  C   UNL     1      48.956  13.778  16.030  1.00  0.00     0.053 C 
ENDROOT
BRANCH   1   2
ATOM      2  C   UNL     1      49.993  14.122  15.005  1.00  0.00     0.041 C 
ATOM      3  O   UNL     1      50.312  15.323  14.805  1.00  0.00    -0.550 OA
ATOM      4  O   UNL     1      50.584  13.118  14.249  1.00  0.00    -0.550 OA
ENDBRANCH   1   2
BRANCH   1   5
ATOM      5  C   UNL     1      49.580  13.171  17.297  1.00  0.00     0.006 C 
BRANCH   5   6
ATOM      6  C   UNL     1      49.154  13.865  18.604  1.00  0.00    -0.003 C 
ATOM      7  C   UNL     1      49.634  15.314  18.690  1.00  0.00     0.004 C 
ENDBRANCH   5   6
ENDBRANCH   1   5
TORSDOF 3
ENDMDL
MODEL 7
REMARK VINA RESULT:    -3.031     17.286     18.008
REMARK INTER + INTRA:          -3.625
REMARK INTER:                  -3.570
REMARK INTRA:                  -0.055
REMARK UNBOUND:                -0.063
REMARK SMILES CCCCC(=O)[O-]
REMARK SMILES IDX 4 1 5 2 6 3 7 4 3 5 2 6 1 7
REMARK H PARENT
REMARK Flexibility Score: inf
ROOT
ATOM      1  C   UNL     1      56.532  -2.042  19.518  1.00  0.00     0.053 C 
ENDROOT
BRANCH   1   2
ATOM      2  C   UNL     1      55.104  -1.987  19.071  1.00  0.00     0.041 C 
ATOM      3  O   UNL     1      54.522  -3.032  18.677  1.00  0.00    -0.550 OA
ATOM      4  O   UNL     1      54.424  -0.776  19.060  1.00  0.00    -0.550 OA
ENDBRANCH   1   2
BRANCH   1   5
ATOM      5  C   UNL     1      57.509  -1.897  18.340  1.00  0.00     0.006 C 
BRANCH   5   6
ATOM      6  C   UNL     1      57.814  -0.438  17.951  1.00  0.00    -0.003 C 
ATOM      7  C   UNL     1      58.522  -0.319  16.602  1.00  0.00     0.004 C 
ENDBRANCH   5   6
ENDBRANCH   1   5
TORSDOF 3
ENDMDL
MODEL 8
REMARK VINA RESULT:    -3.001     12.299     13.059
REMARK INTER + INTRA:          -3.591
REMARK INTER:                  -3.462
REMARK INTRA:                  -0.128
REMARK UNBOUND:                -0.063
REMARK SMILES CCCCC(=O)[O-]
REMARK SMILES IDX 4 1 5 2 6 3 7 4 3 5 2 6 1 7
REMARK H PARENT
REMARK Flexibility Score: inf
ROOT
ATOM      1  C   UNL     1      51.537   2.996  19.519  1.00  0.00     0.053 C 
ENDROOT
BRANCH   1   2
ATOM      2  C   UNL     1      52.897   2.367  19.525  1.00  0.00     0.041 C 
ATOM      3  O   UNL     1      53.032   1.147  19.245  1.00  0.00    -0.550 OA
ATOM      4  O   UNL     1      54.011   3.121  19.871  1.00  0.00    -0.550 OA
ENDBRANCH   1   2
BRANCH   1   5
ATOM      5  C   UNL     1      50.639   2.435  20.634  1.00  0.00     0.006 C 
BRANCH   5   6
ATOM      6  C   UNL     1      51.296   2.424  22.026  1.00  0.00    -0.003 C 
ATOM      7  C   UNL     1      51.361   1.027  22.642  1.00  0.00     0.004 C 
ENDBRANCH   5   6
ENDBRANCH   1   5
TORSDOF 3
ENDMDL
MODEL 9
REMARK VINA RESULT:    -2.976      2.159      4.115
REMARK INTER + INTRA:          -3.561
REMARK INTER:                  -3.526
REMARK INTRA:                  -0.035
REMARK UNBOUND:                -0.063
REMARK SMILES CCCCC(=O)[O-]
REMARK SMILES IDX 4 1 5 2 6 3 7 4 3 5 2 6 1 7
REMARK H PARENT
REMARK Flexibility Score: inf
ROOT
ATOM      1  C   UNL     1      49.610  13.530  17.612  1.00  0.00     0.053 C 
ENDROOT
BRANCH   1   2
ATOM      2  C   UNL     1      49.226  14.418  18.756  1.00  0.00     0.041 C 
ATOM      3  O   UNL     1      49.962  15.387  19.080  1.00  0.00    -0.550 OA
ATOM      4  O   UNL     1      48.072  14.156  19.483  1.00  0.00    -0.550 OA
ENDBRANCH   1   2
BRANCH   1   5
ATOM      5  C   UNL     1      48.580  13.583  16.472  1.00  0.00     0.006 C 
BRANCH   5   6
ATOM      6  C   UNL     1      49.112  14.214  15.172  1.00  0.00    -0.003 C 
ATOM      7  C   UNL     1      50.429  13.593  14.706  1.00  0.00     0.004 C 
ENDBRANCH   5   6
ENDBRANCH   1   5
TORSDOF 3
ENDMDL
