MODEL 1
REMARK VINA RESULT:    -3.701      0.000      0.000
REMARK INTER + INTRA:          -5.224
REMARK INTER:                  -4.999
REMARK INTRA:                  -0.225
REMARK UNBOUND:                -0.225
REMARK SMILES CCCCCCCC(=O)[O-]
REMARK SMILES IDX 5 1 6 2 7 3 8 4 9 5 10 6 4 7 3 8 2 9 1 10
REMARK H PARENT
REMARK Flexibility Score: inf
ROOT
ATOM      1  C   UNL     1      28.335  33.255  23.083  1.00  0.00     0.000 C 
ENDROOT
BRANCH   1   2
ATOM      2  C   UNL     1      29.708  32.585  22.931  1.00  0.00     0.006 C 
BRANCH   2   3
ATOM      3  C   UNL     1      30.863  33.573  23.140  1.00  0.00     0.053 C 
BRANCH   3   4
ATOM      4  C   UNL     1      31.954  33.372  22.133  1.00  0.00     0.041 C 
ATOM      5  O   UNL     1      33.054  32.867  22.480  1.00  0.00    -0.550 OA
ATOM      6  O   UNL     1      31.744  33.716  20.803  1.00  0.00    -0.550 OA
ENDBRANCH   3   4
ENDBRANCH   2   3
ENDBRANCH   1   2
BRANCH   1   7
ATOM      7  C   UNL     1      27.978  34.069  21.833  1.00  0.00     0.000 C 
BRANCH   7   8
ATOM      8  C   UNL     1      27.376  33.169  20.744  1.00  0.00    -0.000 C 
BRANCH   8   9
ATOM      9  C   UNL     1      26.120  33.779  20.102  1.00  0.00    -0.003 C 
ATOM     10  C   UNL     1      24.932  32.817  20.095  1.00  0.00     0.004 C 
ENDBRANCH   8   9
ENDBRANCH   7   8
ENDBRANCH   1   7
TORSDOF 6
ENDMDL
MODEL 2
REMARK VINA RESULT:    -3.458      1.744      2.672
REMARK INTER + INTRA:          -4.896
REMARK INTER:                  -4.545
REMARK INTRA:                  -0.351
REMARK UNBOUND:                -0.225
REMARK SMILES CCCCCCCC(=O)[O-]
REMARK SMILES IDX 5 1 6 2 7 3 8 4 9 5 10 6 4 7 3 8 2 9 1 10
REMARK H PARENT
REMARK Flexibility Score: inf
ROOT
ATOM      1  C   UNL     1      30.561  34.349  23.468  1.00  0.00     0.000 C 
ENDROOT
BRANCH   1   2
ATOM      2  C   UNL     1      32.039  34.320  23.052  1.00  0.00     0.006 C 
BRANCH   2   3
ATOM      3  C   UNL     1      32.475  32.936  22.552  1.00  0.00     0.053 C 
BRANCH   3   4
ATOM      4  C   UNL     1      33.799  32.990  21.855  1.00  0.00     0.041 C 
ATOM      5  O   UNL     1      33.952  32.431  20.737  1.00  0.00    -0.550 OA
ATOM      6  O   UNL     1      34.858  33.685  22.427  1.00  0.00    -0.550 OA
ENDBRANCH   3   4
ENDBRANCH   2   3
ENDBRANCH   1   2
BRANCH   1   7
ATOM      7  C   UNL     1      29.866  33.025  23.126  1.00  0.00     0.000 C 
BRANCH   7   8
ATOM      8  C   UNL     1      28.345  33.211  23.029  1.00  0.00    -0.000 C 
BRANCH   8   9
ATOM      9  C   UNL     1      27.876  33.504  21.595  1.00  0.00    -0.003 C 
ATOM     10  C   UNL     1      28.835  32.960  20.536  1.00  0.00     0.004 C 
ENDBRANCH   8   9
ENDBRANCH   7   8
ENDBRANCH   1   7
TORSDOF 6
ENDMDL
MODEL 3
REMARK VINA RESULT:    -3.450     15.456     16.567
REMARK INTER + INTRA:          -4.885
REMARK INTER:                  -4.286
REMARK INTRA:                  -0.599
REMARK UNBOUND:                -0.225
REMARK SMILES CCCCCCCC(=O)[O-]
REMARK SMILES IDX 5 1 6 2 7 3 8 4 9 5 10 6 4 7 3 8 2 9 1 10
REMARK H PARENT
REMARK Flexibility Score: inf
ROOT
ATOM      1  C   UNL     1      39.277  22.529  31.509  1.00  0.00     0.000 C 
ENDROOT
BRANCH   1   2
ATOM      2  C   UNL     1      40.237  23.724  31.583  1.00  0.00     0.006 C 
BRANCH   2   3
ATOM      3  C   UNL     1      41.298  23.688  30.475  1.00  0.00     0.053 C 
BRANCH   3   4
ATOM      4  C   UNL     1      41.406  25.004  29.767  1.00  0.00     0.041 C 
ATOM      5  O   UNL     1      40.373  25.580  29.335  1.00  0.00    -0.550 OA
ATOM      6  O   UNL     1      42.648  25.609  29.612  1.00  0.00    -0.550 OA
ENDBRANCH   3   4
ENDBRANCH   2   3
ENDBRANCH   1   2
BRANCH   1   7
ATOM      7  C   UNL     1      37.834  22.995  31.275  1.00  0.00     0.000 C 
BRANCH   7   8
ATOM      8  C   UNL     1      37.640  23.483  29.832  1.00  0.00    -0.000 C 
BRANCH   8   9
ATOM      9  C   UNL     1      38.022  22.419  28.792  1.00  0.00    -0.003 C 
ATOM     10  C   UNL     1      38.763  23.005  27.590  1.00  0.00     0.004 C 
ENDBRANCH   8   9
ENDBRANCH   7   8
ENDBRANCH   1   7
TORSDOF 6
ENDMDL
MODEL 4
REMARK VINA RESULT:    -3.432      1.549      1.894
REMARK INTER + INTRA:          -4.861
REMARK INTER:                  -4.558
REMARK INTRA:                  -0.303
REMARK UNBOUND:                -0.225
REMARK SMILES CCCCCCCC(=O)[O-]
REMARK SMILES IDX 5 1 6 2 7 3 8 4 9 5 10 6 4 7 3 8 2 9 1 10
REMARK H PARENT
REMARK Flexibility Score: inf
ROOT
ATOM      1  C   UNL     1      28.009  33.446  22.427  1.00  0.00     0.000 C 
ENDROOT
BRANCH   1   2
ATOM      2  C   UNL     1      29.168  32.663  23.060  1.00  0.00     0.006 C 
BRANCH   2   3
ATOM      3  C   UNL     1      30.538  33.195  22.619  1.00  0.00     0.053 C 
BRANCH   3   4
ATOM      4  C   UNL     1      30.689  34.655  22.920  1.00  0.00     0.041 C 
ATOM      5  O   UNL     1      30.875  35.480  21.987  1.00  0.00    -0.550 OA
ATOM      6  O   UNL     1      30.594  35.107  24.231  1.00  0.00    -0.550 OA
ENDBRANCH   3   4
ENDBRANCH   2   3
ENDBRANCH   1   2
BRANCH   1   7
ATOM      7  C   UNL     1      27.916  33.170  20.921  1.00  0.00     0.000 C 
BRANCH   7   8
ATOM      8  C   UNL     1      26.964  34.163  20.237  1.00  0.00    -0.000 C 
BRANCH   8   9
ATOM      9  C   UNL     1      25.932  33.467  19.336  1.00  0.00    -0.003 C 
ATOM     10  C   UNL     1      24.876  32.699  20.130  1.00  0.00     0.004 C 
ENDBRANCH   8   9
ENDBRANCH   7   8
ENDBRANCH   1   7
TORSDOF 6
ENDMDL
MODEL 5
REMARK VINA RESULT:    -3.429      3.079      5.223
REMARK INTER + INTRA:          -4.857
REMARK INTER:                  -4.506
REMARK INTRA:                  -0.351
REMARK UNBOUND:                -0.225
REMARK SMILES CCCCCCCC(=O)[O-]
REMARK SMILES IDX 5 1 6 2 7 3 8 4 9 5 10 6 4 7 3 8 2 9 1 10
REMARK H PARENT
REMARK Flexibility Score: inf
ROOT
ATOM      1  C   UNL     1      28.442  33.127  22.776  1.00  0.00     0.000 C 
ENDROOT
BRANCH   1   2
ATOM      2  C   UNL     1      28.649  32.676  21.324  1.00  0.00     0.006 C 
BRANCH   2   3
ATOM      3  C   UNL     1      28.487  33.831  20.327  1.00  0.00     0.053 C 
BRANCH   3   4
ATOM      4  C   UNL     1      27.053  34.235  20.174  1.00  0.00     0.041 C 
ATOM      5  O   UNL     1      26.209  33.420  19.717  1.00  0.00    -0.550 OA
ATOM      6  O   UNL     1      26.643  35.503  20.566  1.00  0.00    -0.550 OA
ENDBRANCH   3   4
ENDBRANCH   2   3
ENDBRANCH   1   2
BRANCH   1   7
ATOM      7  C   UNL     1      29.707  33.793  23.332  1.00  0.00     0.000 C 
BRANCH   7   8
ATOM      8  C   UNL     1      30.954  32.952  23.020  1.00  0.00    -0.000 C 
BRANCH   8   9
ATOM      9  C   UNL     1      32.173  33.813  22.657  1.00  0.00    -0.003 C 
ATOM     10  C   UNL     1      33.387  32.979  22.251  1.00  0.00     0.004 C 
ENDBRANCH   8   9
ENDBRANCH   7   8
ENDBRANCH   1   7
TORSDOF 6
ENDMDL
MODEL 6
REMARK VINA RESULT:    -3.424      2.386      2.828
REMARK INTER + INTRA:          -4.851
REMARK INTER:                  -4.594
REMARK INTRA:                  -0.256
REMARK UNBOUND:                -0.225
REMARK SMILES CCCCCCCC(=O)[O-]
REMARK SMILES IDX 5 1 6 2 7 3 8 4 9 5 10 6 4 7 3 8 2 9 1 10
REMARK H PARENT
REMARK Flexibility Score: inf
ROOT
ATOM      1  C   UNL     1      28.966  33.087  20.926  1.00  0.00     0.000 C 
ENDROOT
BRANCH   1   2
ATOM      2  C   UNL     1      29.545  33.109  22.348  1.00  0.00     0.006 C 
BRANCH   2   3
ATOM      3  C   UNL     1      28.508  33.544  23.391  1.00  0.00     0.053 C 
BRANCH   3   4
ATOM      4  C   UNL     1      28.798  34.912  23.926  1.00  0.00     0.041 C 
ATOM      5  O   UNL     1      29.932  35.180  24.404  1.00  0.00    -0.550 OA
ATOM      6  O   UNL     1      27.824  35.902  23.868  1.00  0.00    -0.550 OA
ENDBRANCH   3   4
ENDBRANCH   2   3
ENDBRANCH   1   2
BRANCH   1   7
ATOM      7  C   UNL     1      27.436  33.183  20.953  1.00  0.00     0.000 C 
BRANCH   7   8
ATOM      8  C   UNL     1      26.905  33.876  19.689  1.00  0.00    -0.000 C 
BRANCH   8   9
ATOM      9  C   UNL     1      25.387  33.716  19.521  1.00  0.00    -0.003 C 
ATOM     10  C   UNL     1      24.875  32.365  20.022  1.00  0.00     0.004 C 
ENDBRANCH   8   9
ENDBRANCH   7   8
ENDBRANCH   1   7
TORSDOF 6
ENDMDL
MODEL 7
REMARK VINA RESULT:    -3.364      2.158      5.044
REMARK INTER + INTRA:          -4.769
REMARK INTER:                  -4.453
REMARK INTRA:                  -0.316
REMARK UNBOUND:                -0.225
REMARK SMILES CCCCCCCC(=O)[O-]
REMARK SMILES IDX 5 1 6 2 7 3 8 4 9 5 10 6 4 7 3 8 2 9 1 10
REMARK H PARENT
REMARK Flexibility Score: inf
ROOT
ATOM      1  C   UNL     1      30.225  34.304  23.550  1.00  0.00     0.000 C 
ENDROOT
BRANCH   1   2
ATOM      2  C   UNL     1      29.592  32.985  23.085  1.00  0.00     0.006 C 
BRANCH   2   3
ATOM      3  C   UNL     1      28.201  33.192  22.470  1.00  0.00     0.053 C 
BRANCH   3   4
ATOM      4  C   UNL     1      28.252  33.197  20.973  1.00  0.00     0.041 C 
ATOM      5  O   UNL     1      29.345  33.016  20.374  1.00  0.00    -0.550 OA
ATOM      6  O   UNL     1      27.085  33.370  20.239  1.00  0.00    -0.550 OA
ENDBRANCH   3   4
ENDBRANCH   2   3
ENDBRANCH   1   2
BRANCH   1   7
ATOM      7  C   UNL     1      31.710  34.365  23.169  1.00  0.00     0.000 C 
BRANCH   7   8
ATOM      8  C   UNL     1      32.228  32.982  22.748  1.00  0.00    -0.000 C 
BRANCH   8   9
ATOM      9  C   UNL     1      33.689  33.018  22.274  1.00  0.00    -0.003 C 
ATOM     10  C   UNL     1      33.854  32.541  20.831  1.00  0.00     0.004 C 
ENDBRANCH   8   9
ENDBRANCH   7   8
ENDBRANCH   1   7
TORSDOF 6
ENDMDL
MODEL 8
REMARK VINA RESULT:    -3.253     15.421     17.321
REMARK INTER + INTRA:          -4.619
REMARK INTER:                  -4.022
REMARK INTRA:                  -0.597
REMARK UNBOUND:                -0.225
REMARK SMILES CCCCCCCC(=O)[O-]
REMARK SMILES IDX 5 1 6 2 7 3 8 4 9 5 10 6 4 7 3 8 2 9 1 10
REMARK H PARENT
REMARK Flexibility Score: inf
ROOT
ATOM      1  C   UNL     1      40.546  23.398  30.726  1.00  0.00     0.000 C 
ENDROOT
BRANCH   1   2
ATOM      2  C   UNL     1      39.709  24.535  30.122  1.00  0.00     0.006 C 
BRANCH   2   3
ATOM      3  C   UNL     1      38.286  24.082  29.766  1.00  0.00     0.053 C 
BRANCH   3   4
ATOM      4  C   UNL     1      38.292  22.992  28.739  1.00  0.00     0.041 C 
ATOM      5  O   UNL     1      37.947  21.822  29.053  1.00  0.00    -0.550 OA
ATOM      6  O   UNL     1      38.651  23.275  27.427  1.00  0.00    -0.550 OA
ENDBRANCH   3   4
ENDBRANCH   2   3
ENDBRANCH   1   2
BRANCH   1   7
ATOM      7  C   UNL     1      40.849  23.663  32.206  1.00  0.00     0.000 C 
BRANCH   7   8
ATOM      8  C   UNL     1      39.824  22.964  33.111  1.00  0.00    -0.000 C 
BRANCH   8   9
ATOM      9  C   UNL     1      39.233  21.701  32.467  1.00  0.00    -0.003 C 
ATOM     10  C   UNL     1      37.710  21.635  32.582  1.00  0.00     0.004 C 
ENDBRANCH   8   9
ENDBRANCH   7   8
ENDBRANCH   1   7
TORSDOF 6
ENDMDL
