MODEL 1
REMARK VINA RESULT:    -4.391      0.000      0.000
REMARK INTER + INTRA:          -6.039
REMARK INTER:                  -6.188
REMARK INTRA:                   0.150
REMARK UNBOUND:                 0.150
REMARK SMILES CC1=CCC(=C(C)C)C(=O)CC(C)=CCC1
REMARK SMILES IDX 12 1 14 2 13 3 15 4 16 5 2 6 1 7 3 8 11 10 9 11 10 12 5 13
REMARK SMILES IDX 6 14 7 15 8 16 4 17
REMARK H PARENT
REMARK Flexibility Score: 60.00
ROOT
ATOM      1  C   UNL     1       2.488  -9.243   8.646  1.00  0.00    -0.070 C 
ATOM      2  C   UNL     1       2.099  -9.945   9.738  1.00  0.00    -0.027 C 
ATOM      3  C   UNL     1       3.798  -9.615   7.999  1.00  0.00     0.039 C 
ENDROOT
BRANCH   2   4
ATOM      4  C   UNL     1       0.814  -9.727  10.497  1.00  0.00     0.032 C 
BRANCH   4   5
ATOM      5  C   UNL     1       0.998  -8.683  11.611  1.00  0.00     0.034 C 
BRANCH   5   6
ATOM      6  C   UNL     1      -0.205  -7.776  11.789  1.00  0.00    -0.077 C 
ATOM      7  C   UNL     1      -1.448  -8.344  12.429  1.00  0.00     0.039 C 
ATOM      8  C   UNL     1      -0.261  -6.500  11.330  1.00  0.00    -0.023 CG0
ATOM      9  G   UNL     1       0.881  -5.689  10.755  1.00  0.00     0.000 G0
ENDBRANCH   5   6
ENDBRANCH   4   5
ENDBRANCH   2   4
BRANCH   1  10
ATOM     10  C   UNL     1       1.674  -8.100   8.055  1.00  0.00     0.111 C 
BRANCH  10  11
ATOM     11  C   UNL     1       2.048  -6.774   8.674  1.00  0.00     0.163 C 
ATOM     12  O   UNL     1       3.275  -6.483   8.689  1.00  0.00    -0.294 OA
BRANCH  11  13
ATOM     13  C   UNL     1       1.049  -5.798   9.243  1.00  0.00    -0.002 C 
ATOM     14  C   UNL     1       0.278  -5.015   8.423  1.00  0.00    -0.069 C 
ATOM     15  C   UNL     1      -0.779  -4.084   8.982  1.00  0.00     0.039 C 
ATOM     16  C   UNL     1       0.470  -4.989   6.923  1.00  0.00     0.039 C 
BRANCH  13  17
ATOM     17  C   UNL     1       0.892  -5.695  10.758  1.00  0.00     0.066 CG0
ATOM     18  G   UNL     1      -0.250  -6.508  11.328  1.00  0.00     0.000 G0
ENDBRANCH  13  17
ENDBRANCH  11  13
ENDBRANCH  10  11
ENDBRANCH   1  10
TORSDOF 0
ENDMDL
MODEL 2
REMARK VINA RESULT:    -4.126      8.455     10.786
REMARK INTER + INTRA:          -5.665
REMARK INTER:                  -5.732
REMARK INTRA:                   0.067
REMARK UNBOUND:                 0.150
REMARK SMILES CC1=CCC(=C(C)C)C(=O)CC(C)=CCC1
REMARK SMILES IDX 12 1 14 2 13 3 15 4 16 5 2 6 1 7 3 8 11 10 9 11 10 12 5 13
REMARK SMILES IDX 6 14 7 15 8 16 4 17
REMARK H PARENT
REMARK Flexibility Score: 60.00
ROOT
ATOM      1  C   UNL     1       2.224   4.307  10.894  1.00  0.00    -0.070 C 
ATOM      2  C   UNL     1       1.494   3.444  10.146  1.00  0.00    -0.027 C 
ATOM      3  C   UNL     1       3.106   5.293  10.170  1.00  0.00     0.039 C 
ENDROOT
BRANCH   2   4
ATOM      4  C   UNL     1       0.545   2.409  10.697  1.00  0.00     0.032 C 
BRANCH   4   5
ATOM      5  C   UNL     1       1.266   1.074  10.950  1.00  0.00     0.034 C 
BRANCH   5   6
ATOM      6  C   UNL     1       0.837   0.394  12.236  1.00  0.00    -0.077 C 
ATOM      7  C   UNL     1      -0.515  -0.276  12.282  1.00  0.00     0.039 C 
ATOM      8  C   UNL     1       1.563   0.422  13.382  1.00  0.00    -0.023 CG0
ATOM      9  G   UNL     1       2.976   0.936  13.551  1.00  0.00     0.000 G0
ENDBRANCH   5   6
ENDBRANCH   4   5
ENDBRANCH   2   4
BRANCH   1  10
ATOM     10  C   UNL     1       2.204   4.318  12.416  1.00  0.00     0.111 C 
BRANCH  10  11
ATOM     11  C   UNL     1       3.309   3.466  12.993  1.00  0.00     0.163 C 
ATOM     12  O   UNL     1       4.478   3.703  12.582  1.00  0.00    -0.294 OA
BRANCH  11  13
ATOM     13  C   UNL     1       3.091   2.387  14.023  1.00  0.00    -0.002 C 
ATOM     14  C   UNL     1       2.979   2.692  15.355  1.00  0.00    -0.069 C 
ATOM     15  C   UNL     1       2.688   1.624  16.390  1.00  0.00     0.039 C 
ATOM     16  C   UNL     1       3.190   4.095  15.880  1.00  0.00     0.039 C 
BRANCH  13  17
ATOM     17  C   UNL     1       2.985   0.934  13.566  1.00  0.00     0.066 CG0
ATOM     18  G   UNL     1       1.568   0.435  13.383  1.00  0.00     0.000 G0
ENDBRANCH  13  17
ENDBRANCH  11  13
ENDBRANCH  10  11
ENDBRANCH   1  10
TORSDOF 0
ENDMDL
MODEL 3
REMARK VINA RESULT:    -3.972      7.714     10.502
REMARK INTER + INTRA:          -5.447
REMARK INTER:                  -6.686
REMARK INTRA:                   1.238
REMARK UNBOUND:                 0.150
REMARK SMILES CC1=CCC(=C(C)C)C(=O)CC(C)=CCC1
REMARK SMILES IDX 12 1 14 2 13 3 15 4 16 5 2 6 1 7 3 8 11 10 9 11 10 12 5 13
REMARK SMILES IDX 6 14 7 15 8 16 4 17
REMARK H PARENT
REMARK Flexibility Score: 60.00
ROOT
ATOM      1  C   UNL     1      -6.823  -4.913  12.936  1.00  0.00    -0.070 C 
ATOM      2  C   UNL     1      -6.793  -5.073  11.590  1.00  0.00    -0.027 C 
ATOM      3  C   UNL     1      -6.296  -3.619  13.503  1.00  0.00     0.039 C 
ENDROOT
BRANCH   2   4
ATOM      4  C   UNL     1      -7.297  -6.287  10.850  1.00  0.00     0.032 C 
BRANCH   4   5
ATOM      5  C   UNL     1      -6.175  -7.320  10.651  1.00  0.00     0.034 C 
BRANCH   5   6
ATOM      6  C   UNL     1      -6.151  -8.395  11.722  1.00  0.00    -0.077 C 
ATOM      7  C   UNL     1      -4.819  -8.972  12.136  1.00  0.00     0.039 C 
ATOM      8  C   UNL     1      -7.268  -8.932  12.275  1.00  0.00    -0.023 CG0
ATOM      9  G   UNL     1      -8.692  -8.451  12.097  1.00  0.00     0.000 G0
ENDBRANCH   5   6
ENDBRANCH   4   5
ENDBRANCH   2   4
BRANCH   1  10
ATOM     10  C   UNL     1      -7.349  -5.976  13.892  1.00  0.00     0.111 C 
BRANCH  10  11
ATOM     11  C   UNL     1      -8.791  -6.317  13.603  1.00  0.00     0.163 C 
ATOM     12  O   UNL     1      -9.609  -5.357  13.596  1.00  0.00    -0.294 OA
BRANCH  11  13
ATOM     13  C   UNL     1      -9.284  -7.712  13.311  1.00  0.00    -0.002 C 
ATOM     14  C   UNL     1     -10.235  -8.307  14.099  1.00  0.00    -0.069 C 
ATOM     15  C   UNL     1     -10.789  -9.679  13.773  1.00  0.00     0.039 C 
ATOM     16  C   UNL     1     -10.749  -7.659  15.366  1.00  0.00     0.039 C 
BRANCH  13  17
ATOM     17  C   UNL     1      -8.716  -8.465  12.109  1.00  0.00     0.066 CG0
ATOM     18  G   UNL     1      -7.285  -8.927  12.278  1.00  0.00     0.000 G0
ENDBRANCH  13  17
ENDBRANCH  11  13
ENDBRANCH  10  11
ENDBRANCH   1  10
TORSDOF 0
ENDMDL
MODEL 4
REMARK VINA RESULT:    -3.939     10.296     13.474
REMARK INTER + INTRA:          -5.402
REMARK INTER:                  -5.576
REMARK INTRA:                   0.175
REMARK UNBOUND:                 0.150
REMARK SMILES CC1=CCC(=C(C)C)C(=O)CC(C)=CCC1
REMARK SMILES IDX 12 1 14 2 13 3 15 4 16 5 2 6 1 7 3 8 11 10 9 11 10 12 5 13
REMARK SMILES IDX 6 14 7 15 8 16 4 17
REMARK H PARENT
REMARK Flexibility Score: 60.00
ROOT
ATOM      1  C   UNL     1       0.985   4.407   1.742  1.00  0.00    -0.070 C 
ATOM      2  C   UNL     1       0.356   5.588   1.521  1.00  0.00    -0.027 C 
ATOM      3  C   UNL     1       2.219   4.105   0.930  1.00  0.00     0.039 C 
ENDROOT
BRANCH   2   4
ATOM      4  C   UNL     1      -0.873   6.065   2.254  1.00  0.00     0.032 C 
BRANCH   4   5
ATOM      5  C   UNL     1      -2.132   5.332   1.760  1.00  0.00     0.034 C 
BRANCH   5   6
ATOM      6  C   UNL     1      -3.028   4.850   2.886  1.00  0.00    -0.077 C 
ATOM      7  C   UNL     1      -3.607   5.871   3.835  1.00  0.00     0.039 C 
ATOM      8  C   UNL     1      -3.274   3.541   3.144  1.00  0.00    -0.023 CG0
ATOM      9  G   UNL     1      -2.893   2.357   2.283  1.00  0.00     0.000 G0
ENDBRANCH   5   6
ENDBRANCH   4   5
ENDBRANCH   2   4
BRANCH   1  10
ATOM     10  C   UNL     1       0.500   3.379   2.755  1.00  0.00     0.111 C 
BRANCH  10  11
ATOM     11  C   UNL     1      -0.284   2.272   2.090  1.00  0.00     0.163 C 
ATOM     12  O   UNL     1       0.183   1.818   1.010  1.00  0.00    -0.294 OA
BRANCH  11  13
ATOM     13  C   UNL     1      -1.555   1.686   2.652  1.00  0.00    -0.002 C 
ATOM     14  C   UNL     1      -1.527   0.595   3.481  1.00  0.00    -0.069 C 
ATOM     15  C   UNL     1      -2.791   0.043   4.107  1.00  0.00     0.039 C 
ATOM     16  C   UNL     1      -0.247  -0.155   3.778  1.00  0.00     0.039 C 
BRANCH  13  17
ATOM     17  C   UNL     1      -2.892   2.331   2.293  1.00  0.00     0.066 CG0
ATOM     18  G   UNL     1      -3.257   3.532   3.139  1.00  0.00     0.000 G0
ENDBRANCH  13  17
ENDBRANCH  11  13
ENDBRANCH  10  11
ENDBRANCH   1  10
TORSDOF 0
ENDMDL
MODEL 5
REMARK VINA RESULT:    -3.886      1.758      3.971
REMARK INTER + INTRA:          -5.326
REMARK INTER:                  -6.169
REMARK INTRA:                   0.843
REMARK UNBOUND:                 0.150
REMARK SMILES CC1=CCC(=C(C)C)C(=O)CC(C)=CCC1
REMARK SMILES IDX 12 1 14 2 13 3 15 4 16 5 2 6 1 7 3 8 11 10 9 11 10 12 5 13
REMARK SMILES IDX 6 14 7 15 8 16 4 17
REMARK H PARENT
REMARK Flexibility Score: 60.00
ROOT
ATOM      1  C   UNL     1       2.545  -8.388   9.502  1.00  0.00    -0.070 C 
ATOM      2  C   UNL     1       2.817  -7.375   8.643  1.00  0.00    -0.027 C 
ATOM      3  C   UNL     1       2.721  -9.800   9.003  1.00  0.00     0.039 C 
ENDROOT
BRANCH   2   4
ATOM      4  C   UNL     1       2.720  -5.907   8.975  1.00  0.00     0.032 C 
BRANCH   4   5
ATOM      5  C   UNL     1       1.638  -5.217   8.126  1.00  0.00     0.034 C 
BRANCH   5   6
ATOM      6  C   UNL     1       0.420  -6.088   7.880  1.00  0.00    -0.077 C 
ATOM      7  C   UNL     1       0.132  -6.545   6.471  1.00  0.00     0.039 C 
ATOM      8  C   UNL     1      -0.478  -6.415   8.843  1.00  0.00    -0.023 CG0
ATOM      9  G   UNL     1      -0.350  -6.163  10.330  1.00  0.00     0.000 G0
ENDBRANCH   5   6
ENDBRANCH   4   5
ENDBRANCH   2   4
BRANCH   1  10
ATOM     10  C   UNL     1       2.066  -8.166  10.930  1.00  0.00     0.111 C 
BRANCH  10  11
ATOM     11  C   UNL     1       0.598  -8.490  11.079  1.00  0.00     0.163 C 
ATOM     12  O   UNL     1       0.293  -9.712  11.146  1.00  0.00    -0.294 OA
BRANCH  11  13
ATOM     13  C   UNL     1      -0.489  -7.449  11.168  1.00  0.00    -0.002 C 
ATOM     14  C   UNL     1      -1.569  -7.621  11.996  1.00  0.00    -0.069 C 
ATOM     15  C   UNL     1      -2.629  -6.550  12.146  1.00  0.00     0.039 C 
ATOM     16  C   UNL     1      -1.796  -8.904  12.764  1.00  0.00     0.039 C 
BRANCH  13  17
ATOM     17  C   UNL     1      -0.374  -6.181  10.326  1.00  0.00     0.066 CG0
ATOM     18  G   UNL     1      -0.495  -6.404   8.834  1.00  0.00     0.000 G0
ENDBRANCH  13  17
ENDBRANCH  11  13
ENDBRANCH  10  11
ENDBRANCH   1  10
TORSDOF 0
ENDMDL
MODEL 6
REMARK VINA RESULT:    -3.829      8.293     10.295
REMARK INTER + INTRA:          -5.245
REMARK INTER:                  -5.662
REMARK INTRA:                   0.416
REMARK UNBOUND:                 0.150
REMARK SMILES CC1=CCC(=C(C)C)C(=O)CC(C)=CCC1
REMARK SMILES IDX 12 1 14 2 13 3 15 4 16 5 2 6 1 7 3 8 11 10 9 11 10 12 5 13
REMARK SMILES IDX 6 14 7 15 8 16 4 17
REMARK H PARENT
REMARK Flexibility Score: 60.00
ROOT
ATOM      1  C   UNL     1       3.651   3.801  13.102  1.00  0.00    -0.070 C 
ATOM      2  C   UNL     1       4.080   3.787  14.388  1.00  0.00    -0.027 C 
ATOM      3  C   UNL     1       4.666   4.083  12.024  1.00  0.00     0.039 C 
ENDROOT
BRANCH   2   4
ATOM      4  C   UNL     1       3.213   3.501  15.588  1.00  0.00     0.032 C 
BRANCH   4   5
ATOM      5  C   UNL     1       3.088   1.988  15.835  1.00  0.00     0.034 C 
BRANCH   5   6
ATOM      6  C   UNL     1       1.660   1.482  15.756  1.00  0.00    -0.077 C 
ATOM      7  C   UNL     1       0.722   1.787  16.898  1.00  0.00     0.039 C 
ATOM      8  C   UNL     1       1.194   0.695  14.753  1.00  0.00    -0.023 CG0
ATOM      9  G   UNL     1       1.908   0.346  13.464  1.00  0.00     0.000 G0
ENDBRANCH   5   6
ENDBRANCH   4   5
ENDBRANCH   2   4
BRANCH   1  10
ATOM     10  C   UNL     1       2.201   3.557  12.703  1.00  0.00     0.111 C 
BRANCH  10  11
ATOM     11  C   UNL     1       2.069   2.353  11.802  1.00  0.00     0.163 C 
ATOM     12  O   UNL     1       2.560   2.455  10.644  1.00  0.00    -0.294 OA
BRANCH  11  13
ATOM     13  C   UNL     1       1.411   1.060  12.215  1.00  0.00    -0.002 C 
ATOM     14  C   UNL     1       0.373   0.531  11.492  1.00  0.00    -0.069 C 
ATOM     15  C   UNL     1      -0.247  -0.802  11.857  1.00  0.00     0.039 C 
ATOM     16  C   UNL     1      -0.250   1.265  10.325  1.00  0.00     0.039 C 
BRANCH  13  17
ATOM     17  C   UNL     1       1.921   0.330  13.455  1.00  0.00     0.066 CG0
ATOM     18  G   UNL     1       1.212   0.702  14.739  1.00  0.00     0.000 G0
ENDBRANCH  13  17
ENDBRANCH  11  13
ENDBRANCH  10  11
ENDBRANCH   1  10
TORSDOF 0
ENDMDL
MODEL 7
REMARK VINA RESULT:    -3.828      5.730      8.096
REMARK INTER + INTRA:          -5.244
REMARK INTER:                  -5.589
REMARK INTRA:                   0.345
REMARK UNBOUND:                 0.150
REMARK SMILES CC1=CCC(=C(C)C)C(=O)CC(C)=CCC1
REMARK SMILES IDX 12 1 14 2 13 3 15 4 16 5 2 6 1 7 3 8 11 10 9 11 10 12 5 13
REMARK SMILES IDX 6 14 7 15 8 16 4 17
REMARK H PARENT
REMARK Flexibility Score: 60.00
ROOT
ATOM      1  C   UNL     1      -7.435  -8.653  12.651  1.00  0.00    -0.070 C 
ATOM      2  C   UNL     1      -8.092  -7.649  13.282  1.00  0.00    -0.027 C 
ATOM      3  C   UNL     1      -8.254  -9.798  12.109  1.00  0.00     0.039 C 
ENDROOT
BRANCH   2   4
ATOM      4  C   UNL     1      -7.441  -6.420  13.864  1.00  0.00     0.032 C 
BRANCH   4   5
ATOM      5  C   UNL     1      -7.658  -5.196  12.958  1.00  0.00     0.034 C 
BRANCH   5   6
ATOM      6  C   UNL     1      -6.452  -4.278  12.888  1.00  0.00    -0.077 C 
ATOM      7  C   UNL     1      -6.309  -3.195  13.929  1.00  0.00     0.039 C 
ATOM      8  C   UNL     1      -5.531  -4.318  11.892  1.00  0.00    -0.023 CG0
ATOM      9  G   UNL     1      -5.409  -5.368  10.809  1.00  0.00     0.000 G0
ENDBRANCH   5   6
ENDBRANCH   4   5
ENDBRANCH   2   4
BRANCH   1  10
ATOM     10  C   UNL     1      -5.923  -8.682  12.475  1.00  0.00     0.111 C 
BRANCH  10  11
ATOM     11  C   UNL     1      -5.496  -7.960  11.220  1.00  0.00     0.163 C 
ATOM     12  O   UNL     1      -5.845  -8.477  10.123  1.00  0.00    -0.294 OA
BRANCH  11  13
ATOM     13  C   UNL     1      -4.709  -6.674  11.214  1.00  0.00    -0.002 C 
ATOM     14  C   UNL     1      -3.386  -6.651  11.574  1.00  0.00    -0.069 C 
ATOM     15  C   UNL     1      -2.568  -5.377  11.503  1.00  0.00     0.039 C 
ATOM     16  C   UNL     1      -2.678  -7.875  12.112  1.00  0.00     0.039 C 
BRANCH  13  17
ATOM     17  C   UNL     1      -5.402  -5.380  10.790  1.00  0.00     0.066 CG0
ATOM     18  G   UNL     1      -5.532  -4.348  11.890  1.00  0.00     0.000 G0
ENDBRANCH  13  17
ENDBRANCH  11  13
ENDBRANCH  10  11
ENDBRANCH   1  10
TORSDOF 0
ENDMDL
MODEL 8
REMARK VINA RESULT:    -3.730      8.652     10.858
REMARK INTER + INTRA:          -5.107
REMARK INTER:                  -5.393
REMARK INTRA:                   0.286
REMARK UNBOUND:                 0.150
REMARK SMILES CC1=CCC(=C(C)C)C(=O)CC(C)=CCC1
REMARK SMILES IDX 12 1 14 2 13 3 15 4 16 5 2 6 1 7 3 8 11 10 9 11 10 12 5 13
REMARK SMILES IDX 6 14 7 15 8 16 4 17
REMARK H PARENT
REMARK Flexibility Score: 60.00
ROOT
ATOM      1  C   UNL     1       3.515   3.082  15.116  1.00  0.00    -0.070 C 
ATOM      2  C   UNL     1       3.566   3.703  13.912  1.00  0.00    -0.027 C 
ATOM      3  C   UNL     1       2.561   3.625  16.149  1.00  0.00     0.039 C 
ENDROOT
BRANCH   2   4
ATOM      4  C   UNL     1       4.440   3.285  12.757  1.00  0.00     0.032 C 
BRANCH   4   5
ATOM      5  C   UNL     1       3.727   2.252  11.867  1.00  0.00     0.034 C 
BRANCH   5   6
ATOM      6  C   UNL     1       2.215   2.368  11.906  1.00  0.00    -0.077 C 
ATOM      7  C   UNL     1       1.564   3.548  11.227  1.00  0.00     0.039 C 
ATOM      8  C   UNL     1       1.411   1.514  12.588  1.00  0.00    -0.023 CG0
ATOM      9  G   UNL     1       1.818   0.215  13.250  1.00  0.00     0.000 G0
ENDBRANCH   5   6
ENDBRANCH   4   5
ENDBRANCH   2   4
BRANCH   1  10
ATOM     10  C   UNL     1       4.378   1.878  15.471  1.00  0.00     0.111 C 
BRANCH  10  11
ATOM     11  C   UNL     1       3.807   0.599  14.906  1.00  0.00     0.163 C 
ATOM     12  O   UNL     1       4.633  -0.312  14.624  1.00  0.00    -0.294 OA
BRANCH  11  13
ATOM     13  C   UNL     1       2.336   0.359  14.685  1.00  0.00    -0.002 C 
ATOM     14  C   UNL     1       1.464   0.281  15.741  1.00  0.00    -0.069 C 
ATOM     15  C   UNL     1      -0.026   0.112  15.527  1.00  0.00     0.039 C 
ATOM     16  C   UNL     1       1.938   0.304  17.177  1.00  0.00     0.039 C 
BRANCH  13  17
ATOM     17  C   UNL     1       1.813   0.211  13.258  1.00  0.00     0.066 CG0
ATOM     18  G   UNL     1       1.394   1.511  12.605  1.00  0.00     0.000 G0
ENDBRANCH  13  17
ENDBRANCH  11  13
ENDBRANCH  10  11
ENDBRANCH   1  10
TORSDOF 0
ENDMDL
MODEL 9
REMARK VINA RESULT:    -3.716      7.067      9.222
REMARK INTER + INTRA:          -5.087
REMARK INTER:                  -5.404
REMARK INTRA:                   0.317
REMARK UNBOUND:                 0.150
REMARK SMILES CC1=CCC(=C(C)C)C(=O)CC(C)=CCC1
REMARK SMILES IDX 12 1 14 2 13 3 15 4 16 5 2 6 1 7 3 8 11 10 9 11 10 12 5 13
REMARK SMILES IDX 6 14 7 15 8 16 4 17
REMARK H PARENT
REMARK Flexibility Score: 60.00
ROOT
ATOM      1  C   UNL     1      -5.777  -6.648   2.334  1.00  0.00    -0.070 C 
ATOM      2  C   UNL     1      -4.890  -7.669   2.422  1.00  0.00    -0.027 C 
ATOM      3  C   UNL     1      -7.002  -6.852   1.480  1.00  0.00     0.039 C 
ENDROOT
BRANCH   2   4
ATOM      4  C   UNL     1      -3.626  -7.651   3.245  1.00  0.00     0.032 C 
BRANCH   4   5
ATOM      5  C   UNL     1      -2.543  -6.786   2.579  1.00  0.00     0.034 C 
BRANCH   5   6
ATOM      6  C   UNL     1      -1.738  -5.964   3.568  1.00  0.00    -0.077 C 
ATOM      7  C   UNL     1      -0.994  -6.683   4.666  1.00  0.00     0.039 C 
ATOM      8  C   UNL     1      -1.713  -4.607   3.576  1.00  0.00    -0.023 CG0
ATOM      9  G   UNL     1      -2.289  -3.681   2.526  1.00  0.00     0.000 G0
ENDBRANCH   5   6
ENDBRANCH   4   5
ENDBRANCH   2   4
BRANCH   1  10
ATOM     10  C   UNL     1      -5.589  -5.315   3.045  1.00  0.00     0.111 C 
BRANCH  10  11
ATOM     11  C   UNL     1      -4.816  -4.336   2.193  1.00  0.00     0.163 C 
ATOM     12  O   UNL     1      -5.076  -4.332   0.959  1.00  0.00    -0.294 OA
BRANCH  11  13
ATOM     13  C   UNL     1      -3.789  -3.375   2.736  1.00  0.00    -0.002 C 
ATOM     14  C   UNL     1      -4.165  -2.247   3.418  1.00  0.00    -0.069 C 
ATOM     15  C   UNL     1      -3.140  -1.313   4.030  1.00  0.00     0.039 C 
ATOM     16  C   UNL     1      -5.614  -1.836   3.556  1.00  0.00     0.039 C 
BRANCH  13  17
ATOM     17  C   UNL     1      -2.306  -3.676   2.527  1.00  0.00     0.066 CG0
ATOM     18  G   UNL     1      -1.704  -4.609   3.556  1.00  0.00     0.000 G0
ENDBRANCH  13  17
ENDBRANCH  11  13
ENDBRANCH  10  11
ENDBRANCH   1  10
TORSDOF 0
ENDMDL
