MODEL 1
REMARK VINA RESULT:    -6.019      0.000      0.000
REMARK INTER + INTRA:         -14.265
REMARK INTER:                 -13.056
REMARK INTRA:                  -1.208
REMARK UNBOUND:                -1.208
REMARK SMILES CCCCCCCCCCCCCCCCCCCCCC(=O)[O-]
REMARK SMILES IDX 12 1 11 2 10 3 9 4 8 5 7 6 6 7 5 8 4 9 3 10 2 11 1 12 13 13
REMARK SMILES IDX 14 14 15 15 16 16 17 17 18 18 19 19 20 20 21 21 22 22 23 23
REMARK SMILES IDX 24 24
REMARK H PARENT
REMARK Flexibility Score: inf
ROOT
ATOM      1  C   UNL     1      -9.245  62.255  47.085  1.00  0.00     0.000 C 
ENDROOT
BRANCH   1   2
ATOM      2  C   UNL     1      -9.146  62.555  45.582  1.00  0.00     0.000 C 
BRANCH   2   3
ATOM      3  C   UNL     1      -9.591  61.369  44.712  1.00  0.00     0.000 C 
BRANCH   3   4
ATOM      4  C   UNL     1     -10.316  61.812  43.432  1.00  0.00    -0.000 C 
BRANCH   4   5
ATOM      5  C   UNL     1      -9.718  63.117  42.886  1.00  0.00    -0.000 C 
BRANCH   5   6
ATOM      6  C   UNL     1      -9.997  63.316  41.387  1.00  0.00    -0.000 C 
BRANCH   6   7
ATOM      7  C   UNL     1      -9.759  62.040  40.565  1.00  0.00    -0.000 C 
BRANCH   7   8
ATOM      8  C   UNL     1     -11.007  61.667  39.756  1.00  0.00    -0.000 C 
BRANCH   8   9
ATOM      9  C   UNL     1     -11.680  60.410  40.329  1.00  0.00    -0.000 C 
BRANCH   9  10
ATOM     10  C   UNL     1     -13.200  60.380  40.087  1.00  0.00    -0.000 C 
BRANCH  10  11
ATOM     11  C   UNL     1     -13.618  60.139  38.624  1.00  0.00    -0.003 C 
ATOM     12  C   UNL     1     -15.046  60.594  38.326  1.00  0.00     0.004 C 
ENDBRANCH  10  11
ENDBRANCH   9  10
ENDBRANCH   8   9
ENDBRANCH   7   8
ENDBRANCH   6   7
ENDBRANCH   5   6
ENDBRANCH   4   5
ENDBRANCH   3   4
ENDBRANCH   2   3
ENDBRANCH   1   2
BRANCH   1  13
ATOM     13  C   UNL     1      -9.160  63.547  47.907  1.00  0.00     0.000 C 
BRANCH  13  14
ATOM     14  C   UNL     1      -8.149  63.408  49.051  1.00  0.00     0.000 C 
BRANCH  14  15
ATOM     15  C   UNL     1      -8.002  64.730  49.819  1.00  0.00     0.000 C 
BRANCH  15  16
ATOM     16  C   UNL     1      -6.535  65.153  50.016  1.00  0.00     0.000 C 
BRANCH  16  17
ATOM     17  C   UNL     1      -6.230  65.844  51.357  1.00  0.00     0.000 C 
BRANCH  17  18
ATOM     18  C   UNL     1      -7.186  65.425  52.483  1.00  0.00     0.000 C 
BRANCH  18  19
ATOM     19  C   UNL     1      -6.643  64.202  53.238  1.00  0.00     0.000 C 
BRANCH  19  20
ATOM     20  C   UNL     1      -7.760  63.303  53.798  1.00  0.00     0.006 C 
BRANCH  20  21
ATOM     21  C   UNL     1      -7.496  61.797  53.640  1.00  0.00     0.053 C 
BRANCH  21  22
ATOM     22  C   UNL     1      -6.446  61.311  54.591  1.00  0.00     0.041 C 
ATOM     23  O   UNL     1      -6.708  61.194  55.816  1.00  0.00    -0.550 OA
ATOM     24  O   UNL     1      -5.190  60.950  54.119  1.00  0.00    -0.550 OA
ENDBRANCH  21  22
ENDBRANCH  20  21
ENDBRANCH  19  20
ENDBRANCH  18  19
ENDBRANCH  17  18
ENDBRANCH  16  17
ENDBRANCH  15  16
ENDBRANCH  14  15
ENDBRANCH  13  14
ENDBRANCH   1  13
TORSDOF 20
ENDMDL
MODEL 2
REMARK VINA RESULT:    -5.989      4.717     12.267
REMARK INTER + INTRA:         -14.200
REMARK INTER:                 -12.469
REMARK INTRA:                  -1.731
REMARK UNBOUND:                -1.208
REMARK SMILES CCCCCCCCCCCCCCCCCCCCCC(=O)[O-]
REMARK SMILES IDX 12 1 11 2 10 3 9 4 8 5 7 6 6 7 5 8 4 9 3 10 2 11 1 12 13 13
REMARK SMILES IDX 14 14 15 15 16 16 17 17 18 18 19 19 20 20 21 21 22 22 23 23
REMARK SMILES IDX 24 24
REMARK H PARENT
REMARK Flexibility Score: inf
ROOT
ATOM      1  C   UNL     1      -9.174  63.469  47.845  1.00  0.00     0.000 C 
ENDROOT
BRANCH   1   2
ATOM      2  C   UNL     1      -8.219  63.264  49.030  1.00  0.00     0.000 C 
BRANCH   2   3
ATOM      3  C   UNL     1      -7.650  64.587  49.566  1.00  0.00     0.000 C 
BRANCH   3   4
ATOM      4  C   UNL     1      -6.182  64.467  50.005  1.00  0.00    -0.000 C 
BRANCH   4   5
ATOM      5  C   UNL     1      -5.783  65.639  50.914  1.00  0.00    -0.000 C 
BRANCH   5   6
ATOM      6  C   UNL     1      -6.776  65.860  52.066  1.00  0.00    -0.000 C 
BRANCH   6   7
ATOM      7  C   UNL     1      -6.568  64.874  53.226  1.00  0.00    -0.000 C 
BRANCH   7   8
ATOM      8  C   UNL     1      -7.817  64.011  53.444  1.00  0.00    -0.000 C 
BRANCH   8   9
ATOM      9  C   UNL     1      -7.496  62.520  53.259  1.00  0.00    -0.000 C 
BRANCH   9  10
ATOM     10  C   UNL     1      -5.984  62.227  53.257  1.00  0.00    -0.000 C 
BRANCH  10  11
ATOM     11  C   UNL     1      -5.528  61.173  54.283  1.00  0.00    -0.003 C 
ATOM     12  C   UNL     1      -6.452  61.082  55.498  1.00  0.00     0.004 C 
ENDBRANCH  10  11
ENDBRANCH   9  10
ENDBRANCH   8   9
ENDBRANCH   7   8
ENDBRANCH   6   7
ENDBRANCH   5   6
ENDBRANCH   4   5
ENDBRANCH   3   4
ENDBRANCH   2   3
ENDBRANCH   1   2
BRANCH   1  13
ATOM     13  C   UNL     1      -9.151  62.254  46.909  1.00  0.00     0.000 C 
BRANCH  13  14
ATOM     14  C   UNL     1      -9.213  62.689  45.440  1.00  0.00     0.000 C 
BRANCH  14  15
ATOM     15  C   UNL     1      -9.553  61.500  44.528  1.00  0.00     0.000 C 
BRANCH  15  16
ATOM     16  C   UNL     1     -10.227  61.924  43.211  1.00  0.00     0.000 C 
BRANCH  16  17
ATOM     17  C   UNL     1      -9.874  63.342  42.725  1.00  0.00     0.000 C 
BRANCH  17  18
ATOM     18  C   UNL     1      -9.824  63.458  41.195  1.00  0.00     0.000 C 
BRANCH  18  19
ATOM     19  C   UNL     1      -9.638  62.080  40.543  1.00  0.00     0.000 C 
BRANCH  19  20
ATOM     20  C   UNL     1     -10.455  61.916  39.249  1.00  0.00     0.006 C 
BRANCH  20  21
ATOM     21  C   UNL     1     -11.972  62.086  39.434  1.00  0.00     0.053 C 
BRANCH  21  22
ATOM     22  C   UNL     1     -12.642  60.790  39.772  1.00  0.00     0.041 C 
ATOM     23  O   UNL     1     -13.035  60.024  38.854  1.00  0.00    -0.550 OA
ATOM     24  O   UNL     1     -12.798  60.410  41.098  1.00  0.00    -0.550 OA
ENDBRANCH  21  22
ENDBRANCH  20  21
ENDBRANCH  19  20
ENDBRANCH  18  19
ENDBRANCH  17  18
ENDBRANCH  16  17
ENDBRANCH  15  16
ENDBRANCH  14  15
ENDBRANCH  13  14
ENDBRANCH   1  13
TORSDOF 20
ENDMDL
MODEL 3
REMARK VINA RESULT:    -5.900      0.946      2.002
REMARK INTER + INTRA:         -14.006
REMARK INTER:                 -12.559
REMARK INTRA:                  -1.447
REMARK UNBOUND:                -1.208
REMARK SMILES CCCCCCCCCCCCCCCCCCCCCC(=O)[O-]
REMARK SMILES IDX 12 1 11 2 10 3 9 4 8 5 7 6 6 7 5 8 4 9 3 10 2 11 1 12 13 13
REMARK SMILES IDX 14 14 15 15 16 16 17 17 18 18 19 19 20 20 21 21 22 22 23 23
REMARK SMILES IDX 24 24
REMARK H PARENT
REMARK Flexibility Score: inf
ROOT
ATOM      1  C   UNL     1      -9.415  61.507  45.193  1.00  0.00     0.000 C 
ENDROOT
BRANCH   1   2
ATOM      2  C   UNL     1     -10.004  61.932  43.840  1.00  0.00     0.000 C 
BRANCH   2   3
ATOM      3  C   UNL     1      -9.629  63.372  43.457  1.00  0.00     0.000 C 
BRANCH   3   4
ATOM      4  C   UNL     1      -9.867  63.671  41.969  1.00  0.00    -0.000 C 
BRANCH   4   5
ATOM      5  C   UNL     1      -9.620  62.422  41.111  1.00  0.00    -0.000 C 
BRANCH   5   6
ATOM      6  C   UNL     1     -10.052  62.612  39.648  1.00  0.00    -0.000 C 
BRANCH   6   7
ATOM      7  C   UNL     1     -11.306  61.799  39.290  1.00  0.00    -0.000 C 
BRANCH   7   8
ATOM      8  C   UNL     1     -11.523  60.655  40.287  1.00  0.00    -0.000 C 
BRANCH   8   9
ATOM      9  C   UNL     1     -12.913  60.025  40.111  1.00  0.00    -0.000 C 
BRANCH   9  10
ATOM     10  C   UNL     1     -13.382  60.006  38.644  1.00  0.00    -0.000 C 
BRANCH  10  11
ATOM     11  C   UNL     1     -14.812  60.530  38.416  1.00  0.00    -0.003 C 
ATOM     12  C   UNL     1     -14.920  62.050  38.544  1.00  0.00     0.004 C 
ENDBRANCH  10  11
ENDBRANCH   9  10
ENDBRANCH   8   9
ENDBRANCH   7   8
ENDBRANCH   6   7
ENDBRANCH   5   6
ENDBRANCH   4   5
ENDBRANCH   3   4
ENDBRANCH   2   3
ENDBRANCH   1   2
BRANCH   1  13
ATOM     13  C   UNL     1      -8.889  62.721  45.966  1.00  0.00     0.000 C 
BRANCH  13  14
ATOM     14  C   UNL     1      -9.005  62.504  47.480  1.00  0.00     0.000 C 
BRANCH  14  15
ATOM     15  C   UNL     1      -9.466  63.788  48.186  1.00  0.00     0.000 C 
BRANCH  15  16
ATOM     16  C   UNL     1      -8.349  64.461  49.003  1.00  0.00     0.000 C 
BRANCH  16  17
ATOM     17  C   UNL     1      -7.669  63.556  50.047  1.00  0.00     0.000 C 
BRANCH  17  18
ATOM     18  C   UNL     1      -6.410  64.185  50.661  1.00  0.00     0.000 C 
BRANCH  18  19
ATOM     19  C   UNL     1      -6.776  65.151  51.797  1.00  0.00     0.000 C 
BRANCH  19  20
ATOM     20  C   UNL     1      -6.571  64.536  53.193  1.00  0.00     0.006 C 
BRANCH  20  21
ATOM     21  C   UNL     1      -7.778  63.737  53.714  1.00  0.00     0.053 C 
BRANCH  21  22
ATOM     22  C   UNL     1      -7.449  62.287  53.898  1.00  0.00     0.041 C 
ATOM     23  O   UNL     1      -6.861  61.900  54.940  1.00  0.00    -0.550 OA
ATOM     24  O   UNL     1      -7.828  61.358  52.937  1.00  0.00    -0.550 OA
ENDBRANCH  21  22
ENDBRANCH  20  21
ENDBRANCH  19  20
ENDBRANCH  18  19
ENDBRANCH  17  18
ENDBRANCH  16  17
ENDBRANCH  15  16
ENDBRANCH  14  15
ENDBRANCH  13  14
ENDBRANCH   1  13
TORSDOF 20
ENDMDL
MODEL 4
REMARK VINA RESULT:    -5.822      1.315      3.106
REMARK INTER + INTRA:         -13.838
REMARK INTER:                 -12.515
REMARK INTRA:                  -1.323
REMARK UNBOUND:                -1.208
REMARK SMILES CCCCCCCCCCCCCCCCCCCCCC(=O)[O-]
REMARK SMILES IDX 12 1 11 2 10 3 9 4 8 5 7 6 6 7 5 8 4 9 3 10 2 11 1 12 13 13
REMARK SMILES IDX 14 14 15 15 16 16 17 17 18 18 19 19 20 20 21 21 22 22 23 23
REMARK SMILES IDX 24 24
REMARK H PARENT
REMARK Flexibility Score: inf
ROOT
ATOM      1  C   UNL     1      -9.942  62.366  42.812  1.00  0.00     0.000 C 
ENDROOT
BRANCH   1   2
ATOM      2  C   UNL     1      -9.644  63.872  42.800  1.00  0.00     0.000 C 
BRANCH   2   3
ATOM      3  C   UNL     1     -10.133  64.563  41.518  1.00  0.00     0.000 C 
BRANCH   3   4
ATOM      4  C   UNL     1      -8.983  65.140  40.679  1.00  0.00    -0.000 C 
BRANCH   4   5
ATOM      5  C   UNL     1      -8.704  64.260  39.451  1.00  0.00    -0.000 C 
BRANCH   5   6
ATOM      6  C   UNL     1      -9.989  63.719  38.805  1.00  0.00    -0.000 C 
BRANCH   6   7
ATOM      7  C   UNL     1     -10.145  62.200  38.977  1.00  0.00    -0.000 C 
BRANCH   7   8
ATOM      8  C   UNL     1     -11.616  61.820  39.193  1.00  0.00    -0.000 C 
BRANCH   8   9
ATOM      9  C   UNL     1     -11.741  60.616  40.139  1.00  0.00    -0.000 C 
BRANCH   9  10
ATOM     10  C   UNL     1     -12.882  59.660  39.747  1.00  0.00    -0.000 C 
BRANCH  10  11
ATOM     11  C   UNL     1     -13.867  60.221  38.705  1.00  0.00    -0.003 C 
ATOM     12  C   UNL     1     -15.100  60.870  39.334  1.00  0.00     0.004 C 
ENDBRANCH  10  11
ENDBRANCH   9  10
ENDBRANCH   8   9
ENDBRANCH   7   8
ENDBRANCH   6   7
ENDBRANCH   5   6
ENDBRANCH   4   5
ENDBRANCH   3   4
ENDBRANCH   2   3
ENDBRANCH   1   2
BRANCH   1  13
ATOM     13  C   UNL     1      -9.852  61.801  44.234  1.00  0.00     0.000 C 
BRANCH  13  14
ATOM     14  C   UNL     1      -9.167  62.795  45.180  1.00  0.00     0.000 C 
BRANCH  14  15
ATOM     15  C   UNL     1      -9.109  62.241  46.612  1.00  0.00     0.000 C 
BRANCH  15  16
ATOM     16  C   UNL     1      -9.162  63.341  47.686  1.00  0.00     0.000 C 
BRANCH  16  17
ATOM     17  C   UNL     1      -8.245  63.112  48.901  1.00  0.00     0.000 C 
BRANCH  17  18
ATOM     18  C   UNL     1      -7.521  64.387  49.358  1.00  0.00     0.000 C 
BRANCH  18  19
ATOM     19  C   UNL     1      -7.843  64.706  50.826  1.00  0.00     0.000 C 
BRANCH  19  20
ATOM     20  C   UNL     1      -6.996  63.886  51.815  1.00  0.00     0.006 C 
BRANCH  20  21
ATOM     21  C   UNL     1      -7.460  63.987  53.278  1.00  0.00     0.053 C 
BRANCH  21  22
ATOM     22  C   UNL     1      -7.698  62.638  53.882  1.00  0.00     0.041 C 
ATOM     23  O   UNL     1      -7.691  61.610  53.157  1.00  0.00    -0.550 OA
ATOM     24  O   UNL     1      -7.890  62.511  55.252  1.00  0.00    -0.550 OA
ENDBRANCH  21  22
ENDBRANCH  20  21
ENDBRANCH  19  20
ENDBRANCH  18  19
ENDBRANCH  17  18
ENDBRANCH  16  17
ENDBRANCH  15  16
ENDBRANCH  14  15
ENDBRANCH  13  14
ENDBRANCH   1  13
TORSDOF 20
ENDMDL
MODEL 5
REMARK VINA RESULT:    -5.815      4.679     12.010
REMARK INTER + INTRA:         -13.821
REMARK INTER:                 -12.353
REMARK INTRA:                  -1.468
REMARK UNBOUND:                -1.208
REMARK SMILES CCCCCCCCCCCCCCCCCCCCCC(=O)[O-]
REMARK SMILES IDX 12 1 11 2 10 3 9 4 8 5 7 6 6 7 5 8 4 9 3 10 2 11 1 12 13 13
REMARK SMILES IDX 14 14 15 15 16 16 17 17 18 18 19 19 20 20 21 21 22 22 23 23
REMARK SMILES IDX 24 24
REMARK H PARENT
REMARK Flexibility Score: inf
ROOT
ATOM      1  C   UNL     1      -9.305  62.842  45.222  1.00  0.00     0.000 C 
ENDROOT
BRANCH   1   2
ATOM      2  C   UNL     1      -8.942  62.288  46.607  1.00  0.00     0.000 C 
BRANCH   2   3
ATOM      3  C   UNL     1      -9.271  63.269  47.742  1.00  0.00     0.000 C 
BRANCH   3   4
ATOM      4  C   UNL     1      -8.218  63.258  48.861  1.00  0.00    -0.000 C 
BRANCH   4   5
ATOM      5  C   UNL     1      -7.982  64.674  49.407  1.00  0.00    -0.000 C 
BRANCH   5   6
ATOM      6  C   UNL     1      -6.500  64.954  49.707  1.00  0.00    -0.000 C 
BRANCH   6   7
ATOM      7  C   UNL     1      -6.303  65.824  50.957  1.00  0.00    -0.000 C 
BRANCH   7   8
ATOM      8  C   UNL     1      -7.203  65.350  52.105  1.00  0.00    -0.000 C 
BRANCH   8   9
ATOM      9  C   UNL     1      -6.460  64.365  53.019  1.00  0.00    -0.000 C 
BRANCH   9  10
ATOM     10  C   UNL     1      -6.669  62.894  52.613  1.00  0.00    -0.000 C 
BRANCH  10  11
ATOM     11  C   UNL     1      -7.301  62.006  53.700  1.00  0.00    -0.003 C 
ATOM     12  C   UNL     1      -8.122  62.798  54.717  1.00  0.00     0.004 C 
ENDBRANCH  10  11
ENDBRANCH   9  10
ENDBRANCH   8   9
ENDBRANCH   7   8
ENDBRANCH   6   7
ENDBRANCH   5   6
ENDBRANCH   4   5
ENDBRANCH   3   4
ENDBRANCH   2   3
ENDBRANCH   1   2
BRANCH   1  13
ATOM     13  C   UNL     1      -9.767  61.718  44.287  1.00  0.00     0.000 C 
BRANCH  13  14
ATOM     14  C   UNL     1     -10.012  62.247  42.868  1.00  0.00     0.000 C 
BRANCH  14  15
ATOM     15  C   UNL     1      -9.774  63.764  42.798  1.00  0.00     0.000 C 
BRANCH  15  16
ATOM     16  C   UNL     1      -9.823  64.315  41.362  1.00  0.00     0.000 C 
BRANCH  16  17
ATOM     17  C   UNL     1      -8.961  63.551  40.340  1.00  0.00     0.000 C 
BRANCH  17  18
ATOM     18  C   UNL     1      -9.789  62.681  39.384  1.00  0.00     0.000 C 
BRANCH  18  19
ATOM     19  C   UNL     1     -11.253  63.145  39.345  1.00  0.00     0.000 C 
BRANCH  19  20
ATOM     20  C   UNL     1     -12.236  61.996  39.060  1.00  0.00     0.006 C 
BRANCH  20  21
ATOM     21  C   UNL     1     -12.027  60.754  39.942  1.00  0.00     0.053 C 
BRANCH  21  22
ATOM     22  C   UNL     1     -13.302  60.308  40.589  1.00  0.00     0.041 C 
ATOM     23  O   UNL     1     -13.344  60.104  41.830  1.00  0.00    -0.550 OA
ATOM     24  O   UNL     1     -14.454  60.155  39.828  1.00  0.00    -0.550 OA
ENDBRANCH  21  22
ENDBRANCH  20  21
ENDBRANCH  19  20
ENDBRANCH  18  19
ENDBRANCH  17  18
ENDBRANCH  16  17
ENDBRANCH  15  16
ENDBRANCH  14  15
ENDBRANCH  13  14
ENDBRANCH   1  13
TORSDOF 20
ENDMDL
MODEL 6
REMARK VINA RESULT:    -5.806      1.309      3.208
REMARK INTER + INTRA:         -13.802
REMARK INTER:                 -12.687
REMARK INTRA:                  -1.116
REMARK UNBOUND:                -1.208
REMARK SMILES CCCCCCCCCCCCCCCCCCCCCC(=O)[O-]
REMARK SMILES IDX 12 1 11 2 10 3 9 4 8 5 7 6 6 7 5 8 4 9 3 10 2 11 1 12 13 13
REMARK SMILES IDX 14 14 15 15 16 16 17 17 18 18 19 19 20 20 21 21 22 22 23 23
REMARK SMILES IDX 24 24
REMARK H PARENT
REMARK Flexibility Score: inf
ROOT
ATOM      1  C   UNL     1     -10.198  61.830  43.667  1.00  0.00     0.000 C 
ENDROOT
BRANCH   1   2
ATOM      2  C   UNL     1      -9.769  63.171  43.054  1.00  0.00     0.000 C 
BRANCH   2   3
ATOM      3  C   UNL     1      -9.932  63.203  41.527  1.00  0.00     0.000 C 
BRANCH   3   4
ATOM      4  C   UNL     1      -9.644  61.844  40.871  1.00  0.00    -0.000 C 
BRANCH   4   5
ATOM      5  C   UNL     1     -10.753  61.469  39.876  1.00  0.00    -0.000 C 
BRANCH   5   6
ATOM      6  C   UNL     1     -11.982  60.852  40.564  1.00  0.00    -0.000 C 
BRANCH   6   7
ATOM      7  C   UNL     1     -12.604  59.707  39.750  1.00  0.00    -0.000 C 
BRANCH   7   8
ATOM      8  C   UNL     1     -13.615  60.245  38.729  1.00  0.00    -0.000 C 
BRANCH   8   9
ATOM      9  C   UNL     1     -14.013  61.692  39.056  1.00  0.00    -0.000 C 
BRANCH   9  10
ATOM     10  C   UNL     1     -15.313  62.130  38.357  1.00  0.00    -0.000 C 
BRANCH  10  11
ATOM     11  C   UNL     1     -16.343  61.006  38.143  1.00  0.00    -0.003 C 
ATOM     12  C   UNL     1     -17.148  60.684  39.402  1.00  0.00     0.004 C 
ENDBRANCH  10  11
ENDBRANCH   9  10
ENDBRANCH   8   9
ENDBRANCH   7   8
ENDBRANCH   6   7
ENDBRANCH   5   6
ENDBRANCH   4   5
ENDBRANCH   3   4
ENDBRANCH   2   3
ENDBRANCH   1   2
BRANCH   1  13
ATOM     13  C   UNL     1      -9.461  61.571  44.986  1.00  0.00     0.000 C 
BRANCH  13  14
ATOM     14  C   UNL     1      -9.013  62.886  45.635  1.00  0.00     0.000 C 
BRANCH  14  15
ATOM     15  C   UNL     1      -8.944  62.748  47.164  1.00  0.00     0.000 C 
BRANCH  15  16
ATOM     16  C   UNL     1      -9.527  63.964  47.905  1.00  0.00     0.000 C 
BRANCH  16  17
ATOM     17  C   UNL     1      -8.762  64.385  49.173  1.00  0.00     0.000 C 
BRANCH  17  18
ATOM     18  C   UNL     1      -7.552  63.488  49.472  1.00  0.00     0.000 C 
BRANCH  18  19
ATOM     19  C   UNL     1      -6.373  64.315  50.005  1.00  0.00     0.000 C 
BRANCH  19  20
ATOM     20  C   UNL     1      -6.369  64.429  51.540  1.00  0.00     0.006 C 
BRANCH  20  21
ATOM     21  C   UNL     1      -6.156  63.093  52.271  1.00  0.00     0.053 C 
BRANCH  21  22
ATOM     22  C   UNL     1      -7.252  62.812  53.252  1.00  0.00     0.041 C 
ATOM     23  O   UNL     1      -7.751  63.749  53.929  1.00  0.00    -0.550 OA
ATOM     24  O   UNL     1      -7.750  61.523  53.392  1.00  0.00    -0.550 OA
ENDBRANCH  21  22
ENDBRANCH  20  21
ENDBRANCH  19  20
ENDBRANCH  18  19
ENDBRANCH  17  18
ENDBRANCH  16  17
ENDBRANCH  15  16
ENDBRANCH  14  15
ENDBRANCH  13  14
ENDBRANCH   1  13
TORSDOF 20
ENDMDL
MODEL 7
REMARK VINA RESULT:    -5.776      4.730     12.297
REMARK INTER + INTRA:         -13.739
REMARK INTER:                 -12.340
REMARK INTRA:                  -1.399
REMARK UNBOUND:                -1.208
REMARK SMILES CCCCCCCCCCCCCCCCCCCCCC(=O)[O-]
REMARK SMILES IDX 12 1 11 2 10 3 9 4 8 5 7 6 6 7 5 8 4 9 3 10 2 11 1 12 13 13
REMARK SMILES IDX 14 14 15 15 16 16 17 17 18 18 19 19 20 20 21 21 22 22 23 23
REMARK SMILES IDX 24 24
REMARK H PARENT
REMARK Flexibility Score: inf
ROOT
ATOM      1  C   UNL     1      -9.149  62.303  46.878  1.00  0.00     0.000 C 
ENDROOT
BRANCH   1   2
ATOM      2  C   UNL     1      -9.244  63.575  47.733  1.00  0.00     0.000 C 
BRANCH   2   3
ATOM      3  C   UNL     1      -8.472  63.458  49.057  1.00  0.00     0.000 C 
BRANCH   3   4
ATOM      4  C   UNL     1      -8.055  64.824  49.623  1.00  0.00    -0.000 C 
BRANCH   4   5
ATOM      5  C   UNL     1      -6.529  64.989  49.591  1.00  0.00    -0.000 C 
BRANCH   5   6
ATOM      6  C   UNL     1      -5.934  65.280  50.978  1.00  0.00    -0.000 C 
BRANCH   6   7
ATOM      7  C   UNL     1      -7.003  65.655  52.015  1.00  0.00    -0.000 C 
BRANCH   7   8
ATOM      8  C   UNL     1      -6.901  64.763  53.259  1.00  0.00    -0.000 C 
BRANCH   8   9
ATOM      9  C   UNL     1      -6.848  63.278  52.870  1.00  0.00    -0.000 C 
BRANCH   9  10
ATOM     10  C   UNL     1      -7.655  62.378  53.824  1.00  0.00    -0.000 C 
BRANCH  10  11
ATOM     11  C   UNL     1      -6.904  61.133  54.329  1.00  0.00    -0.003 C 
ATOM     12  C   UNL     1      -5.434  61.408  54.647  1.00  0.00     0.004 C 
ENDBRANCH  10  11
ENDBRANCH   9  10
ENDBRANCH   8   9
ENDBRANCH   7   8
ENDBRANCH   6   7
ENDBRANCH   5   6
ENDBRANCH   4   5
ENDBRANCH   3   4
ENDBRANCH   2   3
ENDBRANCH   1   2
BRANCH   1  13
ATOM     13  C   UNL     1      -9.211  62.643  45.384  1.00  0.00     0.000 C 
BRANCH  13  14
ATOM     14  C   UNL     1      -9.570  61.406  44.552  1.00  0.00     0.000 C 
BRANCH  14  15
ATOM     15  C   UNL     1     -10.319  61.804  43.270  1.00  0.00     0.000 C 
BRANCH  15  16
ATOM     16  C   UNL     1      -9.868  63.164  42.708  1.00  0.00     0.000 C 
BRANCH  16  17
ATOM     17  C   UNL     1      -9.586  63.182  41.194  1.00  0.00     0.000 C 
BRANCH  17  18
ATOM     18  C   UNL     1      -9.787  61.815  40.527  1.00  0.00     0.000 C 
BRANCH  18  19
ATOM     19  C   UNL     1     -10.607  61.949  39.234  1.00  0.00     0.000 C 
BRANCH  19  20
ATOM     20  C   UNL     1     -11.885  62.785  39.422  1.00  0.00     0.006 C 
BRANCH  20  21
ATOM     21  C   UNL     1     -13.189  62.006  39.181  1.00  0.00     0.053 C 
BRANCH  21  22
ATOM     22  C   UNL     1     -13.118  60.614  39.730  1.00  0.00     0.041 C 
ATOM     23  O   UNL     1     -13.068  59.628  38.949  1.00  0.00    -0.550 OA
ATOM     24  O   UNL     1     -13.068  60.407  41.102  1.00  0.00    -0.550 OA
ENDBRANCH  21  22
ENDBRANCH  20  21
ENDBRANCH  19  20
ENDBRANCH  18  19
ENDBRANCH  17  18
ENDBRANCH  16  17
ENDBRANCH  15  16
ENDBRANCH  14  15
ENDBRANCH  13  14
ENDBRANCH   1  13
TORSDOF 20
ENDMDL
MODEL 8
REMARK VINA RESULT:    -5.726      0.944      1.748
REMARK INTER + INTRA:         -13.630
REMARK INTER:                 -12.107
REMARK INTRA:                  -1.523
REMARK UNBOUND:                -1.208
REMARK SMILES CCCCCCCCCCCCCCCCCCCCCC(=O)[O-]
REMARK SMILES IDX 12 1 11 2 10 3 9 4 8 5 7 6 6 7 5 8 4 9 3 10 2 11 1 12 13 13
REMARK SMILES IDX 14 14 15 15 16 16 17 17 18 18 19 19 20 20 21 21 22 22 23 23
REMARK SMILES IDX 24 24
REMARK H PARENT
REMARK Flexibility Score: inf
ROOT
ATOM      1  C   UNL     1      -9.614  63.755  48.104  1.00  0.00     0.000 C 
ENDROOT
BRANCH   1   2
ATOM      2  C   UNL     1      -8.949  62.666  47.250  1.00  0.00     0.000 C 
BRANCH   2   3
ATOM      3  C   UNL     1      -9.095  62.923  45.742  1.00  0.00     0.000 C 
BRANCH   3   4
ATOM      4  C   UNL     1      -9.312  61.632  44.938  1.00  0.00    -0.000 C 
BRANCH   4   5
ATOM      5  C   UNL     1     -10.408  61.823  43.879  1.00  0.00    -0.000 C 
BRANCH   5   6
ATOM      6  C   UNL     1      -9.842  61.926  42.453  1.00  0.00    -0.000 C 
BRANCH   6   7
ATOM      7  C   UNL     1      -9.823  63.368  41.925  1.00  0.00    -0.000 C 
BRANCH   7   8
ATOM      8  C   UNL     1     -10.030  63.401  40.406  1.00  0.00    -0.000 C 
BRANCH   8   9
ATOM      9  C   UNL     1     -10.447  62.021  39.876  1.00  0.00    -0.000 C 
BRANCH   9  10
ATOM     10  C   UNL     1     -11.672  62.080  38.946  1.00  0.00    -0.000 C 
BRANCH  10  11
ATOM     11  C   UNL     1     -12.713  60.968  39.176  1.00  0.00    -0.003 C 
ATOM     12  C   UNL     1     -12.400  60.097  40.392  1.00  0.00     0.004 C 
ENDBRANCH  10  11
ENDBRANCH   9  10
ENDBRANCH   8   9
ENDBRANCH   7   8
ENDBRANCH   6   7
ENDBRANCH   5   6
ENDBRANCH   4   5
ENDBRANCH   3   4
ENDBRANCH   2   3
ENDBRANCH   1   2
BRANCH   1  13
ATOM     13  C   UNL     1      -8.612  64.364  49.092  1.00  0.00     0.000 C 
BRANCH  13  14
ATOM     14  C   UNL     1      -7.496  63.368  49.429  1.00  0.00     0.000 C 
BRANCH  14  15
ATOM     15  C   UNL     1      -6.258  64.094  49.978  1.00  0.00     0.000 C 
BRANCH  15  16
ATOM     16  C   UNL     1      -6.595  65.447  50.630  1.00  0.00     0.000 C 
BRANCH  16  17
ATOM     17  C   UNL     1      -6.455  65.485  52.163  1.00  0.00     0.000 C 
BRANCH  17  18
ATOM     18  C   UNL     1      -6.570  64.099  52.813  1.00  0.00     0.000 C 
BRANCH  18  19
ATOM     19  C   UNL     1      -7.942  63.916  53.479  1.00  0.00     0.000 C 
BRANCH  19  20
ATOM     20  C   UNL     1      -7.958  62.771  54.508  1.00  0.00     0.006 C 
BRANCH  20  21
ATOM     21  C   UNL     1      -7.387  61.443  53.983  1.00  0.00     0.053 C 
BRANCH  21  22
ATOM     22  C   UNL     1      -6.317  60.902  54.880  1.00  0.00     0.041 C 
ATOM     23  O   UNL     1      -5.218  61.505  54.989  1.00  0.00    -0.550 OA
ATOM     24  O   UNL     1      -6.547  59.752  55.625  1.00  0.00    -0.550 OA
ENDBRANCH  21  22
ENDBRANCH  20  21
ENDBRANCH  19  20
ENDBRANCH  18  19
ENDBRANCH  17  18
ENDBRANCH  16  17
ENDBRANCH  15  16
ENDBRANCH  14  15
ENDBRANCH  13  14
ENDBRANCH   1  13
TORSDOF 20
ENDMDL
MODEL 9
REMARK VINA RESULT:    -5.708      4.808     12.503
REMARK INTER + INTRA:         -13.591
REMARK INTER:                 -12.459
REMARK INTRA:                  -1.132
REMARK UNBOUND:                -1.208
REMARK SMILES CCCCCCCCCCCCCCCCCCCCCC(=O)[O-]
REMARK SMILES IDX 12 1 11 2 10 3 9 4 8 5 7 6 6 7 5 8 4 9 3 10 2 11 1 12 13 13
REMARK SMILES IDX 14 14 15 15 16 16 17 17 18 18 19 19 20 20 21 21 22 22 23 23
REMARK SMILES IDX 24 24
REMARK H PARENT
REMARK Flexibility Score: inf
ROOT
ATOM      1  C   UNL     1      -8.118  63.262  48.852  1.00  0.00     0.000 C 
ENDROOT
BRANCH   1   2
ATOM      2  C   UNL     1      -8.004  64.487  49.770  1.00  0.00     0.000 C 
BRANCH   2   3
ATOM      3  C   UNL     1      -6.666  64.541  50.523  1.00  0.00     0.000 C 
BRANCH   3   4
ATOM      4  C   UNL     1      -6.528  65.795  51.399  1.00  0.00    -0.000 C 
BRANCH   4   5
ATOM      5  C   UNL     1      -6.670  65.444  52.887  1.00  0.00    -0.000 C 
BRANCH   5   6
ATOM      6  C   UNL     1      -7.965  64.673  53.193  1.00  0.00    -0.000 C 
BRANCH   6   7
ATOM      7  C   UNL     1      -7.716  63.396  54.010  1.00  0.00    -0.000 C 
BRANCH   7   8
ATOM      8  C   UNL     1      -7.404  62.208  53.091  1.00  0.00    -0.000 C 
BRANCH   8   9
ATOM      9  C   UNL     1      -6.443  61.222  53.771  1.00  0.00    -0.000 C 
BRANCH   9  10
ATOM     10  C   UNL     1      -6.553  61.237  55.307  1.00  0.00    -0.000 C 
BRANCH  10  11
ATOM     11  C   UNL     1      -5.537  60.341  56.038  1.00  0.00    -0.003 C 
ATOM     12  C   UNL     1      -6.039  58.912  56.246  1.00  0.00     0.004 C 
ENDBRANCH  10  11
ENDBRANCH   9  10
ENDBRANCH   8   9
ENDBRANCH   7   8
ENDBRANCH   6   7
ENDBRANCH   5   6
ENDBRANCH   4   5
ENDBRANCH   3   4
ENDBRANCH   2   3
ENDBRANCH   1   2
BRANCH   1  13
ATOM     13  C   UNL     1      -8.987  63.574  47.628  1.00  0.00     0.000 C 
BRANCH  13  14
ATOM     14  C   UNL     1      -9.197  62.323  46.767  1.00  0.00     0.000 C 
BRANCH  14  15
ATOM     15  C   UNL     1      -9.237  62.683  45.274  1.00  0.00     0.000 C 
BRANCH  15  16
ATOM     16  C   UNL     1      -9.698  61.515  44.384  1.00  0.00     0.000 C 
BRANCH  16  17
ATOM     17  C   UNL     1     -10.159  61.914  42.971  1.00  0.00     0.000 C 
BRANCH  17  18
ATOM     18  C   UNL     1      -9.819  63.368  42.613  1.00  0.00     0.000 C 
BRANCH  18  19
ATOM     19  C   UNL     1      -9.398  63.488  41.141  1.00  0.00     0.000 C 
BRANCH  19  20
ATOM     20  C   UNL     1      -9.894  62.313  40.280  1.00  0.00     0.006 C 
BRANCH  20  21
ATOM     21  C   UNL     1     -11.172  62.613  39.479  1.00  0.00     0.053 C 
BRANCH  21  22
ATOM     22  C   UNL     1     -12.146  61.476  39.535  1.00  0.00     0.041 C 
ATOM     23  O   UNL     1     -13.289  61.597  39.023  1.00  0.00    -0.550 OA
ATOM     24  O   UNL     1     -11.778  60.270  40.119  1.00  0.00    -0.550 OA
ENDBRANCH  21  22
ENDBRANCH  20  21
ENDBRANCH  19  20
ENDBRANCH  18  19
ENDBRANCH  17  18
ENDBRANCH  16  17
ENDBRANCH  15  16
ENDBRANCH  14  15
ENDBRANCH  13  14
ENDBRANCH   1  13
TORSDOF 20
ENDMDL
