MODEL 1
REMARK VINA RESULT:    -2.994      0.000      0.000
REMARK INTER + INTRA:          -3.355
REMARK INTER:                  -3.344
REMARK INTRA:                  -0.011
REMARK UNBOUND:                -0.011
REMARK SMILES CCCC(=O)[O-]
REMARK SMILES IDX 3 1 4 2 5 3 6 4 2 5 1 6
REMARK H PARENT
REMARK Flexibility Score: inf
ROOT
ATOM      1  C   UNL     1      -4.008 -13.282   7.009  1.00  0.00     0.052 C 
ENDROOT
BRANCH   1   2
ATOM      2  C   UNL     1      -2.682 -13.978   6.975  1.00  0.00     0.041 C 
ATOM      3  O   UNL     1      -2.282 -14.531   5.916  1.00  0.00    -0.550 OA
ATOM      4  O   UNL     1      -1.903 -14.045   8.123  1.00  0.00    -0.550 OA
ENDBRANCH   1   2
BRANCH   1   5
ATOM      5  C   UNL     1      -5.158 -14.231   6.649  1.00  0.00     0.003 C 
ATOM      6  C   UNL     1      -6.382 -13.486   6.117  1.00  0.00     0.004 C 
ENDBRANCH   1   5
TORSDOF 2
ENDMDL
MODEL 2
REMARK VINA RESULT:    -2.939      2.380      3.547
REMARK INTER + INTRA:          -3.293
REMARK INTER:                  -3.275
REMARK INTRA:                  -0.019
REMARK UNBOUND:                -0.011
REMARK SMILES CCCC(=O)[O-]
REMARK SMILES IDX 3 1 4 2 5 3 6 4 2 5 1 6
REMARK H PARENT
REMARK Flexibility Score: inf
ROOT
ATOM      1  C   UNL     1      -4.184 -13.256   6.975  1.00  0.00     0.052 C 
ENDROOT
BRANCH   1   2
ATOM      2  C   UNL     1      -5.490 -13.905   6.631  1.00  0.00     0.041 C 
ATOM      3  O   UNL     1      -5.728 -15.086   6.998  1.00  0.00    -0.550 OA
ATOM      4  O   UNL     1      -6.429 -13.216   5.875  1.00  0.00    -0.550 OA
ENDBRANCH   1   2
BRANCH   1   5
ATOM      5  C   UNL     1      -2.998 -14.194   6.715  1.00  0.00     0.003 C 
ATOM      6  C   UNL     1      -1.878 -14.011   7.740  1.00  0.00     0.004 C 
ENDBRANCH   1   5
TORSDOF 2
ENDMDL
MODEL 3
REMARK VINA RESULT:    -2.623      2.051      3.655
REMARK INTER + INTRA:          -2.941
REMARK INTER:                  -2.908
REMARK INTRA:                  -0.033
REMARK UNBOUND:                -0.011
REMARK SMILES CCCC(=O)[O-]
REMARK SMILES IDX 3 1 4 2 5 3 6 4 2 5 1 6
REMARK H PARENT
REMARK Flexibility Score: inf
ROOT
ATOM      1  C   UNL     1      -2.603 -14.272   6.828  1.00  0.00     0.052 C 
ENDROOT
BRANCH   1   2
ATOM      2  C   UNL     1      -3.846 -13.449   6.975  1.00  0.00     0.041 C 
ATOM      3  O   UNL     1      -3.793 -12.308   7.505  1.00  0.00    -0.550 OA
ATOM      4  O   UNL     1      -5.068 -13.958   6.556  1.00  0.00    -0.550 OA
ENDBRANCH   1   2
BRANCH   1   5
ATOM      5  C   UNL     1      -1.816 -14.353   8.142  1.00  0.00     0.003 C 
ATOM      6  C   UNL     1      -0.360 -13.916   7.975  1.00  0.00     0.004 C 
ENDBRANCH   1   5
TORSDOF 2
ENDMDL
MODEL 4
REMARK VINA RESULT:    -1.619     19.309     19.922
REMARK INTER + INTRA:          -1.819
REMARK INTER:                  -1.808
REMARK INTRA:                  -0.011
REMARK UNBOUND:                -0.011
REMARK SMILES CCCC(=O)[O-]
REMARK SMILES IDX 3 1 4 2 5 3 6 4 2 5 1 6
REMARK H PARENT
REMARK Flexibility Score: inf
ROOT
ATOM      1  C   UNL     1      -3.003  -4.602  25.082  1.00  0.00     0.052 C 
ENDROOT
BRANCH   1   2
ATOM      2  C   UNL     1      -1.993  -5.056  24.074  1.00  0.00     0.041 C 
ATOM      3  O   UNL     1      -1.922  -6.270  23.749  1.00  0.00    -0.550 OA
ATOM      4  O   UNL     1      -1.108  -4.142  23.518  1.00  0.00    -0.550 OA
ENDBRANCH   1   2
BRANCH   1   5
ATOM      5  C   UNL     1      -4.351  -5.310  24.896  1.00  0.00     0.003 C 
ATOM      6  C   UNL     1      -5.251  -5.179  26.125  1.00  0.00     0.004 C 
ENDBRANCH   1   5
TORSDOF 2
ENDMDL
MODEL 5
REMARK VINA RESULT:    -1.156     20.025     20.410
REMARK INTER + INTRA:          -1.302
REMARK INTER:                  -1.395
REMARK INTRA:                   0.093
REMARK UNBOUND:                -0.011
REMARK SMILES CCCC(=O)[O-]
REMARK SMILES IDX 3 1 4 2 5 3 6 4 2 5 1 6
REMARK H PARENT
REMARK Flexibility Score: inf
ROOT
ATOM      1  C   UNL     1      -3.612  -5.685  24.242  1.00  0.00     0.052 C 
ENDROOT
BRANCH   1   2
ATOM      2  C   UNL     1      -4.098  -5.022  25.495  1.00  0.00     0.041 C 
ATOM      3  O   UNL     1      -3.349  -4.229  26.125  1.00  0.00    -0.550 OA
ATOM      4  O   UNL     1      -5.366  -5.307  25.984  1.00  0.00    -0.550 OA
ENDBRANCH   1   2
BRANCH   1   5
ATOM      5  C   UNL     1      -2.080  -5.744  24.188  1.00  0.00     0.003 C 
ATOM      6  C   UNL     1      -1.475  -4.515  23.511  1.00  0.00     0.004 C 
ENDBRANCH   1   5
TORSDOF 2
ENDMDL
MODEL 6
REMARK VINA RESULT:    -0.058      1.349      2.368
REMARK INTER + INTRA:          -0.075
REMARK INTER:                  -0.346
REMARK INTRA:                   0.271
REMARK UNBOUND:                -0.011
REMARK SMILES CCCC(=O)[O-]
REMARK SMILES IDX 3 1 4 2 5 3 6 4 2 5 1 6
REMARK H PARENT
REMARK Flexibility Score: inf
ROOT
ATOM      1  C   UNL     1      -3.827 -13.893   7.127  1.00  0.00     0.052 C 
ENDROOT
BRANCH   1   2
ATOM      2  C   UNL     1      -2.400 -14.334   7.014  1.00  0.00     0.041 C 
ATOM      3  O   UNL     1      -1.580 -14.073   7.933  1.00  0.00    -0.550 OA
ATOM      4  O   UNL     1      -1.969 -15.005   5.877  1.00  0.00    -0.550 OA
ENDBRANCH   1   2
BRANCH   1   5
ATOM      5  C   UNL     1      -3.950 -12.364   7.141  1.00  0.00     0.003 C 
ATOM      6  C   UNL     1      -3.438 -11.752   8.445  1.00  0.00     0.004 C 
ENDBRANCH   1   5
TORSDOF 2
ENDMDL
