MODEL 1
REMARK VINA RESULT:    -5.235      0.000      0.000
REMARK INTER + INTRA:          -5.388
REMARK INTER:                  -5.388
REMARK INTRA:                   0.000
REMARK UNBOUND:                 0.000
REMARK SMILES Oc1ccc2[nH]ccc2c1
REMARK SMILES IDX 3 1 4 2 5 3 9 4 8 5 7 6 6 7 10 8 2 9 1 11
REMARK H PARENT 6 10 1 12
REMARK Flexibility Score: inf
ROOT
ATOM      1  C   UNL     1       4.027  27.892  55.089  1.00  0.00     0.048 A 
ATOM      2  C   UNL     1       2.875  28.498  54.555  1.00  0.00     0.030 A 
ATOM      3  C   UNL     1       1.846  28.830  55.436  1.00  0.00     0.046 A 
ATOM      4  C   UNL     1       1.941  28.582  56.779  1.00  0.00     0.003 A 
ATOM      5  C   UNL     1       0.774  29.023  57.363  1.00  0.00     0.028 A 
ATOM      6  C   UNL     1       0.012  29.530  56.315  1.00  0.00     0.083 A 
ATOM      7  N   UNL     1       0.672  29.410  55.140  1.00  0.00    -0.361 N 
ATOM      8  C   UNL     1       3.068  27.984  57.341  1.00  0.00     0.056 A 
ATOM      9  C   UNL     1       4.127  27.635  56.476  1.00  0.00     0.116 A 
ATOM     10  H   UNL     1       0.333  29.707  54.198  1.00  0.00     0.166 HD
ENDROOT
BRANCH   9  11
ATOM     11  O   UNL     1       5.279  27.034  56.979  1.00  0.00    -0.508 OA
ATOM     12  H   UNL     1       6.113  26.935  56.412  1.00  0.00     0.293 HD
ENDBRANCH   9  11
TORSDOF 1
ENDMDL
MODEL 2
REMARK VINA RESULT:    -5.081      2.510      3.593
REMARK INTER + INTRA:          -5.229
REMARK INTER:                  -5.229
REMARK INTRA:                   0.000
REMARK UNBOUND:                 0.000
REMARK SMILES Oc1ccc2[nH]ccc2c1
REMARK SMILES IDX 3 1 4 2 5 3 9 4 8 5 7 6 6 7 10 8 2 9 1 11
REMARK H PARENT 6 10 1 12
REMARK Flexibility Score: inf
ROOT
ATOM      1  C   UNL     1       1.208  28.996  55.133  1.00  0.00     0.048 A 
ATOM      2  C   UNL     1       2.484  28.535  54.760  1.00  0.00     0.030 A 
ATOM      3  C   UNL     1       3.341  28.103  55.771  1.00  0.00     0.046 A 
ATOM      4  C   UNL     1       2.967  28.120  57.088  1.00  0.00     0.003 A 
ATOM      5  C   UNL     1       4.025  27.635  57.823  1.00  0.00     0.028 A 
ATOM      6  C   UNL     1       5.014  27.342  56.889  1.00  0.00     0.083 A 
ATOM      7  N   UNL     1       4.590  27.629  55.636  1.00  0.00    -0.361 N 
ATOM      8  C   UNL     1       1.711  28.569  57.491  1.00  0.00     0.056 A 
ATOM      9  C   UNL     1       0.818  29.014  56.492  1.00  0.00     0.116 A 
ATOM     10  H   UNL     1       5.128  27.507  54.750  1.00  0.00     0.166 HD
ENDROOT
BRANCH   9  11
ATOM     11  O   UNL     1      -0.450  29.476  56.834  1.00  0.00    -0.508 OA
ATOM     12  H   UNL     1      -0.991  30.052  56.200  1.00  0.00     0.293 HD
ENDBRANCH   9  11
TORSDOF 1
ENDMDL
MODEL 3
REMARK VINA RESULT:    -5.026      1.386      2.166
REMARK INTER + INTRA:          -5.173
REMARK INTER:                  -5.173
REMARK INTRA:                   0.000
REMARK UNBOUND:                 0.000
REMARK SMILES Oc1ccc2[nH]ccc2c1
REMARK SMILES IDX 3 1 4 2 5 3 9 4 8 5 7 6 6 7 10 8 2 9 1 11
REMARK H PARENT 6 10 1 12
REMARK Flexibility Score: inf
ROOT
ATOM      1  C   UNL     1       3.520  28.069  56.668  1.00  0.00     0.048 A 
ATOM      2  C   UNL     1       2.496  28.471  57.545  1.00  0.00     0.030 A 
ATOM      3  C   UNL     1       1.297  28.911  56.985  1.00  0.00     0.046 A 
ATOM      4  C   UNL     1       1.108  28.955  55.630  1.00  0.00     0.003 A 
ATOM      5  C   UNL     1      -0.165  29.428  55.406  1.00  0.00     0.028 A 
ATOM      6  C   UNL     1      -0.697  29.654  56.672  1.00  0.00     0.083 A 
ATOM      7  N   UNL     1       0.200  29.335  57.633  1.00  0.00    -0.361 N 
ATOM      8  C   UNL     1       2.102  28.563  54.735  1.00  0.00     0.056 A 
ATOM      9  C   UNL     1       3.329  28.113  55.268  1.00  0.00     0.116 A 
ATOM     10  H   UNL     1       0.064  29.408  58.666  1.00  0.00     0.166 HD
ENDROOT
BRANCH   9  11
ATOM     11  O   UNL     1       4.360  27.709  54.423  1.00  0.00    -0.508 OA
ATOM     12  H   UNL     1       5.127  28.329  54.194  1.00  0.00     0.293 HD
ENDBRANCH   9  11
TORSDOF 1
ENDMDL
MODEL 4
REMARK VINA RESULT:    -5.002      2.604      4.032
REMARK INTER + INTRA:          -5.148
REMARK INTER:                  -5.148
REMARK INTRA:                   0.000
REMARK UNBOUND:                 0.000
REMARK SMILES Oc1ccc2[nH]ccc2c1
REMARK SMILES IDX 3 1 4 2 5 3 9 4 8 5 7 6 6 7 10 8 2 9 1 11
REMARK H PARENT 6 10 1 12
REMARK Flexibility Score: inf
ROOT
ATOM      1  C   UNL     1       0.500  29.034  56.730  1.00  0.00     0.048 A 
ATOM      2  C   UNL     1       1.480  28.559  57.622  1.00  0.00     0.030 A 
ATOM      3  C   UNL     1       2.716  28.190  57.095  1.00  0.00     0.046 A 
ATOM      4  C   UNL     1       2.983  28.281  55.755  1.00  0.00     0.003 A 
ATOM      5  C   UNL     1       4.275  27.846  55.562  1.00  0.00     0.028 A 
ATOM      6  C   UNL     1       4.738  27.504  56.829  1.00  0.00     0.083 A 
ATOM      7  N   UNL     1       3.781  27.717  57.762  1.00  0.00    -0.361 N 
ATOM      8  C   UNL     1       2.036  28.747  54.845  1.00  0.00     0.056 A 
ATOM      9  C   UNL     1       0.773  29.129  55.346  1.00  0.00     0.116 A 
ATOM     10  H   UNL     1       3.858  27.545  58.789  1.00  0.00     0.166 HD
ENDROOT
BRANCH   9  11
ATOM     11  O   UNL     1      -0.214  29.601  54.485  1.00  0.00    -0.508 OA
ATOM     12  H   UNL     1       0.001  30.259  53.745  1.00  0.00     0.293 HD
ENDBRANCH   9  11
TORSDOF 1
ENDMDL
MODEL 5
REMARK VINA RESULT:    -4.906      1.052      2.128
REMARK INTER + INTRA:          -5.050
REMARK INTER:                  -5.050
REMARK INTRA:                   0.000
REMARK UNBOUND:                 0.000
REMARK SMILES Oc1ccc2[nH]ccc2c1
REMARK SMILES IDX 3 1 4 2 5 3 9 4 8 5 7 6 6 7 10 8 2 9 1 11
REMARK H PARENT 6 10 1 12
REMARK Flexibility Score: inf
ROOT
ATOM      1  C   UNL     1       3.648  27.405  58.048  1.00  0.00     0.048 A 
ATOM      2  C   UNL     1       2.403  28.036  57.873  1.00  0.00     0.030 A 
ATOM      3  C   UNL     1       2.108  28.555  56.613  1.00  0.00     0.046 A 
ATOM      4  C   UNL     1       2.991  28.460  55.571  1.00  0.00     0.003 A 
ATOM      5  C   UNL     1       2.406  29.061  54.479  1.00  0.00     0.028 A 
ATOM      6  C   UNL     1       1.164  29.502  54.928  1.00  0.00     0.083 A 
ATOM      7  N   UNL     1       0.988  29.189  56.232  1.00  0.00    -0.361 N 
ATOM      8  C   UNL     1       4.232  27.841  55.710  1.00  0.00     0.056 A 
ATOM      9  C   UNL     1       4.563  27.306  56.974  1.00  0.00     0.116 A 
ATOM     10  H   UNL     1       0.150  29.401  56.819  1.00  0.00     0.166 HD
ENDROOT
BRANCH   9  11
ATOM     11  O   UNL     1       5.789  26.677  57.175  1.00  0.00    -0.508 OA
ATOM     12  H   UNL     1       5.927  25.702  56.937  1.00  0.00     0.293 HD
ENDBRANCH   9  11
TORSDOF 1
ENDMDL
MODEL 6
REMARK VINA RESULT:    -4.424      2.393      3.728
REMARK INTER + INTRA:          -4.554
REMARK INTER:                  -4.554
REMARK INTRA:                   0.000
REMARK UNBOUND:                 0.000
REMARK SMILES Oc1ccc2[nH]ccc2c1
REMARK SMILES IDX 3 1 4 2 5 3 9 4 8 5 7 6 6 7 10 8 2 9 1 11
REMARK H PARENT 6 10 1 12
REMARK Flexibility Score: inf
ROOT
ATOM      1  C   UNL     1       2.325  28.152  57.656  1.00  0.00     0.048 A 
ATOM      2  C   UNL     1       3.646  28.157  57.171  1.00  0.00     0.030 A 
ATOM      3  C   UNL     1       3.847  28.499  55.834  1.00  0.00     0.046 A 
ATOM      4  C   UNL     1       2.803  28.823  55.010  1.00  0.00     0.003 A 
ATOM      5  C   UNL     1       3.331  29.108  53.770  1.00  0.00     0.028 A 
ATOM      6  C   UNL     1       4.704  28.938  53.911  1.00  0.00     0.083 A 
ATOM      7  N   UNL     1       5.014  28.567  55.175  1.00  0.00    -0.361 N 
ATOM      8  C   UNL     1       1.484  28.828  55.458  1.00  0.00     0.056 A 
ATOM      9  C   UNL     1       1.245  28.485  56.806  1.00  0.00     0.116 A 
ATOM     10  H   UNL     1       5.967  28.372  55.555  1.00  0.00     0.166 HD
ENDROOT
BRANCH   9  11
ATOM     11  O   UNL     1      -0.052  28.472  57.312  1.00  0.00    -0.508 OA
ATOM     12  H   UNL     1      -0.307  27.884  58.097  1.00  0.00     0.293 HD
ENDBRANCH   9  11
TORSDOF 1
ENDMDL
MODEL 7
REMARK VINA RESULT:    -4.408      9.141      9.938
REMARK INTER + INTRA:          -4.537
REMARK INTER:                  -4.537
REMARK INTRA:                   0.000
REMARK UNBOUND:                 0.000
REMARK SMILES Oc1ccc2[nH]ccc2c1
REMARK SMILES IDX 3 1 4 2 5 3 9 4 8 5 7 6 6 7 10 8 2 9 1 11
REMARK H PARENT 6 10 1 12
REMARK Flexibility Score: inf
ROOT
ATOM      1  C   UNL     1      -6.906  28.379  57.016  1.00  0.00     0.048 A 
ATOM      2  C   UNL     1      -5.811  28.575  57.877  1.00  0.00     0.030 A 
ATOM      3  C   UNL     1      -5.710  29.802  58.533  1.00  0.00     0.046 A 
ATOM      4  C   UNL     1      -6.640  30.791  58.354  1.00  0.00     0.003 A 
ATOM      5  C   UNL     1      -6.257  31.861  59.133  1.00  0.00     0.028 A 
ATOM      6  C   UNL     1      -5.084  31.453  59.760  1.00  0.00     0.083 A 
ATOM      7  N   UNL     1      -4.755  30.194  59.390  1.00  0.00    -0.361 N 
ATOM      8  C   UNL     1      -7.736  30.629  57.509  1.00  0.00     0.056 A 
ATOM      9  C   UNL     1      -7.868  29.399  56.830  1.00  0.00     0.116 A 
ATOM     10  H   UNL     1      -3.926  29.645  59.707  1.00  0.00     0.166 HD
ENDROOT
BRANCH   9  11
ATOM     11  O   UNL     1      -8.942  29.178  55.971  1.00  0.00    -0.508 OA
ATOM     12  H   UNL     1      -8.975  29.596  55.049  1.00  0.00     0.293 HD
ENDBRANCH   9  11
TORSDOF 1
ENDMDL
MODEL 8
REMARK VINA RESULT:    -4.387      8.571      9.639
REMARK INTER + INTRA:          -4.515
REMARK INTER:                  -4.515
REMARK INTRA:                   0.000
REMARK UNBOUND:                 0.000
REMARK SMILES Oc1ccc2[nH]ccc2c1
REMARK SMILES IDX 3 1 4 2 5 3 9 4 8 5 7 6 6 7 10 8 2 9 1 11
REMARK H PARENT 6 10 1 12
REMARK Flexibility Score: inf
ROOT
ATOM      1  C   UNL     1      -6.245  31.857  59.362  1.00  0.00     0.048 A 
ATOM      2  C   UNL     1      -7.390  31.524  58.616  1.00  0.00     0.030 A 
ATOM      3  C   UNL     1      -7.374  30.328  57.899  1.00  0.00     0.046 A 
ATOM      4  C   UNL     1      -6.287  29.495  57.912  1.00  0.00     0.003 A 
ATOM      5  C   UNL     1      -6.587  28.413  57.115  1.00  0.00     0.028 A 
ATOM      6  C   UNL     1      -7.875  28.653  56.646  1.00  0.00     0.083 A 
ATOM      7  N   UNL     1      -8.351  29.824  57.129  1.00  0.00    -0.361 N 
ATOM      8  C   UNL     1      -5.138  29.795  58.641  1.00  0.00     0.056 A 
ATOM      9  C   UNL     1      -5.120  30.999  59.378  1.00  0.00     0.116 A 
ATOM     10  H   UNL     1      -9.287  30.245  56.938  1.00  0.00     0.166 HD
ENDROOT
BRANCH   9  11
ATOM     11  O   UNL     1      -4.000  31.353  60.125  1.00  0.00    -0.508 OA
ATOM     12  H   UNL     1      -4.086  31.863  60.997  1.00  0.00     0.293 HD
ENDBRANCH   9  11
TORSDOF 1
ENDMDL
MODEL 9
REMARK VINA RESULT:    -4.273      8.579      9.931
REMARK INTER + INTRA:          -4.398
REMARK INTER:                  -4.398
REMARK INTRA:                   0.000
REMARK UNBOUND:                 0.000
REMARK SMILES Oc1ccc2[nH]ccc2c1
REMARK SMILES IDX 3 1 4 2 5 3 9 4 8 5 7 6 6 7 10 8 2 9 1 11
REMARK H PARENT 6 10 1 12
REMARK Flexibility Score: inf
ROOT
ATOM      1  C   UNL     1      -5.125  29.813  58.625  1.00  0.00     0.048 A 
ATOM      2  C   UNL     1      -6.241  29.450  57.849  1.00  0.00     0.030 A 
ATOM      3  C   UNL     1      -7.334  30.316  57.838  1.00  0.00     0.046 A 
ATOM      4  C   UNL     1      -7.335  31.484  58.552  1.00  0.00     0.003 A 
ATOM      5  C   UNL     1      -8.545  32.102  58.330  1.00  0.00     0.028 A 
ATOM      6  C   UNL     1      -9.234  31.254  57.469  1.00  0.00     0.083 A 
ATOM      7  N   UNL     1      -8.489  30.164  57.171  1.00  0.00    -0.361 N 
ATOM      8  C   UNL     1      -6.245  31.873  59.330  1.00  0.00     0.056 A 
ATOM      9  C   UNL     1      -5.122  31.018  59.364  1.00  0.00     0.116 A 
ATOM     10  H   UNL     1      -8.762  29.370  56.551  1.00  0.00     0.166 HD
ENDROOT
BRANCH   9  11
ATOM     11  O   UNL     1      -4.004  31.353  60.124  1.00  0.00    -0.508 OA
ATOM     12  H   UNL     1      -3.471  32.193  59.937  1.00  0.00     0.293 HD
ENDBRANCH   9  11
TORSDOF 1
ENDMDL
