MODEL 1
REMARK VINA RESULT:    -4.493      0.000      0.000
REMARK INTER + INTRA:          -4.940
REMARK INTER:                  -4.756
REMARK INTRA:                  -0.184
REMARK UNBOUND:                -0.184
REMARK SMILES CC(C)[C@@H]1CC[C@H](C)CC1=O
REMARK SMILES IDX 8 1 7 2 6 3 5 4 4 5 10 6 11 7 9 8 2 9 1 10 3 11
REMARK H PARENT
REMARK Flexibility Score: inf
ROOT
ATOM      1  C   UNL     1     108.290 107.104 103.819  1.00  0.00     0.008 C 
ATOM      2  C   UNL     1     107.861 106.667 102.409  1.00  0.00    -0.007 C 
ATOM      3  C   UNL     1     107.536 105.158 102.340  1.00  0.00     0.004 C 
ATOM      4  C   UNL     1     106.250 104.798 103.101  1.00  0.00     0.012 C 
ATOM      5  C   UNL     1     105.035 105.610 102.593  1.00  0.00     0.058 C 
ATOM      6  C   UNL     1     105.387 107.088 102.544  1.00  0.00     0.136 C 
ATOM      7  O   UNL     1     104.599 107.942 102.924  1.00  0.00    -0.299 OA
ATOM      8  C   UNL     1     106.677 107.508 101.895  1.00  0.00     0.079 C 
ENDROOT
BRANCH   5   9
ATOM      9  C   UNL     1     103.720 105.317 103.383  1.00  0.00    -0.007 C 
ATOM     10  C   UNL     1     103.951 104.990 104.868  1.00  0.00     0.008 C 
ATOM     11  C   UNL     1     102.893 104.204 102.720  1.00  0.00     0.008 C 
ENDBRANCH   5   9
TORSDOF 1
ENDMDL
MODEL 2
REMARK VINA RESULT:    -4.488      1.705      2.995
REMARK INTER + INTRA:          -4.935
REMARK INTER:                  -4.751
REMARK INTRA:                  -0.184
REMARK UNBOUND:                -0.184
REMARK SMILES CC(C)[C@@H]1CC[C@H](C)CC1=O
REMARK SMILES IDX 8 1 7 2 6 3 5 4 4 5 10 6 11 7 9 8 2 9 1 10 3 11
REMARK H PARENT
REMARK Flexibility Score: inf
ROOT
ATOM      1  C   UNL     1     104.931 108.290 103.921  1.00  0.00     0.008 C 
ATOM      2  C   UNL     1     105.344 107.928 102.485  1.00  0.00    -0.007 C 
ATOM      3  C   UNL     1     106.848 107.593 102.379  1.00  0.00     0.004 C 
ATOM      4  C   UNL     1     107.205 106.267 103.070  1.00  0.00     0.012 C 
ATOM      5  C   UNL     1     106.374 105.087 102.513  1.00  0.00     0.058 C 
ATOM      6  C   UNL     1     104.900 105.455 102.503  1.00  0.00     0.136 C 
ATOM      7  O   UNL     1     104.042 104.657 102.855  1.00  0.00    -0.299 OA
ATOM      8  C   UNL     1     104.483 106.780 101.925  1.00  0.00     0.079 C 
ENDROOT
BRANCH   5   9
ATOM      9  C   UNL     1     106.664 103.730 103.231  1.00  0.00    -0.007 C 
ATOM     10  C   UNL     1     106.991 103.882 104.727  1.00  0.00     0.008 C 
ATOM     11  C   UNL     1     107.776 102.939 102.526  1.00  0.00     0.008 C 
ENDBRANCH   5   9
TORSDOF 1
ENDMDL
MODEL 3
REMARK VINA RESULT:    -4.477      1.692      3.042
REMARK INTER + INTRA:          -4.923
REMARK INTER:                  -4.740
REMARK INTRA:                  -0.183
REMARK UNBOUND:                -0.184
REMARK SMILES CC(C)[C@@H]1CC[C@H](C)CC1=O
REMARK SMILES IDX 8 1 7 2 6 3 5 4 4 5 10 6 11 7 9 8 2 9 1 10 3 11
REMARK H PARENT
REMARK Flexibility Score: inf
ROOT
ATOM      1  C   UNL     1     106.994 103.728 103.893  1.00  0.00     0.008 C 
ATOM      2  C   UNL     1     106.605 104.142 102.464  1.00  0.00    -0.007 C 
ATOM      3  C   UNL     1     105.107 104.499 102.349  1.00  0.00     0.004 C 
ATOM      4  C   UNL     1     104.756 105.806 103.077  1.00  0.00     0.012 C 
ATOM      5  C   UNL     1     105.609 106.993 102.571  1.00  0.00     0.058 C 
ATOM      6  C   UNL     1     107.079 106.608 102.569  1.00  0.00     0.136 C 
ATOM      7  O   UNL     1     107.940 107.383 102.959  1.00  0.00    -0.299 OA
ATOM      8  C   UNL     1     107.488 105.297 101.954  1.00  0.00     0.079 C 
ENDROOT
BRANCH   5   9
ATOM      9  C   UNL     1     105.325 108.329 103.330  1.00  0.00    -0.007 C 
ATOM     10  C   UNL     1     104.995 108.134 104.820  1.00  0.00     0.008 C 
ATOM     11  C   UNL     1     104.218 109.147 102.648  1.00  0.00     0.008 C 
ENDBRANCH   5   9
TORSDOF 1
ENDMDL
MODEL 4
REMARK VINA RESULT:    -4.476      1.728      4.257
REMARK INTER + INTRA:          -4.922
REMARK INTER:                  -4.738
REMARK INTRA:                  -0.184
REMARK UNBOUND:                -0.184
REMARK SMILES CC(C)[C@@H]1CC[C@H](C)CC1=O
REMARK SMILES IDX 8 1 7 2 6 3 5 4 4 5 10 6 11 7 9 8 2 9 1 10 3 11
REMARK H PARENT
REMARK Flexibility Score: inf
ROOT
ATOM      1  C   UNL     1     103.715 104.878 103.853  1.00  0.00     0.008 C 
ATOM      2  C   UNL     1     104.119 105.321 102.438  1.00  0.00    -0.007 C 
ATOM      3  C   UNL     1     104.437 106.831 102.368  1.00  0.00     0.004 C 
ATOM      4  C   UNL     1     105.733 107.194 103.110  1.00  0.00     0.012 C 
ATOM      5  C   UNL     1     106.943 106.388 102.580  1.00  0.00     0.058 C 
ATOM      6  C   UNL     1     106.596 104.909 102.533  1.00  0.00     0.136 C 
ATOM      7  O   UNL     1     107.394 104.057 102.897  1.00  0.00    -0.299 OA
ATOM      8  C   UNL     1     105.297 104.485 101.903  1.00  0.00     0.079 C 
ENDROOT
BRANCH   5   9
ATOM      9  C   UNL     1     108.270 106.684 103.349  1.00  0.00    -0.007 C 
ATOM     10  C   UNL     1     108.060 107.016 104.837  1.00  0.00     0.008 C 
ATOM     11  C   UNL     1     109.086 107.795 102.671  1.00  0.00     0.008 C 
ENDBRANCH   5   9
TORSDOF 1
ENDMDL
MODEL 5
REMARK VINA RESULT:    -4.166      2.247      4.280
REMARK INTER + INTRA:          -4.593
REMARK INTER:                  -4.415
REMARK INTRA:                  -0.179
REMARK UNBOUND:                -0.184
REMARK SMILES CC(C)[C@@H]1CC[C@H](C)CC1=O
REMARK SMILES IDX 8 1 7 2 6 3 5 4 4 5 10 6 11 7 9 8 2 9 1 10 3 11
REMARK H PARENT
REMARK Flexibility Score: inf
ROOT
ATOM      1  C   UNL     1     104.560 106.973 105.667  1.00  0.00     0.008 C 
ATOM      2  C   UNL     1     104.100 105.513 105.530  1.00  0.00    -0.007 C 
ATOM      3  C   UNL     1     103.797 105.133 104.064  1.00  0.00     0.004 C 
ATOM      4  C   UNL     1     105.066 105.062 103.200  1.00  0.00     0.012 C 
ATOM      5  C   UNL     1     106.105 104.076 103.785  1.00  0.00     0.058 C 
ATOM      6  C   UNL     1     106.320 104.368 105.260  1.00  0.00     0.136 C 
ATOM      7  O   UNL     1     107.439 104.360 105.753  1.00  0.00    -0.299 OA
ATOM      8  C   UNL     1     105.121 104.541 106.151  1.00  0.00     0.079 C 
ENDROOT
BRANCH   5   9
ATOM      9  C   UNL     1     107.435 104.021 102.968  1.00  0.00    -0.007 C 
ATOM     10  C   UNL     1     107.637 105.228 102.035  1.00  0.00     0.008 C 
ATOM     11  C   UNL     1     107.562 102.713 102.172  1.00  0.00     0.008 C 
ENDBRANCH   5   9
TORSDOF 1
ENDMDL
MODEL 6
REMARK VINA RESULT:    -4.157      1.350      4.046
REMARK INTER + INTRA:          -4.584
REMARK INTER:                  -4.424
REMARK INTRA:                  -0.160
REMARK UNBOUND:                -0.184
REMARK SMILES CC(C)[C@@H]1CC[C@H](C)CC1=O
REMARK SMILES IDX 8 1 7 2 6 3 5 4 4 5 10 6 11 7 9 8 2 9 1 10 3 11
REMARK H PARENT
REMARK Flexibility Score: inf
ROOT
ATOM      1  C   UNL     1     103.409 105.474 101.875  1.00  0.00     0.008 C 
ATOM      2  C   UNL     1     104.101 104.540 102.880  1.00  0.00    -0.007 C 
ATOM      3  C   UNL     1     105.505 104.109 102.403  1.00  0.00     0.004 C 
ATOM      4  C   UNL     1     106.515 105.268 102.422  1.00  0.00     0.012 C 
ATOM      5  C   UNL     1     106.623 105.913 103.825  1.00  0.00     0.058 C 
ATOM      6  C   UNL     1     105.234 106.232 104.354  1.00  0.00     0.136 C 
ATOM      7  O   UNL     1     104.999 107.285 104.927  1.00  0.00    -0.299 OA
ATOM      8  C   UNL     1     104.167 105.174 104.283  1.00  0.00     0.079 C 
ENDROOT
BRANCH   5   9
ATOM      9  C   UNL     1     107.594 107.135 103.872  1.00  0.00    -0.007 C 
ATOM     10  C   UNL     1     108.345 107.378 102.551  1.00  0.00     0.008 C 
ATOM     11  C   UNL     1     108.594 107.024 105.034  1.00  0.00     0.008 C 
ENDBRANCH   5   9
TORSDOF 1
ENDMDL
MODEL 7
REMARK VINA RESULT:    -4.076      1.966      3.609
REMARK INTER + INTRA:          -4.498
REMARK INTER:                  -4.317
REMARK INTRA:                  -0.182
REMARK UNBOUND:                -0.184
REMARK SMILES CC(C)[C@@H]1CC[C@H](C)CC1=O
REMARK SMILES IDX 8 1 7 2 6 3 5 4 4 5 10 6 11 7 9 8 2 9 1 10 3 11
REMARK H PARENT
REMARK Flexibility Score: inf
ROOT
ATOM      1  C   UNL     1     105.368 104.129 102.197  1.00  0.00     0.008 C 
ATOM      2  C   UNL     1     104.050 104.890 102.417  1.00  0.00    -0.007 C 
ATOM      3  C   UNL     1     103.602 104.863 103.895  1.00  0.00     0.004 C 
ATOM      4  C   UNL     1     104.515 105.704 104.802  1.00  0.00     0.012 C 
ATOM      5  C   UNL     1     104.612 107.171 104.319  1.00  0.00     0.058 C 
ATOM      6  C   UNL     1     104.936 107.204 102.835  1.00  0.00     0.136 C 
ATOM      7  O   UNL     1     105.750 107.995 102.379  1.00  0.00    -0.299 OA
ATOM      8  C   UNL     1     104.143 106.336 101.896  1.00  0.00     0.079 C 
ENDROOT
BRANCH   5   9
ATOM      9  C   UNL     1     105.579 108.044 105.179  1.00  0.00    -0.007 C 
ATOM     10  C   UNL     1     106.815 107.280 105.687  1.00  0.00     0.008 C 
ATOM     11  C   UNL     1     104.851 108.710 106.357  1.00  0.00     0.008 C 
ENDBRANCH   5   9
TORSDOF 1
ENDMDL
MODEL 8
REMARK VINA RESULT:    -4.052      2.024      3.359
REMARK INTER + INTRA:          -4.474
REMARK INTER:                  -4.318
REMARK INTRA:                  -0.156
REMARK UNBOUND:                -0.184
REMARK SMILES CC(C)[C@@H]1CC[C@H](C)CC1=O
REMARK SMILES IDX 8 1 7 2 6 3 5 4 4 5 10 6 11 7 9 8 2 9 1 10 3 11
REMARK H PARENT
REMARK Flexibility Score: inf
ROOT
ATOM      1  C   UNL     1     105.551 108.475 101.875  1.00  0.00     0.008 C 
ATOM      2  C   UNL     1     104.671 107.884 102.988  1.00  0.00    -0.007 C 
ATOM      3  C   UNL     1     104.125 106.487 102.619  1.00  0.00     0.004 C 
ATOM      4  C   UNL     1     105.225 105.414 102.592  1.00  0.00     0.012 C 
ATOM      5  C   UNL     1     105.981 105.332 103.939  1.00  0.00     0.058 C 
ATOM      6  C   UNL     1     106.419 106.722 104.370  1.00  0.00     0.136 C 
ATOM      7  O   UNL     1     107.529 106.921 104.841  1.00  0.00    -0.299 OA
ATOM      8  C   UNL     1     105.418 107.844 104.334  1.00  0.00     0.079 C 
ENDROOT
BRANCH   5   9
ATOM      9  C   UNL     1     107.148 104.294 103.933  1.00  0.00    -0.007 C 
ATOM     10  C   UNL     1     107.194 103.424 102.664  1.00  0.00     0.008 C 
ATOM     11  C   UNL     1     107.123 103.401 105.183  1.00  0.00     0.008 C 
ENDBRANCH   5   9
TORSDOF 1
ENDMDL
MODEL 9
REMARK VINA RESULT:    -2.145      1.639      2.464
REMARK INTER + INTRA:          -2.455
REMARK INTER:                  -2.273
REMARK INTRA:                  -0.182
REMARK UNBOUND:                -0.184
REMARK SMILES CC(C)[C@@H]1CC[C@H](C)CC1=O
REMARK SMILES IDX 8 1 7 2 6 3 5 4 4 5 10 6 11 7 9 8 2 9 1 10 3 11
REMARK H PARENT
REMARK Flexibility Score: inf
ROOT
ATOM      1  C   UNL     1     107.813 105.547 102.152  1.00  0.00     0.008 C 
ATOM      2  C   UNL     1     107.052 104.224 102.341  1.00  0.00    -0.007 C 
ATOM      3  C   UNL     1     107.128 103.711 103.796  1.00  0.00     0.004 C 
ATOM      4  C   UNL     1     106.324 104.588 104.771  1.00  0.00     0.012 C 
ATOM      5  C   UNL     1     104.842 104.712 104.344  1.00  0.00     0.058 C 
ATOM      6  C   UNL     1     104.759 105.101 102.877  1.00  0.00     0.136 C 
ATOM      7  O   UNL     1     103.958 105.937 102.486  1.00  0.00    -0.299 OA
ATOM      8  C   UNL     1     105.589 104.346 101.875  1.00  0.00     0.079 C 
ENDROOT
BRANCH   5   9
ATOM      9  C   UNL     1     104.005 105.644 105.276  1.00  0.00    -0.007 C 
ATOM     10  C   UNL     1     104.794 106.851 105.812  1.00  0.00     0.008 C 
ATOM     11  C   UNL     1     103.374 104.867 106.442  1.00  0.00     0.008 C 
ENDBRANCH   5   9
TORSDOF 1
ENDMDL
