MODEL 1
REMARK VINA RESULT:    -3.549      0.000      0.000
REMARK INTER + INTRA:          -4.664
REMARK INTER:                  -4.379
REMARK INTRA:                  -0.285
REMARK UNBOUND:                -0.285
REMARK SMILES CCCCC=CC(C)=O
REMARK SMILES IDX 4 1 3 2 2 3 1 4 5 5 6 6 7 7 9 8 8 9
REMARK H PARENT
REMARK Flexibility Score: inf
ROOT
ATOM      1  C   UNL     1       9.613 -22.878  40.689  1.00  0.00     0.027 C 
ENDROOT
BRANCH   1   2
ATOM      2  C   UNL     1       9.763 -24.263  40.041  1.00  0.00     0.004 C 
BRANCH   2   3
ATOM      3  C   UNL     1       8.977 -25.352  40.787  1.00  0.00    -0.003 C 
ATOM      4  C   UNL     1       9.861 -26.192  41.707  1.00  0.00     0.004 C 
ENDBRANCH   2   3
ENDBRANCH   1   2
BRANCH   1   5
ATOM      5  C   UNL     1      10.922 -22.396  41.246  1.00  0.00    -0.023 C 
ATOM      6  C   UNL     1      11.277 -22.649  42.511  1.00  0.00     0.042 C 
BRANCH   6   7
ATOM      7  C   UNL     1      12.551 -22.174  43.082  1.00  0.00     0.152 C 
ATOM      8  O   UNL     1      12.801 -22.316  44.311  1.00  0.00    -0.295 OA
ATOM      9  C   UNL     1      13.559 -21.514  42.198  1.00  0.00     0.093 C 
ENDBRANCH   6   7
ENDBRANCH   1   5
TORSDOF 4
ENDMDL
MODEL 2
REMARK VINA RESULT:    -3.544      9.517     12.148
REMARK INTER + INTRA:          -4.658
REMARK INTER:                  -4.530
REMARK INTRA:                  -0.127
REMARK UNBOUND:                -0.285
REMARK SMILES CCCCC=CC(C)=O
REMARK SMILES IDX 4 1 3 2 2 3 1 4 5 5 6 6 7 7 9 8 8 9
REMARK H PARENT
REMARK Flexibility Score: inf
ROOT
ATOM      1  C   UNL     1       2.731 -28.182  39.789  1.00  0.00     0.027 C 
ENDROOT
BRANCH   1   2
ATOM      2  C   UNL     1       1.985 -27.117  40.608  1.00  0.00     0.004 C 
BRANCH   2   3
ATOM      3  C   UNL     1       2.903 -25.969  41.056  1.00  0.00    -0.003 C 
ATOM      4  C   UNL     1       4.076 -26.451  41.909  1.00  0.00     0.004 C 
ENDBRANCH   2   3
ENDBRANCH   1   2
BRANCH   1   5
ATOM      5  C   UNL     1       1.943 -29.458  39.715  1.00  0.00    -0.023 C 
ATOM      6  C   UNL     1       1.612 -30.007  38.540  1.00  0.00     0.042 C 
BRANCH   6   7
ATOM      7  C   UNL     1       0.827 -31.252  38.445  1.00  0.00     0.152 C 
ATOM      8  O   UNL     1       1.280 -32.337  38.902  1.00  0.00    -0.295 OA
ATOM      9  C   UNL     1      -0.519 -31.231  37.796  1.00  0.00     0.093 C 
ENDBRANCH   6   7
ENDBRANCH   1   5
TORSDOF 4
ENDMDL
MODEL 3
REMARK VINA RESULT:    -3.413     10.577     13.197
REMARK INTER + INTRA:          -4.497
REMARK INTER:                  -4.331
REMARK INTRA:                  -0.166
REMARK UNBOUND:                -0.285
REMARK SMILES CCCCC=CC(C)=O
REMARK SMILES IDX 4 1 3 2 2 3 1 4 5 5 6 6 7 7 9 8 8 9
REMARK H PARENT
REMARK Flexibility Score: inf
ROOT
ATOM      1  C   UNL     1       2.270 -29.879  39.348  1.00  0.00     0.027 C 
ENDROOT
BRANCH   1   2
ATOM      2  C   UNL     1       2.431 -28.353  39.278  1.00  0.00     0.004 C 
BRANCH   2   3
ATOM      3  C   UNL     1       2.014 -27.656  40.583  1.00  0.00    -0.003 C 
ATOM      4  C   UNL     1       2.859 -26.420  40.888  1.00  0.00     0.004 C 
ENDBRANCH   2   3
ENDBRANCH   1   2
BRANCH   1   5
ATOM      5  C   UNL     1       1.138 -30.344  38.478  1.00  0.00    -0.023 C 
ATOM      6  C   UNL     1       0.286 -29.477  37.918  1.00  0.00     0.042 C 
BRANCH   6   7
ATOM      7  C   UNL     1      -0.840 -29.913  37.071  1.00  0.00     0.152 C 
ATOM      8  O   UNL     1      -0.983 -29.459  35.903  1.00  0.00    -0.295 OA
ATOM      9  C   UNL     1      -1.826 -30.902  37.603  1.00  0.00     0.093 C 
ENDBRANCH   6   7
ENDBRANCH   1   5
TORSDOF 4
ENDMDL
MODEL 4
REMARK VINA RESULT:    -3.368      0.989      1.265
REMARK INTER + INTRA:          -4.441
REMARK INTER:                  -4.210
REMARK INTRA:                  -0.231
REMARK UNBOUND:                -0.285
REMARK SMILES CCCCC=CC(C)=O
REMARK SMILES IDX 4 1 3 2 2 3 1 4 5 5 6 6 7 7 9 8 8 9
REMARK H PARENT
REMARK Flexibility Score: inf
ROOT
ATOM      1  C   UNL     1      11.050 -22.578  40.501  1.00  0.00     0.027 C 
ENDROOT
BRANCH   1   2
ATOM      2  C   UNL     1       9.568 -22.934  40.693  1.00  0.00     0.004 C 
BRANCH   2   3
ATOM      3  C   UNL     1       9.312 -24.448  40.628  1.00  0.00    -0.003 C 
ATOM      4  C   UNL     1      10.592 -25.269  40.777  1.00  0.00     0.004 C 
ENDBRANCH   2   3
ENDBRANCH   1   2
BRANCH   1   5
ATOM      5  C   UNL     1      11.605 -21.893  41.717  1.00  0.00    -0.023 C 
ATOM      6  C   UNL     1      12.643 -22.401  42.391  1.00  0.00     0.042 C 
BRANCH   6   7
ATOM      7  C   UNL     1      13.196 -21.752  43.595  1.00  0.00     0.152 C 
ATOM      8  O   UNL     1      12.992 -22.238  44.741  1.00  0.00    -0.295 OA
ATOM      9  C   UNL     1      14.003 -20.503  43.458  1.00  0.00     0.093 C 
ENDBRANCH   6   7
ENDBRANCH   1   5
TORSDOF 4
ENDMDL
MODEL 5
REMARK VINA RESULT:    -3.342      4.188      5.055
REMARK INTER + INTRA:          -4.409
REMARK INTER:                  -4.195
REMARK INTRA:                  -0.213
REMARK UNBOUND:                -0.285
REMARK SMILES CCCCC=CC(C)=O
REMARK SMILES IDX 4 1 3 2 2 3 1 4 5 5 6 6 7 7 9 8 8 9
REMARK H PARENT
REMARK Flexibility Score: inf
ROOT
ATOM      1  C   UNL     1      13.115 -21.235  40.778  1.00  0.00     0.027 C 
ENDROOT
BRANCH   1   2
ATOM      2  C   UNL     1      12.194 -22.462  40.700  1.00  0.00     0.004 C 
BRANCH   2   3
ATOM      3  C   UNL     1      10.827 -22.215  41.357  1.00  0.00    -0.003 C 
ATOM      4  C   UNL     1       9.675 -22.847  40.577  1.00  0.00     0.004 C 
ENDBRANCH   2   3
ENDBRANCH   1   2
BRANCH   1   5
ATOM      5  C   UNL     1      13.467 -20.735  39.406  1.00  0.00    -0.023 C 
ATOM      6  C   UNL     1      13.554 -21.566  38.361  1.00  0.00     0.042 C 
BRANCH   6   7
ATOM      7  C   UNL     1      13.911 -21.098  37.009  1.00  0.00     0.152 C 
ATOM      8  O   UNL     1      14.115 -21.921  36.074  1.00  0.00    -0.295 OA
ATOM      9  C   UNL     1      14.035 -19.634  36.741  1.00  0.00     0.093 C 
ENDBRANCH   6   7
ENDBRANCH   1   5
TORSDOF 4
ENDMDL
MODEL 6
REMARK VINA RESULT:    -3.330      2.248      4.588
REMARK INTER + INTRA:          -4.394
REMARK INTER:                  -4.111
REMARK INTRA:                  -0.283
REMARK UNBOUND:                -0.285
REMARK SMILES CCCCC=CC(C)=O
REMARK SMILES IDX 4 1 3 2 2 3 1 4 5 5 6 6 7 7 9 8 8 9
REMARK H PARENT
REMARK Flexibility Score: inf
ROOT
ATOM      1  C   UNL     1       9.677 -22.977  40.508  1.00  0.00     0.027 C 
ENDROOT
BRANCH   1   2
ATOM      2  C   UNL     1      11.199 -22.786  40.433  1.00  0.00     0.004 C 
BRANCH   2   3
ATOM      3  C   UNL     1      11.719 -21.775  41.467  1.00  0.00    -0.003 C 
ATOM      4  C   UNL     1      12.021 -22.418  42.820  1.00  0.00     0.004 C 
ENDBRANCH   2   3
ENDBRANCH   1   2
BRANCH   1   5
ATOM      5  C   UNL     1       9.321 -24.426  40.681  1.00  0.00    -0.023 C 
ATOM      6  C   UNL     1      10.094 -25.254  41.392  1.00  0.00     0.042 C 
BRANCH   6   7
ATOM      7  C   UNL     1       9.770 -26.683  41.564  1.00  0.00     0.152 C 
ATOM      8  O   UNL     1      10.676 -27.525  41.813  1.00  0.00    -0.295 OA
ATOM      9  C   UNL     1       8.354 -27.141  41.438  1.00  0.00     0.093 C 
ENDBRANCH   6   7
ENDBRANCH   1   5
TORSDOF 4
ENDMDL
MODEL 7
REMARK VINA RESULT:    -3.318      3.956      4.531
REMARK INTER + INTRA:          -4.379
REMARK INTER:                  -4.156
REMARK INTRA:                  -0.223
REMARK UNBOUND:                -0.285
REMARK SMILES CCCCC=CC(C)=O
REMARK SMILES IDX 4 1 3 2 2 3 1 4 5 5 6 6 7 7 9 8 8 9
REMARK H PARENT
REMARK Flexibility Score: inf
ROOT
ATOM      1  C   UNL     1      12.272 -22.759  40.586  1.00  0.00     0.027 C 
ENDROOT
BRANCH   1   2
ATOM      2  C   UNL     1      11.037 -22.139  41.256  1.00  0.00     0.004 C 
BRANCH   2   3
ATOM      3  C   UNL     1       9.719 -22.699  40.696  1.00  0.00    -0.003 C 
ATOM      4  C   UNL     1       9.787 -24.200  40.421  1.00  0.00     0.004 C 
ENDBRANCH   2   3
ENDBRANCH   1   2
BRANCH   1   5
ATOM      5  C   UNL     1      12.740 -21.920  39.431  1.00  0.00    -0.023 C 
ATOM      6  C   UNL     1      13.433 -22.453  38.418  1.00  0.00     0.042 C 
BRANCH   6   7
ATOM      7  C   UNL     1      13.913 -21.645  37.280  1.00  0.00     0.152 C 
ATOM      8  O   UNL     1      13.920 -22.118  36.111  1.00  0.00    -0.295 OA
ATOM      9  C   UNL     1      14.400 -20.253  37.515  1.00  0.00     0.093 C 
ENDBRANCH   6   7
ENDBRANCH   1   5
TORSDOF 4
ENDMDL
MODEL 8
REMARK VINA RESULT:    -3.217      2.605      5.108
REMARK INTER + INTRA:          -4.255
REMARK INTER:                  -4.081
REMARK INTRA:                  -0.174
REMARK UNBOUND:                -0.285
REMARK SMILES CCCCC=CC(C)=O
REMARK SMILES IDX 4 1 3 2 2 3 1 4 5 5 6 6 7 7 9 8 8 9
REMARK H PARENT
REMARK Flexibility Score: inf
ROOT
ATOM      1  C   UNL     1      11.287 -22.004  41.449  1.00  0.00     0.027 C 
ENDROOT
BRANCH   1   2
ATOM      2  C   UNL     1      11.755 -22.458  42.841  1.00  0.00     0.004 C 
BRANCH   2   3
ATOM      3  C   UNL     1      13.212 -22.065  43.130  1.00  0.00    -0.003 C 
ATOM      4  C   UNL     1      13.640 -20.800  42.387  1.00  0.00     0.004 C 
ENDBRANCH   2   3
ENDBRANCH   1   2
BRANCH   1   5
ATOM      5  C   UNL     1      10.184 -22.883  40.936  1.00  0.00    -0.023 C 
ATOM      6  C   UNL     1      10.437 -23.929  40.141  1.00  0.00     0.042 C 
BRANCH   6   7
ATOM      7  C   UNL     1       9.368 -24.798  39.615  1.00  0.00     0.152 C 
ATOM      8  O   UNL     1       9.045 -24.758  38.395  1.00  0.00    -0.295 OA
ATOM      9  C   UNL     1       8.655 -25.734  40.535  1.00  0.00     0.093 C 
ENDBRANCH   6   7
ENDBRANCH   1   5
TORSDOF 4
ENDMDL
MODEL 9
REMARK VINA RESULT:    -3.172      3.834      4.850
REMARK INTER + INTRA:          -4.199
REMARK INTER:                  -3.978
REMARK INTRA:                  -0.221
REMARK UNBOUND:                -0.285
REMARK SMILES CCCCC=CC(C)=O
REMARK SMILES IDX 4 1 3 2 2 3 1 4 5 5 6 6 7 7 9 8 8 9
REMARK H PARENT
REMARK Flexibility Score: inf
ROOT
ATOM      1  C   UNL     1      12.712 -21.826  39.709  1.00  0.00     0.027 C 
ENDROOT
BRANCH   1   2
ATOM      2  C   UNL     1      12.530 -21.593  41.216  1.00  0.00     0.004 C 
BRANCH   2   3
ATOM      3  C   UNL     1      11.223 -22.197  41.752  1.00  0.00    -0.003 C 
ATOM      4  C   UNL     1      10.282 -22.651  40.637  1.00  0.00     0.004 C 
ENDBRANCH   2   3
ENDBRANCH   1   2
BRANCH   1   5
ATOM      5  C   UNL     1      13.427 -20.673  39.065  1.00  0.00    -0.023 C 
ATOM      6  C   UNL     1      13.808 -19.604  39.774  1.00  0.00     0.042 C 
BRANCH   6   7
ATOM      7  C   UNL     1      14.500 -18.455  39.160  1.00  0.00     0.152 C 
ATOM      8  O   UNL     1      15.164 -18.595  38.097  1.00  0.00    -0.295 OA
ATOM      9  C   UNL     1      14.415 -17.110  39.805  1.00  0.00     0.093 C 
ENDBRANCH   6   7
ENDBRANCH   1   5
TORSDOF 4
ENDMDL
