MODEL 1
REMARK VINA RESULT:    -2.407      0.000      0.000
REMARK INTER + INTRA:          -2.407
REMARK INTER:                  -2.407
REMARK INTRA:                   0.000
REMARK UNBOUND:                 0.000
REMARK SMILES CC(=O)[O-]
REMARK SMILES IDX 1 1 2 2 3 3 4 4
REMARK H PARENT
REMARK Flexibility Score: inf
ROOT
ATOM      1  C   UNL     1      17.525 -19.024  26.705  1.00  0.00     0.063 C 
ATOM      2  C   UNL     1      16.667 -18.984  27.925  1.00  0.00     0.038 C 
ATOM      3  O   UNL     1      16.456 -17.892  28.514  1.00  0.00    -0.550 OA
ATOM      4  O   UNL     1      16.054 -20.144  28.383  1.00  0.00    -0.550 OA
ENDROOT
TORSDOF 0
ENDMDL
MODEL 2
REMARK VINA RESULT:    -2.300      1.376      2.093
REMARK INTER + INTRA:          -2.300
REMARK INTER:                  -2.300
REMARK INTRA:                   0.000
REMARK UNBOUND:                 0.000
REMARK SMILES CC(=O)[O-]
REMARK SMILES IDX 1 1 2 2 3 3 4 4
REMARK H PARENT
REMARK Flexibility Score: inf
ROOT
ATOM      1  C   UNL     1      15.975 -20.287  28.372  1.00  0.00     0.063 C 
ATOM      2  C   UNL     1      16.726 -19.083  27.912  1.00  0.00     0.038 C 
ATOM      3  O   UNL     1      17.556 -19.178  26.970  1.00  0.00    -0.550 OA
ATOM      4  O   UNL     1      16.473 -17.843  28.484  1.00  0.00    -0.550 OA
ENDROOT
TORSDOF 0
ENDMDL
MODEL 3
REMARK VINA RESULT:    -2.244     20.313     20.837
REMARK INTER + INTRA:          -2.244
REMARK INTER:                  -2.244
REMARK INTRA:                   0.000
REMARK UNBOUND:                 0.000
REMARK SMILES CC(=O)[O-]
REMARK SMILES IDX 1 1 2 2 3 3 4 4
REMARK H PARENT
REMARK Flexibility Score: inf
ROOT
ATOM      1  C   UNL     1      33.885  -6.033  28.533  1.00  0.00     0.063 C 
ATOM      2  C   UNL     1      32.811  -6.022  27.498  1.00  0.00     0.038 C 
ATOM      3  O   UNL     1      31.605  -5.907  27.841  1.00  0.00    -0.550 OA
ATOM      4  O   UNL     1      33.141  -6.084  26.150  1.00  0.00    -0.550 OA
ENDROOT
TORSDOF 0
ENDMDL
MODEL 4
REMARK VINA RESULT:    -2.218      1.385      2.086
REMARK INTER + INTRA:          -2.218
REMARK INTER:                  -2.218
REMARK INTRA:                   0.000
REMARK UNBOUND:                 0.000
REMARK SMILES CC(=O)[O-]
REMARK SMILES IDX 1 1 2 2 3 3 4 4
REMARK H PARENT
REMARK Flexibility Score: inf
ROOT
ATOM      1  C   UNL     1      16.434 -17.842  28.663  1.00  0.00     0.063 C 
ATOM      2  C   UNL     1      16.710 -19.127  27.958  1.00  0.00     0.038 C 
ATOM      3  O   UNL     1      16.118 -20.181  28.310  1.00  0.00    -0.550 OA
ATOM      4  O   UNL     1      17.580 -19.155  26.875  1.00  0.00    -0.550 OA
ENDROOT
TORSDOF 0
ENDMDL
MODEL 5
REMARK VINA RESULT:    -2.157     20.741     20.979
REMARK INTER + INTRA:          -2.157
REMARK INTER:                  -2.157
REMARK INTRA:                   0.000
REMARK UNBOUND:                 0.000
REMARK SMILES CC(=O)[O-]
REMARK SMILES IDX 1 1 2 2 3 3 4 4
REMARK H PARENT
REMARK Flexibility Score: inf
ROOT
ATOM      1  C   UNL     1      31.613  -5.571  27.536  1.00  0.00     0.063 C 
ATOM      2  C   UNL     1      33.002  -5.991  27.193  1.00  0.00     0.038 C 
ATOM      3  O   UNL     1      33.367  -6.043  25.990  1.00  0.00    -0.550 OA
ATOM      4  O   UNL     1      33.914  -6.273  28.202  1.00  0.00    -0.550 OA
ENDROOT
TORSDOF 0
ENDMDL
MODEL 6
REMARK VINA RESULT:    -2.121     20.352     20.827
REMARK INTER + INTRA:          -2.121
REMARK INTER:                  -2.121
REMARK INTRA:                   0.000
REMARK UNBOUND:                 0.000
REMARK SMILES CC(=O)[O-]
REMARK SMILES IDX 1 1 2 2 3 3 4 4
REMARK H PARENT
REMARK Flexibility Score: inf
ROOT
ATOM      1  C   UNL     1      33.460  -6.059  26.224  1.00  0.00     0.063 C 
ATOM      2  C   UNL     1      32.936  -6.089  27.620  1.00  0.00     0.038 C 
ATOM      3  O   UNL     1      31.699  -5.985  27.833  1.00  0.00    -0.550 OA
ATOM      4  O   UNL     1      33.804  -6.286  28.686  1.00  0.00    -0.550 OA
ENDROOT
TORSDOF 0
ENDMDL
MODEL 7
REMARK VINA RESULT:    -1.794      9.539     10.111
REMARK INTER + INTRA:          -1.794
REMARK INTER:                  -1.794
REMARK INTRA:                   0.000
REMARK UNBOUND:                 0.000
REMARK SMILES CC(=O)[O-]
REMARK SMILES IDX 1 1 2 2 3 3 4 4
REMARK H PARENT
REMARK Flexibility Score: inf
ROOT
ATOM      1  C   UNL     1      18.157  -8.264  29.817  1.00  0.00     0.063 C 
ATOM      2  C   UNL     1      17.072  -9.091  29.214  1.00  0.00     0.038 C 
ATOM      3  O   UNL     1      16.459  -8.684  28.194  1.00  0.00    -0.550 OA
ATOM      4  O   UNL     1      16.771 -10.339  29.746  1.00  0.00    -0.550 OA
ENDROOT
TORSDOF 0
ENDMDL
MODEL 8
REMARK VINA RESULT:    -1.759      9.546     10.213
REMARK INTER + INTRA:          -1.759
REMARK INTER:                  -1.759
REMARK INTRA:                   0.000
REMARK UNBOUND:                 0.000
REMARK SMILES CC(=O)[O-]
REMARK SMILES IDX 1 1 2 2 3 3 4 4
REMARK H PARENT
REMARK Flexibility Score: inf
ROOT
ATOM      1  C   UNL     1      16.001  -8.589  28.294  1.00  0.00     0.063 C 
ATOM      2  C   UNL     1      17.070  -9.115  29.191  1.00  0.00     0.038 C 
ATOM      3  O   UNL     1      16.944 -10.246  29.728  1.00  0.00    -0.550 OA
ATOM      4  O   UNL     1      18.232  -8.382  29.394  1.00  0.00    -0.550 OA
ENDROOT
TORSDOF 0
ENDMDL
MODEL 9
REMARK VINA RESULT:    -1.750      9.861     10.114
REMARK INTER + INTRA:          -1.750
REMARK INTER:                  -1.750
REMARK INTRA:                   0.000
REMARK UNBOUND:                 0.000
REMARK SMILES CC(=O)[O-]
REMARK SMILES IDX 1 1 2 2 3 3 4 4
REMARK H PARENT
REMARK Flexibility Score: inf
ROOT
ATOM      1  C   UNL     1      16.439 -10.250  29.794  1.00  0.00     0.063 C 
ATOM      2  C   UNL     1      16.935  -9.104  28.978  1.00  0.00     0.038 C 
ATOM      3  O   UNL     1      18.094  -8.650  29.165  1.00  0.00    -0.550 OA
ATOM      4  O   UNL     1      16.140  -8.570  27.972  1.00  0.00    -0.550 OA
ENDROOT
TORSDOF 0
ENDMDL
