MODEL 1
REMARK VINA RESULT:    -4.794      0.000      0.000
REMARK INTER + INTRA:          -6.649
REMARK INTER:                  -6.195
REMARK INTRA:                  -0.453
REMARK UNBOUND:                -0.453
REMARK SMILES C=CC(=O)CCCCC
REMARK SMILES IDX 6 1 7 2 8 3 9 4 5 5 3 6 4 7 2 8 1 9
REMARK H PARENT
REMARK Flexibility Score: inf
ROOT
ATOM      1  C   UNL     1      17.978  16.806  30.013  1.00  0.00     0.008 C 
ENDROOT
BRANCH   1   2
ATOM      2  C   UNL     1      18.688  15.449  29.904  1.00  0.00     0.000 C 
BRANCH   2   3
ATOM      3  C   UNL     1      17.818  14.287  30.409  1.00  0.00    -0.003 C 
ATOM      4  C   UNL     1      18.033  13.990  31.893  1.00  0.00     0.004 C 
ENDBRANCH   2   3
ENDBRANCH   1   2
BRANCH   1   5
ATOM      5  C   UNL     1      16.475  16.663  29.748  1.00  0.00     0.080 C 
BRANCH   5   6
ATOM      6  C   UNL     1      15.707  17.714  30.491  1.00  0.00     0.155 C 
ATOM      7  O   UNL     1      15.810  18.921  30.137  1.00  0.00    -0.295 OA
BRANCH   6   8
ATOM      8  C   UNL     1      14.876  17.342  31.652  1.00  0.00     0.039 C 
ATOM      9  C   UNL     1      15.206  16.351  32.480  1.00  0.00     0.012 C 
ENDBRANCH   6   8
ENDBRANCH   5   6
ENDBRANCH   1   5
TORSDOF 5
ENDMDL
MODEL 2
REMARK VINA RESULT:    -4.741      2.096      4.411
REMARK INTER + INTRA:          -6.580
REMARK INTER:                  -6.238
REMARK INTRA:                  -0.342
REMARK UNBOUND:                -0.453
REMARK SMILES C=CC(=O)CCCCC
REMARK SMILES IDX 6 1 7 2 8 3 9 4 5 5 3 6 4 7 2 8 1 9
REMARK H PARENT
REMARK Flexibility Score: inf
ROOT
ATOM      1  C   UNL     1      15.556  15.954  32.272  1.00  0.00     0.008 C 
ENDROOT
BRANCH   1   2
ATOM      2  C   UNL     1      14.943  17.243  31.705  1.00  0.00     0.000 C 
BRANCH   2   3
ATOM      3  C   UNL     1      15.656  17.725  30.432  1.00  0.00    -0.003 C 
ATOM      4  C   UNL     1      15.427  19.211  30.154  1.00  0.00     0.004 C 
ENDBRANCH   2   3
ENDBRANCH   1   2
BRANCH   1   5
ATOM      5  C   UNL     1      16.062  15.046  31.146  1.00  0.00     0.080 C 
BRANCH   5   6
ATOM      6  C   UNL     1      17.521  14.749  31.325  1.00  0.00     0.155 C 
ATOM      7  O   UNL     1      17.943  14.385  32.456  1.00  0.00    -0.295 OA
BRANCH   6   8
ATOM      8  C   UNL     1      18.455  14.925  30.196  1.00  0.00     0.039 C 
ATOM      9  C   UNL     1      18.826  16.127  29.756  1.00  0.00     0.012 C 
ENDBRANCH   6   8
ENDBRANCH   5   6
ENDBRANCH   1   5
TORSDOF 5
ENDMDL
MODEL 3
REMARK VINA RESULT:    -4.062      2.073      3.515
REMARK INTER + INTRA:          -5.703
REMARK INTER:                  -5.191
REMARK INTRA:                  -0.512
REMARK UNBOUND:                -0.453
REMARK SMILES C=CC(=O)CCCCC
REMARK SMILES IDX 6 1 7 2 8 3 9 4 5 5 3 6 4 7 2 8 1 9
REMARK H PARENT
REMARK Flexibility Score: inf
ROOT
ATOM      1  C   UNL     1      17.683  16.506  29.904  1.00  0.00     0.008 C 
ENDROOT
BRANCH   1   2
ATOM      2  C   UNL     1      17.187  17.905  30.298  1.00  0.00     0.000 C 
BRANCH   2   3
ATOM      3  C   UNL     1      15.873  18.284  29.597  1.00  0.00    -0.003 C 
ATOM      4  C   UNL     1      15.144  19.435  30.291  1.00  0.00     0.004 C 
ENDBRANCH   2   3
ENDBRANCH   1   2
BRANCH   1   5
ATOM      5  C   UNL     1      16.645  15.436  30.259  1.00  0.00     0.080 C 
BRANCH   5   6
ATOM      6  C   UNL     1      16.648  15.167  31.734  1.00  0.00     0.155 C 
ATOM      7  O   UNL     1      17.700  14.733  32.281  1.00  0.00    -0.295 OA
BRANCH   6   8
ATOM      8  C   UNL     1      15.419  15.365  32.525  1.00  0.00     0.039 C 
ATOM      9  C   UNL     1      14.876  16.568  32.713  1.00  0.00     0.012 C 
ENDBRANCH   6   8
ENDBRANCH   5   6
ENDBRANCH   1   5
TORSDOF 5
ENDMDL
MODEL 4
REMARK VINA RESULT:    -3.986      1.650      2.546
REMARK INTER + INTRA:          -5.605
REMARK INTER:                  -5.192
REMARK INTRA:                  -0.414
REMARK UNBOUND:                -0.453
REMARK SMILES C=CC(=O)CCCCC
REMARK SMILES IDX 6 1 7 2 8 3 9 4 5 5 3 6 4 7 2 8 1 9
REMARK H PARENT
REMARK Flexibility Score: inf
ROOT
ATOM      1  C   UNL     1      17.020  14.733  31.998  1.00  0.00     0.008 C 
ENDROOT
BRANCH   1   2
ATOM      2  C   UNL     1      18.255  14.452  31.129  1.00  0.00     0.000 C 
BRANCH   2   3
ATOM      3  C   UNL     1      18.184  15.147  29.760  1.00  0.00    -0.003 C 
ATOM      4  C   UNL     1      19.002  16.437  29.709  1.00  0.00     0.004 C 
ENDBRANCH   2   3
ENDBRANCH   1   2
BRANCH   1   5
ATOM      5  C   UNL     1      15.896  15.362  31.167  1.00  0.00     0.080 C 
BRANCH   5   6
ATOM      6  C   UNL     1      15.251  16.487  31.920  1.00  0.00     0.155 C 
ATOM      7  O   UNL     1      14.919  16.314  33.125  1.00  0.00    -0.295 OA
BRANCH   6   8
ATOM      8  C   UNL     1      14.968  17.765  31.240  1.00  0.00     0.039 C 
ATOM      9  C   UNL     1      15.660  18.180  30.180  1.00  0.00     0.012 C 
ENDBRANCH   6   8
ENDBRANCH   5   6
ENDBRANCH   1   5
TORSDOF 5
ENDMDL
MODEL 5
REMARK VINA RESULT:    -3.800      1.528      2.142
REMARK INTER + INTRA:          -5.365
REMARK INTER:                  -5.204
REMARK INTRA:                  -0.161
REMARK UNBOUND:                -0.453
REMARK SMILES C=CC(=O)CCCCC
REMARK SMILES IDX 6 1 7 2 8 3 9 4 5 5 3 6 4 7 2 8 1 9
REMARK H PARENT
REMARK Flexibility Score: inf
ROOT
ATOM      1  C   UNL     1      16.523  16.493  29.722  1.00  0.00     0.008 C 
ENDROOT
BRANCH   1   2
ATOM      2  C   UNL     1      17.828  16.147  30.453  1.00  0.00     0.000 C 
BRANCH   2   3
ATOM      3  C   UNL     1      18.189  14.657  30.345  1.00  0.00    -0.003 C 
ATOM      4  C   UNL     1      17.868  13.877  31.620  1.00  0.00     0.004 C 
ENDBRANCH   2   3
ENDBRANCH   1   2
BRANCH   1   5
ATOM      5  C   UNL     1      15.598  17.326  30.616  1.00  0.00     0.080 C 
BRANCH   5   6
ATOM      6  C   UNL     1      15.475  18.724  30.088  1.00  0.00     0.155 C 
ATOM      7  O   UNL     1      15.925  18.994  28.940  1.00  0.00    -0.295 OA
BRANCH   6   8
ATOM      8  C   UNL     1      14.875  19.781  30.926  1.00  0.00     0.039 C 
ATOM      9  C   UNL     1      14.890  21.067  30.575  1.00  0.00     0.012 C 
ENDBRANCH   6   8
ENDBRANCH   5   6
ENDBRANCH   1   5
TORSDOF 5
ENDMDL
MODEL 6
REMARK VINA RESULT:    -3.353     15.297     16.312
REMARK INTER + INTRA:          -4.787
REMARK INTER:                  -4.244
REMARK INTRA:                  -0.543
REMARK UNBOUND:                -0.453
REMARK SMILES C=CC(=O)CCCCC
REMARK SMILES IDX 6 1 7 2 8 3 9 4 5 5 3 6 4 7 2 8 1 9
REMARK H PARENT
REMARK Flexibility Score: inf
ROOT
ATOM      1  C   UNL     1      16.178  32.774  29.476  1.00  0.00     0.008 C 
ENDROOT
BRANCH   1   2
ATOM      2  C   UNL     1      15.535  31.442  29.887  1.00  0.00     0.000 C 
BRANCH   2   3
ATOM      3  C   UNL     1      14.906  31.497  31.288  1.00  0.00    -0.003 C 
ATOM      4  C   UNL     1      15.731  32.326  32.273  1.00  0.00     0.004 C 
ENDBRANCH   2   3
ENDBRANCH   1   2
BRANCH   1   5
ATOM      5  C   UNL     1      17.499  32.541  28.735  1.00  0.00     0.080 C 
BRANCH   5   6
ATOM      6  C   UNL     1      18.651  33.083  29.527  1.00  0.00     0.155 C 
ATOM      7  O   UNL     1      19.245  34.120  29.123  1.00  0.00    -0.295 OA
BRANCH   6   8
ATOM      8  C   UNL     1      19.109  32.381  30.741  1.00  0.00     0.039 C 
ATOM      9  C   UNL     1      19.186  31.053  30.813  1.00  0.00     0.012 C 
ENDBRANCH   6   8
ENDBRANCH   5   6
ENDBRANCH   1   5
TORSDOF 5
ENDMDL
MODEL 7
REMARK VINA RESULT:    -3.333     14.296     15.699
REMARK INTER + INTRA:          -4.761
REMARK INTER:                  -4.281
REMARK INTRA:                  -0.480
REMARK UNBOUND:                -0.453
REMARK SMILES C=CC(=O)CCCCC
REMARK SMILES IDX 6 1 7 2 8 3 9 4 5 5 3 6 4 7 2 8 1 9
REMARK H PARENT
REMARK Flexibility Score: inf
ROOT
ATOM      1  C   UNL     1      17.528  32.551  28.651  1.00  0.00     0.008 C 
ENDROOT
BRANCH   1   2
ATOM      2  C   UNL     1      18.677  33.223  29.415  1.00  0.00     0.000 C 
BRANCH   2   3
ATOM      3  C   UNL     1      19.660  32.206  30.017  1.00  0.00    -0.003 C 
ATOM      4  C   UNL     1      19.526  30.816  29.396  1.00  0.00     0.004 C 
ENDBRANCH   2   3
ENDBRANCH   1   2
BRANCH   1   5
ATOM      5  C   UNL     1      16.170  32.966  29.227  1.00  0.00     0.080 C 
BRANCH   5   6
ATOM      6  C   UNL     1      15.803  32.095  30.391  1.00  0.00     0.155 C 
ATOM      7  O   UNL     1      15.480  32.630  31.487  1.00  0.00    -0.295 OA
BRANCH   6   8
ATOM      8  C   UNL     1      15.863  30.626  30.263  1.00  0.00     0.039 C 
ATOM      9  C   UNL     1      15.006  29.937  29.511  1.00  0.00     0.012 C 
ENDBRANCH   6   8
ENDBRANCH   5   6
ENDBRANCH   1   5
TORSDOF 5
ENDMDL
MODEL 8
REMARK VINA RESULT:    -3.293     19.803     21.116
REMARK INTER + INTRA:          -4.710
REMARK INTER:                  -4.169
REMARK INTRA:                  -0.541
REMARK UNBOUND:                -0.453
REMARK SMILES C=CC(=O)CCCCC
REMARK SMILES IDX 6 1 7 2 8 3 9 4 5 5 3 6 4 7 2 8 1 9
REMARK H PARENT
REMARK Flexibility Score: inf
ROOT
ATOM      1  C   UNL     1      29.050  33.396  28.248  1.00  0.00     0.008 C 
ENDROOT
BRANCH   1   2
ATOM      2  C   UNL     1      28.372  34.125  29.417  1.00  0.00     0.000 C 
BRANCH   2   3
ATOM      3  C   UNL     1      28.097  33.197  30.611  1.00  0.00    -0.003 C 
ATOM      4  C   UNL     1      27.160  32.042  30.259  1.00  0.00     0.004 C 
ENDBRANCH   2   3
ENDBRANCH   1   2
BRANCH   1   5
ATOM      5  C   UNL     1      30.568  33.604  28.278  1.00  0.00     0.080 C 
BRANCH   5   6
ATOM      6  C   UNL     1      31.280  32.285  28.265  1.00  0.00     0.155 C 
ATOM      7  O   UNL     1      32.503  32.245  27.956  1.00  0.00    -0.295 OA
BRANCH   6   8
ATOM      8  C   UNL     1      30.543  31.043  28.568  1.00  0.00     0.039 C 
ATOM      9  C   UNL     1      30.565  30.473  29.773  1.00  0.00     0.012 C 
ENDBRANCH   6   8
ENDBRANCH   5   6
ENDBRANCH   1   5
TORSDOF 5
ENDMDL
MODEL 9
REMARK VINA RESULT:    -3.238     19.784     21.029
REMARK INTER + INTRA:          -4.638
REMARK INTER:                  -4.098
REMARK INTRA:                  -0.541
REMARK UNBOUND:                -0.453
REMARK SMILES C=CC(=O)CCCCC
REMARK SMILES IDX 6 1 7 2 8 3 9 4 5 5 3 6 4 7 2 8 1 9
REMARK H PARENT
REMARK Flexibility Score: inf
ROOT
ATOM      1  C   UNL     1      30.598  30.515  30.034  1.00  0.00     0.008 C 
ENDROOT
BRANCH   1   2
ATOM      2  C   UNL     1      29.501  30.785  31.074  1.00  0.00     0.000 C 
BRANCH   2   3
ATOM      3  C   UNL     1      30.036  31.503  32.323  1.00  0.00    -0.003 C 
ATOM      4  C   UNL     1      30.416  32.958  32.050  1.00  0.00     0.004 C 
ENDBRANCH   2   3
ENDBRANCH   1   2
BRANCH   1   5
ATOM      5  C   UNL     1      30.178  31.021  28.650  1.00  0.00     0.080 C 
BRANCH   5   6
ATOM      6  C   UNL     1      30.987  32.221  28.260  1.00  0.00     0.155 C 
ATOM      7  O   UNL     1      32.221  32.089  28.031  1.00  0.00    -0.295 OA
BRANCH   6   8
ATOM      8  C   UNL     1      30.350  33.551  28.191  1.00  0.00     0.039 C 
ATOM      9  C   UNL     1      29.092  33.763  28.575  1.00  0.00     0.012 C 
ENDBRANCH   6   8
ENDBRANCH   5   6
ENDBRANCH   1   5
TORSDOF 5
ENDMDL
