MODEL 1
REMARK VINA RESULT:    -3.141      0.000      0.000
REMARK INTER + INTRA:          -4.733
REMARK INTER:                  -4.243
REMARK INTRA:                  -0.490
REMARK UNBOUND:                -0.490
REMARK SMILES CCCCCCCC(=O)[O-]
REMARK SMILES IDX 5 1 6 2 7 3 8 4 9 5 10 6 4 7 3 8 2 9 1 10
REMARK H PARENT
REMARK Flexibility Score: inf
ROOT
ATOM      1  C   UNL     1     -37.767 -34.046  27.629  1.00  0.00     0.000 C 
ENDROOT
BRANCH   1   2
ATOM      2  C   UNL     1     -37.928 -34.179  26.107  1.00  0.00     0.006 C 
BRANCH   2   3
ATOM      3  C   UNL     1     -37.649 -32.861  25.375  1.00  0.00     0.053 C 
BRANCH   3   4
ATOM      4  C   UNL     1     -38.337 -32.808  24.045  1.00  0.00     0.041 C 
ATOM      5  O   UNL     1     -39.584 -32.636  23.982  1.00  0.00    -0.550 OA
ATOM      6  O   UNL     1     -37.607 -32.981  22.877  1.00  0.00    -0.550 OA
ENDBRANCH   3   4
ENDBRANCH   2   3
ENDBRANCH   1   2
BRANCH   1   7
ATOM      7  C   UNL     1     -38.210 -32.658  28.108  1.00  0.00     0.000 C 
BRANCH   7   8
ATOM      8  C   UNL     1     -39.485 -32.753  28.961  1.00  0.00    -0.000 C 
BRANCH   8   9
ATOM      9  C   UNL     1     -40.698 -32.095  28.285  1.00  0.00    -0.003 C 
ATOM     10  C   UNL     1     -41.302 -32.963  27.181  1.00  0.00     0.004 C 
ENDBRANCH   8   9
ENDBRANCH   7   8
ENDBRANCH   1   7
TORSDOF 6
ENDMDL
MODEL 2
REMARK VINA RESULT:    -3.105      2.267      4.379
REMARK INTER + INTRA:          -4.684
REMARK INTER:                  -4.324
REMARK INTRA:                  -0.360
REMARK UNBOUND:                -0.490
REMARK SMILES CCCCCCCC(=O)[O-]
REMARK SMILES IDX 5 1 6 2 7 3 8 4 9 5 10 6 4 7 3 8 2 9 1 10
REMARK H PARENT
REMARK Flexibility Score: inf
ROOT
ATOM      1  C   UNL     1     -37.675 -34.031  27.611  1.00  0.00     0.000 C 
ENDROOT
BRANCH   1   2
ATOM      2  C   UNL     1     -38.358 -32.742  28.093  1.00  0.00     0.006 C 
BRANCH   2   3
ATOM      3  C   UNL     1     -39.485 -33.022  29.096  1.00  0.00     0.053 C 
BRANCH   3   4
ATOM      4  C   UNL     1     -40.830 -32.687  28.527  1.00  0.00     0.041 C 
ATOM      5  O   UNL     1     -41.587 -31.876  29.123  1.00  0.00    -0.550 OA
ATOM      6  O   UNL     1     -41.260 -33.296  27.355  1.00  0.00    -0.550 OA
ENDBRANCH   3   4
ENDBRANCH   2   3
ENDBRANCH   1   2
BRANCH   1   7
ATOM      7  C   UNL     1     -37.902 -34.243  26.110  1.00  0.00     0.000 C 
BRANCH   7   8
ATOM      8  C   UNL     1     -38.318 -32.932  25.426  1.00  0.00    -0.000 C 
BRANCH   8   9
ATOM      9  C   UNL     1     -38.575 -33.105  23.921  1.00  0.00    -0.003 C 
ATOM     10  C   UNL     1     -37.382 -32.680  23.065  1.00  0.00     0.004 C 
ENDBRANCH   8   9
ENDBRANCH   7   8
ENDBRANCH   1   7
TORSDOF 6
ENDMDL
MODEL 3
REMARK VINA RESULT:    -3.079     12.904     14.290
REMARK INTER + INTRA:          -4.649
REMARK INTER:                  -4.290
REMARK INTRA:                  -0.359
REMARK UNBOUND:                -0.490
REMARK SMILES CCCCCCCC(=O)[O-]
REMARK SMILES IDX 5 1 6 2 7 3 8 4 9 5 10 6 4 7 3 8 2 9 1 10
REMARK H PARENT
REMARK Flexibility Score: inf
ROOT
ATOM      1  C   UNL     1     -45.247 -35.715  12.349  1.00  0.00     0.000 C 
ENDROOT
BRANCH   1   2
ATOM      2  C   UNL     1     -44.652 -36.899  13.125  1.00  0.00     0.006 C 
BRANCH   2   3
ATOM      3  C   UNL     1     -44.969 -36.829  14.624  1.00  0.00     0.053 C 
BRANCH   3   4
ATOM      4  C   UNL     1     -44.247 -37.893  15.394  1.00  0.00     0.041 C 
ATOM      5  O   UNL     1     -43.172 -38.378  14.952  1.00  0.00    -0.550 OA
ATOM      6  O   UNL     1     -44.779 -38.372  16.584  1.00  0.00    -0.550 OA
ENDBRANCH   3   4
ENDBRANCH   2   3
ENDBRANCH   1   2
BRANCH   1   7
ATOM      7  C   UNL     1     -45.835 -34.671  13.306  1.00  0.00     0.000 C 
BRANCH   7   8
ATOM      8  C   UNL     1     -45.555 -33.246  12.804  1.00  0.00    -0.000 C 
BRANCH   8   9
ATOM      9  C   UNL     1     -44.953 -32.344  13.893  1.00  0.00    -0.003 C 
ATOM     10  C   UNL     1     -45.130 -32.917  15.299  1.00  0.00     0.004 C 
ENDBRANCH   8   9
ENDBRANCH   7   8
ENDBRANCH   1   7
TORSDOF 6
ENDMDL
MODEL 4
REMARK VINA RESULT:    -3.072     12.691     14.560
REMARK INTER + INTRA:          -4.640
REMARK INTER:                  -4.388
REMARK INTRA:                  -0.252
REMARK UNBOUND:                -0.490
REMARK SMILES CCCCCCCC(=O)[O-]
REMARK SMILES IDX 5 1 6 2 7 3 8 4 9 5 10 6 4 7 3 8 2 9 1 10
REMARK H PARENT
REMARK Flexibility Score: inf
ROOT
ATOM      1  C   UNL     1     -44.604 -36.699  12.616  1.00  0.00     0.000 C 
ENDROOT
BRANCH   1   2
ATOM      2  C   UNL     1     -45.228 -37.662  13.638  1.00  0.00     0.006 C 
BRANCH   2   3
ATOM      3  C   UNL     1     -44.216 -38.124  14.694  1.00  0.00     0.053 C 
BRANCH   3   4
ATOM      4  C   UNL     1     -44.563 -37.607  16.057  1.00  0.00     0.041 C 
ATOM      5  O   UNL     1     -44.577 -36.367  16.282  1.00  0.00    -0.550 OA
ATOM      6  O   UNL     1     -44.838 -38.495  17.088  1.00  0.00    -0.550 OA
ENDBRANCH   3   4
ENDBRANCH   2   3
ENDBRANCH   1   2
BRANCH   1   7
ATOM      7  C   UNL     1     -45.615 -35.631  12.180  1.00  0.00     0.000 C 
BRANCH   7   8
ATOM      8  C   UNL     1     -45.757 -34.540  13.252  1.00  0.00    -0.000 C 
BRANCH   8   9
ATOM      9  C   UNL     1     -46.045 -33.155  12.650  1.00  0.00    -0.003 C 
ATOM     10  C   UNL     1     -45.000 -32.111  13.044  1.00  0.00     0.004 C 
ENDBRANCH   8   9
ENDBRANCH   7   8
ENDBRANCH   1   7
TORSDOF 6
ENDMDL
MODEL 5
REMARK VINA RESULT:    -3.020     11.795     13.798
REMARK INTER + INTRA:          -4.569
REMARK INTER:                  -4.285
REMARK INTRA:                  -0.284
REMARK UNBOUND:                -0.490
REMARK SMILES CCCCCCCC(=O)[O-]
REMARK SMILES IDX 5 1 6 2 7 3 8 4 9 5 10 6 4 7 3 8 2 9 1 10
REMARK H PARENT
REMARK Flexibility Score: inf
ROOT
ATOM      1  C   UNL     1     -43.914 -38.208  14.601  1.00  0.00     0.000 C 
ENDROOT
BRANCH   1   2
ATOM      2  C   UNL     1     -45.015 -37.763  15.576  1.00  0.00     0.006 C 
BRANCH   2   3
ATOM      3  C   UNL     1     -44.703 -38.158  17.025  1.00  0.00     0.053 C 
BRANCH   3   4
ATOM      4  C   UNL     1     -44.716 -36.971  17.939  1.00  0.00     0.041 C 
ATOM      5  O   UNL     1     -45.264 -35.897  17.576  1.00  0.00    -0.550 OA
ATOM      6  O   UNL     1     -44.095 -37.042  19.179  1.00  0.00    -0.550 OA
ENDBRANCH   3   4
ENDBRANCH   2   3
ENDBRANCH   1   2
BRANCH   1   7
ATOM      7  C   UNL     1     -44.311 -37.907  13.151  1.00  0.00     0.000 C 
BRANCH   7   8
ATOM      8  C   UNL     1     -45.507 -36.945  13.097  1.00  0.00    -0.000 C 
BRANCH   8   9
ATOM      9  C   UNL     1     -45.221 -35.692  12.254  1.00  0.00    -0.003 C 
ATOM     10  C   UNL     1     -45.559 -34.395  12.989  1.00  0.00     0.004 C 
ENDBRANCH   8   9
ENDBRANCH   7   8
ENDBRANCH   1   7
TORSDOF 6
ENDMDL
MODEL 6
REMARK VINA RESULT:    -2.990     11.363     12.658
REMARK INTER + INTRA:          -4.528
REMARK INTER:                  -4.275
REMARK INTRA:                  -0.254
REMARK UNBOUND:                -0.490
REMARK SMILES CCCCCCCC(=O)[O-]
REMARK SMILES IDX 5 1 6 2 7 3 8 4 9 5 10 6 4 7 3 8 2 9 1 10
REMARK H PARENT
REMARK Flexibility Score: inf
ROOT
ATOM      1  C   UNL     1     -45.609 -38.189  16.449  1.00  0.00     0.000 C 
ENDROOT
BRANCH   1   2
ATOM      2  C   UNL     1     -44.384 -37.507  15.821  1.00  0.00     0.006 C 
BRANCH   2   3
ATOM      3  C   UNL     1     -43.839 -38.287  14.618  1.00  0.00     0.053 C 
BRANCH   3   4
ATOM      4  C   UNL     1     -44.563 -37.936  13.354  1.00  0.00     0.041 C 
ATOM      5  O   UNL     1     -44.509 -36.764  12.896  1.00  0.00    -0.550 OA
ATOM      6  O   UNL     1     -45.325 -38.895  12.700  1.00  0.00    -0.550 OA
ENDBRANCH   3   4
ENDBRANCH   2   3
ENDBRANCH   1   2
BRANCH   1   7
ATOM      7  C   UNL     1     -45.602 -38.034  17.974  1.00  0.00     0.000 C 
BRANCH   7   8
ATOM      8  C   UNL     1     -44.952 -36.705  18.388  1.00  0.00    -0.000 C 
BRANCH   8   9
ATOM      9  C   UNL     1     -43.961 -36.868  19.552  1.00  0.00    -0.003 C 
ATOM     10  C   UNL     1     -44.527 -36.373  20.883  1.00  0.00     0.004 C 
ENDBRANCH   8   9
ENDBRANCH   7   8
ENDBRANCH   1   7
TORSDOF 6
ENDMDL
MODEL 7
REMARK VINA RESULT:    -2.976     11.014     13.006
REMARK INTER + INTRA:          -4.510
REMARK INTER:                  -4.303
REMARK INTRA:                  -0.207
REMARK UNBOUND:                -0.490
REMARK SMILES CCCCCCCC(=O)[O-]
REMARK SMILES IDX 5 1 6 2 7 3 8 4 9 5 10 6 4 7 3 8 2 9 1 10
REMARK H PARENT
REMARK Flexibility Score: inf
ROOT
ATOM      1  C   UNL     1     -45.259 -37.960  15.974  1.00  0.00     0.000 C 
ENDROOT
BRANCH   1   2
ATOM      2  C   UNL     1     -44.926 -38.172  17.458  1.00  0.00     0.006 C 
BRANCH   2   3
ATOM      3  C   UNL     1     -45.132 -36.898  18.287  1.00  0.00     0.053 C 
BRANCH   3   4
ATOM      4  C   UNL     1     -44.451 -36.987  19.619  1.00  0.00     0.041 C 
ATOM      5  O   UNL     1     -43.242 -36.653  19.738  1.00  0.00    -0.550 OA
ATOM      6  O   UNL     1     -45.143 -37.469  20.722  1.00  0.00    -0.550 OA
ENDBRANCH   3   4
ENDBRANCH   2   3
ENDBRANCH   1   2
BRANCH   1   7
ATOM      7  C   UNL     1     -44.020 -38.178  15.096  1.00  0.00     0.000 C 
BRANCH   7   8
ATOM      8  C   UNL     1     -44.292 -37.748  13.646  1.00  0.00    -0.000 C 
BRANCH   8   9
ATOM      9  C   UNL     1     -45.317 -36.606  13.550  1.00  0.00    -0.003 C 
ATOM     10  C   UNL     1     -45.123 -35.742  12.304  1.00  0.00     0.004 C 
ENDBRANCH   8   9
ENDBRANCH   7   8
ENDBRANCH   1   7
TORSDOF 6
ENDMDL
MODEL 8
REMARK VINA RESULT:    -2.970     13.142     14.584
REMARK INTER + INTRA:          -4.501
REMARK INTER:                  -4.112
REMARK INTRA:                  -0.389
REMARK UNBOUND:                -0.490
REMARK SMILES CCCCCCCC(=O)[O-]
REMARK SMILES IDX 5 1 6 2 7 3 8 4 9 5 10 6 4 7 3 8 2 9 1 10
REMARK H PARENT
REMARK Flexibility Score: inf
ROOT
ATOM      1  C   UNL     1     -45.011 -35.904  12.330  1.00  0.00     0.000 C 
ENDROOT
BRANCH   1   2
ATOM      2  C   UNL     1     -45.796 -34.615  12.615  1.00  0.00     0.006 C 
BRANCH   2   3
ATOM      3  C   UNL     1     -45.696 -34.186  14.085  1.00  0.00     0.053 C 
BRANCH   3   4
ATOM      4  C   UNL     1     -45.312 -32.744  14.217  1.00  0.00     0.041 C 
ATOM      5  O   UNL     1     -45.693 -32.074  15.213  1.00  0.00    -0.550 OA
ATOM      6  O   UNL     1     -44.559 -32.132  13.224  1.00  0.00    -0.550 OA
ENDBRANCH   3   4
ENDBRANCH   2   3
ENDBRANCH   1   2
BRANCH   1   7
ATOM      7  C   UNL     1     -45.615 -37.093  13.087  1.00  0.00     0.000 C 
BRANCH   7   8
ATOM      8  C   UNL     1     -44.568 -38.197  13.301  1.00  0.00    -0.000 C 
BRANCH   8   9
ATOM      9  C   UNL     1     -43.908 -38.125  14.687  1.00  0.00    -0.003 C 
ATOM     10  C   UNL     1     -44.858 -37.607  15.767  1.00  0.00     0.004 C 
ENDBRANCH   8   9
ENDBRANCH   7   8
ENDBRANCH   1   7
TORSDOF 6
ENDMDL
MODEL 9
REMARK VINA RESULT:    -2.909     11.915     13.820
REMARK INTER + INTRA:          -4.420
REMARK INTER:                  -3.888
REMARK INTRA:                  -0.532
REMARK UNBOUND:                -0.490
REMARK SMILES CCCCCCCC(=O)[O-]
REMARK SMILES IDX 5 1 6 2 7 3 8 4 9 5 10 6 4 7 3 8 2 9 1 10
REMARK H PARENT
REMARK Flexibility Score: inf
ROOT
ATOM      1  C   UNL     1     -44.225 -38.145  15.584  1.00  0.00     0.000 C 
ENDROOT
BRANCH   1   2
ATOM      2  C   UNL     1     -45.449 -37.510  16.259  1.00  0.00     0.006 C 
BRANCH   2   3
ATOM      3  C   UNL     1     -45.064 -36.354  17.191  1.00  0.00     0.053 C 
BRANCH   3   4
ATOM      4  C   UNL     1     -45.018 -35.046  16.462  1.00  0.00     0.041 C 
ATOM      5  O   UNL     1     -45.827 -34.812  15.525  1.00  0.00    -0.550 OA
ATOM      6  O   UNL     1     -44.059 -34.098  16.795  1.00  0.00    -0.550 OA
ENDBRANCH   3   4
ENDBRANCH   2   3
ENDBRANCH   1   2
BRANCH   1   7
ATOM      7  C   UNL     1     -44.239 -37.892  14.072  1.00  0.00     0.000 C 
BRANCH   7   8
ATOM      8  C   UNL     1     -45.650 -38.086  13.496  1.00  0.00    -0.000 C 
BRANCH   8   9
ATOM      9  C   UNL     1     -46.125 -36.876  12.675  1.00  0.00    -0.003 C 
ATOM     10  C   UNL     1     -44.987 -35.917  12.324  1.00  0.00     0.004 C 
ENDBRANCH   8   9
ENDBRANCH   7   8
ENDBRANCH   1   7
TORSDOF 6
ENDMDL
