MODEL 1
REMARK VINA RESULT:    -4.708      0.000      0.000
REMARK INTER + INTRA:          -6.544
REMARK INTER:                  -6.085
REMARK INTRA:                  -0.460
REMARK UNBOUND:                -0.460
REMARK SMILES C=CC(=O)CCCCC
REMARK SMILES IDX 6 1 7 2 8 3 9 4 5 5 3 6 4 7 2 8 1 9
REMARK H PARENT
REMARK Flexibility Score: inf
ROOT
ATOM      1  C   UNL     1      31.039  18.144  26.612  1.00  0.00     0.008 C 
ENDROOT
BRANCH   1   2
ATOM      2  C   UNL     1      30.860  16.670  26.219  1.00  0.00     0.000 C 
BRANCH   2   3
ATOM      3  C   UNL     1      29.492  16.143  26.671  1.00  0.00    -0.003 C 
ATOM      4  C   UNL     1      29.644  15.025  27.698  1.00  0.00     0.004 C 
ENDBRANCH   2   3
ENDBRANCH   1   2
BRANCH   1   5
ATOM      5  C   UNL     1      31.216  18.325  28.125  1.00  0.00     0.080 C 
BRANCH   5   6
ATOM      6  C   UNL     1      32.663  18.289  28.529  1.00  0.00     0.155 C 
ATOM      7  O   UNL     1      33.419  19.245  28.206  1.00  0.00    -0.295 OA
BRANCH   6   8
ATOM      8  C   UNL     1      33.195  17.128  29.268  1.00  0.00     0.039 C 
ATOM      9  C   UNL     1      33.510  15.982  28.669  1.00  0.00     0.012 C 
ENDBRANCH   6   8
ENDBRANCH   5   6
ENDBRANCH   1   5
TORSDOF 5
ENDMDL
MODEL 2
REMARK VINA RESULT:    -4.576      1.481      3.646
REMARK INTER + INTRA:          -6.374
REMARK INTER:                  -6.033
REMARK INTRA:                  -0.341
REMARK UNBOUND:                -0.460
REMARK SMILES C=CC(=O)CCCCC
REMARK SMILES IDX 6 1 7 2 8 3 9 4 5 5 3 6 4 7 2 8 1 9
REMARK H PARENT
REMARK Flexibility Score: inf
ROOT
ATOM      1  C   UNL     1      32.064  18.775  27.612  1.00  0.00     0.008 C 
ENDROOT
BRANCH   1   2
ATOM      2  C   UNL     1      33.187  18.430  28.601  1.00  0.00     0.000 C 
BRANCH   2   3
ATOM      3  C   UNL     1      32.911  17.096  29.303  1.00  0.00    -0.003 C 
ATOM      4  C   UNL     1      33.636  15.947  28.608  1.00  0.00     0.004 C 
ENDBRANCH   2   3
ENDBRANCH   1   2
BRANCH   1   5
ATOM      5  C   UNL     1      30.800  17.938  27.852  1.00  0.00     0.080 C 
BRANCH   5   6
ATOM      6  C   UNL     1      30.409  17.150  26.633  1.00  0.00     0.155 C 
ATOM      7  O   UNL     1      30.861  17.491  25.506  1.00  0.00    -0.295 OA
BRANCH   6   8
ATOM      8  C   UNL     1      29.480  16.011  26.756  1.00  0.00     0.039 C 
ATOM      9  C   UNL     1      29.553  15.134  27.755  1.00  0.00     0.012 C 
ENDBRANCH   6   8
ENDBRANCH   5   6
ENDBRANCH   1   5
TORSDOF 5
ENDMDL
MODEL 3
REMARK VINA RESULT:    -4.556      1.105      2.391
REMARK INTER + INTRA:          -6.347
REMARK INTER:                  -6.020
REMARK INTRA:                  -0.327
REMARK UNBOUND:                -0.460
REMARK SMILES C=CC(=O)CCCCC
REMARK SMILES IDX 6 1 7 2 8 3 9 4 5 5 3 6 4 7 2 8 1 9
REMARK H PARENT
REMARK Flexibility Score: inf
ROOT
ATOM      1  C   UNL     1      31.649  15.613  27.479  1.00  0.00     0.008 C 
ENDROOT
BRANCH   1   2
ATOM      2  C   UNL     1      30.386  15.040  28.139  1.00  0.00     0.000 C 
BRANCH   2   3
ATOM      3  C   UNL     1      29.184  15.126  27.190  1.00  0.00    -0.003 C 
ATOM      4  C   UNL     1      29.292  16.341  26.273  1.00  0.00     0.004 C 
ENDBRANCH   2   3
ENDBRANCH   1   2
BRANCH   1   5
ATOM      5  C   UNL     1      32.684  16.079  28.512  1.00  0.00     0.080 C 
BRANCH   5   6
ATOM      6  C   UNL     1      32.577  17.553  28.787  1.00  0.00     0.155 C 
ATOM      7  O   UNL     1      33.629  18.236  28.915  1.00  0.00    -0.295 OA
BRANCH   6   8
ATOM      8  C   UNL     1      31.251  18.182  28.937  1.00  0.00     0.039 C 
ATOM      9  C   UNL     1      30.820  19.144  28.125  1.00  0.00     0.012 C 
ENDBRANCH   6   8
ENDBRANCH   5   6
ENDBRANCH   1   5
TORSDOF 5
ENDMDL
MODEL 4
REMARK VINA RESULT:    -4.549      1.468      2.741
REMARK INTER + INTRA:          -6.339
REMARK INTER:                  -5.741
REMARK INTRA:                  -0.598
REMARK UNBOUND:                -0.460
REMARK SMILES C=CC(=O)CCCCC
REMARK SMILES IDX 6 1 7 2 8 3 9 4 5 5 3 6 4 7 2 8 1 9
REMARK H PARENT
REMARK Flexibility Score: inf
ROOT
ATOM      1  C   UNL     1      32.257  16.862  28.940  1.00  0.00     0.008 C 
ENDROOT
BRANCH   1   2
ATOM      2  C   UNL     1      31.843  15.990  27.746  1.00  0.00     0.000 C 
BRANCH   2   3
ATOM      3  C   UNL     1      30.389  15.522  27.886  1.00  0.00    -0.003 C 
ATOM      4  C   UNL     1      29.538  16.007  26.716  1.00  0.00     0.004 C 
ENDBRANCH   2   3
ENDBRANCH   1   2
BRANCH   1   5
ATOM      5  C   UNL     1      32.793  18.232  28.503  1.00  0.00     0.080 C 
BRANCH   5   6
ATOM      6  C   UNL     1      31.769  19.015  27.731  1.00  0.00     0.155 C 
ATOM      7  O   UNL     1      30.658  19.276  28.267  1.00  0.00    -0.295 OA
BRANCH   6   8
ATOM      8  C   UNL     1      32.054  19.443  26.348  1.00  0.00     0.039 C 
ATOM      9  C   UNL     1      31.554  18.815  25.287  1.00  0.00     0.012 C 
ENDBRANCH   6   8
ENDBRANCH   5   6
ENDBRANCH   1   5
TORSDOF 5
ENDMDL
MODEL 5
REMARK VINA RESULT:    -4.489      1.573      3.143
REMARK INTER + INTRA:          -6.260
REMARK INTER:                  -5.696
REMARK INTRA:                  -0.564
REMARK UNBOUND:                -0.460
REMARK SMILES C=CC(=O)CCCCC
REMARK SMILES IDX 6 1 7 2 8 3 9 4 5 5 3 6 4 7 2 8 1 9
REMARK H PARENT
REMARK Flexibility Score: inf
ROOT
ATOM      1  C   UNL     1      31.223  18.165  28.935  1.00  0.00     0.008 C 
ENDROOT
BRANCH   1   2
ATOM      2  C   UNL     1      31.009  16.831  28.204  1.00  0.00     0.000 C 
BRANCH   2   3
ATOM      3  C   UNL     1      32.322  16.045  28.101  1.00  0.00    -0.003 C 
ATOM      4  C   UNL     1      33.385  16.623  29.031  1.00  0.00     0.004 C 
ENDBRANCH   2   3
ENDBRANCH   1   2
BRANCH   1   5
ATOM      5  C   UNL     1      30.980  19.374  28.023  1.00  0.00     0.080 C 
BRANCH   5   6
ATOM      6  C   UNL     1      32.177  19.682  27.168  1.00  0.00     0.155 C 
ATOM      7  O   UNL     1      33.281  19.938  27.721  1.00  0.00    -0.295 OA
BRANCH   6   8
ATOM      8  C   UNL     1      32.048  19.712  25.699  1.00  0.00     0.039 C 
ATOM      9  C   UNL     1      31.582  18.679  25.001  1.00  0.00     0.012 C 
ENDBRANCH   6   8
ENDBRANCH   5   6
ENDBRANCH   1   5
TORSDOF 5
ENDMDL
MODEL 6
REMARK VINA RESULT:    -4.471      2.280      4.191
REMARK INTER + INTRA:          -6.237
REMARK INTER:                  -5.708
REMARK INTRA:                  -0.530
REMARK UNBOUND:                -0.460
REMARK SMILES C=CC(=O)CCCCC
REMARK SMILES IDX 6 1 7 2 8 3 9 4 5 5 3 6 4 7 2 8 1 9
REMARK H PARENT
REMARK Flexibility Score: inf
ROOT
ATOM      1  C   UNL     1      31.637  17.375  28.889  1.00  0.00     0.008 C 
ENDROOT
BRANCH   1   2
ATOM      2  C   UNL     1      32.940  18.143  28.621  1.00  0.00     0.000 C 
BRANCH   2   3
ATOM      3  C   UNL     1      32.668  19.425  27.824  1.00  0.00    -0.003 C 
ATOM      4  C   UNL     1      31.193  19.810  27.888  1.00  0.00     0.004 C 
ENDBRANCH   2   3
ENDBRANCH   1   2
BRANCH   1   5
ATOM      5  C   UNL     1      31.586  16.036  28.141  1.00  0.00     0.080 C 
BRANCH   5   6
ATOM      6  C   UNL     1      30.264  15.827  27.457  1.00  0.00     0.155 C 
ATOM      7  O   UNL     1      29.512  14.890  27.839  1.00  0.00    -0.295 OA
BRANCH   6   8
ATOM      8  C   UNL     1      29.870  16.693  26.329  1.00  0.00     0.039 C 
ATOM      9  C   UNL     1      30.738  17.106  25.408  1.00  0.00     0.012 C 
ENDBRANCH   6   8
ENDBRANCH   5   6
ENDBRANCH   1   5
TORSDOF 5
ENDMDL
MODEL 7
REMARK VINA RESULT:    -4.460      1.670      3.049
REMARK INTER + INTRA:          -6.224
REMARK INTER:                  -5.662
REMARK INTRA:                  -0.562
REMARK UNBOUND:                -0.460
REMARK SMILES C=CC(=O)CCCCC
REMARK SMILES IDX 6 1 7 2 8 3 9 4 5 5 3 6 4 7 2 8 1 9
REMARK H PARENT
REMARK Flexibility Score: inf
ROOT
ATOM      1  C   UNL     1      32.476  18.700  28.208  1.00  0.00     0.008 C 
ENDROOT
BRANCH   1   2
ATOM      2  C   UNL     1      31.338  19.148  27.279  1.00  0.00     0.000 C 
BRANCH   2   3
ATOM      3  C   UNL     1      31.774  19.088  25.810  1.00  0.00    -0.003 C 
ATOM      4  C   UNL     1      31.045  17.973  25.065  1.00  0.00     0.004 C 
ENDBRANCH   2   3
ENDBRANCH   1   2
BRANCH   1   5
ATOM      5  C   UNL     1      32.075  17.507  29.086  1.00  0.00     0.080 C 
BRANCH   5   6
ATOM      6  C   UNL     1      32.485  16.197  28.472  1.00  0.00     0.155 C 
ATOM      7  O   UNL     1      33.666  15.784  28.629  1.00  0.00    -0.295 OA
BRANCH   6   8
ATOM      8  C   UNL     1      31.519  15.423  27.670  1.00  0.00     0.039 C 
ATOM      9  C   UNL     1      30.203  15.528  27.839  1.00  0.00     0.012 C 
ENDBRANCH   6   8
ENDBRANCH   5   6
ENDBRANCH   1   5
TORSDOF 5
ENDMDL
MODEL 8
REMARK VINA RESULT:    -4.452      1.784      3.507
REMARK INTER + INTRA:          -6.213
REMARK INTER:                  -5.629
REMARK INTRA:                  -0.585
REMARK UNBOUND:                -0.460
REMARK SMILES C=CC(=O)CCCCC
REMARK SMILES IDX 6 1 7 2 8 3 9 4 5 5 3 6 4 7 2 8 1 9
REMARK H PARENT
REMARK Flexibility Score: inf
ROOT
ATOM      1  C   UNL     1      31.158  15.981  26.756  1.00  0.00     0.008 C 
ENDROOT
BRANCH   1   2
ATOM      2  C   UNL     1      31.473  15.914  28.258  1.00  0.00     0.000 C 
BRANCH   2   3
ATOM      3  C   UNL     1      32.983  16.011  28.507  1.00  0.00    -0.003 C 
ATOM      4  C   UNL     1      33.318  17.201  29.401  1.00  0.00     0.004 C 
ENDBRANCH   2   3
ENDBRANCH   1   2
BRANCH   1   5
ATOM      5  C   UNL     1      30.414  17.268  26.374  1.00  0.00     0.080 C 
BRANCH   5   6
ATOM      6  C   UNL     1      31.349  18.325  25.858  1.00  0.00     0.155 C 
ATOM      7  O   UNL     1      31.771  18.250  24.672  1.00  0.00    -0.295 OA
BRANCH   6   8
ATOM      8  C   UNL     1      31.789  19.419  26.744  1.00  0.00     0.039 C 
ATOM      9  C   UNL     1      31.121  19.761  27.844  1.00  0.00     0.012 C 
ENDBRANCH   6   8
ENDBRANCH   5   6
ENDBRANCH   1   5
TORSDOF 5
ENDMDL
MODEL 9
REMARK VINA RESULT:    -4.442      2.506      3.871
REMARK INTER + INTRA:          -6.200
REMARK INTER:                  -5.958
REMARK INTRA:                  -0.242
REMARK UNBOUND:                -0.460
REMARK SMILES C=CC(=O)CCCCC
REMARK SMILES IDX 6 1 7 2 8 3 9 4 5 5 3 6 4 7 2 8 1 9
REMARK H PARENT
REMARK Flexibility Score: inf
ROOT
ATOM      1  C   UNL     1      31.072  19.006  28.210  1.00  0.00     0.008 C 
ENDROOT
BRANCH   1   2
ATOM      2  C   UNL     1      31.512  17.818  29.078  1.00  0.00     0.000 C 
BRANCH   2   3
ATOM      3  C   UNL     1      33.037  17.659  29.060  1.00  0.00    -0.003 C 
ATOM      4  C   UNL     1      33.437  16.220  28.747  1.00  0.00     0.004 C 
ENDBRANCH   2   3
ENDBRANCH   1   2
BRANCH   1   5
ATOM      5  C   UNL     1      32.151  19.421  27.201  1.00  0.00     0.080 C 
BRANCH   5   6
ATOM      6  C   UNL     1      32.241  20.914  27.058  1.00  0.00     0.155 C 
ATOM      7  O   UNL     1      31.294  21.633  27.479  1.00  0.00    -0.295 OA
BRANCH   6   8
ATOM      8  C   UNL     1      33.413  21.524  26.402  1.00  0.00     0.039 C 
ATOM      9  C   UNL     1      34.650  21.381  26.873  1.00  0.00     0.012 C 
ENDBRANCH   6   8
ENDBRANCH   5   6
ENDBRANCH   1   5
TORSDOF 5
ENDMDL
