MODEL 1
REMARK VINA RESULT:    -5.426      0.000      0.000
REMARK INTER + INTRA:          -7.876
REMARK INTER:                  -6.695
REMARK INTRA:                  -1.181
REMARK UNBOUND:                -1.181
REMARK SMILES CC(C)=CCC[C@H](C)c1ccc(C)cc1
REMARK SMILES IDX 6 1 7 2 8 3 9 4 13 5 12 6 11 7 14 8 10 9 15 10 5 11 4 12
REMARK SMILES IDX 2 13 1 14 3 15
REMARK H PARENT
REMARK Flexibility Score: inf
ROOT
ATOM      1  C   UNL     1     -96.874 194.769 -17.233  1.00  0.00     0.012 C 
ENDROOT
BRANCH   1   2
ATOM      2  C   UNL     1     -96.769 194.630 -15.695  1.00  0.00     0.016 C 
ATOM      3  C   UNL     1     -97.743 193.589 -15.123  1.00  0.00     0.013 C 
BRANCH   2   4
ATOM      4  C   UNL     1     -96.988 195.977 -15.029  1.00  0.00    -0.045 A 
ATOM      5  C   UNL     1     -97.650 199.786 -13.102  1.00  0.00     0.044 C 
ATOM      6  C   UNL     1     -97.414 198.478 -13.796  1.00  0.00    -0.051 A 
ATOM      7  C   UNL     1     -96.141 197.890 -13.782  1.00  0.00     0.004 A 
ATOM      8  C   UNL     1     -98.479 197.799 -14.406  1.00  0.00     0.004 A 
ATOM      9  C   UNL     1     -95.928 196.653 -14.396  1.00  0.00     0.004 A 
ATOM     10  C   UNL     1     -98.267 196.562 -15.022  1.00  0.00     0.004 A 
ENDBRANCH   2   4
ENDBRANCH   1   2
BRANCH   1  11
ATOM     11  C   UNL     1     -95.523 194.645 -17.962  1.00  0.00     0.028 C 
BRANCH  11  12
ATOM     12  C   UNL     1     -94.710 195.919 -17.899  1.00  0.00    -0.028 C 
ATOM     13  C   UNL     1     -93.610 196.054 -17.130  1.00  0.00    -0.080 C 
ATOM     14  C   UNL     1     -92.875 197.370 -17.142  1.00  0.00     0.039 C 
ATOM     15  C   UNL     1     -93.105 194.922 -16.266  1.00  0.00     0.039 C 
ENDBRANCH  11  12
ENDBRANCH   1  11
TORSDOF 4
ENDMDL
MODEL 2
REMARK VINA RESULT:    -5.378      1.204      2.335
REMARK INTER + INTRA:          -7.817
REMARK INTER:                  -6.659
REMARK INTRA:                  -1.158
REMARK UNBOUND:                -1.181
REMARK SMILES CC(C)=CCC[C@H](C)c1ccc(C)cc1
REMARK SMILES IDX 6 1 7 2 8 3 9 4 13 5 12 6 11 7 14 8 10 9 15 10 5 11 4 12
REMARK SMILES IDX 2 13 1 14 3 15
REMARK H PARENT
REMARK Flexibility Score: inf
ROOT
ATOM      1  C   UNL     1     -97.877 194.950 -15.085  1.00  0.00     0.012 C 
ENDROOT
BRANCH   1   2
ATOM      2  C   UNL     1     -98.515 196.361 -15.114  1.00  0.00     0.016 C 
ATOM      3  C   UNL     1     -98.818 196.849 -16.538  1.00  0.00     0.013 C 
BRANCH   2   4
ATOM      4  C   UNL     1     -97.623 197.356 -14.394  1.00  0.00    -0.045 A 
ATOM      5  C   UNL     1     -95.119 200.186 -12.300  1.00  0.00     0.044 C 
ATOM      6  C   UNL     1     -95.982 199.217 -13.053  1.00  0.00    -0.051 A 
ATOM      7  C   UNL     1     -95.441 198.017 -13.537  1.00  0.00     0.004 A 
ATOM      8  C   UNL     1     -97.351 199.472 -13.219  1.00  0.00     0.004 A 
ATOM      9  C   UNL     1     -96.252 197.097 -14.205  1.00  0.00     0.004 A 
ATOM     10  C   UNL     1     -98.164 198.552 -13.889  1.00  0.00     0.004 A 
ENDBRANCH   2   4
ENDBRANCH   1   2
BRANCH   1  11
ATOM     11  C   UNL     1     -97.327 194.489 -16.448  1.00  0.00     0.028 C 
BRANCH  11  12
ATOM     12  C   UNL     1     -95.839 194.223 -16.415  1.00  0.00    -0.028 C 
ATOM     13  C   UNL     1     -94.930 195.049 -16.972  1.00  0.00    -0.080 C 
ATOM     14  C   UNL     1     -93.470 194.686 -16.881  1.00  0.00     0.039 C 
ATOM     15  C   UNL     1     -95.343 196.319 -17.679  1.00  0.00     0.039 C 
ENDBRANCH  11  12
ENDBRANCH   1  11
TORSDOF 4
ENDMDL
MODEL 3
REMARK VINA RESULT:    -5.306      2.262      5.027
REMARK INTER + INTRA:          -7.728
REMARK INTER:                  -7.042
REMARK INTRA:                  -0.686
REMARK UNBOUND:                -1.181
REMARK SMILES CC(C)=CCC[C@H](C)c1ccc(C)cc1
REMARK SMILES IDX 6 1 7 2 8 3 9 4 13 5 12 6 11 7 14 8 10 9 15 10 5 11 4 12
REMARK SMILES IDX 2 13 1 14 3 15
REMARK H PARENT
REMARK Flexibility Score: inf
ROOT
ATOM      1  C   UNL     1     -98.472 197.421 -14.704  1.00  0.00     0.012 C 
ENDROOT
BRANCH   1   2
ATOM      2  C   UNL     1     -97.996 197.068 -16.135  1.00  0.00     0.016 C 
ATOM      3  C   UNL     1     -98.951 197.577 -17.224  1.00  0.00     0.013 C 
BRANCH   2   4
ATOM      4  C   UNL     1     -97.798 195.568 -16.266  1.00  0.00    -0.045 A 
ATOM      5  C   UNL     1     -97.187 191.311 -16.674  1.00  0.00     0.044 C 
ATOM      6  C   UNL     1     -97.429 192.784 -16.532  1.00  0.00    -0.051 A 
ATOM      7  C   UNL     1     -97.488 193.372 -15.260  1.00  0.00     0.004 A 
ATOM      8  C   UNL     1     -97.528 193.597 -17.671  1.00  0.00     0.004 A 
ATOM      9  C   UNL     1     -97.676 194.750 -15.128  1.00  0.00     0.004 A 
ATOM     10  C   UNL     1     -97.716 194.976 -17.540  1.00  0.00     0.004 A 
ENDBRANCH   2   4
ENDBRANCH   1   2
BRANCH   1  11
ATOM     11  C   UNL     1     -97.501 198.339 -13.935  1.00  0.00     0.028 C 
BRANCH  11  12
ATOM     12  C   UNL     1     -96.094 197.787 -13.890  1.00  0.00    -0.028 C 
ATOM     13  C   UNL     1     -95.094 198.376 -13.201  1.00  0.00    -0.080 C 
ATOM     14  C   UNL     1     -93.727 197.741 -13.225  1.00  0.00     0.039 C 
ATOM     15  C   UNL     1     -95.316 199.647 -12.415  1.00  0.00     0.039 C 
ENDBRANCH  11  12
ENDBRANCH   1  11
TORSDOF 4
ENDMDL
MODEL 4
REMARK VINA RESULT:    -5.130      1.506      4.369
REMARK INTER + INTRA:          -7.512
REMARK INTER:                  -6.272
REMARK INTRA:                  -1.239
REMARK UNBOUND:                -1.181
REMARK SMILES CC(C)=CCC[C@H](C)c1ccc(C)cc1
REMARK SMILES IDX 6 1 7 2 8 3 9 4 13 5 12 6 11 7 14 8 10 9 15 10 5 11 4 12
REMARK SMILES IDX 2 13 1 14 3 15
REMARK H PARENT
REMARK Flexibility Score: inf
ROOT
ATOM      1  C   UNL     1     -96.913 197.323 -14.212  1.00  0.00     0.012 C 
ENDROOT
BRANCH   1   2
ATOM      2  C   UNL     1     -97.183 197.068 -15.715  1.00  0.00     0.016 C 
ATOM      3  C   UNL     1     -98.496 197.699 -16.200  1.00  0.00     0.013 C 
BRANCH   2   4
ATOM      4  C   UNL     1     -97.177 195.577 -16.004  1.00  0.00    -0.045 A 
ATOM      5  C   UNL     1     -97.215 191.334 -16.814  1.00  0.00     0.044 C 
ATOM      6  C   UNL     1     -97.173 192.804 -16.523  1.00  0.00    -0.051 A 
ATOM      7  C   UNL     1     -96.764 193.710 -17.512  1.00  0.00     0.004 A 
ATOM      8  C   UNL     1     -97.609 193.292 -15.282  1.00  0.00     0.004 A 
ATOM      9  C   UNL     1     -96.761 195.083 -17.255  1.00  0.00     0.004 A 
ATOM     10  C   UNL     1     -97.606 194.666 -15.022  1.00  0.00     0.004 A 
ENDBRANCH   2   4
ENDBRANCH   1   2
BRANCH   1  11
ATOM     11  C   UNL     1     -95.436 197.619 -13.888  1.00  0.00     0.028 C 
BRANCH  11  12
ATOM     12  C   UNL     1     -94.500 197.183 -14.993  1.00  0.00    -0.028 C 
ATOM     13  C   UNL     1     -93.878 195.986 -15.002  1.00  0.00    -0.080 C 
ATOM     14  C   UNL     1     -92.964 195.654 -16.154  1.00  0.00     0.039 C 
ATOM     15  C   UNL     1     -94.078 194.982 -13.891  1.00  0.00     0.039 C 
ENDBRANCH  11  12
ENDBRANCH   1  11
TORSDOF 4
ENDMDL
MODEL 5
REMARK VINA RESULT:    -5.101      1.858      5.826
REMARK INTER + INTRA:          -7.475
REMARK INTER:                  -6.727
REMARK INTRA:                  -0.748
REMARK UNBOUND:                -1.181
REMARK SMILES CC(C)=CCC[C@H](C)c1ccc(C)cc1
REMARK SMILES IDX 6 1 7 2 8 3 9 4 13 5 12 6 11 7 14 8 10 9 15 10 5 11 4 12
REMARK SMILES IDX 2 13 1 14 3 15
REMARK H PARENT
REMARK Flexibility Score: inf
ROOT
ATOM      1  C   UNL     1     -97.502 197.965 -14.018  1.00  0.00     0.012 C 
ENDROOT
BRANCH   1   2
ATOM      2  C   UNL     1     -96.144 197.239 -14.184  1.00  0.00     0.016 C 
ATOM      3  C   UNL     1     -95.144 198.033 -15.037  1.00  0.00     0.013 C 
BRANCH   2   4
ATOM      4  C   UNL     1     -96.356 195.856 -14.772  1.00  0.00    -0.045 A 
ATOM      5  C   UNL     1     -96.933 191.897 -16.401  1.00  0.00     0.044 C 
ATOM      6  C   UNL     1     -96.730 193.282 -15.863  1.00  0.00    -0.051 A 
ATOM      7  C   UNL     1     -97.832 194.113 -15.619  1.00  0.00     0.004 A 
ATOM      8  C   UNL     1     -95.443 193.732 -15.536  1.00  0.00     0.004 A 
ATOM      9  C   UNL     1     -97.648 195.391 -15.083  1.00  0.00     0.004 A 
ATOM     10  C   UNL     1     -95.256 195.009 -15.000  1.00  0.00     0.004 A 
ENDBRANCH   2   4
ENDBRANCH   1   2
BRANCH   1  11
ATOM     11  C   UNL     1     -97.388 199.502 -14.012  1.00  0.00     0.028 C 
BRANCH  11  12
ATOM     12  C   UNL     1     -97.684 200.100 -12.655  1.00  0.00    -0.028 C 
ATOM     13  C   UNL     1     -96.720 200.513 -11.806  1.00  0.00    -0.080 C 
ATOM     14  C   UNL     1     -97.128 201.094 -10.476  1.00  0.00     0.039 C 
ATOM     15  C   UNL     1     -95.255 200.406 -12.159  1.00  0.00     0.039 C 
ENDBRANCH  11  12
ENDBRANCH   1  11
TORSDOF 4
ENDMDL
MODEL 6
REMARK VINA RESULT:    -5.058      1.829      4.903
REMARK INTER + INTRA:          -7.423
REMARK INTER:                  -5.911
REMARK INTRA:                  -1.512
REMARK UNBOUND:                -1.181
REMARK SMILES CC(C)=CCC[C@H](C)c1ccc(C)cc1
REMARK SMILES IDX 6 1 7 2 8 3 9 4 13 5 12 6 11 7 14 8 10 9 15 10 5 11 4 12
REMARK SMILES IDX 2 13 1 14 3 15
REMARK H PARENT
REMARK Flexibility Score: inf
ROOT
ATOM      1  C   UNL     1     -97.029 197.719 -14.116  1.00  0.00     0.012 C 
ENDROOT
BRANCH   1   2
ATOM      2  C   UNL     1     -95.765 196.830 -14.222  1.00  0.00     0.016 C 
ATOM      3  C   UNL     1     -94.626 197.504 -15.001  1.00  0.00     0.013 C 
BRANCH   2   4
ATOM      4  C   UNL     1     -96.114 195.492 -14.850  1.00  0.00    -0.045 A 
ATOM      5  C   UNL     1     -97.152 191.713 -16.665  1.00  0.00     0.044 C 
ATOM      6  C   UNL     1     -96.783 193.010 -16.011  1.00  0.00    -0.051 A 
ATOM      7  C   UNL     1     -95.498 193.546 -16.178  1.00  0.00     0.004 A 
ATOM      8  C   UNL     1     -97.740 193.732 -15.282  1.00  0.00     0.004 A 
ATOM      9  C   UNL     1     -95.164 194.774 -15.600  1.00  0.00     0.004 A 
ATOM     10  C   UNL     1     -97.408 194.960 -14.702  1.00  0.00     0.004 A 
ENDBRANCH   2   4
ENDBRANCH   1   2
BRANCH   1  11
ATOM     11  C   UNL     1     -97.327 198.529 -15.392  1.00  0.00     0.028 C 
BRANCH  11  12
ATOM     12  C   UNL     1     -98.530 198.006 -16.144  1.00  0.00    -0.028 C 
ATOM     13  C   UNL     1     -98.435 197.335 -17.310  1.00  0.00    -0.080 C 
ATOM     14  C   UNL     1     -99.701 196.859 -17.977  1.00  0.00     0.039 C 
ATOM     15  C   UNL     1     -97.098 197.055 -17.955  1.00  0.00     0.039 C 
ENDBRANCH  11  12
ENDBRANCH   1  11
TORSDOF 4
ENDMDL
MODEL 7
REMARK VINA RESULT:    -4.928      1.544      3.433
REMARK INTER + INTRA:          -7.262
REMARK INTER:                  -6.172
REMARK INTRA:                  -1.090
REMARK UNBOUND:                -1.181
REMARK SMILES CC(C)=CCC[C@H](C)c1ccc(C)cc1
REMARK SMILES IDX 6 1 7 2 8 3 9 4 13 5 12 6 11 7 14 8 10 9 15 10 5 11 4 12
REMARK SMILES IDX 2 13 1 14 3 15
REMARK H PARENT
REMARK Flexibility Score: inf
ROOT
ATOM      1  C   UNL     1     -94.266 195.418 -13.994  1.00  0.00     0.012 C 
ENDROOT
BRANCH   1   2
ATOM      2  C   UNL     1     -94.658 196.529 -15.000  1.00  0.00     0.016 C 
ATOM      3  C   UNL     1     -93.440 197.219 -15.630  1.00  0.00     0.013 C 
BRANCH   2   4
ATOM      4  C   UNL     1     -95.555 197.553 -14.328  1.00  0.00    -0.045 A 
ATOM      5  C   UNL     1     -98.140 200.424 -12.395  1.00  0.00     0.044 C 
ATOM      6  C   UNL     1     -97.239 199.446 -13.089  1.00  0.00    -0.051 A 
ATOM      7  C   UNL     1     -95.861 199.447 -12.828  1.00  0.00     0.004 A 
ATOM      8  C   UNL     1     -97.775 198.479 -13.951  1.00  0.00     0.004 A 
ATOM      9  C   UNL     1     -95.025 198.513 -13.446  1.00  0.00     0.004 A 
ATOM     10  C   UNL     1     -96.941 197.543 -14.570  1.00  0.00     0.004 A 
ENDBRANCH   2   4
ENDBRANCH   1   2
BRANCH   1  11
ATOM     11  C   UNL     1     -94.896 194.047 -14.306  1.00  0.00     0.028 C 
BRANCH  11  12
ATOM     12  C   UNL     1     -95.537 194.001 -15.675  1.00  0.00    -0.028 C 
ATOM     13  C   UNL     1     -96.873 193.970 -15.861  1.00  0.00    -0.080 C 
ATOM     14  C   UNL     1     -97.407 193.923 -17.270  1.00  0.00     0.039 C 
ATOM     15  C   UNL     1     -97.836 193.981 -14.697  1.00  0.00     0.039 C 
ENDBRANCH  11  12
ENDBRANCH   1  11
TORSDOF 4
ENDMDL
MODEL 8
REMARK VINA RESULT:    -4.661      1.816      3.850
REMARK INTER + INTRA:          -6.932
REMARK INTER:                  -6.373
REMARK INTRA:                  -0.560
REMARK UNBOUND:                -1.181
REMARK SMILES CC(C)=CCC[C@H](C)c1ccc(C)cc1
REMARK SMILES IDX 6 1 7 2 8 3 9 4 13 5 12 6 11 7 14 8 10 9 15 10 5 11 4 12
REMARK SMILES IDX 2 13 1 14 3 15
REMARK H PARENT
REMARK Flexibility Score: inf
ROOT
ATOM      1  C   UNL     1     -98.460 196.825 -14.726  1.00  0.00     0.012 C 
ENDROOT
BRANCH   1   2
ATOM      2  C   UNL     1     -98.031 198.306 -14.580  1.00  0.00     0.016 C 
ATOM      3  C   UNL     1     -97.990 199.051 -15.922  1.00  0.00     0.013 C 
BRANCH   2   4
ATOM      4  C   UNL     1     -96.683 198.396 -13.886  1.00  0.00    -0.045 A 
ATOM      5  C   UNL     1     -92.876 198.657 -11.862  1.00  0.00     0.044 C 
ATOM      6  C   UNL     1     -94.186 198.581 -12.588  1.00  0.00    -0.051 A 
ATOM      7  C   UNL     1     -94.480 197.477 -13.400  1.00  0.00     0.004 A 
ATOM      8  C   UNL     1     -95.154 199.580 -12.406  1.00  0.00     0.004 A 
ATOM      9  C   UNL     1     -95.716 197.387 -14.048  1.00  0.00     0.004 A 
ATOM     10  C   UNL     1     -96.390 199.491 -13.053  1.00  0.00     0.004 A 
ENDBRANCH   2   4
ENDBRANCH   1   2
BRANCH   1  11
ATOM     11  C   UNL     1     -98.536 196.342 -16.187  1.00  0.00     0.028 C 
BRANCH  11  12
ATOM     12  C   UNL     1     -97.264 195.662 -16.641  1.00  0.00    -0.028 C 
ATOM     13  C   UNL     1     -96.835 194.488 -16.133  1.00  0.00    -0.080 C 
ATOM     14  C   UNL     1     -95.551 193.898 -16.657  1.00  0.00     0.039 C 
ATOM     15  C   UNL     1     -97.610 193.759 -15.060  1.00  0.00     0.039 C 
ENDBRANCH  11  12
ENDBRANCH   1  11
TORSDOF 4
ENDMDL
MODEL 9
REMARK VINA RESULT:    -4.547      1.583      2.376
REMARK INTER + INTRA:          -6.791
REMARK INTER:                  -5.268
REMARK INTRA:                  -1.523
REMARK UNBOUND:                -1.181
REMARK SMILES CC(C)=CCC[C@H](C)c1ccc(C)cc1
REMARK SMILES IDX 6 1 7 2 8 3 9 4 13 5 12 6 11 7 14 8 10 9 15 10 5 11 4 12
REMARK SMILES IDX 2 13 1 14 3 15
REMARK H PARENT
REMARK Flexibility Score: inf
ROOT
ATOM      1  C   UNL     1     -97.324 194.332 -15.199  1.00  0.00     0.012 C 
ENDROOT
BRANCH   1   2
ATOM      2  C   UNL     1     -97.821 195.364 -16.241  1.00  0.00     0.016 C 
ATOM      3  C   UNL     1     -97.164 195.185 -17.617  1.00  0.00     0.013 C 
BRANCH   2   4
ATOM      4  C   UNL     1     -97.598 196.776 -15.730  1.00  0.00    -0.045 A 
ATOM      5  C   UNL     1     -96.987 200.814 -14.324  1.00  0.00     0.044 C 
ATOM      6  C   UNL     1     -97.174 199.404 -14.798  1.00  0.00    -0.051 A 
ATOM      7  C   UNL     1     -97.902 198.488 -14.025  1.00  0.00     0.004 A 
ATOM      8  C   UNL     1     -96.681 199.009 -16.051  1.00  0.00     0.004 A 
ATOM      9  C   UNL     1     -98.108 197.185 -14.484  1.00  0.00     0.004 A 
ATOM     10  C   UNL     1     -96.887 197.705 -16.511  1.00  0.00     0.004 A 
ENDBRANCH   2   4
ENDBRANCH   1   2
BRANCH   1  11
ATOM     11  C   UNL     1     -95.803 194.089 -15.242  1.00  0.00     0.028 C 
BRANCH  11  12
ATOM     12  C   UNL     1     -95.042 195.010 -14.315  1.00  0.00    -0.028 C 
ATOM     13  C   UNL     1     -94.092 195.867 -14.745  1.00  0.00    -0.080 C 
ATOM     14  C   UNL     1     -93.394 196.740 -13.734  1.00  0.00     0.039 C 
ATOM     15  C   UNL     1     -93.718 195.966 -16.205  1.00  0.00     0.039 C 
ENDBRANCH  11  12
ENDBRANCH   1  11
TORSDOF 4
ENDMDL
