MODEL 1
REMARK VINA RESULT:    -5.382      0.000      0.000
REMARK INTER + INTRA:          -9.069
REMARK INTER:                  -7.899
REMARK INTRA:                  -1.170
REMARK UNBOUND:                -1.170
REMARK SMILES Cc1cc2c(C(C)C)c(O)c(O)c(C=O)c2c(O)c1-c1c(C)cc2c(C(C)C)c(O)c(O)c(C=O)c2c1O
REMARK SMILES IDX 1 1 2 2 3 3 4 4 16 5 13 6 11 7 9 8 5 9 17 10 19 11 20 12
REMARK SMILES IDX 37 13 21 14 36 15 23 16 22 17 24 18 33 19 25 20 31 21 29 22
REMARK SMILES IDX 38 23 34 25 35 26 26 27 27 28 28 29 32 30 30 32 18 34 6 36
REMARK SMILES IDX 7 37 8 38 14 39 15 40 10 41 12 43
REMARK H PARENT 38 24 32 31 30 33 18 35 10 42 12 44
REMARK Flexibility Score: inf
ROOT
ATOM      1  C   UNL     1      65.544  26.866  50.213  1.00  0.00     0.045 C 
ATOM      2  C   UNL     1      64.055  27.012  50.017  1.00  0.00    -0.039 A 
ATOM      3  C   UNL     1      63.230  25.900  50.190  1.00  0.00     0.013 A 
ATOM      4  C   UNL     1      61.831  25.970  50.004  1.00  0.00    -0.006 A 
ATOM      5  C   UNL     1      61.242  27.235  49.704  1.00  0.00     0.039 A 
ATOM      6  C   UNL     1      59.828  27.315  49.537  1.00  0.00     0.072 A 
ATOM      7  C   UNL     1      59.022  26.206  49.849  1.00  0.00     0.169 A 
ATOM      8  C   UNL     1      59.607  24.989  50.240  1.00  0.00     0.162 A 
ATOM      9  C   UNL     1      61.006  24.813  50.157  1.00  0.00     0.008 A 
ATOM     10  C   UNL     1      62.080  28.389  49.628  1.00  0.00     0.132 A 
ATOM     11  C   UNL     1      63.480  28.264  49.741  1.00  0.00     0.031 A 
ENDROOT
BRANCH  11  12
ATOM     12  C   UNL     1      64.350  29.461  49.611  1.00  0.00     0.031 A 
ATOM     13  C   UNL     1      65.022  29.725  48.398  1.00  0.00     0.132 A 
ATOM     14  C   UNL     1      64.512  30.329  50.704  1.00  0.00    -0.039 A 
ATOM     15  C   UNL     1      65.893  30.846  48.289  1.00  0.00     0.039 A 
ATOM     16  C   UNL     1      65.259  31.498  50.549  1.00  0.00     0.013 A 
ATOM     17  C   UNL     1      63.862  30.031  52.033  1.00  0.00     0.045 C 
ATOM     18  C   UNL     1      65.892  31.819  49.327  1.00  0.00    -0.006 A 
ATOM     19  C   UNL     1      66.739  31.045  47.161  1.00  0.00     0.072 A 
ATOM     20  C   UNL     1      66.548  33.073  49.135  1.00  0.00     0.008 A 
ATOM     21  C   UNL     1      67.465  32.238  47.024  1.00  0.00     0.169 A 
ATOM     22  C   UNL     1      67.403  33.231  48.021  1.00  0.00     0.162 A 
BRANCH  13  23
ATOM     23  O   UNL     1      64.789  28.904  47.288  1.00  0.00    -0.507 OA
ATOM     24  H   UNL     1      63.974  28.979  46.693  1.00  0.00     0.293 HD
ENDBRANCH  13  23
BRANCH  19  25
ATOM     25  C   UNL     1      67.005  29.987  46.158  1.00  0.00     0.264 C 
ATOM     26  O   UNL     1      68.152  29.478  46.049  1.00  0.00    -0.298 OA
ENDBRANCH  19  25
BRANCH  20  27
ATOM     27  C   UNL     1      66.345  34.243  50.116  1.00  0.00     0.017 C 
ATOM     28  C   UNL     1      67.608  34.489  50.946  1.00  0.00     0.012 C 
ATOM     29  C   UNL     1      65.853  35.537  49.443  1.00  0.00     0.012 C 
ENDBRANCH  20  27
BRANCH  21  30
ATOM     30  O   UNL     1      68.251  32.403  45.875  1.00  0.00    -0.504 OA
ATOM     31  H   UNL     1      69.227  32.663  45.881  1.00  0.00     0.293 HD
ENDBRANCH  21  30
BRANCH  22  32
ATOM     32  O   UNL     1      68.214  34.367  47.950  1.00  0.00    -0.504 OA
ATOM     33  H   UNL     1      68.409  34.986  48.722  1.00  0.00     0.293 HD
ENDBRANCH  22  32
ENDBRANCH  11  12
BRANCH  10  34
ATOM     34  O   UNL     1      61.516  29.663  49.489  1.00  0.00    -0.507 OA
ATOM     35  H   UNL     1      60.789  30.028  50.090  1.00  0.00     0.293 HD
ENDBRANCH  10  34
BRANCH   9  36
ATOM     36  C   UNL     1      61.604  23.401  50.283  1.00  0.00     0.017 C 
ATOM     37  C   UNL     1      61.498  22.887  51.724  1.00  0.00     0.012 C 
ATOM     38  C   UNL     1      61.020  22.385  49.284  1.00  0.00     0.012 C 
ENDBRANCH   9  36
BRANCH   6  39
ATOM     39  C   UNL     1      59.170  28.509  48.953  1.00  0.00     0.264 C 
ATOM     40  O   UNL     1      58.464  29.275  49.659  1.00  0.00    -0.298 OA
ENDBRANCH   6  39
BRANCH   8  41
ATOM     41  O   UNL     1      58.816  23.944  50.724  1.00  0.00    -0.504 OA
ATOM     42  H   UNL     1      58.358  23.261  50.137  1.00  0.00     0.293 HD
ENDBRANCH   8  41
BRANCH   7  43
ATOM     43  O   UNL     1      57.633  26.323  49.714  1.00  0.00    -0.504 OA
ATOM     44  H   UNL     1      57.153  27.190  49.519  1.00  0.00     0.293 HD
ENDBRANCH   7  43
TORSDOF 11
ENDMDL
MODEL 2
REMARK VINA RESULT:    -5.248      9.903     11.800
REMARK INTER + INTRA:          -8.873
REMARK INTER:                  -7.369
REMARK INTRA:                  -1.505
REMARK UNBOUND:                -1.170
REMARK SMILES Cc1cc2c(C(C)C)c(O)c(O)c(C=O)c2c(O)c1-c1c(C)cc2c(C(C)C)c(O)c(O)c(C=O)c2c1O
REMARK SMILES IDX 1 1 2 2 3 3 4 4 16 5 13 6 11 7 9 8 5 9 17 10 19 11 20 12
REMARK SMILES IDX 37 13 21 14 36 15 23 16 22 17 24 18 33 19 25 20 31 21 29 22
REMARK SMILES IDX 38 23 34 25 35 26 26 27 27 28 28 29 32 30 30 32 18 34 6 36
REMARK SMILES IDX 7 37 8 38 14 39 15 40 10 41 12 43
REMARK H PARENT 38 24 32 31 30 33 18 35 10 42 12 44
REMARK Flexibility Score: inf
ROOT
ATOM      1  C   UNL     1      58.979  29.977  58.942  1.00  0.00     0.045 C 
ATOM      2  C   UNL     1      59.232  28.870  59.936  1.00  0.00    -0.039 A 
ATOM      3  C   UNL     1      58.275  27.868  60.103  1.00  0.00     0.013 A 
ATOM      4  C   UNL     1      58.448  26.816  61.030  1.00  0.00    -0.006 A 
ATOM      5  C   UNL     1      59.673  26.739  61.759  1.00  0.00     0.039 A 
ATOM      6  C   UNL     1      59.861  25.666  62.679  1.00  0.00     0.072 A 
ATOM      7  C   UNL     1      58.935  24.608  62.721  1.00  0.00     0.169 A 
ATOM      8  C   UNL     1      57.777  24.645  61.925  1.00  0.00     0.162 A 
ATOM      9  C   UNL     1      57.442  25.816  61.208  1.00  0.00     0.008 A 
ATOM     10  C   UNL     1      60.690  27.709  61.509  1.00  0.00     0.132 A 
ATOM     11  C   UNL     1      60.447  28.790  60.635  1.00  0.00     0.031 A 
ENDROOT
BRANCH  11  12
ATOM     12  C   UNL     1      61.492  29.824  60.419  1.00  0.00     0.031 A 
ATOM     13  C   UNL     1      62.465  29.654  59.411  1.00  0.00     0.132 A 
ATOM     14  C   UNL     1      61.517  30.971  61.230  1.00  0.00    -0.039 A 
ATOM     15  C   UNL     1      63.495  30.621  59.236  1.00  0.00     0.039 A 
ATOM     16  C   UNL     1      62.446  31.979  60.966  1.00  0.00     0.013 A 
ATOM     17  C   UNL     1      60.532  31.143  62.361  1.00  0.00     0.045 C 
ATOM     18  C   UNL     1      63.392  31.864  59.923  1.00  0.00    -0.006 A 
ATOM     19  C   UNL     1      64.605  30.403  58.372  1.00  0.00     0.072 A 
ATOM     20  C   UNL     1      64.254  32.948  59.576  1.00  0.00     0.008 A 
ATOM     21  C   UNL     1      65.513  31.441  58.112  1.00  0.00     0.169 A 
ATOM     22  C   UNL     1      65.364  32.694  58.738  1.00  0.00     0.162 A 
BRANCH  13  23
ATOM     23  O   UNL     1      62.383  28.550  58.553  1.00  0.00    -0.507 OA
ATOM     24  H   UNL     1      63.181  27.997  58.269  1.00  0.00     0.293 HD
ENDBRANCH  13  23
BRANCH  19  25
ATOM     25  C   UNL     1      64.941  29.073  57.814  1.00  0.00     0.264 C 
ATOM     26  O   UNL     1      64.715  28.806  56.605  1.00  0.00    -0.298 OA
ENDBRANCH  19  25
BRANCH  20  27
ATOM     27  C   UNL     1      64.001  34.373  60.100  1.00  0.00     0.017 C 
ATOM     28  C   UNL     1      62.553  34.802  59.850  1.00  0.00     0.012 C 
ATOM     29  C   UNL     1      64.400  34.572  61.574  1.00  0.00     0.012 C 
ENDBRANCH  20  27
BRANCH  21  30
ATOM     30  O   UNL     1      66.566  31.189  57.222  1.00  0.00    -0.504 OA
ATOM     31  H   UNL     1      67.513  31.513  57.348  1.00  0.00     0.293 HD
ENDBRANCH  21  30
BRANCH  22  32
ATOM     32  O   UNL     1      66.330  33.692  58.578  1.00  0.00    -0.504 OA
ATOM     33  H   UNL     1      67.321  33.527  58.491  1.00  0.00     0.293 HD
ENDBRANCH  22  32
ENDBRANCH  11  12
BRANCH  10  34
ATOM     34  O   UNL     1      61.955  27.572  62.092  1.00  0.00    -0.507 OA
ATOM     35  H   UNL     1      62.371  26.683  62.336  1.00  0.00     0.293 HD
ENDBRANCH  10  34
BRANCH   9  36
ATOM     36  C   UNL     1      56.037  25.960  60.599  1.00  0.00     0.017 C 
ATOM     37  C   UNL     1      55.872  25.051  59.375  1.00  0.00     0.012 C 
ATOM     38  C   UNL     1      54.895  25.745  61.611  1.00  0.00     0.012 C 
ENDBRANCH   9  36
BRANCH   6  39
ATOM     39  C   UNL     1      60.962  25.664  63.672  1.00  0.00     0.264 C 
ATOM     40  O   UNL     1      61.958  24.905  63.540  1.00  0.00    -0.298 OA
ENDBRANCH   6  39
BRANCH   8  41
ATOM     41  O   UNL     1      56.948  23.524  61.824  1.00  0.00    -0.504 OA
ATOM     42  H   UNL     1      55.939  23.559  61.873  1.00  0.00     0.293 HD
ENDBRANCH   8  41
BRANCH   7  43
ATOM     43  O   UNL     1      59.162  23.548  63.606  1.00  0.00    -0.504 OA
ATOM     44  H   UNL     1      60.017  23.010  63.639  1.00  0.00     0.293 HD
ENDBRANCH   7  43
TORSDOF 11
ENDMDL
MODEL 3
REMARK VINA RESULT:    -5.222     10.004     14.704
REMARK INTER + INTRA:          -8.834
REMARK INTER:                  -7.609
REMARK INTRA:                  -1.225
REMARK UNBOUND:                -1.170
REMARK SMILES Cc1cc2c(C(C)C)c(O)c(O)c(C=O)c2c(O)c1-c1c(C)cc2c(C(C)C)c(O)c(O)c(C=O)c2c1O
REMARK SMILES IDX 1 1 2 2 3 3 4 4 16 5 13 6 11 7 9 8 5 9 17 10 19 11 20 12
REMARK SMILES IDX 37 13 21 14 36 15 23 16 22 17 24 18 33 19 25 20 31 21 29 22
REMARK SMILES IDX 38 23 34 25 35 26 26 27 27 28 28 29 32 30 30 32 18 34 6 36
REMARK SMILES IDX 7 37 8 38 14 39 15 40 10 41 12 43
REMARK H PARENT 38 24 32 31 30 33 18 35 10 42 12 44
REMARK Flexibility Score: inf
ROOT
ATOM      1  C   UNL     1      60.405  31.391  62.285  1.00  0.00     0.045 C 
ATOM      2  C   UNL     1      61.390  31.271  61.148  1.00  0.00    -0.039 A 
ATOM      3  C   UNL     1      62.291  32.311  60.912  1.00  0.00     0.013 A 
ATOM      4  C   UNL     1      63.225  32.265  59.853  1.00  0.00    -0.006 A 
ATOM      5  C   UNL     1      63.294  31.086  59.051  1.00  0.00     0.039 A 
ATOM      6  C   UNL     1      64.250  31.026  57.995  1.00  0.00     0.072 A 
ATOM      7  C   UNL     1      65.226  32.032  57.874  1.00  0.00     0.169 A 
ATOM      8  C   UNL     1      65.209  33.144  58.733  1.00  0.00     0.162 A 
ATOM      9  C   UNL     1      64.120  33.352  59.608  1.00  0.00     0.008 A 
ATOM     10  C   UNL     1      62.440  29.985  59.361  1.00  0.00     0.132 A 
ATOM     11  C   UNL     1      61.466  30.101  60.375  1.00  0.00     0.031 A 
ENDROOT
BRANCH  11  12
ATOM     12  C   UNL     1      60.545  28.970  60.659  1.00  0.00     0.031 A 
ATOM     13  C   UNL     1      60.908  27.972  61.588  1.00  0.00     0.132 A 
ATOM     14  C   UNL     1      59.313  28.889  59.989  1.00  0.00    -0.039 A 
ATOM     15  C   UNL     1      60.047  26.863  61.824  1.00  0.00     0.039 A 
ATOM     16  C   UNL     1      58.415  27.873  60.323  1.00  0.00     0.013 A 
ATOM     17  C   UNL     1      58.932  29.903  58.939  1.00  0.00     0.045 C 
ATOM     18  C   UNL     1      58.726  26.896  61.296  1.00  0.00    -0.006 A 
ATOM     19  C   UNL     1      60.450  25.738  62.598  1.00  0.00     0.072 A 
ATOM     20  C   UNL     1      57.758  25.937  61.723  1.00  0.00     0.008 A 
ATOM     21  C   UNL     1      59.521  24.741  62.933  1.00  0.00     0.169 A 
ATOM     22  C   UNL     1      58.193  24.816  62.468  1.00  0.00     0.162 A 
BRANCH  13  23
ATOM     23  O   UNL     1      62.099  28.104  62.313  1.00  0.00    -0.507 OA
ATOM     24  H   UNL     1      62.987  27.726  62.010  1.00  0.00     0.293 HD
ENDBRANCH  13  23
BRANCH  19  25
ATOM     25  C   UNL     1      61.859  25.485  62.977  1.00  0.00     0.264 C 
ATOM     26  O   UNL     1      62.514  24.554  62.437  1.00  0.00    -0.298 OA
ENDBRANCH  19  25
BRANCH  20  27
ATOM     27  C   UNL     1      56.265  26.098  61.386  1.00  0.00     0.017 C 
ATOM     28  C   UNL     1      55.825  25.074  60.336  1.00  0.00     0.012 C 
ATOM     29  C   UNL     1      55.344  26.071  62.619  1.00  0.00     0.012 C 
ENDBRANCH  20  27
BRANCH  21  30
ATOM     30  O   UNL     1      59.956  23.675  63.732  1.00  0.00    -0.504 OA
ATOM     31  H   UNL     1      60.397  22.837  63.380  1.00  0.00     0.293 HD
ENDBRANCH  21  30
BRANCH  22  32
ATOM     32  O   UNL     1      57.295  23.769  62.696  1.00  0.00    -0.504 OA
ATOM     33  H   UNL     1      56.760  23.302  61.979  1.00  0.00     0.293 HD
ENDBRANCH  22  32
ENDBRANCH  11  12
BRANCH  10  34
ATOM     34  O   UNL     1      62.590  28.764  58.694  1.00  0.00    -0.507 OA
ATOM     35  H   UNL     1      62.754  28.680  57.699  1.00  0.00     0.293 HD
ENDBRANCH  10  34
BRANCH   9  36
ATOM     36  C   UNL     1      63.956  34.712  60.310  1.00  0.00     0.017 C 
ATOM     37  C   UNL     1      62.492  35.166  60.289  1.00  0.00     0.012 C 
ATOM     38  C   UNL     1      64.532  34.750  61.738  1.00  0.00     0.012 C 
ENDBRANCH   9  36
BRANCH   6  39
ATOM     39  C   UNL     1      64.203  29.976  56.948  1.00  0.00     0.264 C 
ATOM     40  O   UNL     1      65.035  29.031  56.934  1.00  0.00    -0.298 OA
ENDBRANCH   6  39
BRANCH   8  41
ATOM     41  O   UNL     1      66.272  34.052  58.740  1.00  0.00    -0.504 OA
ATOM     42  H   UNL     1      66.450  34.710  59.486  1.00  0.00     0.293 HD
ENDBRANCH   8  41
BRANCH   7  43
ATOM     43  O   UNL     1      66.177  31.930  56.852  1.00  0.00    -0.504 OA
ATOM     44  H   UNL     1      66.653  31.074  56.603  1.00  0.00     0.293 HD
ENDBRANCH   7  43
TORSDOF 11
ENDMDL
MODEL 4
REMARK VINA RESULT:    -5.190      1.650      3.028
REMARK INTER + INTRA:          -8.787
REMARK INTER:                  -7.327
REMARK INTRA:                  -1.460
REMARK UNBOUND:                -1.170
REMARK SMILES Cc1cc2c(C(C)C)c(O)c(O)c(C=O)c2c(O)c1-c1c(C)cc2c(C(C)C)c(O)c(O)c(C=O)c2c1O
REMARK SMILES IDX 1 1 2 2 3 3 4 4 16 5 13 6 11 7 9 8 5 9 17 10 19 11 20 12
REMARK SMILES IDX 37 13 21 14 36 15 23 16 22 17 24 18 33 19 25 20 31 21 29 22
REMARK SMILES IDX 38 23 34 25 35 26 26 27 27 28 28 29 32 30 30 32 18 34 6 36
REMARK SMILES IDX 7 37 8 38 14 39 15 40 10 41 12 43
REMARK H PARENT 38 24 32 31 30 33 18 35 10 42 12 44
REMARK Flexibility Score: inf
ROOT
ATOM      1  C   UNL     1      65.542  26.823  49.978  1.00  0.00     0.045 C 
ATOM      2  C   UNL     1      64.048  26.991  49.855  1.00  0.00    -0.039 A 
ATOM      3  C   UNL     1      63.216  25.892  50.076  1.00  0.00     0.013 A 
ATOM      4  C   UNL     1      61.811  25.982  49.958  1.00  0.00    -0.006 A 
ATOM      5  C   UNL     1      61.227  27.254  49.679  1.00  0.00     0.039 A 
ATOM      6  C   UNL     1      59.807  27.355  49.582  1.00  0.00     0.072 A 
ATOM      7  C   UNL     1      59.001  26.260  49.941  1.00  0.00     0.169 A 
ATOM      8  C   UNL     1      59.587  25.037  50.310  1.00  0.00     0.162 A 
ATOM      9  C   UNL     1      60.977  24.838  50.159  1.00  0.00     0.008 A 
ATOM     10  C   UNL     1      62.076  28.395  49.555  1.00  0.00     0.132 A 
ATOM     11  C   UNL     1      63.478  28.249  49.600  1.00  0.00     0.031 A 
ENDROOT
BRANCH  11  12
ATOM     12  C   UNL     1      64.358  29.432  49.419  1.00  0.00     0.031 A 
ATOM     13  C   UNL     1      64.615  30.302  50.500  1.00  0.00     0.132 A 
ATOM     14  C   UNL     1      64.928  29.693  48.161  1.00  0.00    -0.039 A 
ATOM     15  C   UNL     1      65.418  31.462  50.314  1.00  0.00     0.039 A 
ATOM     16  C   UNL     1      65.823  30.755  48.018  1.00  0.00     0.013 A 
ATOM     17  C   UNL     1      64.612  28.820  46.971  1.00  0.00     0.045 C 
ATOM     18  C   UNL     1      66.147  31.605  49.100  1.00  0.00    -0.006 A 
ATOM     19  C   UNL     1      65.546  32.467  51.314  1.00  0.00     0.072 A 
ATOM     20  C   UNL     1      67.154  32.609  48.982  1.00  0.00     0.008 A 
ATOM     21  C   UNL     1      66.466  33.514  51.151  1.00  0.00     0.169 A 
ATOM     22  C   UNL     1      67.239  33.610  49.977  1.00  0.00     0.162 A 
BRANCH  13  23
ATOM     23  O   UNL     1      64.112  29.989  51.770  1.00  0.00    -0.507 OA
ATOM     24  H   UNL     1      63.260  29.468  51.925  1.00  0.00     0.293 HD
ENDBRANCH  13  23
BRANCH  19  25
ATOM     25  C   UNL     1      64.652  32.548  52.493  1.00  0.00     0.264 C 
ATOM     26  O   UNL     1      65.062  32.215  53.636  1.00  0.00    -0.298 OA
ENDBRANCH  19  25
BRANCH  20  27
ATOM     27  C   UNL     1      68.138  32.623  47.797  1.00  0.00     0.017 C 
ATOM     28  C   UNL     1      67.813  33.762  46.826  1.00  0.00     0.012 C 
ATOM     29  C   UNL     1      69.618  32.652  48.221  1.00  0.00     0.012 C 
ENDBRANCH  20  27
BRANCH  21  30
ATOM     30  O   UNL     1      66.584  34.456  52.183  1.00  0.00    -0.504 OA
ATOM     31  H   UNL     1      66.627  34.227  53.165  1.00  0.00     0.293 HD
ENDBRANCH  21  30
BRANCH  22  32
ATOM     32  O   UNL     1      68.068  34.713  49.755  1.00  0.00    -0.504 OA
ATOM     33  H   UNL     1      67.795  35.549  49.261  1.00  0.00     0.293 HD
ENDBRANCH  22  32
ENDBRANCH  11  12
BRANCH  10  34
ATOM     34  O   UNL     1      61.525  29.676  49.435  1.00  0.00    -0.507 OA
ATOM     35  H   UNL     1      61.745  30.445  50.054  1.00  0.00     0.293 HD
ENDBRANCH  10  34
BRANCH   9  36
ATOM     36  C   UNL     1      61.560  23.418  50.265  1.00  0.00     0.017 C 
ATOM     37  C   UNL     1      61.505  22.909  51.710  1.00  0.00     0.012 C 
ATOM     38  C   UNL     1      60.920  22.408  49.294  1.00  0.00     0.012 C 
ENDBRANCH   9  36
BRANCH   6  39
ATOM     39  C   UNL     1      59.139  28.555  49.023  1.00  0.00     0.264 C 
ATOM     40  O   UNL     1      58.487  29.341  49.761  1.00  0.00    -0.298 OA
ENDBRANCH   6  39
BRANCH   8  41
ATOM     41  O   UNL     1      58.805  24.006  50.840  1.00  0.00    -0.504 OA
ATOM     42  H   UNL     1      57.991  23.621  50.383  1.00  0.00     0.293 HD
ENDBRANCH   8  41
BRANCH   7  43
ATOM     43  O   UNL     1      57.609  26.396  49.874  1.00  0.00    -0.504 OA
ATOM     44  H   UNL     1      57.136  27.189  49.463  1.00  0.00     0.293 HD
ENDBRANCH   7  43
TORSDOF 11
ENDMDL
MODEL 5
REMARK VINA RESULT:    -5.122      3.549      7.808
REMARK INTER + INTRA:          -8.687
REMARK INTER:                  -7.346
REMARK INTRA:                  -1.341
REMARK UNBOUND:                -1.170
REMARK SMILES Cc1cc2c(C(C)C)c(O)c(O)c(C=O)c2c(O)c1-c1c(C)cc2c(C(C)C)c(O)c(O)c(C=O)c2c1O
REMARK SMILES IDX 1 1 2 2 3 3 4 4 16 5 13 6 11 7 9 8 5 9 17 10 19 11 20 12
REMARK SMILES IDX 37 13 21 14 36 15 23 16 22 17 24 18 33 19 25 20 31 21 29 22
REMARK SMILES IDX 38 23 34 25 35 26 26 27 27 28 28 29 32 30 30 32 18 34 6 36
REMARK SMILES IDX 7 37 8 38 14 39 15 40 10 41 12 43
REMARK H PARENT 38 24 32 31 30 33 18 35 10 42 12 44
REMARK Flexibility Score: inf
ROOT
ATOM      1  C   UNL     1      60.739  21.530  48.909  1.00  0.00     0.045 C 
ATOM      2  C   UNL     1      60.304  21.306  50.336  1.00  0.00    -0.039 A 
ATOM      3  C   UNL     1      59.812  20.054  50.713  1.00  0.00     0.013 A 
ATOM      4  C   UNL     1      59.374  19.789  52.030  1.00  0.00    -0.006 A 
ATOM      5  C   UNL     1      59.510  20.811  53.017  1.00  0.00     0.039 A 
ATOM      6  C   UNL     1      59.090  20.541  54.352  1.00  0.00     0.072 A 
ATOM      7  C   UNL     1      58.727  19.233  54.722  1.00  0.00     0.169 A 
ATOM      8  C   UNL     1      58.690  18.208  53.760  1.00  0.00     0.162 A 
ATOM      9  C   UNL     1      58.846  18.510  52.390  1.00  0.00     0.008 A 
ATOM     10  C   UNL     1      60.108  22.054  52.649  1.00  0.00     0.132 A 
ATOM     11  C   UNL     1      60.459  22.309  51.307  1.00  0.00     0.031 A 
ENDROOT
BRANCH  11  12
ATOM     12  C   UNL     1      61.033  23.624  50.922  1.00  0.00     0.031 A 
ATOM     13  C   UNL     1      60.185  24.707  50.608  1.00  0.00     0.132 A 
ATOM     14  C   UNL     1      62.427  23.785  50.859  1.00  0.00    -0.039 A 
ATOM     15  C   UNL     1      60.735  25.953  50.192  1.00  0.00     0.039 A 
ATOM     16  C   UNL     1      62.962  25.045  50.582  1.00  0.00     0.013 A 
ATOM     17  C   UNL     1      63.355  22.624  51.119  1.00  0.00     0.045 C 
ATOM     18  C   UNL     1      62.137  26.162  50.326  1.00  0.00    -0.006 A 
ATOM     19  C   UNL     1      59.928  27.008  49.680  1.00  0.00     0.072 A 
ATOM     20  C   UNL     1      62.684  27.472  50.168  1.00  0.00     0.008 A 
ATOM     21  C   UNL     1      60.489  28.269  49.427  1.00  0.00     0.169 A 
ATOM     22  C   UNL     1      61.866  28.493  49.632  1.00  0.00     0.162 A 
BRANCH  13  23
ATOM     23  O   UNL     1      58.800  24.563  50.754  1.00  0.00    -0.507 OA
ATOM     24  H   UNL     1      58.240  23.919  50.211  1.00  0.00     0.293 HD
ENDBRANCH  13  23
BRANCH  19  25
ATOM     25  C   UNL     1      58.518  26.815  49.267  1.00  0.00     0.264 C 
ATOM     26  O   UNL     1      57.573  27.210  49.998  1.00  0.00    -0.298 OA
ENDBRANCH  19  25
BRANCH  20  27
ATOM     27  C   UNL     1      64.138  27.787  50.564  1.00  0.00     0.017 C 
ATOM     28  C   UNL     1      65.023  27.944  49.324  1.00  0.00     0.012 C 
ATOM     29  C   UNL     1      64.276  28.993  51.510  1.00  0.00     0.012 C 
ENDBRANCH  20  27
BRANCH  21  30
ATOM     30  O   UNL     1      59.644  29.287  48.964  1.00  0.00    -0.504 OA
ATOM     31  H   UNL     1      59.896  29.963  48.258  1.00  0.00     0.293 HD
ENDBRANCH  21  30
BRANCH  22  32
ATOM     32  O   UNL     1      62.454  29.707  49.269  1.00  0.00    -0.504 OA
ATOM     33  H   UNL     1      61.951  30.569  49.117  1.00  0.00     0.293 HD
ENDBRANCH  22  32
ENDBRANCH  11  12
BRANCH  10  34
ATOM     34  O   UNL     1      60.395  23.016  53.625  1.00  0.00    -0.507 OA
ATOM     35  H   UNL     1      59.802  23.206  54.422  1.00  0.00     0.293 HD
ENDBRANCH  10  34
BRANCH   9  36
ATOM     36  C   UNL     1      58.497  17.449  51.331  1.00  0.00     0.017 C 
ATOM     37  C   UNL     1      57.416  17.964  50.374  1.00  0.00     0.012 C 
ATOM     38  C   UNL     1      59.718  16.916  50.558  1.00  0.00     0.012 C 
ENDBRANCH   9  36
BRANCH   6  39
ATOM     39  C   UNL     1      58.931  21.616  55.362  1.00  0.00     0.264 C 
ATOM     40  O   UNL     1      59.740  21.735  56.320  1.00  0.00    -0.298 OA
ENDBRANCH   6  39
BRANCH   8  41
ATOM     41  O   UNL     1      58.508  16.877  54.148  1.00  0.00    -0.504 OA
ATOM     42  H   UNL     1      59.188  16.341  54.669  1.00  0.00     0.293 HD
ENDBRANCH   8  41
BRANCH   7  43
ATOM     43  O   UNL     1      58.355  18.985  56.048  1.00  0.00    -0.504 OA
ATOM     44  H   UNL     1      57.990  19.687  56.675  1.00  0.00     0.293 HD
ENDBRANCH   7  43
TORSDOF 11
ENDMDL
MODEL 6
REMARK VINA RESULT:    -5.116      3.577     11.372
REMARK INTER + INTRA:          -8.679
REMARK INTER:                  -7.226
REMARK INTRA:                  -1.453
REMARK UNBOUND:                -1.170
REMARK SMILES Cc1cc2c(C(C)C)c(O)c(O)c(C=O)c2c(O)c1-c1c(C)cc2c(C(C)C)c(O)c(O)c(C=O)c2c1O
REMARK SMILES IDX 1 1 2 2 3 3 4 4 16 5 13 6 11 7 9 8 5 9 17 10 19 11 20 12
REMARK SMILES IDX 37 13 21 14 36 15 23 16 22 17 24 18 33 19 25 20 31 21 29 22
REMARK SMILES IDX 38 23 34 25 35 26 26 27 27 28 28 29 32 30 30 32 18 34 6 36
REMARK SMILES IDX 7 37 8 38 14 39 15 40 10 41 12 43
REMARK H PARENT 38 24 32 31 30 33 18 35 10 42 12 44
REMARK Flexibility Score: inf
ROOT
ATOM      1  C   UNL     1      63.485  22.320  51.372  1.00  0.00     0.045 C 
ATOM      2  C   UNL     1      62.625  23.519  51.057  1.00  0.00    -0.039 A 
ATOM      3  C   UNL     1      63.229  24.696  50.611  1.00  0.00     0.013 A 
ATOM      4  C   UNL     1      62.479  25.856  50.316  1.00  0.00    -0.006 A 
ATOM      5  C   UNL     1      61.056  25.793  50.406  1.00  0.00     0.039 A 
ATOM      6  C   UNL     1      60.293  26.955  50.088  1.00  0.00     0.072 A 
ATOM      7  C   UNL     1      60.926  28.075  49.517  1.00  0.00     0.169 A 
ATOM      8  C   UNL     1      62.320  28.089  49.341  1.00  0.00     0.162 A 
ATOM      9  C   UNL     1      63.119  27.061  49.889  1.00  0.00     0.008 A 
ATOM     10  C   UNL     1      60.438  24.557  50.764  1.00  0.00     0.132 A 
ATOM     11  C   UNL     1      61.224  23.445  51.128  1.00  0.00     0.031 A 
ENDROOT
BRANCH  11  12
ATOM     12  C   UNL     1      60.575  22.177  51.549  1.00  0.00     0.031 A 
ATOM     13  C   UNL     1      60.259  21.954  52.906  1.00  0.00     0.132 A 
ATOM     14  C   UNL     1      60.283  21.190  50.591  1.00  0.00    -0.039 A 
ATOM     15  C   UNL     1      59.680  20.719  53.316  1.00  0.00     0.039 A 
ATOM     16  C   UNL     1      59.594  20.039  50.977  1.00  0.00     0.013 A 
ATOM     17  C   UNL     1      60.675  21.373  49.145  1.00  0.00     0.045 C 
ATOM     18  C   UNL     1      59.210  19.818  52.319  1.00  0.00    -0.006 A 
ATOM     19  C   UNL     1      59.525  20.370  54.687  1.00  0.00     0.072 A 
ATOM     20  C   UNL     1      58.398  18.703  52.687  1.00  0.00     0.008 A 
ATOM     21  C   UNL     1      58.812  19.215  55.046  1.00  0.00     0.169 A 
ATOM     22  C   UNL     1      58.284  18.364  54.055  1.00  0.00     0.162 A 
BRANCH  13  23
ATOM     23  O   UNL     1      60.475  22.974  53.841  1.00  0.00    -0.507 OA
ATOM     24  H   UNL     1      59.741  23.390  54.400  1.00  0.00     0.293 HD
ENDBRANCH  13  23
BRANCH  19  25
ATOM     25  C   UNL     1      60.196  21.103  55.785  1.00  0.00     0.264 C 
ATOM     26  O   UNL     1      59.549  21.896  56.519  1.00  0.00    -0.298 OA
ENDBRANCH  19  25
BRANCH  20  27
ATOM     27  C   UNL     1      57.654  17.868  51.628  1.00  0.00     0.017 C 
ATOM     28  C   UNL     1      56.700  18.741  50.809  1.00  0.00     0.012 C 
ATOM     29  C   UNL     1      58.588  17.048  50.718  1.00  0.00     0.012 C 
ENDBRANCH  20  27
BRANCH  21  30
ATOM     30  O   UNL     1      58.650  18.937  56.410  1.00  0.00    -0.504 OA
ATOM     31  H   UNL     1      58.080  19.480  57.042  1.00  0.00     0.293 HD
ENDBRANCH  21  30
BRANCH  22  32
ATOM     32  O   UNL     1      57.679  17.153  54.402  1.00  0.00    -0.504 OA
ATOM     33  H   UNL     1      58.169  16.339  54.741  1.00  0.00     0.293 HD
ENDBRANCH  22  32
ENDBRANCH  11  12
BRANCH  10  34
ATOM     34  O   UNL     1      59.046  24.423  50.711  1.00  0.00    -0.507 OA
ATOM     35  H   UNL     1      58.568  23.542  50.568  1.00  0.00     0.293 HD
ENDBRANCH  10  34
BRANCH   9  36
ATOM     36  C   UNL     1      64.645  27.240  49.965  1.00  0.00     0.017 C 
ATOM     37  C   UNL     1      65.285  27.092  48.580  1.00  0.00     0.012 C 
ATOM     38  C   UNL     1      65.085  28.550  50.646  1.00  0.00     0.012 C 
ENDBRANCH   9  36
BRANCH   6  39
ATOM     39  C   UNL     1      58.852  27.068  50.422  1.00  0.00     0.264 C 
ATOM     40  O   UNL     1      57.967  26.973  49.531  1.00  0.00    -0.298 OA
ENDBRANCH   6  39
BRANCH   8  41
ATOM     41  O   UNL     1      62.934  29.114  48.614  1.00  0.00    -0.504 OA
ATOM     42  H   UNL     1      62.654  29.394  47.685  1.00  0.00     0.293 HD
ENDBRANCH   8  41
BRANCH   7  43
ATOM     43  O   UNL     1      60.149  29.189  49.178  1.00  0.00    -0.504 OA
ATOM     44  H   UNL     1      59.912  29.447  48.231  1.00  0.00     0.293 HD
ENDBRANCH   7  43
TORSDOF 11
ENDMDL
MODEL 7
REMARK VINA RESULT:    -5.074      9.380     10.968
REMARK INTER + INTRA:          -8.618
REMARK INTER:                  -7.277
REMARK INTRA:                  -1.341
REMARK UNBOUND:                -1.170
REMARK SMILES Cc1cc2c(C(C)C)c(O)c(O)c(C=O)c2c(O)c1-c1c(C)cc2c(C(C)C)c(O)c(O)c(C=O)c2c1O
REMARK SMILES IDX 1 1 2 2 3 3 4 4 16 5 13 6 11 7 9 8 5 9 17 10 19 11 20 12
REMARK SMILES IDX 37 13 21 14 36 15 23 16 22 17 24 18 33 19 25 20 31 21 29 22
REMARK SMILES IDX 38 23 34 25 35 26 26 27 27 28 28 29 32 30 30 32 18 34 6 36
REMARK SMILES IDX 7 37 8 38 14 39 15 40 10 41 12 43
REMARK H PARENT 38 24 32 31 30 33 18 35 10 42 12 44
REMARK Flexibility Score: inf
ROOT
ATOM      1  C   UNL     1      62.427  27.671  61.583  1.00  0.00     0.045 C 
ATOM      2  C   UNL     1      61.045  27.845  61.004  1.00  0.00    -0.039 A 
ATOM      3  C   UNL     1      60.102  26.828  61.168  1.00  0.00     0.013 A 
ATOM      4  C   UNL     1      58.798  26.925  60.634  1.00  0.00    -0.006 A 
ATOM      5  C   UNL     1      58.416  28.132  59.973  1.00  0.00     0.039 A 
ATOM      6  C   UNL     1      57.093  28.243  59.452  1.00  0.00     0.072 A 
ATOM      7  C   UNL     1      56.136  27.257  59.753  1.00  0.00     0.169 A 
ATOM      8  C   UNL     1      56.498  26.116  60.490  1.00  0.00     0.162 A 
ATOM      9  C   UNL     1      57.856  25.861  60.786  1.00  0.00     0.008 A 
ATOM     10  C   UNL     1      59.351  29.207  59.898  1.00  0.00     0.132 A 
ATOM     11  C   UNL     1      60.669  29.041  60.373  1.00  0.00     0.031 A 
ENDROOT
BRANCH  11  12
ATOM     12  C   UNL     1      61.653  30.147  60.245  1.00  0.00     0.031 A 
ATOM     13  C   UNL     1      62.561  30.172  59.165  1.00  0.00     0.132 A 
ATOM     14  C   UNL     1      61.686  31.167  61.211  1.00  0.00    -0.039 A 
ATOM     15  C   UNL     1      63.536  31.206  59.069  1.00  0.00     0.039 A 
ATOM     16  C   UNL     1      62.552  32.249  61.040  1.00  0.00     0.013 A 
ATOM     17  C   UNL     1      60.775  31.127  62.413  1.00  0.00     0.045 C 
ATOM     18  C   UNL     1      63.429  32.331  59.934  1.00  0.00    -0.006 A 
ATOM     19  C   UNL     1      64.592  31.169  58.116  1.00  0.00     0.072 A 
ATOM     20  C   UNL     1      64.220  33.496  59.696  1.00  0.00     0.008 A 
ATOM     21  C   UNL     1      65.437  32.278  57.954  1.00  0.00     0.169 A 
ATOM     22  C   UNL     1      65.280  33.421  58.763  1.00  0.00     0.162 A 
BRANCH  13  23
ATOM     23  O   UNL     1      62.467  29.199  58.162  1.00  0.00    -0.507 OA
ATOM     24  H   UNL     1      62.375  29.413  57.178  1.00  0.00     0.293 HD
ENDBRANCH  13  23
BRANCH  19  25
ATOM     25  C   UNL     1      64.944  29.951  57.351  1.00  0.00     0.264 C 
ATOM     26  O   UNL     1      64.646  29.848  56.132  1.00  0.00    -0.298 OA
ENDBRANCH  19  25
BRANCH  20  27
ATOM     27  C   UNL     1      63.945  34.818  60.437  1.00  0.00     0.017 C 
ATOM     28  C   UNL     1      62.444  35.117  60.487  1.00  0.00     0.012 C 
ATOM     29  C   UNL     1      64.579  34.887  61.838  1.00  0.00     0.012 C 
ENDBRANCH  20  27
BRANCH  21  30
ATOM     30  O   UNL     1      66.435  32.209  56.973  1.00  0.00    -0.504 OA
ATOM     31  H   UNL     1      66.520  32.847  56.195  1.00  0.00     0.293 HD
ENDBRANCH  21  30
BRANCH  22  32
ATOM     32  O   UNL     1      66.190  34.479  58.690  1.00  0.00    -0.504 OA
ATOM     33  H   UNL     1      67.158  34.427  58.970  1.00  0.00     0.293 HD
ENDBRANCH  22  32
ENDBRANCH  11  12
BRANCH  10  34
ATOM     34  O   UNL     1      58.957  30.452  59.395  1.00  0.00    -0.507 OA
ATOM     35  H   UNL     1      59.574  31.083  58.900  1.00  0.00     0.293 HD
ENDBRANCH  10  34
BRANCH   9  36
ATOM     36  C   UNL     1      58.274  24.476  61.311  1.00  0.00     0.017 C 
ATOM     37  C   UNL     1      57.797  24.268  62.752  1.00  0.00     0.012 C 
ATOM     38  C   UNL     1      57.836  23.310  60.404  1.00  0.00     0.012 C 
ENDBRANCH   9  36
BRANCH   6  39
ATOM     39  C   UNL     1      56.703  29.326  58.517  1.00  0.00     0.264 C 
ATOM     40  O   UNL     1      55.916  30.242  58.873  1.00  0.00    -0.298 OA
ENDBRANCH   6  39
BRANCH   8  41
ATOM     41  O   UNL     1      55.522  25.225  60.946  1.00  0.00    -0.504 OA
ATOM     42  H   UNL     1      55.355  24.314  60.544  1.00  0.00     0.293 HD
ENDBRANCH   8  41
BRANCH   7  43
ATOM     43  O   UNL     1      54.834  27.408  59.261  1.00  0.00    -0.504 OA
ATOM     44  H   UNL     1      54.096  27.895  59.751  1.00  0.00     0.293 HD
ENDBRANCH   7  43
TORSDOF 11
ENDMDL
MODEL 8
REMARK VINA RESULT:    -5.067      2.564      9.711
REMARK INTER + INTRA:          -8.607
REMARK INTER:                  -7.149
REMARK INTRA:                  -1.457
REMARK UNBOUND:                -1.170
REMARK SMILES Cc1cc2c(C(C)C)c(O)c(O)c(C=O)c2c(O)c1-c1c(C)cc2c(C(C)C)c(O)c(O)c(C=O)c2c1O
REMARK SMILES IDX 1 1 2 2 3 3 4 4 16 5 13 6 11 7 9 8 5 9 17 10 19 11 20 12
REMARK SMILES IDX 37 13 21 14 36 15 23 16 22 17 24 18 33 19 25 20 31 21 29 22
REMARK SMILES IDX 38 23 34 25 35 26 26 27 27 28 28 29 32 30 30 32 18 34 6 36
REMARK SMILES IDX 7 37 8 38 14 39 15 40 10 41 12 43
REMARK H PARENT 38 24 32 31 30 33 18 35 10 42 12 44
REMARK Flexibility Score: inf
ROOT
ATOM      1  C   UNL     1      60.106  30.995  52.317  1.00  0.00     0.045 C 
ATOM      2  C   UNL     1      61.169  30.690  51.290  1.00  0.00    -0.039 A 
ATOM      3  C   UNL     1      62.234  31.577  51.123  1.00  0.00     0.013 A 
ATOM      4  C   UNL     1      63.249  31.355  50.166  1.00  0.00    -0.006 A 
ATOM      5  C   UNL     1      63.220  30.148  49.403  1.00  0.00     0.039 A 
ATOM      6  C   UNL     1      64.255  29.909  48.452  1.00  0.00     0.072 A 
ATOM      7  C   UNL     1      65.376  30.757  48.408  1.00  0.00     0.169 A 
ATOM      8  C   UNL     1      65.442  31.892  49.235  1.00  0.00     0.162 A 
ATOM      9  C   UNL     1      64.316  32.290  49.989  1.00  0.00     0.008 A 
ATOM     10  C   UNL     1      62.184  29.197  49.650  1.00  0.00     0.132 A 
ATOM     11  C   UNL     1      61.145  29.493  50.557  1.00  0.00     0.031 A 
ENDROOT
BRANCH  11  12
ATOM     12  C   UNL     1      60.043  28.520  50.771  1.00  0.00     0.031 A 
ATOM     13  C   UNL     1      60.147  27.535  51.777  1.00  0.00     0.132 A 
ATOM     14  C   UNL     1      58.896  28.574  49.961  1.00  0.00    -0.039 A 
ATOM     15  C   UNL     1      59.112  26.572  51.950  1.00  0.00     0.039 A 
ATOM     16  C   UNL     1      57.827  27.715  50.224  1.00  0.00     0.013 A 
ATOM     17  C   UNL     1      58.790  29.571  48.833  1.00  0.00     0.045 C 
ATOM     18  C   UNL     1      57.879  26.761  51.264  1.00  0.00    -0.006 A 
ATOM     19  C   UNL     1      59.255  25.448  52.811  1.00  0.00     0.072 A 
ATOM     20  C   UNL     1      56.740  25.972  51.609  1.00  0.00     0.008 A 
ATOM     21  C   UNL     1      58.159  24.611  53.069  1.00  0.00     0.169 A 
ATOM     22  C   UNL     1      56.918  24.846  52.445  1.00  0.00     0.162 A 
BRANCH  13  23
ATOM     23  O   UNL     1      61.254  27.540  52.634  1.00  0.00    -0.507 OA
ATOM     24  H   UNL     1      62.212  27.600  52.316  1.00  0.00     0.293 HD
ENDBRANCH  13  23
BRANCH  19  25
ATOM     25  C   UNL     1      60.560  25.021  53.367  1.00  0.00     0.264 C 
ATOM     26  O   UNL     1      60.842  25.224  54.577  1.00  0.00    -0.298 OA
ENDBRANCH  19  25
BRANCH  20  27
ATOM     27  C   UNL     1      55.334  26.323  51.087  1.00  0.00     0.017 C 
ATOM     28  C   UNL     1      55.033  27.812  51.276  1.00  0.00     0.012 C 
ATOM     29  C   UNL     1      55.084  25.878  49.634  1.00  0.00     0.012 C 
ENDBRANCH  20  27
BRANCH  21  30
ATOM     30  O   UNL     1      58.340  23.542  53.957  1.00  0.00    -0.504 OA
ATOM     31  H   UNL     1      59.229  23.262  54.344  1.00  0.00     0.293 HD
ENDBRANCH  21  30
BRANCH  22  32
ATOM     32  O   UNL     1      55.857  23.949  52.603  1.00  0.00    -0.504 OA
ATOM     33  H   UNL     1      55.318  23.555  51.848  1.00  0.00     0.293 HD
ENDBRANCH  22  32
ENDBRANCH  11  12
BRANCH  10  34
ATOM     34  O   UNL     1      62.215  27.943  49.031  1.00  0.00    -0.507 OA
ATOM     35  H   UNL     1      62.968  27.626  48.434  1.00  0.00     0.293 HD
ENDBRANCH  10  34
BRANCH   9  36
ATOM     36  C   UNL     1      64.288  33.685  50.638  1.00  0.00     0.017 C 
ATOM     37  C   UNL     1      65.281  33.768  51.803  1.00  0.00     0.012 C 
ATOM     38  C   UNL     1      64.500  34.840  49.641  1.00  0.00     0.012 C 
ENDBRANCH   9  36
BRANCH   6  39
ATOM     39  C   UNL     1      64.153  28.839  47.430  1.00  0.00     0.264 C 
ATOM     40  O   UNL     1      64.842  27.788  47.517  1.00  0.00    -0.298 OA
ENDBRANCH   6  39
BRANCH   8  41
ATOM     41  O   UNL     1      66.622  32.635  49.329  1.00  0.00    -0.504 OA
ATOM     42  H   UNL     1      67.367  32.434  49.981  1.00  0.00     0.293 HD
ENDBRANCH   8  41
BRANCH   7  43
ATOM     43  O   UNL     1      66.397  30.478  47.491  1.00  0.00    -0.504 OA
ATOM     44  H   UNL     1      66.504  29.595  47.014  1.00  0.00     0.293 HD
ENDBRANCH   7  43
TORSDOF 11
ENDMDL
MODEL 9
REMARK VINA RESULT:    -5.006      2.817      4.601
REMARK INTER + INTRA:          -8.517
REMARK INTER:                  -7.258
REMARK INTRA:                  -1.259
REMARK UNBOUND:                -1.170
REMARK SMILES Cc1cc2c(C(C)C)c(O)c(O)c(C=O)c2c(O)c1-c1c(C)cc2c(C(C)C)c(O)c(O)c(C=O)c2c1O
REMARK SMILES IDX 1 1 2 2 3 3 4 4 16 5 13 6 11 7 9 8 5 9 17 10 19 11 20 12
REMARK SMILES IDX 37 13 21 14 36 15 23 16 22 17 24 18 33 19 25 20 31 21 29 22
REMARK SMILES IDX 38 23 34 25 35 26 26 27 27 28 28 29 32 30 30 32 18 34 6 36
REMARK SMILES IDX 7 37 8 38 14 39 15 40 10 41 12 43
REMARK H PARENT 38 24 32 31 30 33 18 35 10 42 12 44
REMARK Flexibility Score: inf
ROOT
ATOM      1  C   UNL     1      58.532  29.621  48.940  1.00  0.00     0.045 C 
ATOM      2  C   UNL     1      58.608  28.639  50.083  1.00  0.00    -0.039 A 
ATOM      3  C   UNL     1      57.514  27.814  50.350  1.00  0.00     0.013 A 
ATOM      4  C   UNL     1      57.519  26.887  51.416  1.00  0.00    -0.006 A 
ATOM      5  C   UNL     1      58.708  26.743  52.194  1.00  0.00     0.039 A 
ATOM      6  C   UNL     1      58.725  25.793  53.257  1.00  0.00     0.072 A 
ATOM      7  C   UNL     1      57.657  24.891  53.409  1.00  0.00     0.169 A 
ATOM      8  C   UNL     1      56.530  24.977  52.573  1.00  0.00     0.162 A 
ATOM      9  C   UNL     1      56.379  26.071  51.692  1.00  0.00     0.008 A 
ATOM     10  C   UNL     1      59.858  27.517  51.852  1.00  0.00     0.132 A 
ATOM     11  C   UNL     1      59.787  28.489  50.831  1.00  0.00     0.031 A 
ENDROOT
BRANCH  11  12
ATOM     12  C   UNL     1      60.972  29.327  50.515  1.00  0.00     0.031 A 
ATOM     13  C   UNL     1      61.922  28.889  49.568  1.00  0.00     0.132 A 
ATOM     14  C   UNL     1      61.153  30.556  51.171  1.00  0.00    -0.039 A 
ATOM     15  C   UNL     1      63.083  29.669  49.301  1.00  0.00     0.039 A 
ATOM     16  C   UNL     1      62.221  31.379  50.808  1.00  0.00     0.013 A 
ATOM     17  C   UNL     1      60.191  31.014  52.240  1.00  0.00     0.045 C 
ATOM     18  C   UNL     1      63.152  30.994  49.818  1.00  0.00    -0.006 A 
ATOM     19  C   UNL     1      64.160  29.184  48.507  1.00  0.00     0.072 A 
ATOM     20  C   UNL     1      64.166  31.889  49.361  1.00  0.00     0.008 A 
ATOM     21  C   UNL     1      65.211  30.039  48.142  1.00  0.00     0.169 A 
ATOM     22  C   UNL     1      65.238  31.373  48.596  1.00  0.00     0.162 A 
BRANCH  13  23
ATOM     23  O   UNL     1      61.692  27.704  48.858  1.00  0.00    -0.507 OA
ATOM     24  H   UNL     1      61.401  27.676  47.889  1.00  0.00     0.293 HD
ENDBRANCH  13  23
BRANCH  19  25
ATOM     25  C   UNL     1      64.307  27.757  48.136  1.00  0.00     0.264 C 
ATOM     26  O   UNL     1      65.207  27.047  48.655  1.00  0.00    -0.298 OA
ENDBRANCH  19  25
BRANCH  20  27
ATOM     27  C   UNL     1      64.115  33.393  49.688  1.00  0.00     0.017 C 
ATOM     28  C   UNL     1      62.856  34.040  49.104  1.00  0.00     0.012 C 
ATOM     29  C   UNL     1      64.265  33.706  51.188  1.00  0.00     0.012 C 
ENDBRANCH  20  27
BRANCH  21  30
ATOM     30  O   UNL     1      66.227  29.525  47.324  1.00  0.00    -0.504 OA
ATOM     31  H   UNL     1      66.571  29.974  46.488  1.00  0.00     0.293 HD
ENDBRANCH  21  30
BRANCH  22  32
ATOM     32  O   UNL     1      66.339  32.194  48.338  1.00  0.00    -0.504 OA
ATOM     33  H   UNL     1      67.171  31.905  47.847  1.00  0.00     0.293 HD
ENDBRANCH  22  32
ENDBRANCH  11  12
BRANCH  10  34
ATOM     34  O   UNL     1      61.080  27.288  52.494  1.00  0.00    -0.507 OA
ATOM     35  H   UNL     1      61.741  28.018  52.727  1.00  0.00     0.293 HD
ENDBRANCH  10  34
BRANCH   9  36
ATOM     36  C   UNL     1      55.018  26.324  51.018  1.00  0.00     0.017 C 
ATOM     37  C   UNL     1      54.600  27.792  51.160  1.00  0.00     0.012 C 
ATOM     38  C   UNL     1      54.957  25.865  49.549  1.00  0.00     0.012 C 
ENDBRANCH   9  36
BRANCH   6  39
ATOM     39  C   UNL     1      59.798  25.776  54.281  1.00  0.00     0.264 C 
ATOM     40  O   UNL     1      60.685  24.882  54.281  1.00  0.00    -0.298 OA
ENDBRANCH   6  39
BRANCH   8  41
ATOM     41  O   UNL     1      55.551  23.980  52.595  1.00  0.00    -0.504 OA
ATOM     42  H   UNL     1      55.591  23.160  53.185  1.00  0.00     0.293 HD
ENDBRANCH   8  41
BRANCH   7  43
ATOM     43  O   UNL     1      57.716  23.942  54.437  1.00  0.00    -0.504 OA
ATOM     44  H   UNL     1      56.945  23.727  55.054  1.00  0.00     0.293 HD
ENDBRANCH   7  43
TORSDOF 11
ENDMDL
