MODEL 1
REMARK VINA RESULT:    -3.468      0.000      0.000
REMARK INTER + INTRA:          -5.184
REMARK INTER:                  -4.785
REMARK INTRA:                  -0.399
REMARK UNBOUND:                -0.399
REMARK SMILES CCCCCCCCO
REMARK SMILES IDX 5 1 4 2 3 3 2 4 1 5 6 6 7 7 8 8 9 9
REMARK H PARENT 9 10
REMARK Flexibility Score: inf
ROOT
ATOM      1  C   UNL     1     160.014 161.147 181.444  1.00  0.00     0.000 C 
ENDROOT
BRANCH   1   2
ATOM      2  C   UNL     1     160.352 160.610 182.843  1.00  0.00    -0.000 C 
BRANCH   2   3
ATOM      3  C   UNL     1     160.640 161.763 183.817  1.00  0.00    -0.000 C 
BRANCH   3   4
ATOM      4  C   UNL     1     161.292 162.970 183.126  1.00  0.00    -0.003 C 
ATOM      5  C   UNL     1     162.819 162.947 183.211  1.00  0.00     0.004 C 
ENDBRANCH   3   4
ENDBRANCH   2   3
ENDBRANCH   1   2
BRANCH   1   6
ATOM      6  C   UNL     1     160.889 160.526 180.344  1.00  0.00     0.002 C 
BRANCH   6   7
ATOM      7  C   UNL     1     160.920 161.374 179.064  1.00  0.00     0.028 C 
BRANCH   7   8
ATOM      8  C   UNL     1     161.039 162.864 179.394  1.00  0.00     0.156 C 
BRANCH   8   9
ATOM      9  O   UNL     1     160.033 163.588 178.741  1.00  0.00    -0.396 OA
ATOM     10  H   UNL     1     159.229 163.547 179.323  1.00  0.00     0.210 HD
ENDBRANCH   8   9
ENDBRANCH   7   8
ENDBRANCH   6   7
ENDBRANCH   1   6
TORSDOF 7
ENDMDL
MODEL 2
REMARK VINA RESULT:    -3.455      1.198      1.890
REMARK INTER + INTRA:          -5.167
REMARK INTER:                  -4.621
REMARK INTRA:                  -0.546
REMARK UNBOUND:                -0.399
REMARK SMILES CCCCCCCCO
REMARK SMILES IDX 5 1 4 2 3 3 2 4 1 5 6 6 7 7 8 8 9 9
REMARK H PARENT 9 10
REMARK Flexibility Score: inf
ROOT
ATOM      1  C   UNL     1     162.893 161.393 180.871  1.00  0.00     0.000 C 
ENDROOT
BRANCH   1   2
ATOM      2  C   UNL     1     162.740 161.055 182.362  1.00  0.00    -0.000 C 
BRANCH   2   3
ATOM      3  C   UNL     1     162.329 162.298 183.166  1.00  0.00    -0.000 C 
BRANCH   3   4
ATOM      4  C   UNL     1     160.826 162.328 183.481  1.00  0.00    -0.003 C 
ATOM      5  C   UNL     1     160.174 160.948 183.383  1.00  0.00     0.004 C 
ENDBRANCH   3   4
ENDBRANCH   2   3
ENDBRANCH   1   2
BRANCH   1   6
ATOM      6  C   UNL     1     161.928 160.593 179.981  1.00  0.00     0.002 C 
BRANCH   6   7
ATOM      7  C   UNL     1     160.595 161.320 179.752  1.00  0.00     0.028 C 
BRANCH   7   8
ATOM      8  C   UNL     1     160.794 162.837 179.715  1.00  0.00     0.156 C 
BRANCH   8   9
ATOM      9  O   UNL     1     160.042 163.401 178.675  1.00  0.00    -0.396 OA
ATOM     10  H   UNL     1     159.376 164.003 179.100  1.00  0.00     0.210 HD
ENDBRANCH   8   9
ENDBRANCH   7   8
ENDBRANCH   6   7
ENDBRANCH   1   6
TORSDOF 7
ENDMDL
MODEL 3
REMARK VINA RESULT:    -3.413      1.326      1.542
REMARK INTER + INTRA:          -5.108
REMARK INTER:                  -4.630
REMARK INTRA:                  -0.478
REMARK UNBOUND:                -0.399
REMARK SMILES CCCCCCCCO
REMARK SMILES IDX 5 1 4 2 3 3 2 4 1 5 6 6 7 7 8 8 9 9
REMARK H PARENT 9 10
REMARK Flexibility Score: inf
ROOT
ATOM      1  C   UNL     1     160.092 161.587 181.756  1.00  0.00     0.000 C 
ENDROOT
BRANCH   1   2
ATOM      2  C   UNL     1     160.827 161.248 183.062  1.00  0.00    -0.000 C 
BRANCH   2   3
ATOM      3  C   UNL     1     162.196 161.942 183.116  1.00  0.00    -0.000 C 
BRANCH   3   4
ATOM      4  C   UNL     1     163.365 160.955 182.977  1.00  0.00    -0.003 C 
ATOM      5  C   UNL     1     163.868 160.833 181.538  1.00  0.00     0.004 C 
ENDBRANCH   3   4
ENDBRANCH   2   3
ENDBRANCH   1   2
BRANCH   1   6
ATOM      6  C   UNL     1     160.327 160.539 180.656  1.00  0.00     0.002 C 
BRANCH   6   7
ATOM      7  C   UNL     1     160.511 161.170 179.268  1.00  0.00     0.028 C 
BRANCH   7   8
ATOM      8  C   UNL     1     160.942 162.634 179.381  1.00  0.00     0.156 C 
BRANCH   8   9
ATOM      9  O   UNL     1     160.047 163.459 178.688  1.00  0.00    -0.396 OA
ATOM     10  H   UNL     1     159.749 164.158 179.328  1.00  0.00     0.210 HD
ENDBRANCH   8   9
ENDBRANCH   7   8
ENDBRANCH   6   7
ENDBRANCH   1   6
TORSDOF 7
ENDMDL
MODEL 4
REMARK VINA RESULT:    -3.401      2.261      3.516
REMARK INTER + INTRA:          -5.092
REMARK INTER:                  -4.602
REMARK INTRA:                  -0.490
REMARK UNBOUND:                -0.399
REMARK SMILES CCCCCCCCO
REMARK SMILES IDX 5 1 4 2 3 3 2 4 1 5 6 6 7 7 8 8 9 9
REMARK H PARENT 9 10
REMARK Flexibility Score: inf
ROOT
ATOM      1  C   UNL     1     162.566 162.229 183.093  1.00  0.00     0.000 C 
ENDROOT
BRANCH   1   2
ATOM      2  C   UNL     1     161.131 162.182 183.639  1.00  0.00    -0.000 C 
BRANCH   2   3
ATOM      3  C   UNL     1     160.353 161.004 183.032  1.00  0.00    -0.000 C 
BRANCH   3   4
ATOM      4  C   UNL     1     159.985 161.236 181.559  1.00  0.00    -0.003 C 
ATOM      5  C   UNL     1     159.875 159.934 180.765  1.00  0.00     0.004 C 
ENDBRANCH   3   4
ENDBRANCH   2   3
ENDBRANCH   1   2
BRANCH   1   6
ATOM      6  C   UNL     1     163.255 160.855 183.116  1.00  0.00     0.002 C 
BRANCH   6   7
ATOM      7  C   UNL     1     164.140 160.616 181.884  1.00  0.00     0.028 C 
BRANCH   7   8
ATOM      8  C   UNL     1     163.497 161.199 180.623  1.00  0.00     0.156 C 
BRANCH   8   9
ATOM      9  O   UNL     1     163.145 160.171 179.738  1.00  0.00    -0.396 OA
ATOM     10  H   UNL     1     162.590 159.529 180.253  1.00  0.00     0.210 HD
ENDBRANCH   8   9
ENDBRANCH   7   8
ENDBRANCH   6   7
ENDBRANCH   1   6
TORSDOF 7
ENDMDL
MODEL 5
REMARK VINA RESULT:    -3.389      1.293      3.000
REMARK INTER + INTRA:          -5.076
REMARK INTER:                  -4.581
REMARK INTRA:                  -0.496
REMARK UNBOUND:                -0.399
REMARK SMILES CCCCCCCCO
REMARK SMILES IDX 5 1 4 2 3 3 2 4 1 5 6 6 7 7 8 8 9 9
REMARK H PARENT 9 10
REMARK Flexibility Score: inf
ROOT
ATOM      1  C   UNL     1     161.258 162.499 183.299  1.00  0.00     0.000 C 
ENDROOT
BRANCH   1   2
ATOM      2  C   UNL     1     161.167 161.036 182.839  1.00  0.00    -0.000 C 
BRANCH   2   3
ATOM      3  C   UNL     1     159.955 160.825 181.920  1.00  0.00    -0.000 C 
BRANCH   3   4
ATOM      4  C   UNL     1     160.333 160.169 180.583  1.00  0.00    -0.003 C 
ATOM      5  C   UNL     1     161.725 160.576 180.098  1.00  0.00     0.004 C 
ENDBRANCH   3   4
ENDBRANCH   2   3
ENDBRANCH   1   2
BRANCH   1   6
ATOM      6  C   UNL     1     160.254 163.411 182.575  1.00  0.00     0.002 C 
BRANCH   6   7
ATOM      7  C   UNL     1     160.941 164.473 181.704  1.00  0.00     0.028 C 
BRANCH   7   8
ATOM      8  C   UNL     1     160.777 164.154 180.216  1.00  0.00     0.156 C 
BRANCH   8   9
ATOM      9  O   UNL     1     160.629 165.337 179.479  1.00  0.00    -0.396 OA
ATOM     10  H   UNL     1     160.811 165.107 178.531  1.00  0.00     0.210 HD
ENDBRANCH   8   9
ENDBRANCH   7   8
ENDBRANCH   6   7
ENDBRANCH   1   6
TORSDOF 7
ENDMDL
MODEL 6
REMARK VINA RESULT:    -3.341      1.345      1.951
REMARK INTER + INTRA:          -5.009
REMARK INTER:                  -4.560
REMARK INTRA:                  -0.449
REMARK UNBOUND:                -0.399
REMARK SMILES CCCCCCCCO
REMARK SMILES IDX 5 1 4 2 3 3 2 4 1 5 6 6 7 7 8 8 9 9
REMARK H PARENT 9 10
REMARK Flexibility Score: inf
ROOT
ATOM      1  C   UNL     1     160.222 161.266 182.603  1.00  0.00     0.000 C 
ENDROOT
BRANCH   1   2
ATOM      2  C   UNL     1     161.449 161.563 183.480  1.00  0.00    -0.000 C 
BRANCH   2   3
ATOM      3  C   UNL     1     162.717 160.944 182.874  1.00  0.00    -0.000 C 
BRANCH   3   4
ATOM      4  C   UNL     1     163.827 161.980 182.639  1.00  0.00    -0.003 C 
ATOM      5  C   UNL     1     163.603 163.274 183.422  1.00  0.00     0.004 C 
ENDBRANCH   3   4
ENDBRANCH   2   3
ENDBRANCH   1   2
BRANCH   1   6
ATOM      6  C   UNL     1     160.274 161.989 181.248  1.00  0.00     0.002 C 
BRANCH   6   7
ATOM      7  C   UNL     1     160.334 163.517 181.394  1.00  0.00     0.028 C 
BRANCH   7   8
ATOM      8  C   UNL     1     160.784 164.177 180.089  1.00  0.00     0.156 C 
BRANCH   8   9
ATOM      9  O   UNL     1     160.067 163.651 179.006  1.00  0.00    -0.396 OA
ATOM     10  H   UNL     1     159.105 163.803 179.200  1.00  0.00     0.210 HD
ENDBRANCH   8   9
ENDBRANCH   7   8
ENDBRANCH   6   7
ENDBRANCH   1   6
TORSDOF 7
ENDMDL
MODEL 7
REMARK VINA RESULT:    -3.287      1.901      2.193
REMARK INTER + INTRA:          -4.935
REMARK INTER:                  -4.373
REMARK INTRA:                  -0.561
REMARK UNBOUND:                -0.399
REMARK SMILES CCCCCCCCO
REMARK SMILES IDX 5 1 4 2 3 3 2 4 1 5 6 6 7 7 8 8 9 9
REMARK H PARENT 9 10
REMARK Flexibility Score: inf
ROOT
ATOM      1  C   UNL     1     160.257 160.666 182.816  1.00  0.00     0.000 C 
ENDROOT
BRANCH   1   2
ATOM      2  C   UNL     1     160.818 161.816 183.666  1.00  0.00    -0.000 C 
BRANCH   2   3
ATOM      3  C   UNL     1     160.736 163.149 182.906  1.00  0.00    -0.000 C 
BRANCH   3   4
ATOM      4  C   UNL     1     162.121 163.729 182.581  1.00  0.00    -0.003 C 
ATOM      5  C   UNL     1     163.252 163.004 183.310  1.00  0.00     0.004 C 
ENDBRANCH   3   4
ENDBRANCH   2   3
ENDBRANCH   1   2
BRANCH   1   6
ATOM      6  C   UNL     1     160.003 161.077 181.357  1.00  0.00     0.002 C 
BRANCH   6   7
ATOM      7  C   UNL     1     160.831 160.256 180.358  1.00  0.00     0.028 C 
BRANCH   7   8
ATOM      8  C   UNL     1     162.144 160.965 180.017  1.00  0.00     0.156 C 
BRANCH   8   9
ATOM      9  O   UNL     1     163.187 160.461 180.806  1.00  0.00    -0.396 OA
ATOM     10  H   UNL     1     163.989 161.011 180.602  1.00  0.00     0.210 HD
ENDBRANCH   8   9
ENDBRANCH   7   8
ENDBRANCH   6   7
ENDBRANCH   1   6
TORSDOF 7
ENDMDL
MODEL 8
REMARK VINA RESULT:    -3.242      2.018      2.709
REMARK INTER + INTRA:          -4.873
REMARK INTER:                  -4.427
REMARK INTRA:                  -0.447
REMARK UNBOUND:                -0.399
REMARK SMILES CCCCCCCCO
REMARK SMILES IDX 5 1 4 2 3 3 2 4 1 5 6 6 7 7 8 8 9 9
REMARK H PARENT 9 10
REMARK Flexibility Score: inf
ROOT
ATOM      1  C   UNL     1     160.300 162.728 181.263  1.00  0.00     0.000 C 
ENDROOT
BRANCH   1   2
ATOM      2  C   UNL     1     160.167 161.465 182.127  1.00  0.00    -0.000 C 
BRANCH   2   3
ATOM      3  C   UNL     1     161.095 161.538 183.349  1.00  0.00    -0.000 C 
BRANCH   3   4
ATOM      4  C   UNL     1     162.573 161.337 182.983  1.00  0.00    -0.003 C 
ATOM      5  C   UNL     1     163.414 162.593 183.212  1.00  0.00     0.004 C 
ENDBRANCH   3   4
ENDBRANCH   2   3
ENDBRANCH   1   2
BRANCH   1   6
ATOM      6  C   UNL     1     159.981 164.014 182.042  1.00  0.00     0.002 C 
BRANCH   6   7
ATOM      7  C   UNL     1     161.023 165.118 181.815  1.00  0.00     0.028 C 
BRANCH   7   8
ATOM      8  C   UNL     1     160.489 166.193 180.865  1.00  0.00     0.156 C 
BRANCH   8   9
ATOM      9  O   UNL     1     160.648 165.787 179.533  1.00  0.00    -0.396 OA
ATOM     10  H   UNL     1     161.625 165.722 179.370  1.00  0.00     0.210 HD
ENDBRANCH   8   9
ENDBRANCH   7   8
ENDBRANCH   6   7
ENDBRANCH   1   6
TORSDOF 7
ENDMDL
MODEL 9
REMARK VINA RESULT:    -2.902      1.570      2.425
REMARK INTER + INTRA:          -4.404
REMARK INTER:                  -3.899
REMARK INTRA:                  -0.505
REMARK UNBOUND:                -0.399
REMARK SMILES CCCCCCCCO
REMARK SMILES IDX 5 1 4 2 3 3 2 4 1 5 6 6 7 7 8 8 9 9
REMARK H PARENT 9 10
REMARK Flexibility Score: inf
ROOT
ATOM      1  C   UNL     1     160.626 161.347 183.330  1.00  0.00     0.000 C 
ENDROOT
BRANCH   1   2
ATOM      2  C   UNL     1     161.540 162.545 183.628  1.00  0.00    -0.000 C 
BRANCH   2   3
ATOM      3  C   UNL     1     162.872 162.419 182.873  1.00  0.00    -0.000 C 
BRANCH   3   4
ATOM      4  C   UNL     1     163.423 160.985 182.882  1.00  0.00    -0.003 C 
ATOM      5  C   UNL     1     164.154 160.624 181.588  1.00  0.00     0.004 C 
ENDBRANCH   3   4
ENDBRANCH   2   3
ENDBRANCH   1   2
BRANCH   1   6
ATOM      6  C   UNL     1     159.875 161.491 181.997  1.00  0.00     0.002 C 
BRANCH   6   7
ATOM      7  C   UNL     1     160.233 160.385 180.993  1.00  0.00     0.028 C 
BRANCH   7   8
ATOM      8  C   UNL     1     160.897 160.969 179.744  1.00  0.00     0.156 C 
BRANCH   8   9
ATOM      9  O   UNL     1     159.924 161.373 178.820  1.00  0.00    -0.396 OA
ATOM     10  H   UNL     1     160.389 161.930 178.142  1.00  0.00     0.210 HD
ENDBRANCH   8   9
ENDBRANCH   7   8
ENDBRANCH   6   7
ENDBRANCH   1   6
TORSDOF 7
ENDMDL
