MODEL 1
REMARK VINA RESULT:    -7.795      0.000      0.000
REMARK INTER + INTRA:          -9.983
REMARK INTER:                  -9.618
REMARK INTRA:                  -0.365
REMARK UNBOUND:                -0.365
REMARK SMILES O=c1c(O)c(-c2cc(O)c(O)c(O)c2)oc2cc(O)cc(O)c12
REMARK SMILES IDX 5 1 3 2 2 3 1 4 23 5 21 6 20 7 18 8 17 9 16 10 15 11 6 12
REMARK SMILES IDX 7 13 8 14 14 15 10 16 12 17 9 18 11 20 13 22 4 24 22 26
REMARK SMILES IDX 19 28
REMARK H PARENT 9 19 11 21 13 23 4 25 22 27 19 29
REMARK Flexibility Score: inf
ROOT
ATOM      1  C   UNL     1      26.439   6.568  20.578  1.00  0.00     0.180 A 
ATOM      2  C   UNL     1      27.787   6.494  20.174  1.00  0.00     0.208 A 
ATOM      3  C   UNL     1      28.793   6.603  21.146  1.00  0.00     0.238 A 
ATOM      4  O   UNL     1      30.003   6.548  20.795  1.00  0.00    -0.285 OA
ATOM      5  C   UNL     1      28.438   6.764  22.501  1.00  0.00     0.111 A 
ATOM      6  C   UNL     1      29.390   6.879  23.542  1.00  0.00     0.134 A 
ATOM      7  C   UNL     1      28.957   7.029  24.868  1.00  0.00     0.093 A 
ATOM      8  C   UNL     1      27.592   7.064  25.171  1.00  0.00     0.123 A 
ATOM      9  C   UNL     1      26.650   6.953  24.148  1.00  0.00     0.094 A 
ATOM     10  C   UNL     1      27.061   6.804  22.820  1.00  0.00     0.146 A 
ATOM     11  O   UNL     1      26.142   6.706  21.866  1.00  0.00    -0.452 OA
ENDROOT
BRANCH   1  12
ATOM     12  C   UNL     1      25.322   6.480  19.610  1.00  0.00     0.029 A 
ATOM     13  C   UNL     1      24.768   7.631  19.025  1.00  0.00     0.062 A 
ATOM     14  C   UNL     1      23.696   7.529  18.128  1.00  0.00     0.162 A 
ATOM     15  C   UNL     1      24.765   5.227  19.312  1.00  0.00     0.062 A 
ATOM     16  C   UNL     1      23.158   6.268  17.818  1.00  0.00     0.200 A 
ATOM     17  C   UNL     1      23.695   5.116  18.417  1.00  0.00     0.162 A 
BRANCH  14  18
ATOM     18  O   UNL     1      23.159   8.678  17.547  1.00  0.00    -0.504 OA
ATOM     19  H   UNL     1      23.639   9.171  16.803  1.00  0.00     0.293 HD
ENDBRANCH  14  18
BRANCH  16  20
ATOM     20  O   UNL     1      22.094   6.148  16.923  1.00  0.00    -0.502 OA
ATOM     21  H   UNL     1      21.468   6.919  16.722  1.00  0.00     0.293 HD
ENDBRANCH  16  20
BRANCH  17  22
ATOM     22  O   UNL     1      23.179   3.851  18.137  1.00  0.00    -0.504 OA
ATOM     23  H   UNL     1      23.662   3.193  17.538  1.00  0.00     0.293 HD
ENDBRANCH  17  22
ENDBRANCH   1  12
BRANCH   2  24
ATOM     24  O   UNL     1      28.110   6.283  18.831  1.00  0.00    -0.502 OA
ATOM     25  H   UNL     1      28.323   7.045  18.198  1.00  0.00     0.293 HD
ENDBRANCH   2  24
BRANCH   6  26
ATOM     26  O   UNL     1      30.759   6.845  23.271  1.00  0.00    -0.507 OA
ATOM     27  H   UNL     1      31.322   6.024  23.464  1.00  0.00     0.293 HD
ENDBRANCH   6  26
BRANCH   8  28
ATOM     28  O   UNL     1      27.161   7.213  26.488  1.00  0.00    -0.508 OA
ATOM     29  H   UNL     1      26.768   8.085  26.822  1.00  0.00     0.293 HD
ENDBRANCH   8  28
TORSDOF 7
ENDMDL
MODEL 2
REMARK VINA RESULT:    -7.642      2.848      6.938
REMARK INTER + INTRA:          -9.794
REMARK INTER:                  -9.427
REMARK INTRA:                  -0.367
REMARK UNBOUND:                -0.365
REMARK SMILES O=c1c(O)c(-c2cc(O)c(O)c(O)c2)oc2cc(O)cc(O)c12
REMARK SMILES IDX 5 1 3 2 2 3 1 4 23 5 21 6 20 7 18 8 17 9 16 10 15 11 6 12
REMARK SMILES IDX 7 13 8 14 14 15 10 16 12 17 9 18 11 20 13 22 4 24 22 26
REMARK SMILES IDX 19 28
REMARK H PARENT 9 19 11 21 13 23 4 25 22 27 19 29
REMARK Flexibility Score: inf
ROOT
ATOM      1  C   UNL     1      25.568   6.211  22.653  1.00  0.00     0.180 A 
ATOM      2  C   UNL     1      24.698   5.913  23.721  1.00  0.00     0.208 A 
ATOM      3  C   UNL     1      23.715   4.928  23.540  1.00  0.00     0.238 A 
ATOM      4  O   UNL     1      22.925   4.660  24.485  1.00  0.00    -0.285 OA
ATOM      5  C   UNL     1      23.630   4.247  22.308  1.00  0.00     0.111 A 
ATOM      6  C   UNL     1      22.671   3.239  22.046  1.00  0.00     0.134 A 
ATOM      7  C   UNL     1      22.655   2.601  20.797  1.00  0.00     0.093 A 
ATOM      8  C   UNL     1      23.581   2.951  19.807  1.00  0.00     0.123 A 
ATOM      9  C   UNL     1      24.527   3.945  20.061  1.00  0.00     0.094 A 
ATOM     10  C   UNL     1      24.558   4.593  21.299  1.00  0.00     0.146 A 
ATOM     11  O   UNL     1      25.466   5.538  21.511  1.00  0.00    -0.452 OA
ENDROOT
BRANCH   1  12
ATOM     12  C   UNL     1      26.618   7.250  22.760  1.00  0.00     0.029 A 
ATOM     13  C   UNL     1      26.358   8.589  22.423  1.00  0.00     0.062 A 
ATOM     14  C   UNL     1      27.372   9.554  22.510  1.00  0.00     0.162 A 
ATOM     15  C   UNL     1      27.913   6.882  23.152  1.00  0.00     0.062 A 
ATOM     16  C   UNL     1      28.662   9.181  22.924  1.00  0.00     0.200 A 
ATOM     17  C   UNL     1      28.931   7.839  23.242  1.00  0.00     0.162 A 
BRANCH  14  18
ATOM     18  O   UNL     1      27.102  10.882  22.179  1.00  0.00    -0.504 OA
ATOM     19  H   UNL     1      26.576  11.487  22.799  1.00  0.00     0.293 HD
ENDBRANCH  14  18
BRANCH  16  20
ATOM     20  O   UNL     1      29.681  10.130  23.020  1.00  0.00    -0.502 OA
ATOM     21  H   UNL     1      30.272  10.369  22.233  1.00  0.00     0.293 HD
ENDBRANCH  16  20
BRANCH  17  22
ATOM     22  O   UNL     1      30.202   7.435  23.648  1.00  0.00    -0.504 OA
ATOM     23  H   UNL     1      30.379   7.065  24.574  1.00  0.00     0.293 HD
ENDBRANCH  17  22
ENDBRANCH   1  12
BRANCH   2  24
ATOM     24  O   UNL     1      24.837   6.567  24.947  1.00  0.00    -0.502 OA
ATOM     25  H   UNL     1      25.511   6.274  25.646  1.00  0.00     0.293 HD
ENDBRANCH   2  24
BRANCH   6  26
ATOM     26  O   UNL     1      21.736   2.868  23.014  1.00  0.00    -0.507 OA
ATOM     27  H   UNL     1      21.660   1.912  23.344  1.00  0.00     0.293 HD
ENDBRANCH   6  26
BRANCH   8  28
ATOM     28  O   UNL     1      23.566   2.317  18.566  1.00  0.00    -0.508 OA
ATOM     29  H   UNL     1      23.433   1.316  18.484  1.00  0.00     0.293 HD
ENDBRANCH   8  28
TORSDOF 7
ENDMDL
MODEL 3
REMARK VINA RESULT:    -7.540      3.505      5.169
REMARK INTER + INTRA:          -9.668
REMARK INTER:                  -9.302
REMARK INTRA:                  -0.366
REMARK UNBOUND:                -0.365
REMARK SMILES O=c1c(O)c(-c2cc(O)c(O)c(O)c2)oc2cc(O)cc(O)c12
REMARK SMILES IDX 5 1 3 2 2 3 1 4 23 5 21 6 20 7 18 8 17 9 16 10 15 11 6 12
REMARK SMILES IDX 7 13 8 14 14 15 10 16 12 17 9 18 11 20 13 22 4 24 22 26
REMARK SMILES IDX 19 28
REMARK H PARENT 9 19 11 21 13 23 4 25 22 27 19 29
REMARK Flexibility Score: inf
ROOT
ATOM      1  C   UNL     1      25.327   6.406  23.965  1.00  0.00     0.180 A 
ATOM      2  C   UNL     1      25.930   6.762  25.188  1.00  0.00     0.208 A 
ATOM      3  C   UNL     1      27.305   7.039  25.211  1.00  0.00     0.238 A 
ATOM      4  O   UNL     1      27.857   7.350  26.300  1.00  0.00    -0.285 OA
ATOM      5  C   UNL     1      28.049   6.975  24.014  1.00  0.00     0.111 A 
ATOM      6  C   UNL     1      29.437   7.243  23.950  1.00  0.00     0.134 A 
ATOM      7  C   UNL     1      30.105   7.165  22.719  1.00  0.00     0.093 A 
ATOM      8  C   UNL     1      29.411   6.827  21.552  1.00  0.00     0.123 A 
ATOM      9  C   UNL     1      28.042   6.562  21.611  1.00  0.00     0.094 A 
ATOM     10  C   UNL     1      27.359   6.632  22.828  1.00  0.00     0.146 A 
ATOM     11  O   UNL     1      26.057   6.369  22.855  1.00  0.00    -0.452 OA
ENDROOT
BRANCH   1  12
ATOM     12  C   UNL     1      23.886   6.081  23.864  1.00  0.00     0.029 A 
ATOM     13  C   UNL     1      23.420   4.765  24.027  1.00  0.00     0.062 A 
ATOM     14  C   UNL     1      22.054   4.474  23.905  1.00  0.00     0.162 A 
ATOM     15  C   UNL     1      22.972   7.095  23.543  1.00  0.00     0.062 A 
ATOM     16  C   UNL     1      21.141   5.500  23.605  1.00  0.00     0.200 A 
ATOM     17  C   UNL     1      21.606   6.814  23.420  1.00  0.00     0.162 A 
BRANCH  14  18
ATOM     18  O   UNL     1      21.600   3.166  24.075  1.00  0.00    -0.504 OA
ATOM     19  H   UNL     1      22.202   2.440  24.447  1.00  0.00     0.293 HD
ENDBRANCH  14  18
BRANCH  16  20
ATOM     20  O   UNL     1      19.778   5.229  23.484  1.00  0.00    -0.502 OA
ATOM     21  H   UNL     1      19.218   4.918  24.269  1.00  0.00     0.293 HD
ENDBRANCH  16  20
BRANCH  17  22
ATOM     22  O   UNL     1      20.728   7.853  23.114  1.00  0.00    -0.504 OA
ATOM     23  H   UNL     1      19.987   7.748  22.431  1.00  0.00     0.293 HD
ENDBRANCH  17  22
ENDBRANCH   1  12
BRANCH   2  24
ATOM     24  O   UNL     1      25.161   6.868  26.349  1.00  0.00    -0.502 OA
ATOM     25  H   UNL     1      25.408   6.393  27.210  1.00  0.00     0.293 HD
ENDBRANCH   2  24
BRANCH   6  26
ATOM     26  O   UNL     1      30.157   7.584  25.097  1.00  0.00    -0.507 OA
ATOM     27  H   UNL     1      30.680   6.894  25.624  1.00  0.00     0.293 HD
ENDBRANCH   6  26
BRANCH   8  28
ATOM     28  O   UNL     1      30.073   6.751  20.328  1.00  0.00    -0.508 OA
ATOM     29  H   UNL     1      29.995   5.934  19.734  1.00  0.00     0.293 HD
ENDBRANCH   8  28
TORSDOF 7
ENDMDL
MODEL 4
REMARK VINA RESULT:    -7.523      1.520      7.172
REMARK INTER + INTRA:          -9.646
REMARK INTER:                  -9.279
REMARK INTRA:                  -0.367
REMARK UNBOUND:                -0.365
REMARK SMILES O=c1c(O)c(-c2cc(O)c(O)c(O)c2)oc2cc(O)cc(O)c12
REMARK SMILES IDX 5 1 3 2 2 3 1 4 23 5 21 6 20 7 18 8 17 9 16 10 15 11 6 12
REMARK SMILES IDX 7 13 8 14 14 15 10 16 12 17 9 18 11 20 13 22 4 24 22 26
REMARK SMILES IDX 19 28
REMARK H PARENT 9 19 11 21 13 23 4 25 22 27 19 29
REMARK Flexibility Score: inf
ROOT
ATOM      1  C   UNL     1      25.886   6.085  21.923  1.00  0.00     0.180 A 
ATOM      2  C   UNL     1      25.704   4.726  21.599  1.00  0.00     0.208 A 
ATOM      3  C   UNL     1      24.946   4.394  20.466  1.00  0.00     0.238 A 
ATOM      4  O   UNL     1      24.768   3.182  20.172  1.00  0.00    -0.285 OA
ATOM      5  C   UNL     1      24.401   5.421  19.667  1.00  0.00     0.111 A 
ATOM      6  C   UNL     1      23.628   5.172  18.508  1.00  0.00     0.134 A 
ATOM      7  C   UNL     1      23.127   6.249  17.761  1.00  0.00     0.093 A 
ATOM      8  C   UNL     1      23.385   7.568  18.151  1.00  0.00     0.123 A 
ATOM      9  C   UNL     1      24.146   7.817  19.294  1.00  0.00     0.094 A 
ATOM     10  C   UNL     1      24.652   6.758  20.052  1.00  0.00     0.146 A 
ATOM     11  O   UNL     1      25.368   7.026  21.139  1.00  0.00    -0.452 OA
ENDROOT
BRANCH   1  12
ATOM     12  C   UNL     1      26.657   6.514  23.112  1.00  0.00     0.029 A 
ATOM     13  C   UNL     1      26.049   6.632  24.374  1.00  0.00     0.062 A 
ATOM     14  C   UNL     1      26.791   7.061  25.483  1.00  0.00     0.162 A 
ATOM     15  C   UNL     1      28.007   6.865  22.968  1.00  0.00     0.062 A 
ATOM     16  C   UNL     1      28.149   7.390  25.335  1.00  0.00     0.200 A 
ATOM     17  C   UNL     1      28.755   7.294  24.071  1.00  0.00     0.162 A 
BRANCH  14  18
ATOM     18  O   UNL     1      26.180   7.168  26.733  1.00  0.00    -0.504 OA
ATOM     19  H   UNL     1      25.959   6.349  27.287  1.00  0.00     0.293 HD
ENDBRANCH  14  18
BRANCH  16  20
ATOM     20  O   UNL     1      28.903   7.815  26.430  1.00  0.00    -0.502 OA
ATOM     21  H   UNL     1      29.488   8.641  26.396  1.00  0.00     0.293 HD
ENDBRANCH  16  20
BRANCH  17  22
ATOM     22  O   UNL     1      30.098   7.621  23.888  1.00  0.00    -0.504 OA
ATOM     23  H   UNL     1      30.823   7.285  24.511  1.00  0.00     0.293 HD
ENDBRANCH  17  22
ENDBRANCH   1  12
BRANCH   2  24
ATOM     24  O   UNL     1      26.297   3.730  22.378  1.00  0.00    -0.502 OA
ATOM     25  H   UNL     1      26.982   3.083  22.003  1.00  0.00     0.293 HD
ENDBRANCH   2  24
BRANCH   6  26
ATOM     26  O   UNL     1      23.355   3.868  18.093  1.00  0.00    -0.507 OA
ATOM     27  H   UNL     1      22.442   3.447  18.221  1.00  0.00     0.293 HD
ENDBRANCH   6  26
BRANCH   8  28
ATOM     28  O   UNL     1      22.888   8.638  17.409  1.00  0.00    -0.508 OA
ATOM     29  H   UNL     1      22.820   9.569  17.803  1.00  0.00     0.293 HD
ENDBRANCH   8  28
TORSDOF 7
ENDMDL
MODEL 5
REMARK VINA RESULT:    -7.420      2.860      3.659
REMARK INTER + INTRA:          -9.520
REMARK INTER:                  -9.153
REMARK INTRA:                  -0.367
REMARK UNBOUND:                -0.365
REMARK SMILES O=c1c(O)c(-c2cc(O)c(O)c(O)c2)oc2cc(O)cc(O)c12
REMARK SMILES IDX 5 1 3 2 2 3 1 4 23 5 21 6 20 7 18 8 17 9 16 10 15 11 6 12
REMARK SMILES IDX 7 13 8 14 14 15 10 16 12 17 9 18 11 20 13 22 4 24 22 26
REMARK SMILES IDX 19 28
REMARK H PARENT 9 19 11 21 13 23 4 25 22 27 19 29
REMARK Flexibility Score: inf
ROOT
ATOM      1  C   UNL     1      25.716   8.349  22.087  1.00  0.00     0.180 A 
ATOM      2  C   UNL     1      26.615   9.412  22.308  1.00  0.00     0.208 A 
ATOM      3  C   UNL     1      27.916   9.120  22.746  1.00  0.00     0.238 A 
ATOM      4  O   UNL     1      28.725  10.063  22.957  1.00  0.00    -0.285 OA
ATOM      5  C   UNL     1      28.302   7.777  22.935  1.00  0.00     0.111 A 
ATOM      6  C   UNL     1      29.594   7.397  23.371  1.00  0.00     0.134 A 
ATOM      7  C   UNL     1      29.904   6.038  23.528  1.00  0.00     0.093 A 
ATOM      8  C   UNL     1      28.948   5.053  23.256  1.00  0.00     0.123 A 
ATOM      9  C   UNL     1      27.672   5.423  22.828  1.00  0.00     0.094 A 
ATOM     10  C   UNL     1      27.344   6.772  22.667  1.00  0.00     0.146 A 
ATOM     11  O   UNL     1      26.120   7.095  22.263  1.00  0.00    -0.452 OA
ENDROOT
BRANCH   1  12
ATOM     12  C   UNL     1      24.322   8.578  21.643  1.00  0.00     0.029 A 
ATOM     13  C   UNL     1      23.282   8.771  22.569  1.00  0.00     0.062 A 
ATOM     14  C   UNL     1      21.965   8.964  22.130  1.00  0.00     0.162 A 
ATOM     15  C   UNL     1      24.020   8.545  20.274  1.00  0.00     0.062 A 
ATOM     16  C   UNL     1      21.675   8.951  20.755  1.00  0.00     0.200 A 
ATOM     17  C   UNL     1      22.708   8.737  19.827  1.00  0.00     0.162 A 
BRANCH  14  18
ATOM     18  O   UNL     1      20.941   9.161  23.056  1.00  0.00    -0.504 OA
ATOM     19  H   UNL     1      21.118   9.140  24.054  1.00  0.00     0.293 HD
ENDBRANCH  14  18
BRANCH  16  20
ATOM     20  O   UNL     1      20.370   9.146  20.300  1.00  0.00    -0.502 OA
ATOM     21  H   UNL     1      20.031  10.053  20.003  1.00  0.00     0.293 HD
ENDBRANCH  16  20
BRANCH  17  22
ATOM     22  O   UNL     1      22.452   8.711  18.456  1.00  0.00    -0.504 OA
ATOM     23  H   UNL     1      21.573   8.377  18.079  1.00  0.00     0.293 HD
ENDBRANCH  17  22
ENDBRANCH   1  12
BRANCH   2  24
ATOM     24  O   UNL     1      26.222  10.730  22.065  1.00  0.00    -0.502 OA
ATOM     25  H   UNL     1      26.863  11.512  22.148  1.00  0.00     0.293 HD
ENDBRANCH   2  24
BRANCH   6  26
ATOM     26  O   UNL     1      30.570   8.356  23.648  1.00  0.00    -0.507 OA
ATOM     27  H   UNL     1      30.832   8.591  24.598  1.00  0.00     0.293 HD
ENDBRANCH   6  26
BRANCH   8  28
ATOM     28  O   UNL     1      29.255   3.703  23.411  1.00  0.00    -0.508 OA
ATOM     29  H   UNL     1      29.283   3.267  24.326  1.00  0.00     0.293 HD
ENDBRANCH   8  28
TORSDOF 7
ENDMDL
MODEL 6
REMARK VINA RESULT:    -7.397      2.845      3.636
REMARK INTER + INTRA:          -9.491
REMARK INTER:                  -9.125
REMARK INTRA:                  -0.366
REMARK UNBOUND:                -0.365
REMARK SMILES O=c1c(O)c(-c2cc(O)c(O)c(O)c2)oc2cc(O)cc(O)c12
REMARK SMILES IDX 5 1 3 2 2 3 1 4 23 5 21 6 20 7 18 8 17 9 16 10 15 11 6 12
REMARK SMILES IDX 7 13 8 14 14 15 10 16 12 17 9 18 11 20 13 22 4 24 22 26
REMARK SMILES IDX 19 28
REMARK H PARENT 9 19 11 21 13 23 4 25 22 27 19 29
REMARK Flexibility Score: inf
ROOT
ATOM      1  C   UNL     1      25.947   4.773  21.962  1.00  0.00     0.180 A 
ATOM      2  C   UNL     1      27.059   4.114  22.523  1.00  0.00     0.208 A 
ATOM      3  C   UNL     1      28.143   4.880  22.979  1.00  0.00     0.238 A 
ATOM      4  O   UNL     1      29.148   4.301  23.473  1.00  0.00    -0.285 OA
ATOM      5  C   UNL     1      28.089   6.286  22.887  1.00  0.00     0.111 A 
ATOM      6  C   UNL     1      29.136   7.131  23.327  1.00  0.00     0.134 A 
ATOM      7  C   UNL     1      29.004   8.523  23.208  1.00  0.00     0.093 A 
ATOM      8  C   UNL     1      27.845   9.084  22.660  1.00  0.00     0.123 A 
ATOM      9  C   UNL     1      26.811   8.254  22.224  1.00  0.00     0.094 A 
ATOM     10  C   UNL     1      26.925   6.866  22.332  1.00  0.00     0.146 A 
ATOM     11  O   UNL     1      25.926   6.101  21.904  1.00  0.00    -0.452 OA
ENDROOT
BRANCH   1  12
ATOM     12  C   UNL     1      24.775   4.033  21.442  1.00  0.00     0.029 A 
ATOM     13  C   UNL     1      24.701   3.633  20.097  1.00  0.00     0.062 A 
ATOM     14  C   UNL     1      23.573   2.953  19.617  1.00  0.00     0.162 A 
ATOM     15  C   UNL     1      23.690   3.775  22.292  1.00  0.00     0.062 A 
ATOM     16  C   UNL     1      22.499   2.679  20.482  1.00  0.00     0.200 A 
ATOM     17  C   UNL     1      22.560   3.096  21.822  1.00  0.00     0.162 A 
BRANCH  14  18
ATOM     18  O   UNL     1      23.512   2.554  18.282  1.00  0.00    -0.504 OA
ATOM     19  H   UNL     1      22.632   2.313  17.840  1.00  0.00     0.293 HD
ENDBRANCH  14  18
BRANCH  16  20
ATOM     20  O   UNL     1      21.370   1.999  20.022  1.00  0.00    -0.502 OA
ATOM     21  H   UNL     1      20.891   1.306  20.584  1.00  0.00     0.293 HD
ENDBRANCH  16  20
BRANCH  17  22
ATOM     22  O   UNL     1      21.508   2.846  22.703  1.00  0.00    -0.504 OA
ATOM     23  H   UNL     1      21.094   3.578  23.269  1.00  0.00     0.293 HD
ENDBRANCH  17  22
ENDBRANCH   1  12
BRANCH   2  24
ATOM     24  O   UNL     1      27.065   2.723  22.649  1.00  0.00    -0.502 OA
ATOM     25  H   UNL     1      26.235   2.196  22.894  1.00  0.00     0.293 HD
ENDBRANCH   2  24
BRANCH   6  26
ATOM     26  O   UNL     1      30.304   6.601  23.879  1.00  0.00    -0.507 OA
ATOM     27  H   UNL     1      31.096   6.340  23.303  1.00  0.00     0.293 HD
ENDBRANCH   6  26
BRANCH   8  28
ATOM     28  O   UNL     1      27.713  10.466  22.542  1.00  0.00    -0.508 OA
ATOM     29  H   UNL     1      26.803  10.913  22.537  1.00  0.00     0.293 HD
ENDBRANCH   8  28
TORSDOF 7
ENDMDL
MODEL 7
REMARK VINA RESULT:    -7.312      1.662      3.201
REMARK INTER + INTRA:          -9.386
REMARK INTER:                  -9.058
REMARK INTRA:                  -0.329
REMARK UNBOUND:                -0.365
REMARK SMILES O=c1c(O)c(-c2cc(O)c(O)c(O)c2)oc2cc(O)cc(O)c12
REMARK SMILES IDX 5 1 3 2 2 3 1 4 23 5 21 6 20 7 18 8 17 9 16 10 15 11 6 12
REMARK SMILES IDX 7 13 8 14 14 15 10 16 12 17 9 18 11 20 13 22 4 24 22 26
REMARK SMILES IDX 19 28
REMARK H PARENT 9 19 11 21 13 23 4 25 22 27 19 29
REMARK Flexibility Score: inf
ROOT
ATOM      1  C   UNL     1      24.866   6.695  21.862  1.00  0.00     0.180 A 
ATOM      2  C   UNL     1      24.083   6.477  23.013  1.00  0.00     0.208 A 
ATOM      3  C   UNL     1      24.686   6.585  24.275  1.00  0.00     0.238 A 
ATOM      4  O   UNL     1      23.998   6.382  25.311  1.00  0.00    -0.285 OA
ATOM      5  C   UNL     1      26.052   6.927  24.367  1.00  0.00     0.111 A 
ATOM      6  C   UNL     1      26.734   7.059  25.600  1.00  0.00     0.134 A 
ATOM      7  C   UNL     1      28.092   7.411  25.609  1.00  0.00     0.093 A 
ATOM      8  C   UNL     1      28.779   7.634  24.410  1.00  0.00     0.123 A 
ATOM      9  C   UNL     1      28.109   7.503  23.192  1.00  0.00     0.094 A 
ATOM     10  C   UNL     1      26.757   7.152  23.163  1.00  0.00     0.146 A 
ATOM     11  O   UNL     1      26.147   7.029  21.989  1.00  0.00    -0.452 OA
ENDROOT
BRANCH   1  12
ATOM     12  C   UNL     1      24.306   6.581  20.496  1.00  0.00     0.029 A 
ATOM     13  C   UNL     1      23.898   7.717  19.777  1.00  0.00     0.062 A 
ATOM     14  C   UNL     1      23.349   7.587  18.493  1.00  0.00     0.162 A 
ATOM     15  C   UNL     1      24.126   5.311  19.929  1.00  0.00     0.062 A 
ATOM     16  C   UNL     1      23.192   6.312  17.923  1.00  0.00     0.200 A 
ATOM     17  C   UNL     1      23.580   5.172  18.648  1.00  0.00     0.162 A 
BRANCH  14  18
ATOM     18  O   UNL     1      22.953   8.720  17.784  1.00  0.00    -0.504 OA
ATOM     19  H   UNL     1      23.540   9.130  17.067  1.00  0.00     0.293 HD
ENDBRANCH  14  18
BRANCH  16  20
ATOM     20  O   UNL     1      22.652   6.165  16.645  1.00  0.00    -0.502 OA
ATOM     21  H   UNL     1      21.977   5.442  16.423  1.00  0.00     0.293 HD
ENDBRANCH  16  20
BRANCH  17  22
ATOM     22  O   UNL     1      23.430   3.892  18.114  1.00  0.00    -0.504 OA
ATOM     23  H   UNL     1      24.225   3.318  17.862  1.00  0.00     0.293 HD
ENDBRANCH  17  22
ENDBRANCH   1  12
BRANCH   2  24
ATOM     24  O   UNL     1      22.721   6.189  22.895  1.00  0.00    -0.502 OA
ATOM     25  H   UNL     1      22.001   6.857  23.146  1.00  0.00     0.293 HD
ENDBRANCH   2  24
BRANCH   6  26
ATOM     26  O   UNL     1      26.077   6.845  26.813  1.00  0.00    -0.507 OA
ATOM     27  H   UNL     1      25.338   7.460  27.135  1.00  0.00     0.293 HD
ENDBRANCH   6  26
BRANCH   8  28
ATOM     28  O   UNL     1      30.127   7.984  24.418  1.00  0.00    -0.508 OA
ATOM     29  H   UNL     1      30.777   7.575  25.080  1.00  0.00     0.293 HD
ENDBRANCH   8  28
TORSDOF 7
ENDMDL
MODEL 8
REMARK VINA RESULT:    -7.222      1.865      7.290
REMARK INTER + INTRA:          -9.276
REMARK INTER:                  -8.909
REMARK INTRA:                  -0.367
REMARK UNBOUND:                -0.365
REMARK SMILES O=c1c(O)c(-c2cc(O)c(O)c(O)c2)oc2cc(O)cc(O)c12
REMARK SMILES IDX 5 1 3 2 2 3 1 4 23 5 21 6 20 7 18 8 17 9 16 10 15 11 6 12
REMARK SMILES IDX 7 13 8 14 14 15 10 16 12 17 9 18 11 20 13 22 4 24 22 26
REMARK SMILES IDX 19 28
REMARK H PARENT 9 19 11 21 13 23 4 25 22 27 19 29
REMARK Flexibility Score: inf
ROOT
ATOM      1  C   UNL     1      25.092   7.110  21.835  1.00  0.00     0.180 A 
ATOM      2  C   UNL     1      24.399   8.216  21.304  1.00  0.00     0.208 A 
ATOM      3  C   UNL     1      23.596   8.032  20.168  1.00  0.00     0.238 A 
ATOM      4  O   UNL     1      22.980   9.016  19.678  1.00  0.00    -0.285 OA
ATOM      5  C   UNL     1      23.483   6.748  19.596  1.00  0.00     0.111 A 
ATOM      6  C   UNL     1      22.693   6.477  18.453  1.00  0.00     0.134 A 
ATOM      7  C   UNL     1      22.626   5.170  17.948  1.00  0.00     0.093 A 
ATOM      8  C   UNL     1      23.331   4.130  18.564  1.00  0.00     0.123 A 
ATOM      9  C   UNL     1      24.113   4.394  19.690  1.00  0.00     0.094 A 
ATOM     10  C   UNL     1      24.194   5.690  20.208  1.00  0.00     0.146 A 
ATOM     11  O   UNL     1      24.950   5.912  21.277  1.00  0.00    -0.452 OA
ENDROOT
BRANCH   1  12
ATOM     12  C   UNL     1      25.972   7.229  23.020  1.00  0.00     0.029 A 
ATOM     13  C   UNL     1      27.322   7.599  22.894  1.00  0.00     0.062 A 
ATOM     14  C   UNL     1      28.145   7.684  24.025  1.00  0.00     0.162 A 
ATOM     15  C   UNL     1      25.467   6.910  24.289  1.00  0.00     0.062 A 
ATOM     16  C   UNL     1      27.625   7.384  25.296  1.00  0.00     0.200 A 
ATOM     17  C   UNL     1      26.282   6.992  25.424  1.00  0.00     0.162 A 
BRANCH  14  18
ATOM     18  O   UNL     1      29.482   8.059  23.890  1.00  0.00    -0.504 OA
ATOM     19  H   UNL     1      29.783   8.695  23.160  1.00  0.00     0.293 HD
ENDBRANCH  14  18
BRANCH  16  20
ATOM     20  O   UNL     1      28.430   7.468  26.433  1.00  0.00    -0.502 OA
ATOM     21  H   UNL     1      28.100   7.193  27.350  1.00  0.00     0.293 HD
ENDBRANCH  16  20
BRANCH  17  22
ATOM     22  O   UNL     1      25.737   6.680  26.669  1.00  0.00    -0.504 OA
ATOM     23  H   UNL     1      24.770   6.874  26.898  1.00  0.00     0.293 HD
ENDBRANCH  17  22
ENDBRANCH   1  12
BRANCH   2  24
ATOM     24  O   UNL     1      24.489   9.466  21.920  1.00  0.00    -0.502 OA
ATOM     25  H   UNL     1      24.154  10.315  21.478  1.00  0.00     0.293 HD
ENDBRANCH   2  24
BRANCH   6  26
ATOM     26  O   UNL     1      21.976   7.492  17.818  1.00  0.00    -0.507 OA
ATOM     27  H   UNL     1      21.860   8.407  18.238  1.00  0.00     0.293 HD
ENDBRANCH   6  26
BRANCH   8  28
ATOM     28  O   UNL     1      23.264   2.832  18.063  1.00  0.00    -0.508 OA
ATOM     29  H   UNL     1      24.065   2.391  17.625  1.00  0.00     0.293 HD
ENDBRANCH   8  28
TORSDOF 7
ENDMDL
MODEL 9
REMARK VINA RESULT:    -7.093      1.766      7.161
REMARK INTER + INTRA:          -9.117
REMARK INTER:                  -8.790
REMARK INTRA:                  -0.327
REMARK UNBOUND:                -0.365
REMARK SMILES O=c1c(O)c(-c2cc(O)c(O)c(O)c2)oc2cc(O)cc(O)c12
REMARK SMILES IDX 5 1 3 2 2 3 1 4 23 5 21 6 20 7 18 8 17 9 16 10 15 11 6 12
REMARK SMILES IDX 7 13 8 14 14 15 10 16 12 17 9 18 11 20 13 22 4 24 22 26
REMARK SMILES IDX 19 28
REMARK H PARENT 9 19 11 21 13 23 4 25 22 27 19 29
REMARK Flexibility Score: inf
ROOT
ATOM      1  C   UNL     1      25.731   6.217  21.916  1.00  0.00     0.180 A 
ATOM      2  C   UNL     1      25.141   7.154  21.045  1.00  0.00     0.208 A 
ATOM      3  C   UNL     1      24.400   6.687  19.948  1.00  0.00     0.238 A 
ATOM      4  O   UNL     1      23.876   7.515  19.156  1.00  0.00    -0.285 OA
ATOM      5  C   UNL     1      24.246   5.299  19.751  1.00  0.00     0.111 A 
ATOM      6  C   UNL     1      23.513   4.746  18.674  1.00  0.00     0.134 A 
ATOM      7  C   UNL     1      23.399   3.354  18.551  1.00  0.00     0.093 A 
ATOM      8  C   UNL     1      24.002   2.504  19.486  1.00  0.00     0.123 A 
ATOM      9  C   UNL     1      24.727   3.045  20.549  1.00  0.00     0.094 A 
ATOM     10  C   UNL     1      24.853   4.430  20.688  1.00  0.00     0.146 A 
ATOM     11  O   UNL     1      25.553   4.916  21.707  1.00  0.00    -0.452 OA
ENDROOT
BRANCH   1  12
ATOM     12  C   UNL     1      26.543   6.632  23.084  1.00  0.00     0.029 A 
ATOM     13  C   UNL     1      25.994   6.673  24.377  1.00  0.00     0.062 A 
ATOM     14  C   UNL     1      26.771   7.090  25.466  1.00  0.00     0.162 A 
ATOM     15  C   UNL     1      27.868   7.046  22.890  1.00  0.00     0.062 A 
ATOM     16  C   UNL     1      28.106   7.483  25.267  1.00  0.00     0.200 A 
ATOM     17  C   UNL     1      28.652   7.463  23.972  1.00  0.00     0.162 A 
BRANCH  14  18
ATOM     18  O   UNL     1      26.220   7.122  26.747  1.00  0.00    -0.504 OA
ATOM     19  H   UNL     1      25.417   7.700  26.965  1.00  0.00     0.293 HD
ENDBRANCH  14  18
BRANCH  16  20
ATOM     20  O   UNL     1      28.895   7.896  26.341  1.00  0.00    -0.502 OA
ATOM     21  H   UNL     1      28.680   7.644  27.298  1.00  0.00     0.293 HD
ENDBRANCH  16  20
BRANCH  17  22
ATOM     22  O   UNL     1      29.970   7.854  23.739  1.00  0.00    -0.504 OA
ATOM     23  H   UNL     1      30.495   7.527  22.937  1.00  0.00     0.293 HD
ENDBRANCH  17  22
ENDBRANCH   1  12
BRANCH   2  24
ATOM     24  O   UNL     1      25.266   8.523  21.291  1.00  0.00    -0.502 OA
ATOM     25  H   UNL     1      25.474   8.892  22.212  1.00  0.00     0.293 HD
ENDBRANCH   2  24
BRANCH   6  26
ATOM     26  O   UNL     1      22.899   5.568  17.727  1.00  0.00    -0.507 OA
ATOM     27  H   UNL     1      23.150   6.545  17.624  1.00  0.00     0.293 HD
ENDBRANCH   6  26
BRANCH   8  28
ATOM     28  O   UNL     1      23.889   1.121  19.366  1.00  0.00    -0.508 OA
ATOM     29  H   UNL     1      23.797   0.524  20.179  1.00  0.00     0.293 HD
ENDBRANCH   8  28
TORSDOF 7
ENDMDL
