MODEL 1
REMARK VINA RESULT:    -6.573      0.000      0.000
REMARK INTER + INTRA:         -13.613
REMARK INTER:                 -10.800
REMARK INTRA:                  -2.813
REMARK UNBOUND:                -2.813
REMARK SMILES C[C@@H]1O[C@@H](OC[C@@H]2O[C@H](Oc3c(-c4ccc(O)c(O)c4)oc4cc(O)cc(O)c4c3=O)[C@H](O)[C@H](O)[C@@H]2O)[C@H](O)[C@@H](O)[C@H]1O
REMARK SMILES IDX 7 1 36 2 34 3 32 4 9 5 8 6 6 7 5 8 4 9 1 10 2 11 42 12 3 13
REMARK SMILES IDX 40 14 38 15 43 16 41 18 39 20 37 22 35 24 10 26 11 27 12 28
REMARK SMILES IDX 30 29 21 30 29 31 31 32 22 33 27 34 23 35 26 36 24 37 13 38
REMARK SMILES IDX 20 39 14 40 18 41 15 42 16 43 19 44 17 46 28 48 25 50 33 52
REMARK H PARENT 43 17 41 19 39 21 37 23 35 25 19 45 17 47 28 49 25 51 33 53
REMARK Flexibility Score: inf
ROOT
ATOM      1  C   UNL     1      -7.488  88.318  -7.104  1.00  0.00     0.180 C 
ATOM      2  C   UNL     1      -6.457  88.428  -5.963  1.00  0.00     0.177 C 
ATOM      3  C   UNL     1      -5.069  88.826  -6.576  1.00  0.00     0.180 C 
ATOM      4  C   UNL     1      -5.307  89.948  -7.721  1.00  0.00     0.214 C 
ATOM      5  C   UNL     1      -6.777  90.140  -8.395  1.00  0.00     0.339 C 
ATOM      6  O   UNL     1      -7.804  89.634  -7.600  1.00  0.00    -0.332 OA
ENDROOT
BRANCH   1   7
ATOM      7  C   UNL     1      -7.073  87.287  -8.208  1.00  0.00     0.198 C 
BRANCH   7   8
ATOM      8  O   UNL     1      -6.883  85.895  -7.776  1.00  0.00    -0.347 OA
BRANCH   8   9
ATOM      9  C   UNL     1      -6.379  84.909  -8.766  1.00  0.00     0.281 C 
ATOM     10  C   UNL     1      -5.717  82.504  -6.105  1.00  0.00     0.041 C 
ATOM     11  C   UNL     1      -5.365  83.620  -7.127  1.00  0.00     0.150 C 
ATOM     12  C   UNL     1      -3.953  83.410  -7.730  1.00  0.00     0.174 C 
ATOM     13  O   UNL     1      -6.336  83.657  -8.155  1.00  0.00    -0.344 OA
ATOM     14  C   UNL     1      -3.692  84.515  -8.793  1.00  0.00     0.179 C 
ATOM     15  C   UNL     1      -5.002  85.202  -9.411  1.00  0.00     0.202 C 
BRANCH  12  16
ATOM     16  O   UNL     1      -2.958  83.553  -6.779  1.00  0.00    -0.388 OA
ATOM     17  H   UNL     1      -2.784  84.544  -6.767  1.00  0.00     0.211 HD
ENDBRANCH  12  16
BRANCH  14  18
ATOM     18  O   UNL     1      -2.875  85.555  -8.244  1.00  0.00    -0.387 OA
ATOM     19  H   UNL     1      -3.440  86.092  -7.627  1.00  0.00     0.211 HD
ENDBRANCH  14  18
BRANCH  15  20
ATOM     20  O   UNL     1      -5.060  84.933 -10.789  1.00  0.00    -0.385 OA
ATOM     21  H   UNL     1      -5.186  85.761 -11.304  1.00  0.00     0.211 HD
ENDBRANCH  15  20
ENDBRANCH   8   9
ENDBRANCH   7   8
ENDBRANCH   1   7
BRANCH   2  22
ATOM     22  O   UNL     1      -6.379  87.159  -5.289  1.00  0.00    -0.387 OA
ATOM     23  H   UNL     1      -7.305  87.000  -4.880  1.00  0.00     0.211 HD
ENDBRANCH   2  22
BRANCH   3  24
ATOM     24  O   UNL     1      -4.435  87.579  -6.934  1.00  0.00    -0.387 OA
ATOM     25  H   UNL     1      -4.486  87.012  -6.142  1.00  0.00     0.211 HD
ENDBRANCH   3  24
BRANCH   5  26
ATOM     26  O   UNL     1      -6.933  89.604  -9.760  1.00  0.00    -0.454 OA
BRANCH  26  27
ATOM     27  C   UNL     1      -7.031  90.180 -11.076  1.00  0.00     0.214 A 
ATOM     28  C   UNL     1      -7.951  89.632 -12.170  1.00  0.00     0.180 A 
ATOM     29  C   UNL     1      -5.867  90.863 -11.558  1.00  0.00     0.239 A 
ATOM     30  O   UNL     1      -7.351  89.223 -13.214  1.00  0.00    -0.452 OA
ATOM     31  C   UNL     1      -5.398  90.512 -12.888  1.00  0.00     0.111 A 
ATOM     32  O   UNL     1      -5.224  91.611 -10.906  1.00  0.00    -0.285 OA
ATOM     33  C   UNL     1      -6.261  89.697 -13.684  1.00  0.00     0.146 A 
ATOM     34  C   UNL     1      -4.263  91.038 -13.568  1.00  0.00     0.134 A 
ATOM     35  C   UNL     1      -5.963  89.362 -15.027  1.00  0.00     0.094 A 
ATOM     36  C   UNL     1      -4.079  90.863 -14.965  1.00  0.00     0.093 A 
ATOM     37  C   UNL     1      -4.958  90.017 -15.690  1.00  0.00     0.123 A 
BRANCH  28  38
ATOM     38  C   UNL     1      -9.484  89.472 -12.346  1.00  0.00     0.025 A 
ATOM     39  C   UNL     1     -10.452  88.962 -11.432  1.00  0.00     0.062 A 
ATOM     40  C   UNL     1      -9.977  90.031 -13.548  1.00  0.00     0.016 A 
ATOM     41  C   UNL     1     -11.803  88.849 -11.839  1.00  0.00     0.158 A 
ATOM     42  C   UNL     1     -11.342  89.936 -13.932  1.00  0.00     0.051 A 
ATOM     43  C   UNL     1     -12.237  89.366 -13.046  1.00  0.00     0.157 A 
BRANCH  41  44
ATOM     44  O   UNL     1     -12.738  88.101 -11.048  1.00  0.00    -0.504 OA
ATOM     45  H   UNL     1     -12.843  87.086 -11.034  1.00  0.00     0.293 HD
ENDBRANCH  41  44
BRANCH  43  46
ATOM     46  O   UNL     1     -13.597  89.362 -13.426  1.00  0.00    -0.504 OA
ATOM     47  H   UNL     1     -13.762  89.223 -14.390  1.00  0.00     0.293 HD
ENDBRANCH  43  46
ENDBRANCH  28  38
BRANCH  34  48
ATOM     48  O   UNL     1      -3.350  91.894 -12.893  1.00  0.00    -0.507 OA
ATOM     49  H   UNL     1      -2.457  91.445 -12.531  1.00  0.00     0.293 HD
ENDBRANCH  34  48
BRANCH  37  50
ATOM     50  O   UNL     1      -4.796  89.791 -17.042  1.00  0.00    -0.508 OA
ATOM     51  H   UNL     1      -5.197  88.972 -17.476  1.00  0.00     0.293 HD
ENDBRANCH  37  50
ENDBRANCH  26  27
ENDBRANCH   5  26
BRANCH   4  52
ATOM     52  O   UNL     1      -4.313  89.856  -8.680  1.00  0.00    -0.384 OA
ATOM     53  H   UNL     1      -4.622  89.205  -9.385  1.00  0.00     0.211 HD
ENDBRANCH   4  52
TORSDOF 16
ENDMDL
MODEL 2
REMARK VINA RESULT:    -6.520      1.175      1.710
REMARK INTER + INTRA:         -13.526
REMARK INTER:                 -11.022
REMARK INTRA:                  -2.504
REMARK UNBOUND:                -2.813
REMARK SMILES C[C@@H]1O[C@@H](OC[C@@H]2O[C@H](Oc3c(-c4ccc(O)c(O)c4)oc4cc(O)cc(O)c4c3=O)[C@H](O)[C@H](O)[C@@H]2O)[C@H](O)[C@@H](O)[C@H]1O
REMARK SMILES IDX 7 1 36 2 34 3 32 4 9 5 8 6 6 7 5 8 4 9 1 10 2 11 42 12 3 13
REMARK SMILES IDX 40 14 38 15 43 16 41 18 39 20 37 22 35 24 10 26 11 27 12 28
REMARK SMILES IDX 30 29 21 30 29 31 31 32 22 33 27 34 23 35 26 36 24 37 13 38
REMARK SMILES IDX 20 39 14 40 18 41 15 42 16 43 19 44 17 46 28 48 25 50 33 52
REMARK H PARENT 43 17 41 19 39 21 37 23 35 25 19 45 17 47 28 49 25 51 33 53
REMARK Flexibility Score: inf
ROOT
ATOM      1  C   UNL     1      -6.278  87.903  -7.498  1.00  0.00     0.180 C 
ATOM      2  C   UNL     1      -5.426  88.285  -6.272  1.00  0.00     0.177 C 
ATOM      3  C   UNL     1      -4.295  89.271  -6.730  1.00  0.00     0.180 C 
ATOM      4  C   UNL     1      -4.922  90.327  -7.787  1.00  0.00     0.214 C 
ATOM      5  C   UNL     1      -6.316  89.992  -8.561  1.00  0.00     0.339 C 
ATOM      6  O   UNL     1      -7.080  89.031  -7.901  1.00  0.00    -0.332 OA
ENDROOT
BRANCH   1   7
ATOM      7  C   UNL     1      -5.437  87.256  -8.652  1.00  0.00     0.198 C 
BRANCH   7   8
ATOM      8  O   UNL     1      -4.777  85.978  -8.352  1.00  0.00    -0.347 OA
BRANCH   8   9
ATOM      9  C   UNL     1      -5.627  84.785  -8.098  1.00  0.00     0.281 C 
ATOM     10  C   UNL     1      -2.880  83.141  -6.349  1.00  0.00     0.041 C 
ATOM     11  C   UNL     1      -3.799  83.464  -7.560  1.00  0.00     0.150 C 
ATOM     12  C   UNL     1      -4.069  82.202  -8.419  1.00  0.00     0.174 C 
ATOM     13  O   UNL     1      -5.020  84.018  -7.107  1.00  0.00    -0.344 OA
ATOM     14  C   UNL     1      -5.048  82.576  -9.567  1.00  0.00     0.179 C 
ATOM     15  C   UNL     1      -5.946  83.879  -9.313  1.00  0.00     0.202 C 
BRANCH  12  16
ATOM     16  O   UNL     1      -2.918  81.739  -9.033  1.00  0.00    -0.388 OA
ATOM     17  H   UNL     1      -2.930  80.751  -8.839  1.00  0.00     0.211 HD
ENDBRANCH  12  16
BRANCH  14  18
ATOM     18  O   UNL     1      -4.331  82.776 -10.790  1.00  0.00    -0.387 OA
ATOM     19  H   UNL     1      -4.677  82.124 -11.456  1.00  0.00     0.211 HD
ENDBRANCH  14  18
BRANCH  15  20
ATOM     20  O   UNL     1      -7.301  83.509  -9.281  1.00  0.00    -0.385 OA
ATOM     21  H   UNL     1      -7.578  83.264  -8.371  1.00  0.00     0.211 HD
ENDBRANCH  15  20
ENDBRANCH   8   9
ENDBRANCH   7   8
ENDBRANCH   1   7
BRANCH   2  22
ATOM     22  O   UNL     1      -4.867  87.084  -5.708  1.00  0.00    -0.387 OA
ATOM     23  H   UNL     1      -4.478  87.355  -4.798  1.00  0.00     0.211 HD
ENDBRANCH   2  22
BRANCH   3  24
ATOM     24  O   UNL     1      -3.197  88.430  -7.143  1.00  0.00    -0.387 OA
ATOM     25  H   UNL     1      -2.991  87.859  -6.380  1.00  0.00     0.211 HD
ENDBRANCH   3  24
BRANCH   5  26
ATOM     26  O   UNL     1      -6.186  89.598  -9.976  1.00  0.00    -0.454 OA
BRANCH  26  27
ATOM     27  C   UNL     1      -6.483  90.222 -11.240  1.00  0.00     0.214 A 
ATOM     28  C   UNL     1      -7.485  89.652 -12.247  1.00  0.00     0.180 A 
ATOM     29  C   UNL     1      -5.438  91.015 -11.816  1.00  0.00     0.239 A 
ATOM     30  O   UNL     1      -6.986  89.338 -13.373  1.00  0.00    -0.452 OA
ATOM     31  C   UNL     1      -5.108  90.761 -13.208  1.00  0.00     0.111 A 
ATOM     32  O   UNL     1      -4.778  91.781 -11.204  1.00  0.00    -0.285 OA
ATOM     33  C   UNL     1      -5.997  89.917 -13.941  1.00  0.00     0.146 A 
ATOM     34  C   UNL     1      -4.103  91.404 -13.986  1.00  0.00     0.134 A 
ATOM     35  C   UNL     1      -5.839  89.666 -15.325  1.00  0.00     0.094 A 
ATOM     36  C   UNL     1      -4.076  91.307 -15.402  1.00  0.00     0.093 A 
ATOM     37  C   UNL     1      -4.971  90.427 -16.065  1.00  0.00     0.123 A 
BRANCH  28  38
ATOM     38  C   UNL     1      -9.013  89.380 -12.252  1.00  0.00     0.025 A 
ATOM     39  C   UNL     1      -9.899  89.218 -13.356  1.00  0.00     0.062 A 
ATOM     40  C   UNL     1      -9.549  89.145 -10.964  1.00  0.00     0.016 A 
ATOM     41  C   UNL     1     -11.283  89.038 -13.117  1.00  0.00     0.158 A 
ATOM     42  C   UNL     1     -10.938  88.938 -10.742  1.00  0.00     0.051 A 
ATOM     43  C   UNL     1     -11.776  88.861 -11.837  1.00  0.00     0.157 A 
BRANCH  41  44
ATOM     44  O   UNL     1     -12.224  89.139 -14.197  1.00  0.00    -0.504 OA
ATOM     45  H   UNL     1     -12.478  89.990 -14.701  1.00  0.00     0.293 HD
ENDBRANCH  41  44
BRANCH  43  46
ATOM     46  O   UNL     1     -13.135  88.574 -11.583  1.00  0.00    -0.504 OA
ATOM     47  H   UNL     1     -13.654  88.277 -12.370  1.00  0.00     0.293 HD
ENDBRANCH  43  46
ENDBRANCH  28  38
BRANCH  34  48
ATOM     48  O   UNL     1      -3.181  92.299 -13.377  1.00  0.00    -0.507 OA
ATOM     49  H   UNL     1      -2.156  92.167 -13.627  1.00  0.00     0.293 HD
ENDBRANCH  34  48
BRANCH  37  50
ATOM     50  O   UNL     1      -4.956  90.274 -17.437  1.00  0.00    -0.508 OA
ATOM     51  H   UNL     1      -4.380  89.565 -17.867  1.00  0.00     0.293 HD
ENDBRANCH  37  50
ENDBRANCH  26  27
ENDBRANCH   5  26
BRANCH   4  52
ATOM     52  O   UNL     1      -3.939  90.750  -8.666  1.00  0.00    -0.384 OA
ATOM     53  H   UNL     1      -3.067  90.783  -8.161  1.00  0.00     0.211 HD
ENDBRANCH   4  52
TORSDOF 16
ENDMDL
MODEL 3
REMARK VINA RESULT:    -6.496      2.734      4.734
REMARK INTER + INTRA:         -13.486
REMARK INTER:                 -10.596
REMARK INTRA:                  -2.890
REMARK UNBOUND:                -2.813
REMARK SMILES C[C@@H]1O[C@@H](OC[C@@H]2O[C@H](Oc3c(-c4ccc(O)c(O)c4)oc4cc(O)cc(O)c4c3=O)[C@H](O)[C@H](O)[C@@H]2O)[C@H](O)[C@@H](O)[C@H]1O
REMARK SMILES IDX 7 1 36 2 34 3 32 4 9 5 8 6 6 7 5 8 4 9 1 10 2 11 42 12 3 13
REMARK SMILES IDX 40 14 38 15 43 16 41 18 39 20 37 22 35 24 10 26 11 27 12 28
REMARK SMILES IDX 30 29 21 30 29 31 31 32 22 33 27 34 23 35 26 36 24 37 13 38
REMARK SMILES IDX 20 39 14 40 18 41 15 42 16 43 19 44 17 46 28 48 25 50 33 52
REMARK H PARENT 43 17 41 19 39 21 37 23 35 25 19 45 17 47 28 49 25 51 33 53
REMARK Flexibility Score: inf
ROOT
ATOM      1  C   UNL     1      -8.407  86.570  -7.619  1.00  0.00     0.180 C 
ATOM      2  C   UNL     1      -7.734  85.200  -7.834  1.00  0.00     0.177 C 
ATOM      3  C   UNL     1      -7.137  85.153  -9.283  1.00  0.00     0.180 C 
ATOM      4  C   UNL     1      -6.450  86.583  -9.610  1.00  0.00     0.214 C 
ATOM      5  C   UNL     1      -6.846  87.907  -8.746  1.00  0.00     0.339 C 
ATOM      6  O   UNL     1      -7.398  87.593  -7.506  1.00  0.00    -0.332 OA
ENDROOT
BRANCH   1   7
ATOM      7  C   UNL     1      -9.528  86.874  -8.672  1.00  0.00     0.198 C 
BRANCH   7   8
ATOM      8  O   UNL     1     -10.450  85.775  -8.991  1.00  0.00    -0.347 OA
BRANCH   8   9
ATOM      9  C   UNL     1     -11.579  85.506  -8.062  1.00  0.00     0.281 C 
ATOM     10  C   UNL     1     -11.771  82.053  -9.221  1.00  0.00     0.041 C 
ATOM     11  C   UNL     1     -12.165  83.555  -9.169  1.00  0.00     0.150 C 
ATOM     12  C   UNL     1     -13.694  83.746  -9.340  1.00  0.00     0.174 C 
ATOM     13  O   UNL     1     -11.733  84.126  -7.949  1.00  0.00    -0.344 OA
ATOM     14  C   UNL     1     -14.029  85.259  -9.206  1.00  0.00     0.179 C 
ATOM     15  C   UNL     1     -12.946  86.139  -8.418  1.00  0.00     0.202 C 
BRANCH  12  16
ATOM     16  O   UNL     1     -14.125  83.368 -10.599  1.00  0.00    -0.388 OA
ATOM     17  H   UNL     1     -14.978  82.867 -10.415  1.00  0.00     0.211 HD
ENDBRANCH  12  16
BRANCH  14  18
ATOM     18  O   UNL     1     -14.207  85.847 -10.500  1.00  0.00    -0.387 OA
ATOM     19  H   UNL     1     -13.511  85.472 -11.103  1.00  0.00     0.211 HD
ENDBRANCH  14  18
BRANCH  15  20
ATOM     20  O   UNL     1     -13.537  86.668  -7.258  1.00  0.00    -0.385 OA
ATOM     21  H   UNL     1     -13.057  86.373  -6.453  1.00  0.00     0.211 HD
ENDBRANCH  15  20
ENDBRANCH   8   9
ENDBRANCH   7   8
ENDBRANCH   1   7
BRANCH   2  22
ATOM     22  O   UNL     1      -8.720  84.169  -7.648  1.00  0.00    -0.387 OA
ATOM     23  H   UNL     1      -8.196  83.312  -7.438  1.00  0.00     0.211 HD
ENDBRANCH   2  22
BRANCH   3  24
ATOM     24  O   UNL     1      -8.209  84.679 -10.125  1.00  0.00    -0.387 OA
ATOM     25  H   UNL     1      -8.977  84.548  -9.538  1.00  0.00     0.211 HD
ENDBRANCH   3  24
BRANCH   5  26
ATOM     26  O   UNL     1      -7.730  88.874  -9.423  1.00  0.00    -0.454 OA
BRANCH  26  27
ATOM     27  C   UNL     1      -7.686  89.598 -10.668  1.00  0.00     0.214 A 
ATOM     28  C   UNL     1      -8.585  89.275 -11.864  1.00  0.00     0.180 A 
ATOM     29  C   UNL     1      -6.430  90.200 -11.006  1.00  0.00     0.239 A 
ATOM     30  O   UNL     1      -7.964  88.920 -12.915  1.00  0.00    -0.452 OA
ATOM     31  C   UNL     1      -5.915  89.948 -12.341  1.00  0.00     0.111 A 
ATOM     32  O   UNL     1      -5.758  90.798 -10.239  1.00  0.00    -0.285 OA
ATOM     33  C   UNL     1      -6.803  89.322 -13.269  1.00  0.00     0.146 A 
ATOM     34  C   UNL     1      -4.691  90.420 -12.896  1.00  0.00     0.134 A 
ATOM     35  C   UNL     1      -6.455  89.106 -14.625  1.00  0.00     0.094 A 
ATOM     36  C   UNL     1      -4.438  90.380 -14.292  1.00  0.00     0.093 A 
ATOM     37  C   UNL     1      -5.349  89.718 -15.155  1.00  0.00     0.123 A 
BRANCH  28  38
ATOM     38  C   UNL     1     -10.112  89.300 -12.136  1.00  0.00     0.025 A 
ATOM     39  C   UNL     1     -11.193  89.012 -11.254  1.00  0.00     0.062 A 
ATOM     40  C   UNL     1     -10.449  89.799 -13.416  1.00  0.00     0.016 A 
ATOM     41  C   UNL     1     -12.520  89.039 -11.747  1.00  0.00     0.158 A 
ATOM     42  C   UNL     1     -11.789  89.847 -13.888  1.00  0.00     0.051 A 
ATOM     43  C   UNL     1     -12.805  89.488 -13.024  1.00  0.00     0.157 A 
BRANCH  41  44
ATOM     44  O   UNL     1     -13.595  88.500 -10.964  1.00  0.00    -0.504 OA
ATOM     45  H   UNL     1     -14.212  89.024 -10.342  1.00  0.00     0.293 HD
ENDBRANCH  41  44
BRANCH  43  46
ATOM     46  O   UNL     1     -14.127  89.625 -13.500  1.00  0.00    -0.504 OA
ATOM     47  H   UNL     1     -14.405  90.552 -13.702  1.00  0.00     0.293 HD
ENDBRANCH  43  46
ENDBRANCH  28  38
BRANCH  34  48
ATOM     48  O   UNL     1      -3.742  91.095 -12.080  1.00  0.00    -0.507 OA
ATOM     49  H   UNL     1      -3.961  92.106 -11.835  1.00  0.00     0.293 HD
ENDBRANCH  34  48
BRANCH  37  50
ATOM     50  O   UNL     1      -5.125  89.625 -16.514  1.00  0.00    -0.508 OA
ATOM     51  H   UNL     1      -4.418  90.194 -16.957  1.00  0.00     0.293 HD
ENDBRANCH  37  50
ENDBRANCH  26  27
ENDBRANCH   5  26
BRANCH   4  52
ATOM     52  O   UNL     1      -6.502  86.828 -10.972  1.00  0.00    -0.384 OA
ATOM     53  H   UNL     1      -7.338  87.361 -11.159  1.00  0.00     0.211 HD
ENDBRANCH   4  52
TORSDOF 16
ENDMDL
MODEL 4
REMARK VINA RESULT:    -6.484      1.127      1.818
REMARK INTER + INTRA:         -13.467
REMARK INTER:                 -10.867
REMARK INTRA:                  -2.600
REMARK UNBOUND:                -2.813
REMARK SMILES C[C@@H]1O[C@@H](OC[C@@H]2O[C@H](Oc3c(-c4ccc(O)c(O)c4)oc4cc(O)cc(O)c4c3=O)[C@H](O)[C@H](O)[C@@H]2O)[C@H](O)[C@@H](O)[C@H]1O
REMARK SMILES IDX 7 1 36 2 34 3 32 4 9 5 8 6 6 7 5 8 4 9 1 10 2 11 42 12 3 13
REMARK SMILES IDX 40 14 38 15 43 16 41 18 39 20 37 22 35 24 10 26 11 27 12 28
REMARK SMILES IDX 30 29 21 30 29 31 31 32 22 33 27 34 23 35 26 36 24 37 13 38
REMARK SMILES IDX 20 39 14 40 18 41 15 42 16 43 19 44 17 46 28 48 25 50 33 52
REMARK H PARENT 43 17 41 19 39 21 37 23 35 25 19 45 17 47 28 49 25 51 33 53
REMARK Flexibility Score: inf
ROOT
ATOM      1  C   UNL     1      -5.897  87.574  -7.438  1.00  0.00     0.180 C 
ATOM      2  C   UNL     1      -5.071  88.017  -6.214  1.00  0.00     0.177 C 
ATOM      3  C   UNL     1      -4.091  89.160  -6.654  1.00  0.00     0.180 C 
ATOM      4  C   UNL     1      -4.878  90.164  -7.653  1.00  0.00     0.214 C 
ATOM      5  C   UNL     1      -6.236  89.679  -8.411  1.00  0.00     0.339 C 
ATOM      6  O   UNL     1      -6.850  88.601  -7.776  1.00  0.00    -0.332 OA
ENDROOT
BRANCH   1   7
ATOM      7  C   UNL     1      -5.009  87.089  -8.634  1.00  0.00     0.198 C 
BRANCH   7   8
ATOM      8  O   UNL     1      -5.627  86.145  -9.576  1.00  0.00    -0.347 OA
BRANCH   8   9
ATOM      9  C   UNL     1      -5.026  84.794  -9.723  1.00  0.00     0.281 C 
ATOM     10  C   UNL     1      -8.206  83.232  -8.857  1.00  0.00     0.041 C 
ATOM     11  C   UNL     1      -6.775  83.775  -8.592  1.00  0.00     0.150 C 
ATOM     12  C   UNL     1      -6.009  82.884  -7.581  1.00  0.00     0.174 C 
ATOM     13  O   UNL     1      -6.058  83.862  -9.809  1.00  0.00    -0.344 OA
ATOM     14  C   UNL     1      -4.565  83.439  -7.415  1.00  0.00     0.179 C 
ATOM     15  C   UNL     1      -4.031  84.346  -8.624  1.00  0.00     0.202 C 
BRANCH  12  16
ATOM     16  O   UNL     1      -6.580  82.923  -6.321  1.00  0.00    -0.388 OA
ATOM     17  H   UNL     1      -7.469  83.369  -6.479  1.00  0.00     0.211 HD
ENDBRANCH  12  16
BRANCH  14  18
ATOM     18  O   UNL     1      -4.462  84.212  -6.214  1.00  0.00    -0.387 OA
ATOM     19  H   UNL     1      -5.175  83.906  -5.594  1.00  0.00     0.211 HD
ENDBRANCH  14  18
BRANCH  15  20
ATOM     20  O   UNL     1      -2.923  83.719  -9.219  1.00  0.00    -0.385 OA
ATOM     21  H   UNL     1      -2.670  82.909  -8.723  1.00  0.00     0.211 HD
ENDBRANCH  15  20
ENDBRANCH   8   9
ENDBRANCH   7   8
ENDBRANCH   1   7
BRANCH   2  22
ATOM     22  O   UNL     1      -4.345  86.880  -5.713  1.00  0.00    -0.387 OA
ATOM     23  H   UNL     1      -4.286  87.008  -4.697  1.00  0.00     0.211 HD
ENDBRANCH   2  22
BRANCH   3  24
ATOM     24  O   UNL     1      -2.904  88.488  -7.125  1.00  0.00    -0.387 OA
ATOM     25  H   UNL     1      -3.205  87.831  -7.780  1.00  0.00     0.211 HD
ENDBRANCH   3  24
BRANCH   5  26
ATOM     26  O   UNL     1      -6.093  89.360  -9.843  1.00  0.00    -0.454 OA
BRANCH  26  27
ATOM     27  C   UNL     1      -6.432  90.026 -11.075  1.00  0.00     0.214 A 
ATOM     28  C   UNL     1      -7.485  89.502 -12.055  1.00  0.00     0.180 A 
ATOM     29  C   UNL     1      -5.399  90.819 -11.672  1.00  0.00     0.239 A 
ATOM     30  O   UNL     1      -7.039  89.213 -13.210  1.00  0.00    -0.452 OA
ATOM     31  C   UNL     1      -5.132  90.601 -13.084  1.00  0.00     0.111 A 
ATOM     32  O   UNL     1      -4.701  91.556 -11.067  1.00  0.00    -0.285 OA
ATOM     33  C   UNL     1      -6.066  89.792 -13.802  1.00  0.00     0.146 A 
ATOM     34  C   UNL     1      -4.150  91.251 -13.885  1.00  0.00     0.134 A 
ATOM     35  C   UNL     1      -5.969  89.580 -15.199  1.00  0.00     0.094 A 
ATOM     36  C   UNL     1      -4.184  91.194 -15.304  1.00  0.00     0.093 A 
ATOM     37  C   UNL     1      -5.121  90.349 -15.952  1.00  0.00     0.123 A 
BRANCH  28  38
ATOM     38  C   UNL     1      -9.016  89.253 -12.003  1.00  0.00     0.025 A 
ATOM     39  C   UNL     1      -9.967  89.242 -13.064  1.00  0.00     0.062 A 
ATOM     40  C   UNL     1      -9.482  88.868 -10.724  1.00  0.00     0.016 A 
ATOM     41  C   UNL     1     -11.339  89.054 -12.767  1.00  0.00     0.158 A 
ATOM     42  C   UNL     1     -10.860  88.654 -10.447  1.00  0.00     0.051 A 
ATOM     43  C   UNL     1     -11.761  88.726 -11.492  1.00  0.00     0.157 A 
BRANCH  41  44
ATOM     44  O   UNL     1     -12.337  89.301 -13.768  1.00  0.00    -0.504 OA
ATOM     45  H   UNL     1     -12.181  89.373 -14.774  1.00  0.00     0.293 HD
ENDBRANCH  41  44
BRANCH  43  46
ATOM     46  O   UNL     1     -13.109  88.428 -11.195  1.00  0.00    -0.504 OA
ATOM     47  H   UNL     1     -13.693  88.301 -11.982  1.00  0.00     0.293 HD
ENDBRANCH  43  46
ENDBRANCH  28  38
BRANCH  34  48
ATOM     48  O   UNL     1      -3.188  92.113 -13.291  1.00  0.00    -0.507 OA
ATOM     49  H   UNL     1      -3.553  93.034 -12.902  1.00  0.00     0.293 HD
ENDBRANCH  34  48
BRANCH  37  50
ATOM     50  O   UNL     1      -5.166  90.236 -17.327  1.00  0.00    -0.508 OA
ATOM     51  H   UNL     1      -4.783  90.963 -17.914  1.00  0.00     0.293 HD
ENDBRANCH  37  50
ENDBRANCH  26  27
ENDBRANCH   5  26
BRANCH   4  52
ATOM     52  O   UNL     1      -3.982  90.747  -8.534  1.00  0.00    -0.384 OA
ATOM     53  H   UNL     1      -3.068  90.719  -8.108  1.00  0.00     0.211 HD
ENDBRANCH   4  52
TORSDOF 16
ENDMDL
MODEL 5
REMARK VINA RESULT:    -6.149      4.036      5.904
REMARK INTER + INTRA:         -12.916
REMARK INTER:                 -10.358
REMARK INTRA:                  -2.558
REMARK UNBOUND:                -2.813
REMARK SMILES C[C@@H]1O[C@@H](OC[C@@H]2O[C@H](Oc3c(-c4ccc(O)c(O)c4)oc4cc(O)cc(O)c4c3=O)[C@H](O)[C@H](O)[C@@H]2O)[C@H](O)[C@@H](O)[C@H]1O
REMARK SMILES IDX 7 1 36 2 34 3 32 4 9 5 8 6 6 7 5 8 4 9 1 10 2 11 42 12 3 13
REMARK SMILES IDX 40 14 38 15 43 16 41 18 39 20 37 22 35 24 10 26 11 27 12 28
REMARK SMILES IDX 30 29 21 30 29 31 31 32 22 33 27 34 23 35 26 36 24 37 13 38
REMARK SMILES IDX 20 39 14 40 18 41 15 42 16 43 19 44 17 46 28 48 25 50 33 52
REMARK H PARENT 43 17 41 19 39 21 37 23 35 25 19 45 17 47 28 49 25 51 33 53
REMARK Flexibility Score: inf
ROOT
ATOM      1  C   UNL     1     -10.360  84.249  -7.717  1.00  0.00     0.180 C 
ATOM      2  C   UNL     1      -9.390  83.058  -7.851  1.00  0.00     0.177 C 
ATOM      3  C   UNL     1      -8.474  83.292  -9.102  1.00  0.00     0.180 C 
ATOM      4  C   UNL     1      -8.036  84.852  -9.142  1.00  0.00     0.214 C 
ATOM      5  C   UNL     1      -8.886  85.969  -8.314  1.00  0.00     0.339 C 
ATOM      6  O   UNL     1      -9.636  85.416  -7.279  1.00  0.00    -0.332 OA
ENDROOT
BRANCH   1   7
ATOM      7  C   UNL     1     -11.241  84.468  -8.994  1.00  0.00     0.198 C 
BRANCH   7   8
ATOM      8  O   UNL     1     -12.650  84.821  -8.773  1.00  0.00    -0.347 OA
BRANCH   8   9
ATOM      9  C   UNL     1     -13.698  84.005  -9.441  1.00  0.00     0.281 C 
ATOM     10  C   UNL     1     -14.114  81.987  -6.431  1.00  0.00     0.041 C 
ATOM     11  C   UNL     1     -13.565  82.330  -7.843  1.00  0.00     0.150 C 
ATOM     12  C   UNL     1     -13.459  81.065  -8.732  1.00  0.00     0.174 C 
ATOM     13  O   UNL     1     -14.392  83.296  -8.462  1.00  0.00    -0.344 OA
ATOM     14  C   UNL     1     -12.974  81.486 -10.148  1.00  0.00     0.179 C 
ATOM     15  C   UNL     1     -13.226  83.020 -10.538  1.00  0.00     0.202 C 
BRANCH  12  16
ATOM     16  O   UNL     1     -12.516  80.173  -8.253  1.00  0.00    -0.388 OA
ATOM     17  H   UNL     1     -12.025  79.883  -9.082  1.00  0.00     0.211 HD
ENDBRANCH  12  16
BRANCH  14  18
ATOM     18  O   UNL     1     -11.573  81.226 -10.294  1.00  0.00    -0.387 OA
ATOM     19  H   UNL     1     -11.116  81.555  -9.474  1.00  0.00     0.211 HD
ENDBRANCH  14  18
BRANCH  15  20
ATOM     20  O   UNL     1     -14.103  83.081 -11.635  1.00  0.00    -0.385 OA
ATOM     21  H   UNL     1     -14.631  82.256 -11.709  1.00  0.00     0.211 HD
ENDBRANCH  15  20
ENDBRANCH   8   9
ENDBRANCH   7   8
ENDBRANCH   1   7
BRANCH   2  22
ATOM     22  O   UNL     1     -10.161  81.851  -7.994  1.00  0.00    -0.387 OA
ATOM     23  H   UNL     1      -9.490  81.078  -7.924  1.00  0.00     0.211 HD
ENDBRANCH   2  22
BRANCH   3  24
ATOM     24  O   UNL     1      -9.199  82.737 -10.219  1.00  0.00    -0.387 OA
ATOM     25  H   UNL     1     -10.145  82.824  -9.999  1.00  0.00     0.211 HD
ENDBRANCH   3  24
BRANCH   5  26
ATOM     26  O   UNL     1      -9.765  86.835  -9.122  1.00  0.00    -0.454 OA
BRANCH  26  27
ATOM     27  C   UNL     1      -9.636  88.134  -9.730  1.00  0.00     0.214 A 
ATOM     28  C   UNL     1     -10.540  88.628 -10.863  1.00  0.00     0.180 A 
ATOM     29  C   UNL     1      -8.327  88.717  -9.709  1.00  0.00     0.239 A 
ATOM     30  O   UNL     1      -9.935  88.889 -11.950  1.00  0.00    -0.452 OA
ATOM     31  C   UNL     1      -7.814  89.233 -10.967  1.00  0.00     0.111 A 
ATOM     32  O   UNL     1      -7.618  88.712  -8.763  1.00  0.00    -0.285 OA
ATOM     33  C   UNL     1      -8.738  89.326 -12.053  1.00  0.00     0.146 A 
ATOM     34  C   UNL     1      -6.544  89.836 -11.197  1.00  0.00     0.134 A 
ATOM     35  C   UNL     1      -8.387  89.897 -13.301  1.00  0.00     0.094 A 
ATOM     36  C   UNL     1      -6.272  90.582 -12.374  1.00  0.00     0.093 A 
ATOM     37  C   UNL     1      -7.223  90.610 -13.426  1.00  0.00     0.123 A 
BRANCH  28  38
ATOM     38  C   UNL     1     -12.054  88.929 -11.017  1.00  0.00     0.025 A 
ATOM     39  C   UNL     1     -12.726  89.714 -11.999  1.00  0.00     0.062 A 
ATOM     40  C   UNL     1     -12.867  88.212 -10.109  1.00  0.00     0.016 A 
ATOM     41  C   UNL     1     -14.125  89.903 -11.901  1.00  0.00     0.158 A 
ATOM     42  C   UNL     1     -14.276  88.391 -10.041  1.00  0.00     0.051 A 
ATOM     43  C   UNL     1     -14.881  89.219 -10.966  1.00  0.00     0.157 A 
BRANCH  41  44
ATOM     44  O   UNL     1     -14.781  90.892 -12.709  1.00  0.00    -0.504 OA
ATOM     45  H   UNL     1     -14.631  91.901 -12.671  1.00  0.00     0.293 HD
ENDBRANCH  41  44
BRANCH  43  46
ATOM     46  O   UNL     1     -16.289  89.309 -10.920  1.00  0.00    -0.504 OA
ATOM     47  H   UNL     1     -16.642  90.095 -10.435  1.00  0.00     0.293 HD
ENDBRANCH  43  46
ENDBRANCH  28  38
BRANCH  34  48
ATOM     48  O   UNL     1      -5.553  89.843 -10.177  1.00  0.00    -0.507 OA
ATOM     49  H   UNL     1      -4.747  89.160 -10.295  1.00  0.00     0.293 HD
ENDBRANCH  34  48
BRANCH  37  50
ATOM     50  O   UNL     1      -6.985  91.293 -14.602  1.00  0.00    -0.508 OA
ATOM     51  H   UNL     1      -7.704  91.871 -15.013  1.00  0.00     0.293 HD
ENDBRANCH  37  50
ENDBRANCH  26  27
ENDBRANCH   5  26
BRANCH   4  52
ATOM     52  O   UNL     1      -7.818  85.244 -10.452  1.00  0.00    -0.384 OA
ATOM     53  H   UNL     1      -7.568  86.221 -10.445  1.00  0.00     0.211 HD
ENDBRANCH   4  52
TORSDOF 16
ENDMDL
MODEL 6
REMARK VINA RESULT:    -6.108      4.052      7.448
REMARK INTER + INTRA:         -12.848
REMARK INTER:                  -9.675
REMARK INTRA:                  -3.173
REMARK UNBOUND:                -2.813
REMARK SMILES C[C@@H]1O[C@@H](OC[C@@H]2O[C@H](Oc3c(-c4ccc(O)c(O)c4)oc4cc(O)cc(O)c4c3=O)[C@H](O)[C@H](O)[C@@H]2O)[C@H](O)[C@@H](O)[C@H]1O
REMARK SMILES IDX 7 1 36 2 34 3 32 4 9 5 8 6 6 7 5 8 4 9 1 10 2 11 42 12 3 13
REMARK SMILES IDX 40 14 38 15 43 16 41 18 39 20 37 22 35 24 10 26 11 27 12 28
REMARK SMILES IDX 30 29 21 30 29 31 31 32 22 33 27 34 23 35 26 36 24 37 13 38
REMARK SMILES IDX 20 39 14 40 18 41 15 42 16 43 19 44 17 46 28 48 25 50 33 52
REMARK H PARENT 43 17 41 19 39 21 37 23 35 25 19 45 17 47 28 49 25 51 33 53
REMARK Flexibility Score: inf
ROOT
ATOM      1  C   UNL     1     -13.086  86.074 -10.136  1.00  0.00     0.180 C 
ATOM      2  C   UNL     1     -14.204  86.498  -9.163  1.00  0.00     0.177 C 
ATOM      3  C   UNL     1     -13.605  86.587  -7.716  1.00  0.00     0.180 C 
ATOM      4  C   UNL     1     -12.140  87.275  -7.800  1.00  0.00     0.214 C 
ATOM      5  C   UNL     1     -11.327  87.317  -9.212  1.00  0.00     0.339 C 
ATOM      6  O   UNL     1     -12.162  87.166 -10.317  1.00  0.00    -0.332 OA
ENDROOT
BRANCH   1   7
ATOM      7  C   UNL     1     -12.418  84.711  -9.747  1.00  0.00     0.198 C 
BRANCH   7   8
ATOM      8  O   UNL     1     -13.251  83.508  -9.868  1.00  0.00    -0.347 OA
BRANCH   8   9
ATOM      9  C   UNL     1     -12.581  82.203 -10.107  1.00  0.00     0.281 C 
ATOM     10  C   UNL     1     -14.588  80.639  -7.493  1.00  0.00     0.041 C 
ATOM     11  C   UNL     1     -13.332  81.327  -8.095  1.00  0.00     0.150 C 
ATOM     12  C   UNL     1     -12.025  80.730  -7.514  1.00  0.00     0.174 C 
ATOM     13  O   UNL     1     -13.342  81.203  -9.505  1.00  0.00    -0.344 OA
ATOM     14  C   UNL     1     -10.810  81.409  -8.208  1.00  0.00     0.179 C 
ATOM     15  C   UNL     1     -11.112  82.072  -9.636  1.00  0.00     0.202 C 
BRANCH  12  16
ATOM     16  O   UNL     1     -11.891  80.996  -6.162  1.00  0.00    -0.388 OA
ATOM     17  H   UNL     1     -12.842  81.072  -5.843  1.00  0.00     0.211 HD
ENDBRANCH  12  16
BRANCH  14  18
ATOM     18  O   UNL     1     -10.257  82.426  -7.365  1.00  0.00    -0.387 OA
ATOM     19  H   UNL     1     -10.434  82.168  -6.422  1.00  0.00     0.211 HD
ENDBRANCH  14  18
BRANCH  15  20
ATOM     20  O   UNL     1     -10.358  81.413 -10.621  1.00  0.00    -0.385 OA
ATOM     21  H   UNL     1      -9.705  80.801 -10.214  1.00  0.00     0.211 HD
ENDBRANCH  15  20
ENDBRANCH   8   9
ENDBRANCH   7   8
ENDBRANCH   1   7
BRANCH   2  22
ATOM     22  O   UNL     1     -15.261  85.524  -9.224  1.00  0.00    -0.387 OA
ATOM     23  H   UNL     1     -16.124  86.054  -9.385  1.00  0.00     0.211 HD
ENDBRANCH   2  22
BRANCH   3  24
ATOM     24  O   UNL     1     -13.727  85.258  -7.167  1.00  0.00    -0.387 OA
ATOM     25  H   UNL     1     -13.375  85.306  -6.258  1.00  0.00     0.211 HD
ENDBRANCH   3  24
BRANCH   5  26
ATOM     26  O   UNL     1     -10.207  86.367  -9.335  1.00  0.00    -0.454 OA
BRANCH  26  27
ATOM     27  C   UNL     1      -8.814  86.379  -8.966  1.00  0.00     0.214 A 
ATOM     28  C   UNL     1      -7.713  86.969  -9.851  1.00  0.00     0.180 A 
ATOM     29  C   UNL     1      -8.382  85.333  -8.087  1.00  0.00     0.239 A 
ATOM     30  O   UNL     1      -6.831  86.135 -10.229  1.00  0.00    -0.452 OA
ATOM     31  C   UNL     1      -7.194  84.592  -8.477  1.00  0.00     0.111 A 
ATOM     32  O   UNL     1      -8.985  84.983  -7.133  1.00  0.00    -0.285 OA
ATOM     33  C   UNL     1      -6.434  85.115  -9.567  1.00  0.00     0.146 A 
ATOM     34  C   UNL     1      -6.589  83.507  -7.780  1.00  0.00     0.134 A 
ATOM     35  C   UNL     1      -5.208  84.540  -9.984  1.00  0.00     0.094 A 
ATOM     36  C   UNL     1      -5.271  83.069  -8.076  1.00  0.00     0.093 A 
ATOM     37  C   UNL     1      -4.583  83.612  -9.192  1.00  0.00     0.123 A 
BRANCH  28  38
ATOM     38  C   UNL     1      -7.372  88.380 -10.397  1.00  0.00     0.025 A 
ATOM     39  C   UNL     1      -7.559  89.656  -9.789  1.00  0.00     0.062 A 
ATOM     40  C   UNL     1      -6.668  88.357 -11.624  1.00  0.00     0.016 A 
ATOM     41  C   UNL     1      -7.228  90.827 -10.511  1.00  0.00     0.158 A 
ATOM     42  C   UNL     1      -6.317  89.542 -12.325  1.00  0.00     0.051 A 
ATOM     43  C   UNL     1      -6.583  90.762 -11.732  1.00  0.00     0.157 A 
BRANCH  41  44
ATOM     44  O   UNL     1      -7.649  92.115 -10.036  1.00  0.00    -0.504 OA
ATOM     45  H   UNL     1      -8.002  92.884 -10.606  1.00  0.00     0.293 HD
ENDBRANCH  41  44
BRANCH  43  46
ATOM     46  O   UNL     1      -6.147  91.915 -12.420  1.00  0.00    -0.504 OA
ATOM     47  H   UNL     1      -6.247  92.763 -11.921  1.00  0.00     0.293 HD
ENDBRANCH  43  46
ENDBRANCH  28  38
BRANCH  34  48
ATOM     48  O   UNL     1      -7.230  82.926  -6.652  1.00  0.00    -0.507 OA
ATOM     49  H   UNL     1      -8.248  82.646  -6.778  1.00  0.00     0.293 HD
ENDBRANCH  34  48
BRANCH  37  50
ATOM     50  O   UNL     1      -3.314  83.191  -9.538  1.00  0.00    -0.508 OA
ATOM     51  H   UNL     1      -2.993  83.262 -10.492  1.00  0.00     0.293 HD
ENDBRANCH  37  50
ENDBRANCH  26  27
ENDBRANCH   5  26
BRANCH   4  52
ATOM     52  O   UNL     1     -11.344  86.811  -6.766  1.00  0.00    -0.384 OA
ATOM     53  H   UNL     1     -11.729  85.934  -6.450  1.00  0.00     0.211 HD
ENDBRANCH   4  52
TORSDOF 16
ENDMDL
MODEL 7
REMARK VINA RESULT:    -6.105      2.122      8.080
REMARK INTER + INTRA:         -12.843
REMARK INTER:                 -10.014
REMARK INTRA:                  -2.830
REMARK UNBOUND:                -2.813
REMARK SMILES C[C@@H]1O[C@@H](OC[C@@H]2O[C@H](Oc3c(-c4ccc(O)c(O)c4)oc4cc(O)cc(O)c4c3=O)[C@H](O)[C@H](O)[C@@H]2O)[C@H](O)[C@@H](O)[C@H]1O
REMARK SMILES IDX 7 1 36 2 34 3 32 4 9 5 8 6 6 7 5 8 4 9 1 10 2 11 42 12 3 13
REMARK SMILES IDX 40 14 38 15 43 16 41 18 39 20 37 22 35 24 10 26 11 27 12 28
REMARK SMILES IDX 30 29 21 30 29 31 31 32 22 33 27 34 23 35 26 36 24 37 13 38
REMARK SMILES IDX 20 39 14 40 18 41 15 42 16 43 19 44 17 46 28 48 25 50 33 52
REMARK H PARENT 43 17 41 19 39 21 37 23 35 25 19 45 17 47 28 49 25 51 33 53
REMARK Flexibility Score: inf
ROOT
ATOM      1  C   UNL     1     -10.156  90.828 -12.190  1.00  0.00     0.180 C 
ATOM      2  C   UNL     1     -11.667  90.997 -12.444  1.00  0.00     0.177 C 
ATOM      3  C   UNL     1     -12.386  89.638 -12.128  1.00  0.00     0.180 C 
ATOM      4  C   UNL     1     -11.737  89.005 -10.785  1.00  0.00     0.214 C 
ATOM      5  C   UNL     1     -10.271  89.492 -10.268  1.00  0.00     0.339 C 
ATOM      6  O   UNL     1      -9.910  90.740 -10.773  1.00  0.00    -0.332 OA
ENDROOT
BRANCH   1   7
ATOM      7  C   UNL     1      -9.518  89.674 -13.036  1.00  0.00     0.198 C 
BRANCH   7   8
ATOM      8  O   UNL     1      -8.105  89.831 -13.409  1.00  0.00    -0.347 OA
BRANCH   8   9
ATOM      9  C   UNL     1      -7.568  91.204 -13.589  1.00  0.00     0.281 C 
ATOM     10  C   UNL     1      -5.290  90.026 -16.183  1.00  0.00     0.041 C 
ATOM     11  C   UNL     1      -5.708  90.442 -14.746  1.00  0.00     0.150 C 
ATOM     12  C   UNL     1      -4.565  91.194 -14.018  1.00  0.00     0.174 C 
ATOM     13  O   UNL     1      -6.871  91.248 -14.794  1.00  0.00    -0.344 OA
ATOM     14  C   UNL     1      -5.071  91.644 -12.618  1.00  0.00     0.179 C 
ATOM     15  C   UNL     1      -6.662  91.757 -12.462  1.00  0.00     0.202 C 
BRANCH  12  16
ATOM     16  O   UNL     1      -3.474  90.375 -13.786  1.00  0.00    -0.388 OA
ATOM     17  H   UNL     1      -2.796  90.997 -13.377  1.00  0.00     0.211 HD
ENDBRANCH  12  16
BRANCH  14  18
ATOM     18  O   UNL     1      -4.598  90.749 -11.605  1.00  0.00    -0.387 OA
ATOM     19  H   UNL     1      -5.355  90.561 -10.988  1.00  0.00     0.211 HD
ENDBRANCH  14  18
BRANCH  15  20
ATOM     20  O   UNL     1      -7.006  93.093 -12.192  1.00  0.00    -0.385 OA
ATOM     21  H   UNL     1      -7.001  93.631 -13.015  1.00  0.00     0.211 HD
ENDBRANCH  15  20
ENDBRANCH   8   9
ENDBRANCH   7   8
ENDBRANCH   1   7
BRANCH   2  22
ATOM     22  O   UNL     1     -11.864  91.378 -13.817  1.00  0.00    -0.387 OA
ATOM     23  H   UNL     1     -10.995  91.136 -14.304  1.00  0.00     0.211 HD
ENDBRANCH   2  22
BRANCH   3  24
ATOM     24  O   UNL     1     -12.336  88.883 -13.357  1.00  0.00    -0.387 OA
ATOM     25  H   UNL     1     -11.993  88.001 -13.120  1.00  0.00     0.211 HD
ENDBRANCH   3  24
BRANCH   5  26
ATOM     26  O   UNL     1      -9.161  88.550 -10.505  1.00  0.00    -0.454 OA
BRANCH  26  27
ATOM     27  C   UNL     1      -8.300  87.758  -9.665  1.00  0.00     0.214 A 
ATOM     28  C   UNL     1      -6.822  88.079  -9.432  1.00  0.00     0.180 A 
ATOM     29  C   UNL     1      -8.640  86.371  -9.538  1.00  0.00     0.239 A 
ATOM     30  O   UNL     1      -6.013  87.180  -9.825  1.00  0.00    -0.452 OA
ATOM     31  C   UNL     1      -7.574  85.408  -9.753  1.00  0.00     0.111 A 
ATOM     32  O   UNL     1      -9.741  85.976  -9.368  1.00  0.00    -0.285 OA
ATOM     33  C   UNL     1      -6.244  85.923  -9.841  1.00  0.00     0.146 A 
ATOM     34  C   UNL     1      -7.672  83.988  -9.698  1.00  0.00     0.134 A 
ATOM     35  C   UNL     1      -5.110  85.082  -9.957  1.00  0.00     0.094 A 
ATOM     36  C   UNL     1      -6.521  83.160  -9.611  1.00  0.00     0.093 A 
ATOM     37  C   UNL     1      -5.230  83.735  -9.734  1.00  0.00     0.123 A 
BRANCH  28  38
ATOM     38  C   UNL     1      -6.035  89.251  -8.787  1.00  0.00     0.025 A 
ATOM     39  C   UNL     1      -4.723  89.262  -8.230  1.00  0.00     0.062 A 
ATOM     40  C   UNL     1      -6.693  90.499  -8.892  1.00  0.00     0.016 A 
ATOM     41  C   UNL     1      -4.230  90.447  -7.632  1.00  0.00     0.158 A 
ATOM     42  C   UNL     1      -6.172  91.687  -8.311  1.00  0.00     0.051 A 
ATOM     43  C   UNL     1      -4.927  91.638  -7.714  1.00  0.00     0.157 A 
BRANCH  41  44
ATOM     44  O   UNL     1      -3.036  90.414  -6.836  1.00  0.00    -0.504 OA
ATOM     45  H   UNL     1      -2.485  91.220  -6.539  1.00  0.00     0.293 HD
ENDBRANCH  41  44
BRANCH  43  46
ATOM     46  O   UNL     1      -4.407  92.854  -7.221  1.00  0.00    -0.504 OA
ATOM     47  H   UNL     1      -3.966  92.793  -6.338  1.00  0.00     0.293 HD
ENDBRANCH  43  46
ENDBRANCH  28  38
BRANCH  34  48
ATOM     48  O   UNL     1      -8.939  83.356  -9.571  1.00  0.00    -0.507 OA
ATOM     49  H   UNL     1      -9.754  83.823 -10.071  1.00  0.00     0.293 HD
ENDBRANCH  34  48
BRANCH  37  50
ATOM     50  O   UNL     1      -4.085  82.964  -9.690  1.00  0.00    -0.508 OA
ATOM     51  H   UNL     1      -3.201  83.342  -9.997  1.00  0.00     0.293 HD
ENDBRANCH  37  50
ENDBRANCH  26  27
ENDBRANCH   5  26
BRANCH   4  52
ATOM     52  O   UNL     1     -11.832  87.624 -10.825  1.00  0.00    -0.384 OA
ATOM     53  H   UNL     1     -12.607  87.385 -11.424  1.00  0.00     0.211 HD
ENDBRANCH   4  52
TORSDOF 16
ENDMDL
MODEL 8
REMARK VINA RESULT:    -6.071      3.345     10.152
REMARK INTER + INTRA:         -12.787
REMARK INTER:                 -10.015
REMARK INTRA:                  -2.773
REMARK UNBOUND:                -2.813
REMARK SMILES C[C@@H]1O[C@@H](OC[C@@H]2O[C@H](Oc3c(-c4ccc(O)c(O)c4)oc4cc(O)cc(O)c4c3=O)[C@H](O)[C@H](O)[C@@H]2O)[C@H](O)[C@@H](O)[C@H]1O
REMARK SMILES IDX 7 1 36 2 34 3 32 4 9 5 8 6 6 7 5 8 4 9 1 10 2 11 42 12 3 13
REMARK SMILES IDX 40 14 38 15 43 16 41 18 39 20 37 22 35 24 10 26 11 27 12 28
REMARK SMILES IDX 30 29 21 30 29 31 31 32 22 33 27 34 23 35 26 36 24 37 13 38
REMARK SMILES IDX 20 39 14 40 18 41 15 42 16 43 19 44 17 46 28 48 25 50 33 52
REMARK H PARENT 43 17 41 19 39 21 37 23 35 25 19 45 17 47 28 49 25 51 33 53
REMARK Flexibility Score: inf
ROOT
ATOM      1  C   UNL     1      -4.995  90.368 -16.892  1.00  0.00     0.180 C 
ATOM      2  C   UNL     1      -3.509  90.688 -17.146  1.00  0.00     0.177 C 
ATOM      3  C   UNL     1      -3.100  91.919 -16.264  1.00  0.00     0.180 C 
ATOM      4  C   UNL     1      -3.775  91.758 -14.800  1.00  0.00     0.214 C 
ATOM      5  C   UNL     1      -5.049  90.764 -14.583  1.00  0.00     0.339 C 
ATOM      6  O   UNL     1      -5.150  89.795 -15.579  1.00  0.00    -0.332 OA
ENDROOT
BRANCH   1   7
ATOM      7  C   UNL     1      -5.942  91.581 -17.190  1.00  0.00     0.198 C 
BRANCH   7   8
ATOM      8  O   UNL     1      -5.934  92.104 -18.563  1.00  0.00    -0.347 OA
BRANCH   8   9
ATOM      9  C   UNL     1      -6.716  93.333 -18.857  1.00  0.00     0.281 C 
ATOM     10  C   UNL     1      -4.196  94.420 -21.259  1.00  0.00     0.041 C 
ATOM     11  C   UNL     1      -4.911  94.367 -19.881  1.00  0.00     0.150 C 
ATOM     12  C   UNL     1      -4.923  95.757 -19.195  1.00  0.00     0.174 C 
ATOM     13  O   UNL     1      -6.233  93.888 -20.040  1.00  0.00    -0.344 OA
ATOM     14  C   UNL     1      -5.713  95.650 -17.859  1.00  0.00     0.179 C 
ATOM     15  C   UNL     1      -6.743  94.427 -17.761  1.00  0.00     0.202 C 
BRANCH  12  16
ATOM     16  O   UNL     1      -3.649  96.176 -18.854  1.00  0.00    -0.388 OA
ATOM     17  H   UNL     1      -3.685  97.172 -18.992  1.00  0.00     0.211 HD
ENDBRANCH  12  16
BRANCH  14  18
ATOM     18  O   UNL     1      -4.810  95.547 -16.752  1.00  0.00    -0.387 OA
ATOM     19  H   UNL     1      -3.988  95.090 -17.072  1.00  0.00     0.211 HD
ENDBRANCH  14  18
BRANCH  15  20
ATOM     20  O   UNL     1      -8.049  94.930 -17.630  1.00  0.00    -0.385 OA
ATOM     21  H   UNL     1      -8.579  94.376 -17.016  1.00  0.00     0.211 HD
ENDBRANCH  15  20
ENDBRANCH   8   9
ENDBRANCH   7   8
ENDBRANCH   1   7
BRANCH   2  22
ATOM     22  O   UNL     1      -3.332  90.974 -18.545  1.00  0.00    -0.387 OA
ATOM     23  H   UNL     1      -2.364  90.718 -18.765  1.00  0.00     0.211 HD
ENDBRANCH   2  22
BRANCH   3  24
ATOM     24  O   UNL     1      -3.412  93.082 -17.059  1.00  0.00    -0.387 OA
ATOM     25  H   UNL     1      -2.561  93.415 -17.399  1.00  0.00     0.211 HD
ENDBRANCH   3  24
BRANCH   5  26
ATOM     26  O   UNL     1      -6.359  91.424 -14.433  1.00  0.00    -0.454 OA
BRANCH  26  27
ATOM     27  C   UNL     1      -7.400  91.409 -13.438  1.00  0.00     0.214 A 
ATOM     28  C   UNL     1      -7.409  90.455 -12.241  1.00  0.00     0.180 A 
ATOM     29  C   UNL     1      -8.696  91.841 -13.871  1.00  0.00     0.239 A 
ATOM     30  O   UNL     1      -8.398  89.657 -12.205  1.00  0.00    -0.452 OA
ATOM     31  C   UNL     1      -9.821  90.978 -13.551  1.00  0.00     0.111 A 
ATOM     32  O   UNL     1      -8.882  92.794 -14.545  1.00  0.00    -0.285 OA
ATOM     33  C   UNL     1      -9.574  89.903 -12.643  1.00  0.00     0.146 A 
ATOM     34  C   UNL     1     -11.189  91.185 -13.888  1.00  0.00     0.134 A 
ATOM     35  C   UNL     1     -10.604  89.048 -12.180  1.00  0.00     0.094 A 
ATOM     36  C   UNL     1     -12.233  90.454 -13.263  1.00  0.00     0.093 A 
ATOM     37  C   UNL     1     -11.917  89.380 -12.392  1.00  0.00     0.123 A 
BRANCH  28  38
ATOM     38  C   UNL     1      -6.502  90.227 -11.003  1.00  0.00     0.025 A 
ATOM     39  C   UNL     1      -6.356  89.066 -10.189  1.00  0.00     0.062 A 
ATOM     40  C   UNL     1      -5.619  91.302 -10.745  1.00  0.00     0.016 A 
ATOM     41  C   UNL     1      -5.505  89.111  -9.059  1.00  0.00     0.158 A 
ATOM     42  C   UNL     1      -4.749  91.321  -9.621  1.00  0.00     0.051 A 
ATOM     43  C   UNL     1      -4.692  90.201  -8.813  1.00  0.00     0.157 A 
BRANCH  41  44
ATOM     44  O   UNL     1      -5.543  88.060  -8.081  1.00  0.00    -0.504 OA
ATOM     45  H   UNL     1      -6.365  87.524  -7.801  1.00  0.00     0.293 HD
ENDBRANCH  41  44
BRANCH  43  46
ATOM     46  O   UNL     1      -3.758  90.225  -7.754  1.00  0.00    -0.504 OA
ATOM     47  H   UNL     1      -3.243  91.064  -7.668  1.00  0.00     0.293 HD
ENDBRANCH  43  46
ENDBRANCH  28  38
BRANCH  34  48
ATOM     48  O   UNL     1     -11.566  92.249 -14.754  1.00  0.00    -0.507 OA
ATOM     49  H   UNL     1     -11.292  93.230 -14.446  1.00  0.00     0.293 HD
ENDBRANCH  34  48
BRANCH  37  50
ATOM     50  O   UNL     1     -12.900  88.620 -11.790  1.00  0.00    -0.508 OA
ATOM     51  H   UNL     1     -13.795  88.490 -12.240  1.00  0.00     0.293 HD
ENDBRANCH  37  50
ENDBRANCH  26  27
ENDBRANCH   5  26
BRANCH   4  52
ATOM     52  O   UNL     1      -4.003  93.008 -14.249  1.00  0.00    -0.384 OA
ATOM     53  H   UNL     1      -3.659  92.995 -13.301  1.00  0.00     0.211 HD
ENDBRANCH   4  52
TORSDOF 16
ENDMDL
