MODEL 1
REMARK VINA RESULT:    -3.980      0.000      0.000
REMARK INTER + INTRA:          -5.835
REMARK INTER:                  -5.376
REMARK INTRA:                  -0.460
REMARK UNBOUND:                -0.460
REMARK SMILES [NH3+]CCCC[C@@H]([NH3+])C(=O)[O-]
REMARK SMILES IDX 4 1 3 2 2 3 1 4 5 8 6 9 7 10 8 14 9 15 10 16
REMARK H PARENT 1 5 1 6 1 7 7 11 7 12 7 13
REMARK Flexibility Score: inf
ROOT
ATOM      1  C   UNL     1     -37.354  17.543 -30.005  1.00  0.00     0.012 C 
ENDROOT
BRANCH   1   2
ATOM      2  C   UNL     1     -36.165  18.397 -29.534  1.00  0.00     0.061 C 
BRANCH   2   3
ATOM      3  C   UNL     1     -36.212  18.691 -28.026  1.00  0.00     0.258 C 
BRANCH   3   4
ATOM      4  N   UNL     1     -37.371  18.072 -27.381  1.00  0.00    -0.358 N 
ATOM      5  H   UNL     1     -38.130  18.776 -27.244  1.00  0.00     0.344 HD
ATOM      6  H   UNL     1     -37.084  17.710 -26.442  1.00  0.00     0.344 HD
ATOM      7  H   UNL     1     -37.724  17.272 -27.955  1.00  0.00     0.344 HD
ENDBRANCH   3   4
ENDBRANCH   2   3
ENDBRANCH   1   2
BRANCH   1   8
ATOM      8  C   UNL     1     -38.424  18.363 -30.749  1.00  0.00     0.072 C 
BRANCH   8   9
ATOM      9  C   UNL     1     -38.228  19.897 -30.681  1.00  0.00     0.227 C 
BRANCH   9  10
ATOM     10  N   UNL     1     -38.410  20.530 -31.995  1.00  0.00    -0.350 N 
ATOM     11  H   UNL     1     -37.527  20.995 -32.309  1.00  0.00     0.345 HD
ATOM     12  H   UNL     1     -38.687  19.810 -32.703  1.00  0.00     0.345 HD
ATOM     13  H   UNL     1     -39.178  21.236 -31.950  1.00  0.00     0.345 HD
ENDBRANCH   9  10
BRANCH   9  14
ATOM     14  C   UNL     1     -39.202  20.477 -29.689  1.00  0.00     0.099 C 
ATOM     15  O   UNL     1     -39.637  21.649 -29.841  1.00  0.00    -0.544 OA
ATOM     16  O   UNL     1     -39.602  19.736 -28.584  1.00  0.00    -0.544 OA
ENDBRANCH   9  14
ENDBRANCH   8   9
ENDBRANCH   1   8
TORSDOF 7
ENDMDL
MODEL 2
REMARK VINA RESULT:    -3.963      2.548      4.081
REMARK INTER + INTRA:          -5.812
REMARK INTER:                  -5.640
REMARK INTRA:                  -0.172
REMARK UNBOUND:                -0.460
REMARK SMILES [NH3+]CCCC[C@@H]([NH3+])C(=O)[O-]
REMARK SMILES IDX 4 1 3 2 2 3 1 4 5 8 6 9 7 10 8 14 9 15 10 16
REMARK H PARENT 1 5 1 6 1 7 7 11 7 12 7 13
REMARK Flexibility Score: inf
ROOT
ATOM      1  C   UNL     1     -39.866  20.459 -28.822  1.00  0.00     0.012 C 
ENDROOT
BRANCH   1   2
ATOM      2  C   UNL     1     -38.735  21.225 -29.530  1.00  0.00     0.061 C 
BRANCH   2   3
ATOM      3  C   UNL     1     -38.375  22.537 -28.814  1.00  0.00     0.258 C 
BRANCH   3   4
ATOM      4  N   UNL     1     -39.564  23.254 -28.347  1.00  0.00    -0.358 N 
ATOM      5  H   UNL     1     -39.326  23.860 -27.531  1.00  0.00     0.344 HD
ATOM      6  H   UNL     1     -40.282  22.557 -28.042  1.00  0.00     0.344 HD
ATOM      7  H   UNL     1     -39.966  23.834 -29.119  1.00  0.00     0.344 HD
ENDBRANCH   3   4
ENDBRANCH   2   3
ENDBRANCH   1   2
BRANCH   1   8
ATOM      8  C   UNL     1     -39.500  18.994 -28.521  1.00  0.00     0.072 C 
BRANCH   8   9
ATOM      9  C   UNL     1     -37.999  18.653 -28.690  1.00  0.00     0.227 C 
BRANCH   9  10
ATOM     10  N   UNL     1     -37.449  18.000 -27.494  1.00  0.00    -0.350 N 
ATOM     11  H   UNL     1     -37.114  17.035 -27.719  1.00  0.00     0.345 HD
ATOM     12  H   UNL     1     -36.650  18.561 -27.118  1.00  0.00     0.345 HD
ATOM     13  H   UNL     1     -38.176  17.952 -26.746  1.00  0.00     0.345 HD
ENDBRANCH   9  10
BRANCH   9  14
ATOM     14  C   UNL     1     -37.827  17.760 -29.891  1.00  0.00     0.099 C 
ATOM     15  O   UNL     1     -38.518  17.952 -30.926  1.00  0.00    -0.544 OA
ATOM     16  O   UNL     1     -36.929  16.701 -29.855  1.00  0.00    -0.544 OA
ENDBRANCH   9  14
ENDBRANCH   8   9
ENDBRANCH   1   8
TORSDOF 7
ENDMDL
MODEL 3
REMARK VINA RESULT:    -3.925      2.000      4.042
REMARK INTER + INTRA:          -5.761
REMARK INTER:                  -5.304
REMARK INTRA:                  -0.457
REMARK UNBOUND:                -0.460
REMARK SMILES [NH3+]CCCC[C@@H]([NH3+])C(=O)[O-]
REMARK SMILES IDX 4 1 3 2 2 3 1 4 5 8 6 9 7 10 8 14 9 15 10 16
REMARK H PARENT 1 5 1 6 1 7 7 11 7 12 7 13
REMARK Flexibility Score: inf
ROOT
ATOM      1  C   UNL     1     -39.191  20.748 -29.353  1.00  0.00     0.012 C 
ENDROOT
BRANCH   1   2
ATOM      2  C   UNL     1     -37.780  21.308 -29.600  1.00  0.00     0.061 C 
BRANCH   2   3
ATOM      3  C   UNL     1     -37.421  21.361 -31.094  1.00  0.00     0.258 C 
BRANCH   3   4
ATOM      4  N   UNL     1     -38.377  20.616 -31.916  1.00  0.00    -0.358 N 
ATOM      5  H   UNL     1     -38.176  20.762 -32.931  1.00  0.00     0.344 HD
ATOM      6  H   UNL     1     -39.342  20.968 -31.718  1.00  0.00     0.344 HD
ATOM      7  H   UNL     1     -38.339  19.596 -31.686  1.00  0.00     0.344 HD
ENDBRANCH   3   4
ENDBRANCH   2   3
ENDBRANCH   1   2
BRANCH   1   8
ATOM      8  C   UNL     1     -39.177  19.331 -28.750  1.00  0.00     0.072 C 
BRANCH   8   9
ATOM      9  C   UNL     1     -37.787  18.651 -28.727  1.00  0.00     0.227 C 
BRANCH   9  10
ATOM     10  N   UNL     1     -37.527  17.981 -27.445  1.00  0.00    -0.350 N 
ATOM     11  H   UNL     1     -36.548  17.612 -27.410  1.00  0.00     0.345 HD
ATOM     12  H   UNL     1     -37.667  18.654 -26.656  1.00  0.00     0.345 HD
ATOM     13  H   UNL     1     -38.201  17.195 -27.308  1.00  0.00     0.345 HD
ENDBRANCH   9  10
BRANCH   9  14
ATOM     14  C   UNL     1     -37.704  17.656 -29.855  1.00  0.00     0.099 C 
ATOM     15  O   UNL     1     -36.922  16.672 -29.775  1.00  0.00    -0.544 OA
ATOM     16  O   UNL     1     -38.465  17.833 -31.004  1.00  0.00    -0.544 OA
ENDBRANCH   9  14
ENDBRANCH   8   9
ENDBRANCH   1   8
TORSDOF 7
ENDMDL
MODEL 4
REMARK VINA RESULT:    -3.882      2.495      3.852
REMARK INTER + INTRA:          -5.704
REMARK INTER:                  -5.535
REMARK INTRA:                  -0.168
REMARK UNBOUND:                -0.460
REMARK SMILES [NH3+]CCCC[C@@H]([NH3+])C(=O)[O-]
REMARK SMILES IDX 4 1 3 2 2 3 1 4 5 8 6 9 7 10 8 14 9 15 10 16
REMARK H PARENT 1 5 1 6 1 7 7 11 7 12 7 13
REMARK Flexibility Score: inf
ROOT
ATOM      1  C   UNL     1     -38.858  21.008 -31.035  1.00  0.00     0.012 C 
ENDROOT
BRANCH   1   2
ATOM      2  C   UNL     1     -39.442  21.198 -29.625  1.00  0.00     0.061 C 
BRANCH   2   3
ATOM      3  C   UNL     1     -38.798  22.375 -28.874  1.00  0.00     0.258 C 
BRANCH   3   4
ATOM      4  N   UNL     1     -39.792  23.354 -28.428  1.00  0.00    -0.358 N 
ATOM      5  H   UNL     1     -39.700  23.524 -27.402  1.00  0.00     0.344 HD
ATOM      6  H   UNL     1     -40.749  22.975 -28.615  1.00  0.00     0.344 HD
ATOM      7  H   UNL     1     -39.679  24.252 -28.952  1.00  0.00     0.344 HD
ENDBRANCH   3   4
ENDBRANCH   2   3
ENDBRANCH   1   2
BRANCH   1   8
ATOM      8  C   UNL     1     -37.991  19.741 -31.159  1.00  0.00     0.072 C 
BRANCH   8   9
ATOM      9  C   UNL     1     -38.620  18.463 -30.552  1.00  0.00     0.227 C 
BRANCH   9  10
ATOM     10  N   UNL     1     -38.906  17.453 -31.580  1.00  0.00    -0.350 N 
ATOM     11  H   UNL     1     -39.917  17.184 -31.565  1.00  0.00     0.345 HD
ATOM     12  H   UNL     1     -38.666  17.829 -32.526  1.00  0.00     0.345 HD
ATOM     13  H   UNL     1     -38.318  16.605 -31.422  1.00  0.00     0.345 HD
ENDBRANCH   9  10
BRANCH   9  14
ATOM     14  C   UNL     1     -37.685  17.896 -29.516  1.00  0.00     0.099 C 
ATOM     15  O   UNL     1     -36.944  16.919 -29.800  1.00  0.00    -0.544 OA
ATOM     16  O   UNL     1     -37.657  18.426 -28.232  1.00  0.00    -0.544 OA
ENDBRANCH   9  14
ENDBRANCH   8   9
ENDBRANCH   1   8
TORSDOF 7
ENDMDL
MODEL 5
REMARK VINA RESULT:    -3.785      2.169      3.125
REMARK INTER + INTRA:          -5.572
REMARK INTER:                  -5.387
REMARK INTRA:                  -0.185
REMARK UNBOUND:                -0.460
REMARK SMILES [NH3+]CCCC[C@@H]([NH3+])C(=O)[O-]
REMARK SMILES IDX 4 1 3 2 2 3 1 4 5 8 6 9 7 10 8 14 9 15 10 16
REMARK H PARENT 1 5 1 6 1 7 7 11 7 12 7 13
REMARK Flexibility Score: inf
ROOT
ATOM      1  C   UNL     1     -35.921  18.772 -29.812  1.00  0.00     0.012 C 
ENDROOT
BRANCH   1   2
ATOM      2  C   UNL     1     -34.979  17.695 -30.377  1.00  0.00     0.061 C 
BRANCH   2   3
ATOM      3  C   UNL     1     -35.703  16.368 -30.657  1.00  0.00     0.258 C 
BRANCH   3   4
ATOM      4  N   UNL     1     -34.965  15.528 -31.603  1.00  0.00    -0.358 N 
ATOM      5  H   UNL     1     -34.137  16.043 -31.977  1.00  0.00     0.344 HD
ATOM      6  H   UNL     1     -35.593  15.288 -32.405  1.00  0.00     0.344 HD
ATOM      7  H   UNL     1     -34.658  14.641 -31.141  1.00  0.00     0.344 HD
ENDBRANCH   3   4
ENDBRANCH   2   3
ENDBRANCH   1   2
BRANCH   1   8
ATOM      8  C   UNL     1     -37.406  18.370 -29.891  1.00  0.00     0.072 C 
BRANCH   8   9
ATOM      9  C   UNL     1     -38.148  18.363 -28.532  1.00  0.00     0.227 C 
BRANCH   9  10
ATOM     10  N   UNL     1     -37.224  18.530 -27.403  1.00  0.00    -0.350 N 
ATOM     11  H   UNL     1     -37.468  19.381 -26.845  1.00  0.00     0.345 HD
ATOM     12  H   UNL     1     -37.264  17.690 -26.781  1.00  0.00     0.345 HD
ATOM     13  H   UNL     1     -36.243  18.613 -27.752  1.00  0.00     0.345 HD
ENDBRANCH   9  10
BRANCH   9  14
ATOM     14  C   UNL     1     -39.177  19.464 -28.526  1.00  0.00     0.099 C 
ATOM     15  O   UNL     1     -40.306  19.272 -28.003  1.00  0.00    -0.544 OA
ATOM     16  O   UNL     1     -38.898  20.688 -29.122  1.00  0.00    -0.544 OA
ENDBRANCH   9  14
ENDBRANCH   8   9
ENDBRANCH   1   8
TORSDOF 7
ENDMDL
MODEL 6
REMARK VINA RESULT:    -3.783      2.719      4.323
REMARK INTER + INTRA:          -5.570
REMARK INTER:                  -5.456
REMARK INTRA:                  -0.114
REMARK UNBOUND:                -0.460
REMARK SMILES [NH3+]CCCC[C@@H]([NH3+])C(=O)[O-]
REMARK SMILES IDX 4 1 3 2 2 3 1 4 5 8 6 9 7 10 8 14 9 15 10 16
REMARK H PARENT 1 5 1 6 1 7 7 11 7 12 7 13
REMARK Flexibility Score: inf
ROOT
ATOM      1  C   UNL     1     -37.048  21.152 -29.242  1.00  0.00     0.012 C 
ENDROOT
BRANCH   1   2
ATOM      2  C   UNL     1     -37.694  22.509 -28.917  1.00  0.00     0.061 C 
BRANCH   2   3
ATOM      3  C   UNL     1     -39.230  22.443 -28.906  1.00  0.00     0.258 C 
BRANCH   3   4
ATOM      4  N   UNL     1     -39.824  23.562 -28.171  1.00  0.00    -0.358 N 
ATOM      5  H   UNL     1     -39.233  23.810 -27.347  1.00  0.00     0.344 HD
ATOM      6  H   UNL     1     -40.769  23.277 -27.825  1.00  0.00     0.344 HD
ATOM      7  H   UNL     1     -39.932  24.392 -28.797  1.00  0.00     0.344 HD
ENDBRANCH   3   4
ENDBRANCH   2   3
ENDBRANCH   1   2
BRANCH   1   8
ATOM      8  C   UNL     1     -37.944  19.957 -28.869  1.00  0.00     0.072 C 
BRANCH   8   9
ATOM      9  C   UNL     1     -37.197  18.611 -28.709  1.00  0.00     0.227 C 
BRANCH   9  10
ATOM     10  N   UNL     1     -37.519  17.954 -27.435  1.00  0.00    -0.350 N 
ATOM     11  H   UNL     1     -37.974  17.026 -27.600  1.00  0.00     0.345 HD
ATOM     12  H   UNL     1     -36.647  17.812 -26.875  1.00  0.00     0.345 HD
ATOM     13  H   UNL     1     -38.157  18.559 -26.871  1.00  0.00     0.345 HD
ENDBRANCH   9  10
BRANCH   9  14
ATOM     14  C   UNL     1     -37.554  17.707 -29.861  1.00  0.00     0.099 C 
ATOM     15  O   UNL     1     -36.944  16.618 -30.023  1.00  0.00    -0.544 OA
ATOM     16  O   UNL     1     -38.535  18.084 -30.770  1.00  0.00    -0.544 OA
ENDBRANCH   9  14
ENDBRANCH   8   9
ENDBRANCH   1   8
TORSDOF 7
ENDMDL
MODEL 7
REMARK VINA RESULT:    -3.768      1.647      3.673
REMARK INTER + INTRA:          -5.549
REMARK INTER:                  -5.024
REMARK INTRA:                  -0.524
REMARK UNBOUND:                -0.460
REMARK SMILES [NH3+]CCCC[C@@H]([NH3+])C(=O)[O-]
REMARK SMILES IDX 4 1 3 2 2 3 1 4 5 8 6 9 7 10 8 14 9 15 10 16
REMARK H PARENT 1 5 1 6 1 7 7 11 7 12 7 13
REMARK Flexibility Score: inf
ROOT
ATOM      1  C   UNL     1     -36.862  20.967 -28.854  1.00  0.00     0.012 C 
ENDROOT
BRANCH   1   2
ATOM      2  C   UNL     1     -37.261  21.824 -30.068  1.00  0.00     0.061 C 
BRANCH   2   3
ATOM      3  C   UNL     1     -36.911  21.149 -31.404  1.00  0.00     0.258 C 
BRANCH   3   4
ATOM      4  N   UNL     1     -38.107  20.766 -32.157  1.00  0.00    -0.358 N 
ATOM      5  H   UNL     1     -38.863  20.459 -31.506  1.00  0.00     0.344 HD
ATOM      6  H   UNL     1     -37.869  19.965 -32.787  1.00  0.00     0.344 HD
ATOM      7  H   UNL     1     -38.440  21.566 -32.743  1.00  0.00     0.344 HD
ENDBRANCH   3   4
ENDBRANCH   2   3
ENDBRANCH   1   2
BRANCH   1   8
ATOM      8  C   UNL     1     -36.360  19.566 -29.248  1.00  0.00     0.072 C 
BRANCH   8   9
ATOM      9  C   UNL     1     -37.227  18.396 -28.722  1.00  0.00     0.227 C 
BRANCH   9  10
ATOM     10  N   UNL     1     -37.178  18.294 -27.257  1.00  0.00    -0.350 N 
ATOM     11  H   UNL     1     -37.726  19.066 -26.813  1.00  0.00     0.345 HD
ATOM     12  H   UNL     1     -37.571  17.374 -26.950  1.00  0.00     0.345 HD
ATOM     13  H   UNL     1     -36.187  18.335 -26.928  1.00  0.00     0.345 HD
ENDBRANCH   9  10
BRANCH   9  14
ATOM     14  C   UNL     1     -38.649  18.589 -29.180  1.00  0.00     0.099 C 
ATOM     15  O   UNL     1     -38.946  18.454 -30.396  1.00  0.00    -0.544 OA
ATOM     16  O   UNL     1     -39.636  18.948 -28.270  1.00  0.00    -0.544 OA
ENDBRANCH   9  14
ENDBRANCH   8   9
ENDBRANCH   1   8
TORSDOF 7
ENDMDL
MODEL 8
REMARK VINA RESULT:    -3.715      2.224      2.557
REMARK INTER + INTRA:          -5.478
REMARK INTER:                  -4.946
REMARK INTRA:                  -0.532
REMARK UNBOUND:                -0.460
REMARK SMILES [NH3+]CCCC[C@@H]([NH3+])C(=O)[O-]
REMARK SMILES IDX 4 1 3 2 2 3 1 4 5 8 6 9 7 10 8 14 9 15 10 16
REMARK H PARENT 1 5 1 6 1 7 7 11 7 12 7 13
REMARK Flexibility Score: inf
ROOT
ATOM      1  C   UNL     1     -38.747  18.995 -28.127  1.00  0.00     0.012 C 
ENDROOT
BRANCH   1   2
ATOM      2  C   UNL     1     -37.487  18.117 -28.031  1.00  0.00     0.061 C 
BRANCH   2   3
ATOM      3  C   UNL     1     -37.067  17.540 -29.393  1.00  0.00     0.258 C 
BRANCH   3   4
ATOM      4  N   UNL     1     -35.788  18.086 -29.851  1.00  0.00    -0.358 N 
ATOM      5  H   UNL     1     -35.559  18.961 -29.329  1.00  0.00     0.344 HD
ATOM      6  H   UNL     1     -35.863  18.319 -30.868  1.00  0.00     0.344 HD
ATOM      7  H   UNL     1     -35.025  17.382 -29.724  1.00  0.00     0.344 HD
ENDBRANCH   3   4
ENDBRANCH   2   3
ENDBRANCH   1   2
BRANCH   1   8
ATOM      8  C   UNL     1     -39.082  19.406 -29.572  1.00  0.00     0.072 C 
BRANCH   8   9
ATOM      9  C   UNL     1     -39.104  20.933 -29.823  1.00  0.00     0.227 C 
BRANCH   9  10
ATOM     10  N   UNL     1     -40.070  21.617 -28.953  1.00  0.00    -0.350 N 
ATOM     11  H   UNL     1     -39.580  22.240 -28.270  1.00  0.00     0.345 HD
ATOM     12  H   UNL     1     -40.726  22.192 -29.531  1.00  0.00     0.345 HD
ATOM     13  H   UNL     1     -40.644  20.916 -28.435  1.00  0.00     0.345 HD
ENDBRANCH   9  10
BRANCH   9  14
ATOM     14  C   UNL     1     -37.722  21.491 -29.599  1.00  0.00     0.099 C 
ATOM     15  O   UNL     1     -37.549  22.454 -28.807  1.00  0.00    -0.544 OA
ATOM     16  O   UNL     1     -36.635  20.967 -30.288  1.00  0.00    -0.544 OA
ENDBRANCH   9  14
ENDBRANCH   8   9
ENDBRANCH   1   8
TORSDOF 7
ENDMDL
MODEL 9
REMARK VINA RESULT:    -3.706     16.999     17.980
REMARK INTER + INTRA:          -5.465
REMARK INTER:                  -4.972
REMARK INTRA:                  -0.494
REMARK UNBOUND:                -0.460
REMARK SMILES [NH3+]CCCC[C@@H]([NH3+])C(=O)[O-]
REMARK SMILES IDX 4 1 3 2 2 3 1 4 5 8 6 9 7 10 8 14 9 15 10 16
REMARK H PARENT 1 5 1 6 1 7 7 11 7 12 7 13
REMARK Flexibility Score: inf
ROOT
ATOM      1  C   UNL     1     -51.000   6.661 -33.702  1.00  0.00     0.012 C 
ENDROOT
BRANCH   1   2
ATOM      2  C   UNL     1     -52.486   6.364 -33.438  1.00  0.00     0.061 C 
BRANCH   2   3
ATOM      3  C   UNL     1     -53.404   6.944 -34.525  1.00  0.00     0.258 C 
BRANCH   3   4
ATOM      4  N   UNL     1     -53.524   8.400 -34.425  1.00  0.00    -0.358 N 
ATOM      5  H   UNL     1     -53.759   8.679 -33.446  1.00  0.00     0.344 HD
ATOM      6  H   UNL     1     -54.297   8.721 -35.053  1.00  0.00     0.344 HD
ATOM      7  H   UNL     1     -52.635   8.860 -34.726  1.00  0.00     0.344 HD
ENDBRANCH   3   4
ENDBRANCH   2   3
ENDBRANCH   1   2
BRANCH   1   8
ATOM      8  C   UNL     1     -50.221   7.011 -32.420  1.00  0.00     0.072 C 
BRANCH   8   9
ATOM      9  C   UNL     1     -50.841   8.150 -31.575  1.00  0.00     0.227 C 
BRANCH   9  10
ATOM     10  N   UNL     1     -50.321   8.157 -30.201  1.00  0.00    -0.350 N 
ATOM     11  H   UNL     1     -49.745   7.303 -30.018  1.00  0.00     0.345 HD
ATOM     12  H   UNL     1     -49.731   9.007 -30.047  1.00  0.00     0.345 HD
ATOM     13  H   UNL     1     -51.111   8.197 -29.519  1.00  0.00     0.345 HD
ENDBRANCH   9  10
BRANCH   9  14
ATOM     14  C   UNL     1     -50.559   9.470 -32.242  1.00  0.00     0.099 C 
ATOM     15  O   UNL     1     -51.488  10.107 -32.804  1.00  0.00    -0.544 OA
ATOM     16  O   UNL     1     -49.266   9.980 -32.268  1.00  0.00    -0.544 OA
ENDBRANCH   9  14
ENDBRANCH   8   9
ENDBRANCH   1   8
TORSDOF 7
ENDMDL
