MODEL 1
REMARK VINA RESULT:    -5.319      0.000      0.000
REMARK INTER + INTRA:          -6.118
REMARK INTER:                  -5.786
REMARK INTRA:                  -0.333
REMARK UNBOUND:                -0.333
REMARK SMILES C=C1C[C@]2(O)O[C@]3(C[C@H]2C(C)C)[C@@H](C)CC[C@@H]13
REMARK SMILES IDX 14 1 13 2 15 3 16 4 17 5 7 6 8 7 9 8 4 9 6 10 3 11 2 12 1 13
REMARK SMILES IDX 10 14 11 15 12 16 5 17
REMARK H PARENT 5 18
REMARK Flexibility Score: inf
ROOT
ATOM      1  C   UNL     1      48.988  -9.869  39.620  1.00  0.00     0.011 C 
ATOM      2  C   UNL     1      47.549  -9.537  39.206  1.00  0.00     0.019 C 
ATOM      3  C   UNL     1      46.835 -10.697  38.478  1.00  0.00     0.007 C 
ATOM      4  C   UNL     1      45.333 -10.562  38.805  1.00  0.00     0.011 C 
ATOM      5  C   UNL     1      45.238  -9.251  39.580  1.00  0.00     0.047 C 
ATOM      6  C   UNL     1      46.571  -9.153  40.330  1.00  0.00     0.081 C 
ATOM      7  C   UNL     1      46.626 -10.065  41.589  1.00  0.00     0.046 C 
ATOM      8  C   UNL     1      46.237  -9.122  42.727  1.00  0.00     0.054 C 
ATOM      9  C   UNL     1      45.860  -7.834  41.959  1.00  0.00     0.173 C 
ATOM     10  O   UNL     1      46.681  -7.830  40.797  1.00  0.00    -0.342 OA
ATOM     11  C   UNL     1      44.346  -7.882  41.549  1.00  0.00     0.096 C 
ATOM     12  C   UNL     1      44.099  -8.987  40.534  1.00  0.00    -0.066 C 
ATOM     13  C   UNL     1      42.880  -9.517  40.365  1.00  0.00     0.008 C 
ENDROOT
BRANCH   8  14
ATOM     14  C   UNL     1      47.341  -8.933  43.820  1.00  0.00    -0.009 C 
ATOM     15  C   UNL     1      46.909  -9.548  45.159  1.00  0.00     0.008 C 
ATOM     16  C   UNL     1      48.733  -9.458  43.420  1.00  0.00     0.008 C 
ENDBRANCH   8  14
BRANCH   9  17
ATOM     17  O   UNL     1      46.098  -6.683  42.730  1.00  0.00    -0.365 OA
ATOM     18  H   UNL     1      45.389  -6.646  43.424  1.00  0.00     0.214 HD
ENDBRANCH   9  17
TORSDOF 2
ENDMDL
MODEL 2
REMARK VINA RESULT:    -5.296      1.805      3.522
REMARK INTER + INTRA:          -6.093
REMARK INTER:                  -5.833
REMARK INTRA:                  -0.260
REMARK UNBOUND:                -0.333
REMARK SMILES C=C1C[C@]2(O)O[C@]3(C[C@H]2C(C)C)[C@@H](C)CC[C@@H]13
REMARK SMILES IDX 14 1 13 2 15 3 16 4 17 5 7 6 8 7 9 8 4 9 6 10 3 11 2 12 1 13
REMARK SMILES IDX 10 14 11 15 12 16 5 17
REMARK H PARENT 5 18
REMARK Flexibility Score: inf
ROOT
ATOM      1  C   UNL     1      48.973  -9.504  43.320  1.00  0.00     0.011 C 
ATOM      2  C   UNL     1      48.735 -10.460  42.144  1.00  0.00     0.019 C 
ATOM      3  C   UNL     1      48.412 -11.906  42.582  1.00  0.00     0.007 C 
ATOM      4  C   UNL     1      47.500 -12.503  41.491  1.00  0.00     0.011 C 
ATOM      5  C   UNL     1      47.463 -11.427  40.409  1.00  0.00     0.047 C 
ATOM      6  C   UNL     1      47.591 -10.108  41.178  1.00  0.00     0.081 C 
ATOM      7  C   UNL     1      46.263  -9.674  41.863  1.00  0.00     0.046 C 
ATOM      8  C   UNL     1      45.646  -8.703  40.855  1.00  0.00     0.054 C 
ATOM      9  C   UNL     1      46.619  -8.823  39.660  1.00  0.00     0.173 C 
ATOM     10  O   UNL     1      47.890  -9.110  40.231  1.00  0.00    -0.342 OA
ATOM     11  C   UNL     1      46.171 -10.000  38.723  1.00  0.00     0.096 C 
ATOM     12  C   UNL     1      46.314 -11.337  39.435  1.00  0.00    -0.066 C 
ATOM     13  C   UNL     1      45.611 -12.409  39.048  1.00  0.00     0.008 C 
ENDROOT
BRANCH   8  14
ATOM     14  C   UNL     1      45.446  -7.248  41.395  1.00  0.00    -0.009 C 
ATOM     15  C   UNL     1      44.077  -6.686  40.986  1.00  0.00     0.008 C 
ATOM     16  C   UNL     1      45.651  -7.095  42.914  1.00  0.00     0.008 C 
ENDBRANCH   8  14
BRANCH   9  17
ATOM     17  O   UNL     1      46.674  -7.632  38.917  1.00  0.00    -0.365 OA
ATOM     18  H   UNL     1      47.286  -7.794  38.151  1.00  0.00     0.214 HD
ENDBRANCH   9  17
TORSDOF 2
ENDMDL
MODEL 3
REMARK VINA RESULT:    -5.124      1.939      3.806
REMARK INTER + INTRA:          -5.906
REMARK INTER:                  -5.574
REMARK INTRA:                  -0.332
REMARK UNBOUND:                -0.333
REMARK SMILES C=C1C[C@]2(O)O[C@]3(C[C@H]2C(C)C)[C@@H](C)CC[C@@H]13
REMARK SMILES IDX 14 1 13 2 15 3 16 4 17 5 7 6 8 7 9 8 4 9 6 10 3 11 2 12 1 13
REMARK SMILES IDX 10 14 11 15 12 16 5 17
REMARK H PARENT 5 18
REMARK Flexibility Score: inf
ROOT
ATOM      1  C   UNL     1      46.764  -6.816  39.164  1.00  0.00     0.011 C 
ATOM      2  C   UNL     1      45.763  -6.793  40.326  1.00  0.00     0.019 C 
ATOM      3  C   UNL     1      44.450  -6.052  39.993  1.00  0.00     0.007 C 
ATOM      4  C   UNL     1      43.343  -6.720  40.835  1.00  0.00     0.011 C 
ATOM      5  C   UNL     1      44.095  -7.710  41.718  1.00  0.00     0.047 C 
ATOM      6  C   UNL     1      45.289  -8.153  40.865  1.00  0.00     0.081 C 
ATOM      7  C   UNL     1      44.901  -9.193  39.774  1.00  0.00     0.046 C 
ATOM      8  C   UNL     1      45.230 -10.535  40.430  1.00  0.00     0.054 C 
ATOM      9  C   UNL     1      45.617 -10.102  41.863  1.00  0.00     0.173 C 
ATOM     10  O   UNL     1      46.189  -8.806  41.728  1.00  0.00    -0.342 OA
ATOM     11  C   UNL     1      44.334 -10.034  42.764  1.00  0.00     0.096 C 
ATOM     12  C   UNL     1      43.407  -8.923  42.295  1.00  0.00    -0.066 C 
ATOM     13  C   UNL     1      42.100  -8.939  42.588  1.00  0.00     0.008 C 
ENDROOT
BRANCH   8  14
ATOM     14  C   UNL     1      46.319 -11.373  39.682  1.00  0.00    -0.009 C 
ATOM     15  C   UNL     1      45.722 -12.657  39.088  1.00  0.00     0.008 C 
ATOM     16  C   UNL     1      47.091 -10.596  38.598  1.00  0.00     0.008 C 
ENDBRANCH   8  14
BRANCH   9  17
ATOM     17  O   UNL     1      46.544 -10.988  42.438  1.00  0.00    -0.365 OA
ATOM     18  H   UNL     1      46.034 -11.782  42.747  1.00  0.00     0.214 HD
ENDBRANCH   9  17
TORSDOF 2
ENDMDL
MODEL 4
REMARK VINA RESULT:    -5.120      1.621      4.280
REMARK INTER + INTRA:          -5.901
REMARK INTER:                  -5.576
REMARK INTRA:                  -0.325
REMARK UNBOUND:                -0.333
REMARK SMILES C=C1C[C@]2(O)O[C@]3(C[C@H]2C(C)C)[C@@H](C)CC[C@@H]13
REMARK SMILES IDX 14 1 13 2 15 3 16 4 17 5 7 6 8 7 9 8 4 9 6 10 3 11 2 12 1 13
REMARK SMILES IDX 10 14 11 15 12 16 5 17
REMARK H PARENT 5 18
REMARK Flexibility Score: inf
ROOT
ATOM      1  C   UNL     1      44.886 -10.316  43.818  1.00  0.00     0.011 C 
ATOM      2  C   UNL     1      46.119 -10.230  42.910  1.00  0.00     0.019 C 
ATOM      3  C   UNL     1      46.734 -11.607  42.575  1.00  0.00     0.007 C 
ATOM      4  C   UNL     1      47.375 -11.474  41.178  1.00  0.00     0.011 C 
ATOM      5  C   UNL     1      47.228  -9.994  40.841  1.00  0.00     0.047 C 
ATOM      6  C   UNL     1      45.927  -9.571  41.533  1.00  0.00     0.081 C 
ATOM      7  C   UNL     1      44.655 -10.025  40.759  1.00  0.00     0.046 C 
ATOM      8  C   UNL     1      44.286  -8.794  39.931  1.00  0.00     0.054 C 
ATOM      9  C   UNL     1      45.476  -7.849  40.217  1.00  0.00     0.173 C 
ATOM     10  O   UNL     1      45.903  -8.164  41.537  1.00  0.00    -0.342 OA
ATOM     11  C   UNL     1      46.634  -8.127  39.195  1.00  0.00     0.096 C 
ATOM     12  C   UNL     1      47.221  -9.513  39.411  1.00  0.00    -0.066 C 
ATOM     13  C   UNL     1      47.881 -10.149  38.434  1.00  0.00     0.008 C 
ENDROOT
BRANCH   8  14
ATOM     14  C   UNL     1      42.879  -8.192  40.255  1.00  0.00    -0.009 C 
ATOM     15  C   UNL     1      41.961  -8.229  39.025  1.00  0.00     0.008 C 
ATOM     16  C   UNL     1      42.172  -8.834  41.465  1.00  0.00     0.008 C 
ENDBRANCH   8  14
BRANCH   9  17
ATOM     17  O   UNL     1      45.096  -6.499  40.135  1.00  0.00    -0.365 OA
ATOM     18  H   UNL     1      45.699  -5.989  40.736  1.00  0.00     0.214 HD
ENDBRANCH   9  17
TORSDOF 2
ENDMDL
MODEL 5
REMARK VINA RESULT:    -5.039      1.817      3.832
REMARK INTER + INTRA:          -5.813
REMARK INTER:                  -5.488
REMARK INTRA:                  -0.325
REMARK UNBOUND:                -0.333
REMARK SMILES C=C1C[C@]2(O)O[C@]3(C[C@H]2C(C)C)[C@@H](C)CC[C@@H]13
REMARK SMILES IDX 14 1 13 2 15 3 16 4 17 5 7 6 8 7 9 8 4 9 6 10 3 11 2 12 1 13
REMARK SMILES IDX 10 14 11 15 12 16 5 17
REMARK H PARENT 5 18
REMARK Flexibility Score: inf
ROOT
ATOM      1  C   UNL     1      45.337 -10.243  38.549  1.00  0.00     0.011 C 
ATOM      2  C   UNL     1      46.629 -10.768  39.187  1.00  0.00     0.019 C 
ATOM      3  C   UNL     1      47.910 -10.277  38.477  1.00  0.00     0.007 C 
ATOM      4  C   UNL     1      49.010 -10.202  39.556  1.00  0.00     0.011 C 
ATOM      5  C   UNL     1      48.351 -10.793  40.799  1.00  0.00     0.047 C 
ATOM      6  C   UNL     1      46.872 -10.414  40.664  1.00  0.00     0.081 C 
ATOM      7  C   UNL     1      46.590  -8.931  41.039  1.00  0.00     0.046 C 
ATOM      8  C   UNL     1      46.147  -9.013  42.500  1.00  0.00     0.054 C 
ATOM      9  C   UNL     1      46.379 -10.508  42.820  1.00  0.00     0.173 C 
ATOM     10  O   UNL     1      46.163 -11.197  41.595  1.00  0.00    -0.342 OA
ATOM     11  C   UNL     1      47.855 -10.725  43.308  1.00  0.00     0.096 C 
ATOM     12  C   UNL     1      48.840 -10.445  42.183  1.00  0.00    -0.066 C 
ATOM     13  C   UNL     1      50.116 -10.129  42.439  1.00  0.00     0.008 C 
ENDROOT
BRANCH   8  14
ATOM     14  C   UNL     1      44.692  -8.504  42.767  1.00  0.00    -0.009 C 
ATOM     15  C   UNL     1      44.694  -7.058  43.286  1.00  0.00     0.008 C 
ATOM     16  C   UNL     1      43.738  -8.634  41.564  1.00  0.00     0.008 C 
ENDBRANCH   8  14
BRANCH   9  17
ATOM     17  O   UNL     1      45.490 -10.970  43.805  1.00  0.00    -0.365 OA
ATOM     18  H   UNL     1      45.022 -10.175  44.171  1.00  0.00     0.214 HD
ENDBRANCH   9  17
TORSDOF 2
ENDMDL
MODEL 6
REMARK VINA RESULT:    -4.773      1.920      4.505
REMARK INTER + INTRA:          -5.524
REMARK INTER:                  -5.355
REMARK INTRA:                  -0.169
REMARK UNBOUND:                -0.333
REMARK SMILES C=C1C[C@]2(O)O[C@]3(C[C@H]2C(C)C)[C@@H](C)CC[C@@H]13
REMARK SMILES IDX 14 1 13 2 15 3 16 4 17 5 7 6 8 7 9 8 4 9 6 10 3 11 2 12 1 13
REMARK SMILES IDX 10 14 11 15 12 16 5 17
REMARK H PARENT 5 18
REMARK Flexibility Score: inf
ROOT
ATOM      1  C   UNL     1      41.870  -8.332  38.901  1.00  0.00     0.011 C 
ATOM      2  C   UNL     1      42.109  -7.664  40.261  1.00  0.00     0.019 C 
ATOM      3  C   UNL     1      41.237  -8.247  41.395  1.00  0.00     0.007 C 
ATOM      4  C   UNL     1      42.048  -8.089  42.698  1.00  0.00     0.011 C 
ATOM      5  C   UNL     1      43.278  -7.293  42.275  1.00  0.00     0.047 C 
ATOM      6  C   UNL     1      43.537  -7.728  40.828  1.00  0.00     0.081 C 
ATOM      7  C   UNL     1      44.222  -9.121  40.728  1.00  0.00     0.046 C 
ATOM      8  C   UNL     1      45.706  -8.778  40.595  1.00  0.00     0.054 C 
ATOM      9  C   UNL     1      45.697  -7.244  40.790  1.00  0.00     0.173 C 
ATOM     10  O   UNL     1      44.445  -6.803  40.279  1.00  0.00    -0.342 OA
ATOM     11  C   UNL     1      45.807  -6.901  42.318  1.00  0.00     0.096 C 
ATOM     12  C   UNL     1      44.564  -7.362  43.063  1.00  0.00    -0.066 C 
ATOM     13  C   UNL     1      44.589  -7.591  44.382  1.00  0.00     0.008 C 
ENDROOT
BRANCH   8  14
ATOM     14  C   UNL     1      46.367  -9.265  39.263  1.00  0.00    -0.009 C 
ATOM     15  C   UNL     1      47.827  -9.685  39.488  1.00  0.00     0.008 C 
ATOM     16  C   UNL     1      45.598 -10.387  38.539  1.00  0.00     0.008 C 
ENDBRANCH   8  14
BRANCH   9  17
ATOM     17  O   UNL     1      46.753  -6.629  40.097  1.00  0.00    -0.365 OA
ATOM     18  H   UNL     1      47.102  -5.905  40.680  1.00  0.00     0.214 HD
ENDBRANCH   9  17
TORSDOF 2
ENDMDL
MODEL 7
REMARK VINA RESULT:    -4.708      1.558      4.882
REMARK INTER + INTRA:          -5.454
REMARK INTER:                  -5.172
REMARK INTRA:                  -0.282
REMARK UNBOUND:                -0.333
REMARK SMILES C=C1C[C@]2(O)O[C@]3(C[C@H]2C(C)C)[C@@H](C)CC[C@@H]13
REMARK SMILES IDX 14 1 13 2 15 3 16 4 17 5 7 6 8 7 9 8 4 9 6 10 3 11 2 12 1 13
REMARK SMILES IDX 10 14 11 15 12 16 5 17
REMARK H PARENT 5 18
REMARK Flexibility Score: inf
ROOT
ATOM      1  C   UNL     1      44.489  -7.992  40.893  1.00  0.00     0.011 C 
ATOM      2  C   UNL     1      45.696  -8.001  41.840  1.00  0.00     0.019 C 
ATOM      3  C   UNL     1      45.306  -8.113  43.331  1.00  0.00     0.007 C 
ATOM      4  C   UNL     1      46.466  -8.850  44.033  1.00  0.00     0.011 C 
ATOM      5  C   UNL     1      47.527  -8.993  42.947  1.00  0.00     0.047 C 
ATOM      6  C   UNL     1      46.727  -9.125  41.646  1.00  0.00     0.081 C 
ATOM      7  C   UNL     1      46.122 -10.545  41.449  1.00  0.00     0.046 C 
ATOM      8  C   UNL     1      47.149 -11.248  40.560  1.00  0.00     0.054 C 
ATOM      9  C   UNL     1      48.281 -10.196  40.489  1.00  0.00     0.173 C 
ATOM     10  O   UNL     1      47.634  -8.933  40.587  1.00  0.00    -0.342 OA
ATOM     11  C   UNL     1      49.266 -10.392  41.695  1.00  0.00     0.096 C 
ATOM     12  C   UNL     1      48.572 -10.080  43.012  1.00  0.00    -0.066 C 
ATOM     13  C   UNL     1      49.024 -10.577  44.171  1.00  0.00     0.008 C 
ENDROOT
BRANCH   8  14
ATOM     14  C   UNL     1      46.596 -11.711  39.171  1.00  0.00    -0.009 C 
ATOM     15  C   UNL     1      45.987 -13.118  39.256  1.00  0.00     0.008 C 
ATOM     16  C   UNL     1      45.593 -10.736  38.525  1.00  0.00     0.008 C 
ENDBRANCH   8  14
BRANCH   9  17
ATOM     17  O   UNL     1      48.996 -10.288  39.283  1.00  0.00    -0.365 OA
ATOM     18  H   UNL     1      49.938 -10.049  39.485  1.00  0.00     0.214 HD
ENDBRANCH   9  17
TORSDOF 2
ENDMDL
MODEL 8
REMARK VINA RESULT:    -4.696      2.785      3.938
REMARK INTER + INTRA:          -5.441
REMARK INTER:                  -5.106
REMARK INTRA:                  -0.334
REMARK UNBOUND:                -0.333
REMARK SMILES C=C1C[C@]2(O)O[C@]3(C[C@H]2C(C)C)[C@@H](C)CC[C@@H]13
REMARK SMILES IDX 14 1 13 2 15 3 16 4 17 5 7 6 8 7 9 8 4 9 6 10 3 11 2 12 1 13
REMARK SMILES IDX 10 14 11 15 12 16 5 17
REMARK H PARENT 5 18
REMARK Flexibility Score: inf
ROOT
ATOM      1  C   UNL     1      46.114  -7.880  40.773  1.00  0.00     0.011 C 
ATOM      2  C   UNL     1      44.742  -7.800  40.092  1.00  0.00     0.019 C 
ATOM      3  C   UNL     1      44.169  -9.179  39.699  1.00  0.00     0.007 C 
ATOM      4  C   UNL     1      42.633  -9.052  39.767  1.00  0.00     0.011 C 
ATOM      5  C   UNL     1      42.395  -7.572  40.050  1.00  0.00     0.047 C 
ATOM      6  C   UNL     1      43.603  -7.145  40.891  1.00  0.00     0.081 C 
ATOM      7  C   UNL     1      43.498  -7.597  42.376  1.00  0.00     0.046 C 
ATOM      8  C   UNL     1      42.926  -6.367  43.081  1.00  0.00     0.054 C 
ATOM      9  C   UNL     1      42.633  -5.424  41.891  1.00  0.00     0.173 C 
ATOM     10  O   UNL     1      43.613  -5.737  40.908  1.00  0.00    -0.342 OA
ATOM     11  C   UNL     1      41.196  -5.707  41.328  1.00  0.00     0.096 C 
ATOM     12  C   UNL     1      41.125  -7.095  40.709  1.00  0.00    -0.066 C 
ATOM     13  C   UNL     1      39.956  -7.734  40.569  1.00  0.00     0.008 C 
ENDROOT
BRANCH   8  14
ATOM     14  C   UNL     1      43.855  -5.761  44.185  1.00  0.00    -0.009 C 
ATOM     15  C   UNL     1      43.324  -6.071  45.592  1.00  0.00     0.008 C 
ATOM     16  C   UNL     1      45.335  -6.175  44.072  1.00  0.00     0.008 C 
ENDBRANCH   8  14
BRANCH   9  17
ATOM     17  O   UNL     1      42.729  -4.073  42.265  1.00  0.00    -0.365 OA
ATOM     18  H   UNL     1      43.388  -3.648  41.656  1.00  0.00     0.214 HD
ENDBRANCH   9  17
TORSDOF 2
ENDMDL
MODEL 9
REMARK VINA RESULT:    -4.652      1.892      3.737
REMARK INTER + INTRA:          -5.393
REMARK INTER:                  -5.133
REMARK INTRA:                  -0.260
REMARK UNBOUND:                -0.333
REMARK SMILES C=C1C[C@]2(O)O[C@]3(C[C@H]2C(C)C)[C@@H](C)CC[C@@H]13
REMARK SMILES IDX 14 1 13 2 15 3 16 4 17 5 7 6 8 7 9 8 4 9 6 10 3 11 2 12 1 13
REMARK SMILES IDX 10 14 11 15 12 16 5 17
REMARK H PARENT 5 18
REMARK Flexibility Score: inf
ROOT
ATOM      1  C   UNL     1      47.229  -9.886  38.133  1.00  0.00     0.011 C 
ATOM      2  C   UNL     1      47.237 -10.661  39.457  1.00  0.00     0.019 C 
ATOM      3  C   UNL     1      48.634 -10.750  40.109  1.00  0.00     0.007 C 
ATOM      4  C   UNL     1      48.404 -10.822  41.633  1.00  0.00     0.011 C 
ATOM      5  C   UNL     1      46.888 -10.920  41.775  1.00  0.00     0.047 C 
ATOM      6  C   UNL     1      46.340 -10.124  40.585  1.00  0.00     0.081 C 
ATOM      7  C   UNL     1      46.409  -8.585  40.803  1.00  0.00     0.046 C 
ATOM      8  C   UNL     1      45.013  -8.237  41.319  1.00  0.00     0.054 C 
ATOM      9  C   UNL     1      44.374  -9.636  41.477  1.00  0.00     0.173 C 
ATOM     10  O   UNL     1      44.975 -10.444  40.472  1.00  0.00    -0.342 OA
ATOM     11  C   UNL     1      44.700 -10.214  42.899  1.00  0.00     0.096 C 
ATOM     12  C   UNL     1      46.190 -10.485  43.040  1.00  0.00    -0.066 C 
ATOM     13  C   UNL     1      46.775 -10.548  44.244  1.00  0.00     0.008 C 
ENDROOT
BRANCH   8  14
ATOM     14  C   UNL     1      44.211  -7.250  40.407  1.00  0.00    -0.009 C 
ATOM     15  C   UNL     1      43.497  -6.177  41.242  1.00  0.00     0.008 C 
ATOM     16  C   UNL     1      45.045  -6.588  39.293  1.00  0.00     0.008 C 
ENDBRANCH   8  14
BRANCH   9  17
ATOM     17  O   UNL     1      42.980  -9.591  41.301  1.00  0.00    -0.365 OA
ATOM     18  H   UNL     1      42.577  -9.483  42.201  1.00  0.00     0.214 HD
ENDBRANCH   9  17
TORSDOF 2
ENDMDL
