MODEL 1
REMARK VINA RESULT:    -3.063      0.000      0.000
REMARK INTER + INTRA:          -8.926
REMARK INTER:                  -5.927
REMARK INTRA:                  -2.999
REMARK UNBOUND:                -2.999
REMARK SMILES CCCCCCCCCCCCCCCCCC(=O)[O-]
REMARK SMILES IDX 10 1 11 2 12 3 13 4 14 5 15 6 16 7 17 8 18 9 19 10 20 11
REMARK SMILES IDX 9 12 8 13 7 14 6 15 5 16 4 17 3 18 2 19 1 20
REMARK H PARENT
REMARK Flexibility Score: inf
ROOT
ATOM      1  C   UNL     1     -19.679  29.730  20.022  1.00  0.00     0.000 C 
ENDROOT
BRANCH   1   2
ATOM      2  C   UNL     1     -20.426  28.628  19.248  1.00  0.00     0.000 C 
BRANCH   2   3
ATOM      3  C   UNL     1     -21.961  28.754  19.261  1.00  0.00     0.000 C 
BRANCH   3   4
ATOM      4  C   UNL     1     -22.700  27.676  20.081  1.00  0.00     0.000 C 
BRANCH   4   5
ATOM      5  C   UNL     1     -22.782  27.951  21.593  1.00  0.00     0.000 C 
BRANCH   5   6
ATOM      6  C   UNL     1     -21.886  27.013  22.419  1.00  0.00     0.000 C 
BRANCH   6   7
ATOM      7  C   UNL     1     -21.383  25.810  21.608  1.00  0.00     0.006 C 
BRANCH   7   8
ATOM      8  C   UNL     1     -19.852  25.703  21.598  1.00  0.00     0.053 C 
BRANCH   8   9
ATOM      9  C   UNL     1     -19.384  25.037  20.343  1.00  0.00     0.041 C 
ATOM     10  O   UNL     1     -20.057  25.139  19.283  1.00  0.00    -0.550 OA
ATOM     11  O   UNL     1     -18.177  24.350  20.328  1.00  0.00    -0.550 OA
ENDBRANCH   8   9
ENDBRANCH   7   8
ENDBRANCH   6   7
ENDBRANCH   5   6
ENDBRANCH   4   5
ENDBRANCH   3   4
ENDBRANCH   2   3
ENDBRANCH   1   2
BRANCH   1  12
ATOM     12  C   UNL     1     -19.113  29.261  21.379  1.00  0.00     0.000 C 
BRANCH  12  13
ATOM     13  C   UNL     1     -19.657  30.083  22.562  1.00  0.00    -0.000 C 
BRANCH  13  14
ATOM     14  C   UNL     1     -20.733  31.099  22.120  1.00  0.00    -0.000 C 
BRANCH  14  15
ATOM     15  C   UNL     1     -21.886  31.252  23.127  1.00  0.00    -0.000 C 
BRANCH  15  16
ATOM     16  C   UNL     1     -23.212  31.641  22.463  1.00  0.00    -0.000 C 
BRANCH  16  17
ATOM     17  C   UNL     1     -23.041  31.813  20.946  1.00  0.00    -0.000 C 
BRANCH  17  18
ATOM     18  C   UNL     1     -23.739  33.072  20.402  1.00  0.00    -0.000 C 
BRANCH  18  19
ATOM     19  C   UNL     1     -23.202  34.402  20.962  1.00  0.00    -0.003 C 
ATOM     20  C   UNL     1     -21.949  34.891  20.236  1.00  0.00     0.004 C 
ENDBRANCH  18  19
ENDBRANCH  17  18
ENDBRANCH  16  17
ENDBRANCH  15  16
ENDBRANCH  14  15
ENDBRANCH  13  14
ENDBRANCH  12  13
ENDBRANCH   1  12
TORSDOF 16
ENDMDL
MODEL 2
REMARK VINA RESULT:    -3.018      3.691      6.805
REMARK INTER + INTRA:          -8.841
REMARK INTER:                  -6.037
REMARK INTRA:                  -2.804
REMARK UNBOUND:                -2.999
REMARK SMILES CCCCCCCCCCCCCCCCCC(=O)[O-]
REMARK SMILES IDX 10 1 11 2 12 3 13 4 14 5 15 6 16 7 17 8 18 9 19 10 20 11
REMARK SMILES IDX 9 12 8 13 7 14 6 15 5 16 4 17 3 18 2 19 1 20
REMARK H PARENT
REMARK Flexibility Score: inf
ROOT
ATOM      1  C   UNL     1     -18.586  28.791  21.489  1.00  0.00     0.000 C 
ENDROOT
BRANCH   1   2
ATOM      2  C   UNL     1     -18.177  29.414  22.837  1.00  0.00     0.000 C 
BRANCH   2   3
ATOM      3  C   UNL     1     -19.225  30.355  23.461  1.00  0.00     0.000 C 
BRANCH   3   4
ATOM      4  C   UNL     1     -18.743  31.798  23.710  1.00  0.00     0.000 C 
BRANCH   4   5
ATOM      5  C   UNL     1     -19.770  32.895  23.374  1.00  0.00     0.000 C 
BRANCH   5   6
ATOM      6  C   UNL     1     -21.142  32.325  22.978  1.00  0.00     0.000 C 
BRANCH   6   7
ATOM      7  C   UNL     1     -22.063  33.383  22.350  1.00  0.00     0.006 C 
BRANCH   7   8
ATOM      8  C   UNL     1     -21.327  34.692  22.032  1.00  0.00     0.053 C 
BRANCH   8   9
ATOM      9  C   UNL     1     -21.987  35.397  20.890  1.00  0.00     0.041 C 
ATOM     10  O   UNL     1     -22.619  36.469  21.086  1.00  0.00    -0.550 OA
ATOM     11  O   UNL     1     -21.858  34.901  19.598  1.00  0.00    -0.550 OA
ENDBRANCH   8   9
ENDBRANCH   7   8
ENDBRANCH   6   7
ENDBRANCH   5   6
ENDBRANCH   4   5
ENDBRANCH   3   4
ENDBRANCH   2   3
ENDBRANCH   1   2
BRANCH   1  12
ATOM     12  C   UNL     1     -19.625  29.623  20.709  1.00  0.00     0.000 C 
BRANCH  12  13
ATOM     13  C   UNL     1     -20.271  28.834  19.556  1.00  0.00    -0.000 C 
BRANCH  13  14
ATOM     14  C   UNL     1     -21.814  28.889  19.605  1.00  0.00    -0.000 C 
BRANCH  14  15
ATOM     15  C   UNL     1     -22.360  29.965  20.560  1.00  0.00    -0.000 C 
BRANCH  15  16
ATOM     16  C   UNL     1     -23.305  29.394  21.625  1.00  0.00    -0.000 C 
BRANCH  16  17
ATOM     17  C   UNL     1     -22.905  27.962  22.008  1.00  0.00    -0.000 C 
BRANCH  17  18
ATOM     18  C   UNL     1     -22.029  27.901  23.272  1.00  0.00    -0.000 C 
BRANCH  18  19
ATOM     19  C   UNL     1     -20.983  26.771  23.280  1.00  0.00    -0.003 C 
ATOM     20  C   UNL     1     -20.970  25.961  21.984  1.00  0.00     0.004 C 
ENDBRANCH  18  19
ENDBRANCH  17  18
ENDBRANCH  16  17
ENDBRANCH  15  16
ENDBRANCH  14  15
ENDBRANCH  13  14
ENDBRANCH  12  13
ENDBRANCH   1  12
TORSDOF 16
ENDMDL
MODEL 3
REMARK VINA RESULT:    -3.015      6.342      8.364
REMARK INTER + INTRA:          -8.834
REMARK INTER:                  -7.905
REMARK INTRA:                  -0.929
REMARK UNBOUND:                -2.999
REMARK SMILES CCCCCCCCCCCCCCCCCC(=O)[O-]
REMARK SMILES IDX 10 1 11 2 12 3 13 4 14 5 15 6 16 7 17 8 18 9 19 10 20 11
REMARK SMILES IDX 9 12 8 13 7 14 6 15 5 16 4 17 3 18 2 19 1 20
REMARK H PARENT
REMARK Flexibility Score: inf
ROOT
ATOM      1  C   UNL     1     -18.815  23.274  16.973  1.00  0.00     0.000 C 
ENDROOT
BRANCH   1   2
ATOM      2  C   UNL     1     -19.910  23.600  15.940  1.00  0.00     0.000 C 
BRANCH   2   3
ATOM      3  C   UNL     1     -19.412  24.329  14.677  1.00  0.00     0.000 C 
BRANCH   3   4
ATOM      4  C   UNL     1     -20.060  23.867  13.356  1.00  0.00     0.000 C 
BRANCH   4   5
ATOM      5  C   UNL     1     -21.333  23.016  13.517  1.00  0.00     0.000 C 
BRANCH   5   6
ATOM      6  C   UNL     1     -22.549  23.621  12.797  1.00  0.00     0.000 C 
BRANCH   6   7
ATOM      7  C   UNL     1     -22.158  24.419  11.544  1.00  0.00     0.006 C 
BRANCH   7   8
ATOM      8  C   UNL     1     -23.331  24.603  10.571  1.00  0.00     0.053 C 
BRANCH   8   9
ATOM      9  C   UNL     1     -22.845  24.573   9.157  1.00  0.00     0.041 C 
ATOM     10  O   UNL     1     -23.660  24.407   8.210  1.00  0.00    -0.550 OA
ATOM     11  O   UNL     1     -21.501  24.783   8.877  1.00  0.00    -0.550 OA
ENDBRANCH   8   9
ENDBRANCH   7   8
ENDBRANCH   6   7
ENDBRANCH   5   6
ENDBRANCH   4   5
ENDBRANCH   3   4
ENDBRANCH   2   3
ENDBRANCH   1   2
BRANCH   1  12
ATOM     12  C   UNL     1     -19.235  23.550  18.432  1.00  0.00     0.000 C 
BRANCH  12  13
ATOM     13  C   UNL     1     -20.700  24.008  18.550  1.00  0.00    -0.000 C 
BRANCH  13  14
ATOM     14  C   UNL     1     -20.919  24.961  19.746  1.00  0.00    -0.000 C 
BRANCH  14  15
ATOM     15  C   UNL     1     -20.210  26.317  19.589  1.00  0.00    -0.000 C 
BRANCH  15  16
ATOM     16  C   UNL     1     -21.090  27.503  20.005  1.00  0.00    -0.000 C 
BRANCH  16  17
ATOM     17  C   UNL     1     -20.664  28.788  19.278  1.00  0.00    -0.000 C 
BRANCH  17  18
ATOM     18  C   UNL     1     -19.585  29.578  20.040  1.00  0.00    -0.000 C 
BRANCH  18  19
ATOM     19  C   UNL     1     -19.527  29.297  21.553  1.00  0.00    -0.003 C 
ATOM     20  C   UNL     1     -18.121  28.954  22.043  1.00  0.00     0.004 C 
ENDBRANCH  18  19
ENDBRANCH  17  18
ENDBRANCH  16  17
ENDBRANCH  15  16
ENDBRANCH  14  15
ENDBRANCH  13  14
ENDBRANCH  12  13
ENDBRANCH   1  12
TORSDOF 16
ENDMDL
MODEL 4
REMARK VINA RESULT:    -3.011      4.806      7.908
REMARK INTER + INTRA:          -8.827
REMARK INTER:                  -6.572
REMARK INTRA:                  -2.255
REMARK UNBOUND:                -2.999
REMARK SMILES CCCCCCCCCCCCCCCCCC(=O)[O-]
REMARK SMILES IDX 10 1 11 2 12 3 13 4 14 5 15 6 16 7 17 8 18 9 19 10 20 11
REMARK SMILES IDX 9 12 8 13 7 14 6 15 5 16 4 17 3 18 2 19 1 20
REMARK H PARENT
REMARK Flexibility Score: inf
ROOT
ATOM      1  C   UNL     1     -21.645  31.626  21.641  1.00  0.00     0.000 C 
ENDROOT
BRANCH   1   2
ATOM      2  C   UNL     1     -23.140  31.383  21.362  1.00  0.00     0.000 C 
BRANCH   2   3
ATOM      3  C   UNL     1     -23.771  32.338  20.332  1.00  0.00     0.000 C 
BRANCH   3   4
ATOM      4  C   UNL     1     -23.755  33.829  20.724  1.00  0.00     0.000 C 
BRANCH   4   5
ATOM      5  C   UNL     1     -22.642  34.664  20.064  1.00  0.00     0.000 C 
BRANCH   5   6
ATOM      6  C   UNL     1     -21.660  35.261  21.085  1.00  0.00     0.000 C 
BRANCH   6   7
ATOM      7  C   UNL     1     -22.301  35.483  22.463  1.00  0.00     0.006 C 
BRANCH   7   8
ATOM      8  C   UNL     1     -21.989  36.868  23.045  1.00  0.00     0.053 C 
BRANCH   8   9
ATOM      9  C   UNL     1     -22.918  37.894  22.478  1.00  0.00     0.041 C 
ATOM     10  O   UNL     1     -23.943  38.245  23.122  1.00  0.00    -0.550 OA
ATOM     11  O   UNL     1     -22.626  38.503  21.264  1.00  0.00    -0.550 OA
ENDBRANCH   8   9
ENDBRANCH   7   8
ENDBRANCH   6   7
ENDBRANCH   5   6
ENDBRANCH   4   5
ENDBRANCH   3   4
ENDBRANCH   2   3
ENDBRANCH   1   2
BRANCH   1  12
ATOM     12  C   UNL     1     -21.309  31.784  23.139  1.00  0.00     0.000 C 
BRANCH  12  13
ATOM     13  C   UNL     1     -20.076  32.675  23.378  1.00  0.00    -0.000 C 
BRANCH  13  14
ATOM     14  C   UNL     1     -18.768  31.855  23.441  1.00  0.00    -0.000 C 
BRANCH  14  15
ATOM     15  C   UNL     1     -18.991  30.367  23.758  1.00  0.00    -0.000 C 
BRANCH  15  16
ATOM     16  C   UNL     1     -18.132  29.436  22.891  1.00  0.00    -0.000 C 
BRANCH  16  17
ATOM     17  C   UNL     1     -18.803  29.170  21.535  1.00  0.00    -0.000 C 
BRANCH  17  18
ATOM     18  C   UNL     1     -19.999  28.207  21.637  1.00  0.00    -0.000 C 
BRANCH  18  19
ATOM     19  C   UNL     1     -20.923  28.192  20.405  1.00  0.00    -0.003 C 
ATOM     20  C   UNL     1     -20.337  28.944  19.210  1.00  0.00     0.004 C 
ENDBRANCH  18  19
ENDBRANCH  17  18
ENDBRANCH  16  17
ENDBRANCH  15  16
ENDBRANCH  14  15
ENDBRANCH  13  14
ENDBRANCH  12  13
ENDBRANCH   1  12
TORSDOF 16
ENDMDL
MODEL 5
REMARK VINA RESULT:    -3.007      1.371      2.589
REMARK INTER + INTRA:          -8.820
REMARK INTER:                  -6.703
REMARK INTRA:                  -2.116
REMARK UNBOUND:                -2.999
REMARK SMILES CCCCCCCCCCCCCCCCCC(=O)[O-]
REMARK SMILES IDX 10 1 11 2 12 3 13 4 14 5 15 6 16 7 17 8 18 9 19 10 20 11
REMARK SMILES IDX 9 12 8 13 7 14 6 15 5 16 4 17 3 18 2 19 1 20
REMARK H PARENT
REMARK Flexibility Score: inf
ROOT
ATOM      1  C   UNL     1     -17.567  29.637  23.370  1.00  0.00     0.000 C 
ENDROOT
BRANCH   1   2
ATOM      2  C   UNL     1     -17.986  28.770  22.168  1.00  0.00     0.000 C 
BRANCH   2   3
ATOM      3  C   UNL     1     -19.441  28.969  21.703  1.00  0.00     0.000 C 
BRANCH   3   4
ATOM      4  C   UNL     1     -19.603  29.676  20.342  1.00  0.00     0.000 C 
BRANCH   4   5
ATOM      5  C   UNL     1     -20.422  28.898  19.297  1.00  0.00     0.000 C 
BRANCH   5   6
ATOM      6  C   UNL     1     -21.934  28.931  19.579  1.00  0.00     0.000 C 
BRANCH   6   7
ATOM      7  C   UNL     1     -22.577  27.537  19.521  1.00  0.00     0.006 C 
BRANCH   7   8
ATOM      8  C   UNL     1     -21.917  26.541  20.485  1.00  0.00     0.053 C 
BRANCH   8   9
ATOM      9  C   UNL     1     -21.401  25.354  19.737  1.00  0.00     0.041 C 
ATOM     10  O   UNL     1     -22.180  24.415  19.422  1.00  0.00    -0.550 OA
ATOM     11  O   UNL     1     -20.071  25.307  19.337  1.00  0.00    -0.550 OA
ENDBRANCH   8   9
ENDBRANCH   7   8
ENDBRANCH   6   7
ENDBRANCH   5   6
ENDBRANCH   4   5
ENDBRANCH   3   4
ENDBRANCH   2   3
ENDBRANCH   1   2
BRANCH   1  12
ATOM     12  C   UNL     1     -18.733  30.418  24.011  1.00  0.00     0.000 C 
BRANCH  12  13
ATOM     13  C   UNL     1     -18.680  31.924  23.696  1.00  0.00    -0.000 C 
BRANCH  13  14
ATOM     14  C   UNL     1     -20.088  32.530  23.506  1.00  0.00    -0.000 C 
BRANCH  14  15
ATOM     15  C   UNL     1     -21.226  31.512  23.698  1.00  0.00    -0.000 C 
BRANCH  15  16
ATOM     16  C   UNL     1     -22.208  31.484  22.520  1.00  0.00    -0.000 C 
BRANCH  16  17
ATOM     17  C   UNL     1     -21.863  32.569  21.488  1.00  0.00    -0.000 C 
BRANCH  17  18
ATOM     18  C   UNL     1     -23.100  33.105  20.746  1.00  0.00    -0.000 C 
BRANCH  18  19
ATOM     19  C   UNL     1     -22.928  34.506  20.132  1.00  0.00    -0.003 C 
ATOM     20  C   UNL     1     -21.766  35.288  20.745  1.00  0.00     0.004 C 
ENDBRANCH  18  19
ENDBRANCH  17  18
ENDBRANCH  16  17
ENDBRANCH  15  16
ENDBRANCH  14  15
ENDBRANCH  13  14
ENDBRANCH  12  13
ENDBRANCH   1  12
TORSDOF 16
ENDMDL
MODEL 6
REMARK VINA RESULT:    -2.952      3.428      6.392
REMARK INTER + INTRA:          -8.712
REMARK INTER:                  -5.421
REMARK INTRA:                  -3.291
REMARK UNBOUND:                -2.999
REMARK SMILES CCCCCCCCCCCCCCCCCC(=O)[O-]
REMARK SMILES IDX 10 1 11 2 12 3 13 4 14 5 15 6 16 7 17 8 18 9 19 10 20 11
REMARK SMILES IDX 9 12 8 13 7 14 6 15 5 16 4 17 3 18 2 19 1 20
REMARK H PARENT
REMARK Flexibility Score: inf
ROOT
ATOM      1  C   UNL     1     -19.971  29.658  20.005  1.00  0.00     0.000 C 
ENDROOT
BRANCH   1   2
ATOM      2  C   UNL     1     -20.520  28.398  19.310  1.00  0.00     0.000 C 
BRANCH   2   3
ATOM      3  C   UNL     1     -22.043  28.203  19.432  1.00  0.00     0.000 C 
BRANCH   3   4
ATOM      4  C   UNL     1     -22.838  29.470  19.806  1.00  0.00     0.000 C 
BRANCH   4   5
ATOM      5  C   UNL     1     -23.476  29.449  21.207  1.00  0.00     0.000 C 
BRANCH   5   6
ATOM      6  C   UNL     1     -23.228  30.746  21.995  1.00  0.00     0.000 C 
BRANCH   6   7
ATOM      7  C   UNL     1     -22.795  31.912  21.093  1.00  0.00     0.006 C 
BRANCH   7   8
ATOM      8  C   UNL     1     -21.947  32.952  21.838  1.00  0.00     0.053 C 
BRANCH   8   9
ATOM      9  C   UNL     1     -21.990  34.266  21.126  1.00  0.00     0.041 C 
ATOM     10  O   UNL     1     -21.263  35.220  21.512  1.00  0.00    -0.550 OA
ATOM     11  O   UNL     1     -22.790  34.424  20.001  1.00  0.00    -0.550 OA
ENDBRANCH   8   9
ENDBRANCH   7   8
ENDBRANCH   6   7
ENDBRANCH   5   6
ENDBRANCH   4   5
ENDBRANCH   3   4
ENDBRANCH   2   3
ENDBRANCH   1   2
BRANCH   1  12
ATOM     12  C   UNL     1     -19.132  29.358  21.265  1.00  0.00     0.000 C 
BRANCH  12  13
ATOM     13  C   UNL     1     -19.618  30.141  22.499  1.00  0.00    -0.000 C 
BRANCH  13  14
ATOM     14  C   UNL     1     -20.280  29.221  23.549  1.00  0.00    -0.000 C 
BRANCH  14  15
ATOM     15  C   UNL     1     -20.078  27.722  23.268  1.00  0.00    -0.000 C 
BRANCH  15  16
ATOM     16  C   UNL     1     -21.385  26.996  22.928  1.00  0.00    -0.000 C 
BRANCH  16  17
ATOM     17  C   UNL     1     -21.118  25.753  22.065  1.00  0.00    -0.000 C 
BRANCH  17  18
ATOM     18  C   UNL     1     -19.621  25.413  21.951  1.00  0.00    -0.000 C 
BRANCH  18  19
ATOM     19  C   UNL     1     -19.104  25.245  20.511  1.00  0.00    -0.003 C 
ATOM     20  C   UNL     1     -20.169  24.709  19.553  1.00  0.00     0.004 C 
ENDBRANCH  18  19
ENDBRANCH  17  18
ENDBRANCH  16  17
ENDBRANCH  15  16
ENDBRANCH  14  15
ENDBRANCH  13  14
ENDBRANCH  12  13
ENDBRANCH   1  12
TORSDOF 16
ENDMDL
MODEL 7
REMARK VINA RESULT:    -2.939      2.009      4.123
REMARK INTER + INTRA:          -8.687
REMARK INTER:                  -6.687
REMARK INTRA:                  -2.001
REMARK UNBOUND:                -2.999
REMARK SMILES CCCCCCCCCCCCCCCCCC(=O)[O-]
REMARK SMILES IDX 10 1 11 2 12 3 13 4 14 5 15 6 16 7 17 8 18 9 19 10 20 11
REMARK SMILES IDX 9 12 8 13 7 14 6 15 5 16 4 17 3 18 2 19 1 20
REMARK H PARENT
REMARK Flexibility Score: inf
ROOT
ATOM      1  C   UNL     1     -23.032  31.560  21.408  1.00  0.00     0.000 C 
ENDROOT
BRANCH   1   2
ATOM      2  C   UNL     1     -23.217  30.034  21.327  1.00  0.00     0.000 C 
BRANCH   2   3
ATOM      3  C   UNL     1     -23.566  29.497  19.926  1.00  0.00     0.000 C 
BRANCH   3   4
ATOM      4  C   UNL     1     -22.370  28.959  19.114  1.00  0.00     0.000 C 
BRANCH   4   5
ATOM      5  C   UNL     1     -21.261  28.295  19.951  1.00  0.00     0.000 C 
BRANCH   5   6
ATOM      6  C   UNL     1     -19.941  29.084  19.924  1.00  0.00     0.000 C 
BRANCH   6   7
ATOM      7  C   UNL     1     -19.513  29.567  21.318  1.00  0.00     0.006 C 
BRANCH   7   8
ATOM      8  C   UNL     1     -18.200  28.926  21.788  1.00  0.00     0.053 C 
BRANCH   8   9
ATOM      9  C   UNL     1     -18.465  27.595  22.415  1.00  0.00     0.041 C 
ATOM     10  O   UNL     1     -19.164  27.515  23.461  1.00  0.00    -0.550 OA
ATOM     11  O   UNL     1     -17.986  26.436  21.818  1.00  0.00    -0.550 OA
ENDBRANCH   8   9
ENDBRANCH   7   8
ENDBRANCH   6   7
ENDBRANCH   5   6
ENDBRANCH   4   5
ENDBRANCH   3   4
ENDBRANCH   2   3
ENDBRANCH   1   2
BRANCH   1  12
ATOM     12  C   UNL     1     -23.772  32.337  20.299  1.00  0.00     0.000 C 
BRANCH  12  13
ATOM     13  C   UNL     1     -23.903  33.838  20.613  1.00  0.00    -0.000 C 
BRANCH  13  14
ATOM     14  C   UNL     1     -22.665  34.640  20.152  1.00  0.00    -0.000 C 
BRANCH  14  15
ATOM     15  C   UNL     1     -22.107  35.584  21.231  1.00  0.00    -0.000 C 
BRANCH  15  16
ATOM     16  C   UNL     1     -22.453  35.134  22.656  1.00  0.00    -0.000 C 
BRANCH  16  17
ATOM     17  C   UNL     1     -21.181  34.890  23.481  1.00  0.00    -0.000 C 
BRANCH  17  18
ATOM     18  C   UNL     1     -21.017  33.420  23.909  1.00  0.00    -0.000 C 
BRANCH  18  19
ATOM     19  C   UNL     1     -19.899  32.655  23.176  1.00  0.00    -0.003 C 
ATOM     20  C   UNL     1     -18.532  32.815  23.841  1.00  0.00     0.004 C 
ENDBRANCH  18  19
ENDBRANCH  17  18
ENDBRANCH  16  17
ENDBRANCH  15  16
ENDBRANCH  14  15
ENDBRANCH  13  14
ENDBRANCH  12  13
ENDBRANCH   1  12
TORSDOF 16
ENDMDL
MODEL 8
REMARK VINA RESULT:    -2.918      3.467      6.503
REMARK INTER + INTRA:          -8.647
REMARK INTER:                  -6.579
REMARK INTRA:                  -2.069
REMARK UNBOUND:                -2.999
REMARK SMILES CCCCCCCCCCCCCCCCCC(=O)[O-]
REMARK SMILES IDX 10 1 11 2 12 3 13 4 14 5 15 6 16 7 17 8 18 9 19 10 20 11
REMARK SMILES IDX 9 12 8 13 7 14 6 15 5 16 4 17 3 18 2 19 1 20
REMARK H PARENT
REMARK Flexibility Score: inf
ROOT
ATOM      1  C   UNL     1     -20.356  28.558  19.296  1.00  0.00     0.000 C 
ENDROOT
BRANCH   1   2
ATOM      2  C   UNL     1     -20.903  27.316  20.025  1.00  0.00     0.000 C 
BRANCH   2   3
ATOM      3  C   UNL     1     -20.192  25.995  19.677  1.00  0.00     0.000 C 
BRANCH   3   4
ATOM      4  C   UNL     1     -21.073  24.732  19.767  1.00  0.00     0.000 C 
BRANCH   4   5
ATOM      5  C   UNL     1     -20.635  23.566  18.864  1.00  0.00     0.000 C 
BRANCH   5   6
ATOM      6  C   UNL     1     -19.411  23.909  17.998  1.00  0.00     0.000 C 
BRANCH   6   7
ATOM      7  C   UNL     1     -19.363  23.099  16.694  1.00  0.00     0.006 C 
BRANCH   7   8
ATOM      8  C   UNL     1     -20.659  23.213  15.880  1.00  0.00     0.053 C 
BRANCH   8   9
ATOM      9  C   UNL     1     -20.394  23.881  14.568  1.00  0.00     0.041 C 
ATOM     10  O   UNL     1     -19.368  24.597  14.417  1.00  0.00    -0.550 OA
ATOM     11  O   UNL     1     -21.249  23.671  13.494  1.00  0.00    -0.550 OA
ENDBRANCH   8   9
ENDBRANCH   7   8
ENDBRANCH   6   7
ENDBRANCH   5   6
ENDBRANCH   4   5
ENDBRANCH   3   4
ENDBRANCH   2   3
ENDBRANCH   1   2
BRANCH   1  12
ATOM     12  C   UNL     1     -19.795  29.638  20.244  1.00  0.00     0.000 C 
BRANCH  12  13
ATOM     13  C   UNL     1     -19.588  29.118  21.678  1.00  0.00    -0.000 C 
BRANCH  13  14
ATOM     14  C   UNL     1     -18.098  29.112  22.086  1.00  0.00    -0.000 C 
BRANCH  14  15
ATOM     15  C   UNL     1     -17.701  27.900  22.946  1.00  0.00    -0.000 C 
BRANCH  15  16
ATOM     16  C   UNL     1     -18.795  26.826  23.008  1.00  0.00    -0.000 C 
BRANCH  16  17
ATOM     17  C   UNL     1     -18.197  25.448  23.327  1.00  0.00    -0.000 C 
BRANCH  17  18
ATOM     18  C   UNL     1     -16.924  25.144  22.517  1.00  0.00    -0.000 C 
BRANCH  18  19
ATOM     19  C   UNL     1     -17.175  24.541  21.122  1.00  0.00    -0.003 C 
ATOM     20  C   UNL     1     -17.758  23.129  21.179  1.00  0.00     0.004 C 
ENDBRANCH  18  19
ENDBRANCH  17  18
ENDBRANCH  16  17
ENDBRANCH  15  16
ENDBRANCH  14  15
ENDBRANCH  13  14
ENDBRANCH  12  13
ENDBRANCH   1  12
TORSDOF 16
ENDMDL
MODEL 9
REMARK VINA RESULT:    -2.916      1.417      2.716
REMARK INTER + INTRA:          -8.642
REMARK INTER:                  -6.151
REMARK INTRA:                  -2.491
REMARK UNBOUND:                -2.999
REMARK SMILES CCCCCCCCCCCCCCCCCC(=O)[O-]
REMARK SMILES IDX 10 1 11 2 12 3 13 4 14 5 15 6 16 7 17 8 18 9 19 10 20 11
REMARK SMILES IDX 9 12 8 13 7 14 6 15 5 16 4 17 3 18 2 19 1 20
REMARK H PARENT
REMARK Flexibility Score: inf
ROOT
ATOM      1  C   UNL     1     -19.994  29.825  20.376  1.00  0.00     0.000 C 
ENDROOT
BRANCH   1   2
ATOM      2  C   UNL     1     -18.897  29.310  21.327  1.00  0.00     0.000 C 
BRANCH   2   3
ATOM      3  C   UNL     1     -19.329  29.167  22.798  1.00  0.00     0.000 C 
BRANCH   3   4
ATOM      4  C   UNL     1     -20.622  28.357  23.026  1.00  0.00     0.000 C 
BRANCH   4   5
ATOM      5  C   UNL     1     -20.429  26.831  23.099  1.00  0.00     0.000 C 
BRANCH   5   6
ATOM      6  C   UNL     1     -20.667  26.134  21.749  1.00  0.00     0.000 C 
BRANCH   6   7
ATOM      7  C   UNL     1     -19.364  25.648  21.097  1.00  0.00     0.006 C 
BRANCH   7   8
ATOM      8  C   UNL     1     -18.166  25.709  22.054  1.00  0.00     0.053 C 
BRANCH   8   9
ATOM      9  C   UNL     1     -17.071  24.808  21.578  1.00  0.00     0.041 C 
ATOM     10  O   UNL     1     -17.194  24.181  20.491  1.00  0.00    -0.550 OA
ATOM     11  O   UNL     1     -15.892  24.699  22.304  1.00  0.00    -0.550 OA
ENDBRANCH   8   9
ENDBRANCH   7   8
ENDBRANCH   6   7
ENDBRANCH   5   6
ENDBRANCH   4   5
ENDBRANCH   3   4
ENDBRANCH   2   3
ENDBRANCH   1   2
BRANCH   1  12
ATOM     12  C   UNL     1     -20.357  28.833  19.250  1.00  0.00     0.000 C 
BRANCH  12  13
ATOM     13  C   UNL     1     -21.864  28.523  19.198  1.00  0.00    -0.000 C 
BRANCH  13  14
ATOM     14  C   UNL     1     -22.652  29.278  20.291  1.00  0.00    -0.000 C 
BRANCH  14  15
ATOM     15  C   UNL     1     -23.680  30.276  19.731  1.00  0.00    -0.000 C 
BRANCH  15  16
ATOM     16  C   UNL     1     -23.895  31.489  20.644  1.00  0.00    -0.000 C 
BRANCH  16  17
ATOM     17  C   UNL     1     -22.840  31.535  21.759  1.00  0.00    -0.000 C 
BRANCH  17  18
ATOM     18  C   UNL     1     -21.899  32.748  21.646  1.00  0.00    -0.000 C 
BRANCH  18  19
ATOM     19  C   UNL     1     -22.607  34.091  21.388  1.00  0.00    -0.003 C 
ATOM     20  C   UNL     1     -22.098  34.803  20.135  1.00  0.00     0.004 C 
ENDBRANCH  18  19
ENDBRANCH  17  18
ENDBRANCH  16  17
ENDBRANCH  15  16
ENDBRANCH  14  15
ENDBRANCH  13  14
ENDBRANCH  12  13
ENDBRANCH   1  12
TORSDOF 16
ENDMDL
