MODEL 1
REMARK VINA RESULT:    -5.217      0.000      0.000
REMARK INTER + INTRA:         -10.972
REMARK INTER:                  -9.791
REMARK INTRA:                  -1.181
REMARK UNBOUND:                -1.181
REMARK SMILES O=C([O-])CCCCCCCCCCCCCCC(=O)[O-]
REMARK SMILES IDX 10 1 9 2 8 3 7 4 6 5 5 6 4 7 2 8 1 9 3 10 11 11 12 12 13 13
REMARK SMILES IDX 14 14 15 15 16 16 17 17 18 18 19 19 20 20
REMARK H PARENT
REMARK Flexibility Score: inf
ROOT
ATOM      1  C   UNL     1      27.869   2.625  29.579  1.00  0.00     0.000 C 
ENDROOT
BRANCH   1   2
ATOM      2  C   UNL     1      27.518   4.075  29.197  1.00  0.00     0.000 C 
BRANCH   2   3
ATOM      3  C   UNL     1      27.821   5.075  30.325  1.00  0.00     0.000 C 
BRANCH   3   4
ATOM      4  C   UNL     1      28.095   6.493  29.795  1.00  0.00     0.000 C 
BRANCH   4   5
ATOM      5  C   UNL     1      26.898   7.437  29.989  1.00  0.00     0.000 C 
BRANCH   5   6
ATOM      6  C   UNL     1      27.258   8.699  30.795  1.00  0.00     0.006 C 
BRANCH   6   7
ATOM      7  C   UNL     1      28.298   9.567  30.074  1.00  0.00     0.053 C 
BRANCH   7   8
ATOM      8  C   UNL     1      27.680  10.379  28.976  1.00  0.00     0.041 C 
ATOM      9  O   UNL     1      26.576  10.955  29.159  1.00  0.00    -0.550 OA
ATOM     10  O   UNL     1      28.345  10.530  27.766  1.00  0.00    -0.550 OA
ENDBRANCH   7   8
ENDBRANCH   6   7
ENDBRANCH   5   6
ENDBRANCH   4   5
ENDBRANCH   3   4
ENDBRANCH   2   3
ENDBRANCH   1   2
BRANCH   1  11
ATOM     11  C   UNL     1      26.846   1.608  29.047  1.00  0.00     0.000 C 
BRANCH  11  12
ATOM     12  C   UNL     1      26.306   0.682  30.151  1.00  0.00     0.000 C 
BRANCH  12  13
ATOM     13  C   UNL     1      27.023   0.885  31.495  1.00  0.00     0.000 C 
BRANCH  13  14
ATOM     14  C   UNL     1      27.922  -0.305  31.877  1.00  0.00     0.000 C 
BRANCH  14  15
ATOM     15  C   UNL     1      29.408  -0.035  31.557  1.00  0.00     0.000 C 
BRANCH  15  16
ATOM     16  C   UNL     1      29.858  -0.607  30.201  1.00  0.00     0.006 C 
BRANCH  16  17
ATOM     17  C   UNL     1      29.019  -1.810  29.752  1.00  0.00     0.053 C 
BRANCH  17  18
ATOM     18  C   UNL     1      29.851  -3.054  29.743  1.00  0.00     0.041 C 
ATOM     19  O   UNL     1      31.089  -2.990  29.964  1.00  0.00    -0.550 OA
ATOM     20  O   UNL     1      29.267  -4.278  29.441  1.00  0.00    -0.550 OA
ENDBRANCH  17  18
ENDBRANCH  16  17
ENDBRANCH  15  16
ENDBRANCH  14  15
ENDBRANCH  13  14
ENDBRANCH  12  13
ENDBRANCH  11  12
ENDBRANCH   1  11
TORSDOF 15
ENDMDL
MODEL 2
REMARK VINA RESULT:    -5.121      1.437      1.919
REMARK INTER + INTRA:         -10.793
REMARK INTER:                  -9.731
REMARK INTRA:                  -1.062
REMARK UNBOUND:                -1.181
REMARK SMILES O=C([O-])CCCCCCCCCCCCCCC(=O)[O-]
REMARK SMILES IDX 10 1 9 2 8 3 7 4 6 5 5 6 4 7 2 8 1 9 3 10 11 11 12 12 13 13
REMARK SMILES IDX 14 14 15 15 16 16 17 17 18 18 19 19 20 20
REMARK H PARENT
REMARK Flexibility Score: inf
ROOT
ATOM      1  C   UNL     1      26.899   1.760  29.006  1.00  0.00     0.000 C 
ENDROOT
BRANCH   1   2
ATOM      2  C   UNL     1      27.698   2.904  29.658  1.00  0.00     0.000 C 
BRANCH   2   3
ATOM      3  C   UNL     1      27.601   4.219  28.866  1.00  0.00     0.000 C 
BRANCH   3   4
ATOM      4  C   UNL     1      27.048   5.377  29.715  1.00  0.00     0.000 C 
BRANCH   4   5
ATOM      5  C   UNL     1      28.160   6.251  30.317  1.00  0.00     0.000 C 
BRANCH   5   6
ATOM      6  C   UNL     1      27.995   7.743  29.974  1.00  0.00     0.006 C 
BRANCH   6   7
ATOM      7  C   UNL     1      26.804   8.377  30.705  1.00  0.00     0.053 C 
BRANCH   7   8
ATOM      8  C   UNL     1      27.109   9.772  31.161  1.00  0.00     0.041 C 
ATOM      9  O   UNL     1      26.268  10.411  31.846  1.00  0.00    -0.550 OA
ATOM     10  O   UNL     1      28.336  10.348  30.862  1.00  0.00    -0.550 OA
ENDBRANCH   7   8
ENDBRANCH   6   7
ENDBRANCH   5   6
ENDBRANCH   4   5
ENDBRANCH   3   4
ENDBRANCH   2   3
ENDBRANCH   1   2
BRANCH   1  11
ATOM     11  C   UNL     1      26.379   0.741  30.033  1.00  0.00     0.000 C 
BRANCH  11  12
ATOM     12  C   UNL     1      27.020   0.923  31.420  1.00  0.00     0.000 C 
BRANCH  12  13
ATOM     13  C   UNL     1      28.021  -0.193  31.759  1.00  0.00     0.000 C 
BRANCH  13  14
ATOM     14  C   UNL     1      29.476   0.190  31.428  1.00  0.00     0.000 C 
BRANCH  14  15
ATOM     15  C   UNL     1      30.105  -0.767  30.393  1.00  0.00     0.000 C 
BRANCH  15  16
ATOM     16  C   UNL     1      29.122  -1.819  29.851  1.00  0.00     0.006 C 
BRANCH  16  17
ATOM     17  C   UNL     1      29.764  -3.202  29.678  1.00  0.00     0.053 C 
BRANCH  17  18
ATOM     18  C   UNL     1      28.766  -4.280  29.962  1.00  0.00     0.041 C 
ATOM     19  O   UNL     1      27.928  -4.140  30.891  1.00  0.00    -0.550 OA
ATOM     20  O   UNL     1      28.793  -5.463  29.232  1.00  0.00    -0.550 OA
ENDBRANCH  17  18
ENDBRANCH  16  17
ENDBRANCH  15  16
ENDBRANCH  14  15
ENDBRANCH  13  14
ENDBRANCH  12  13
ENDBRANCH  11  12
ENDBRANCH   1  11
TORSDOF 15
ENDMDL
MODEL 3
REMARK VINA RESULT:    -5.111      1.784      2.662
REMARK INTER + INTRA:         -10.773
REMARK INTER:                  -9.652
REMARK INTRA:                  -1.121
REMARK UNBOUND:                -1.181
REMARK SMILES O=C([O-])CCCCCCCCCCCCCCC(=O)[O-]
REMARK SMILES IDX 10 1 9 2 8 3 7 4 6 5 5 6 4 7 2 8 1 9 3 10 11 11 12 12 13 13
REMARK SMILES IDX 14 14 15 15 16 16 17 17 18 18 19 19 20 20
REMARK H PARENT
REMARK Flexibility Score: inf
ROOT
ATOM      1  C   UNL     1      28.030   2.727  31.132  1.00  0.00     0.000 C 
ENDROOT
BRANCH   1   2
ATOM      2  C   UNL     1      28.357   4.203  31.424  1.00  0.00     0.000 C 
BRANCH   2   3
ATOM      3  C   UNL     1      27.734   5.161  30.396  1.00  0.00     0.000 C 
BRANCH   3   4
ATOM      4  C   UNL     1      27.134   6.418  31.051  1.00  0.00     0.000 C 
BRANCH   4   5
ATOM      5  C   UNL     1      26.928   7.564  30.049  1.00  0.00     0.000 C 
BRANCH   5   6
ATOM      6  C   UNL     1      28.167   8.470  29.918  1.00  0.00     0.006 C 
BRANCH   6   7
ATOM      7  C   UNL     1      27.939   9.855  30.537  1.00  0.00     0.053 C 
BRANCH   7   8
ATOM      8  C   UNL     1      26.667  10.480  30.051  1.00  0.00     0.041 C 
ATOM      9  O   UNL     1      26.563  10.854  28.853  1.00  0.00    -0.550 OA
ATOM     10  O   UNL     1      25.584  10.611  30.910  1.00  0.00    -0.550 OA
ENDBRANCH   7   8
ENDBRANCH   6   7
ENDBRANCH   5   6
ENDBRANCH   4   5
ENDBRANCH   3   4
ENDBRANCH   2   3
ENDBRANCH   1   2
BRANCH   1  11
ATOM     11  C   UNL     1      29.083   1.763  31.706  1.00  0.00     0.000 C 
BRANCH  11  12
ATOM     12  C   UNL     1      29.805   0.959  30.611  1.00  0.00     0.000 C 
BRANCH  12  13
ATOM     13  C   UNL     1      29.126   1.089  29.238  1.00  0.00     0.000 C 
BRANCH  13  14
ATOM     14  C   UNL     1      28.363  -0.183  28.827  1.00  0.00     0.000 C 
BRANCH  14  15
ATOM     15  C   UNL     1      26.856  -0.084  29.150  1.00  0.00     0.000 C 
BRANCH  15  16
ATOM     16  C   UNL     1      26.418  -0.974  30.325  1.00  0.00     0.006 C 
BRANCH  16  17
ATOM     17  C   UNL     1      27.528  -1.918  30.805  1.00  0.00     0.053 C 
BRANCH  17  18
ATOM     18  C   UNL     1      27.025  -3.326  30.872  1.00  0.00     0.041 C 
ATOM     19  O   UNL     1      27.832  -4.281  31.027  1.00  0.00    -0.550 OA
ATOM     20  O   UNL     1      25.670  -3.588  30.715  1.00  0.00    -0.550 OA
ENDBRANCH  17  18
ENDBRANCH  16  17
ENDBRANCH  15  16
ENDBRANCH  14  15
ENDBRANCH  13  14
ENDBRANCH  12  13
ENDBRANCH  11  12
ENDBRANCH   1  11
TORSDOF 15
ENDMDL
MODEL 4
REMARK VINA RESULT:    -5.110      1.994      2.985
REMARK INTER + INTRA:         -10.771
REMARK INTER:                  -9.472
REMARK INTRA:                  -1.299
REMARK UNBOUND:                -1.181
REMARK SMILES O=C([O-])CCCCCCCCCCCCCCC(=O)[O-]
REMARK SMILES IDX 10 1 9 2 8 3 7 4 6 5 5 6 4 7 2 8 1 9 3 10 11 11 12 12 13 13
REMARK SMILES IDX 14 14 15 15 16 16 17 17 18 18 19 19 20 20
REMARK H PARENT
REMARK Flexibility Score: inf
ROOT
ATOM      1  C   UNL     1      26.975   5.169  29.657  1.00  0.00     0.000 C 
ENDROOT
BRANCH   1   2
ATOM      2  C   UNL     1      27.980   5.539  30.764  1.00  0.00     0.000 C 
BRANCH   2   3
ATOM      3  C   UNL     1      28.318   7.039  30.779  1.00  0.00     0.000 C 
BRANCH   3   4
ATOM      4  C   UNL     1      28.072   7.711  29.417  1.00  0.00     0.000 C 
BRANCH   4   5
ATOM      5  C   UNL     1      28.265   9.235  29.468  1.00  0.00     0.000 C 
BRANCH   5   6
ATOM      6  C   UNL     1      27.006   9.979  29.950  1.00  0.00     0.006 C 
BRANCH   6   7
ATOM      7  C   UNL     1      27.256  10.757  31.249  1.00  0.00     0.053 C 
BRANCH   7   8
ATOM      8  C   UNL     1      26.458  10.204  32.391  1.00  0.00     0.041 C 
ATOM      9  O   UNL     1      25.922   9.069  32.298  1.00  0.00    -0.550 OA
ATOM     10  O   UNL     1      26.341  10.927  33.571  1.00  0.00    -0.550 OA
ENDBRANCH   7   8
ENDBRANCH   6   7
ENDBRANCH   5   6
ENDBRANCH   4   5
ENDBRANCH   3   4
ENDBRANCH   2   3
ENDBRANCH   1   2
BRANCH   1  11
ATOM     11  C   UNL     1      27.506   4.074  28.717  1.00  0.00     0.000 C 
BRANCH  11  12
ATOM     12  C   UNL     1      27.850   2.773  29.462  1.00  0.00     0.000 C 
BRANCH  12  13
ATOM     13  C   UNL     1      27.037   1.570  28.956  1.00  0.00     0.000 C 
BRANCH  13  14
ATOM     14  C   UNL     1      26.359   0.787  30.095  1.00  0.00     0.000 C 
BRANCH  14  15
ATOM     15  C   UNL     1      27.013   1.072  31.464  1.00  0.00     0.000 C 
BRANCH  15  16
ATOM     16  C   UNL     1      27.846  -0.103  32.005  1.00  0.00     0.006 C 
BRANCH  16  17
ATOM     17  C   UNL     1      29.352   0.188  32.015  1.00  0.00     0.053 C 
BRANCH  17  18
ATOM     18  C   UNL     1      29.956  -0.136  30.685  1.00  0.00     0.041 C 
ATOM     19  O   UNL     1      30.710   0.694  30.112  1.00  0.00    -0.550 OA
ATOM     20  O   UNL     1      29.646  -1.335  30.054  1.00  0.00    -0.550 OA
ENDBRANCH  17  18
ENDBRANCH  16  17
ENDBRANCH  15  16
ENDBRANCH  14  15
ENDBRANCH  13  14
ENDBRANCH  12  13
ENDBRANCH  11  12
ENDBRANCH   1  11
TORSDOF 15
ENDMDL
MODEL 5
REMARK VINA RESULT:    -5.091      1.652      9.973
REMARK INTER + INTRA:         -10.737
REMARK INTER:                  -9.567
REMARK INTRA:                  -1.171
REMARK UNBOUND:                -1.181
REMARK SMILES O=C([O-])CCCCCCCCCCCCCCC(=O)[O-]
REMARK SMILES IDX 10 1 9 2 8 3 7 4 6 5 5 6 4 7 2 8 1 9 3 10 11 11 12 12 13 13
REMARK SMILES IDX 14 14 15 15 16 16 17 17 18 18 19 19 20 20
REMARK H PARENT
REMARK Flexibility Score: inf
ROOT
ATOM      1  C   UNL     1      29.787   1.075  30.528  1.00  0.00     0.000 C 
ENDROOT
BRANCH   1   2
ATOM      2  C   UNL     1      29.066   1.189  29.172  1.00  0.00     0.000 C 
BRANCH   2   3
ATOM      3  C   UNL     1      28.333  -0.105  28.782  1.00  0.00     0.000 C 
BRANCH   3   4
ATOM      4  C   UNL     1      26.840  -0.070  29.155  1.00  0.00     0.000 C 
BRANCH   4   5
ATOM      5  C   UNL     1      26.531  -0.875  30.427  1.00  0.00     0.000 C 
BRANCH   5   6
ATOM      6  C   UNL     1      27.640  -1.885  30.776  1.00  0.00     0.006 C 
BRANCH   6   7
ATOM      7  C   UNL     1      27.121  -3.329  30.802  1.00  0.00     0.053 C 
BRANCH   7   8
ATOM      8  C   UNL     1      28.220  -4.320  30.568  1.00  0.00     0.041 C 
ATOM      9  O   UNL     1      29.211  -4.010  29.857  1.00  0.00    -0.550 OA
ATOM     10  O   UNL     1      28.167  -5.571  31.168  1.00  0.00    -0.550 OA
ENDBRANCH   7   8
ENDBRANCH   6   7
ENDBRANCH   5   6
ENDBRANCH   4   5
ENDBRANCH   3   4
ENDBRANCH   2   3
ENDBRANCH   1   2
BRANCH   1  11
ATOM     11  C   UNL     1      29.008   1.749  31.671  1.00  0.00     0.000 C 
BRANCH  11  12
ATOM     12  C   UNL     1      28.074   2.865  31.169  1.00  0.00     0.000 C 
BRANCH  12  13
ATOM     13  C   UNL     1      28.460   4.248  31.717  1.00  0.00     0.000 C 
BRANCH  13  14
ATOM     14  C   UNL     1      28.091   5.394  30.757  1.00  0.00     0.000 C 
BRANCH  14  15
ATOM     15  C   UNL     1      26.978   6.296  31.333  1.00  0.00     0.000 C 
BRANCH  15  16
ATOM     16  C   UNL     1      26.964   7.713  30.734  1.00  0.00     0.006 C 
BRANCH  16  17
ATOM     17  C   UNL     1      28.357   8.196  30.309  1.00  0.00     0.053 C 
BRANCH  17  18
ATOM     18  C   UNL     1      28.244   9.346  29.358  1.00  0.00     0.041 C 
ATOM     19  O   UNL     1      27.457  10.297  29.605  1.00  0.00    -0.550 OA
ATOM     20  O   UNL     1      28.971   9.343  28.174  1.00  0.00    -0.550 OA
ENDBRANCH  17  18
ENDBRANCH  16  17
ENDBRANCH  15  16
ENDBRANCH  14  15
ENDBRANCH  13  14
ENDBRANCH  12  13
ENDBRANCH  11  12
ENDBRANCH   1  11
TORSDOF 15
ENDMDL
MODEL 6
REMARK VINA RESULT:    -4.918      3.064     10.957
REMARK INTER + INTRA:         -10.411
REMARK INTER:                  -9.202
REMARK INTRA:                  -1.210
REMARK UNBOUND:                -1.181
REMARK SMILES O=C([O-])CCCCCCCCCCCCCCC(=O)[O-]
REMARK SMILES IDX 10 1 9 2 8 3 7 4 6 5 5 6 4 7 2 8 1 9 3 10 11 11 12 12 13 13
REMARK SMILES IDX 14 14 15 15 16 16 17 17 18 18 19 19 20 20
REMARK H PARENT
REMARK Flexibility Score: inf
ROOT
ATOM      1  C   UNL     1      30.183  -0.841  30.545  1.00  0.00     0.000 C 
ENDROOT
BRANCH   1   2
ATOM      2  C   UNL     1      29.231  -1.601  29.604  1.00  0.00     0.000 C 
BRANCH   2   3
ATOM      3  C   UNL     1      29.242  -3.119  29.850  1.00  0.00     0.000 C 
BRANCH   3   4
ATOM      4  C   UNL     1      27.968  -3.609  30.561  1.00  0.00     0.000 C 
BRANCH   4   5
ATOM      5  C   UNL     1      28.097  -5.051  31.076  1.00  0.00     0.000 C 
BRANCH   5   6
ATOM      6  C   UNL     1      28.895  -5.955  30.119  1.00  0.00     0.006 C 
BRANCH   6   7
ATOM      7  C   UNL     1      28.293  -7.363  30.018  1.00  0.00     0.053 C 
BRANCH   7   8
ATOM      8  C   UNL     1      28.955  -8.320  30.962  1.00  0.00     0.041 C 
ATOM      9  O   UNL     1      29.996  -8.936  30.613  1.00  0.00    -0.550 OA
ATOM     10  O   UNL     1      28.443  -8.501  32.241  1.00  0.00    -0.550 OA
ENDBRANCH   7   8
ENDBRANCH   6   7
ENDBRANCH   5   6
ENDBRANCH   4   5
ENDBRANCH   3   4
ENDBRANCH   2   3
ENDBRANCH   1   2
BRANCH   1  11
ATOM     11  C   UNL     1      29.482   0.299  31.302  1.00  0.00     0.000 C 
BRANCH  11  12
ATOM     12  C   UNL     1      28.086  -0.101  31.810  1.00  0.00     0.000 C 
BRANCH  12  13
ATOM     13  C   UNL     1      27.000   0.910  31.410  1.00  0.00     0.000 C 
BRANCH  13  14
ATOM     14  C   UNL     1      26.402   0.625  30.020  1.00  0.00     0.000 C 
BRANCH  14  15
ATOM     15  C   UNL     1      26.968   1.573  28.941  1.00  0.00     0.000 C 
BRANCH  15  16
ATOM     16  C   UNL     1      27.749   2.766  29.519  1.00  0.00     0.006 C 
BRANCH  16  17
ATOM     17  C   UNL     1      27.290   4.113  28.946  1.00  0.00     0.053 C 
BRANCH  17  18
ATOM     18  C   UNL     1      27.453   5.197  29.965  1.00  0.00     0.041 C 
ATOM     19  O   UNL     1      28.097   4.979  31.025  1.00  0.00    -0.550 OA
ATOM     20  O   UNL     1      26.850   6.433  29.768  1.00  0.00    -0.550 OA
ENDBRANCH  17  18
ENDBRANCH  16  17
ENDBRANCH  15  16
ENDBRANCH  14  15
ENDBRANCH  13  14
ENDBRANCH  12  13
ENDBRANCH  11  12
ENDBRANCH   1  11
TORSDOF 15
ENDMDL
MODEL 7
REMARK VINA RESULT:    -4.889      1.999      2.648
REMARK INTER + INTRA:         -10.358
REMARK INTER:                  -9.318
REMARK INTRA:                  -1.040
REMARK UNBOUND:                -1.181
REMARK SMILES O=C([O-])CCCCCCCCCCCCCCC(=O)[O-]
REMARK SMILES IDX 10 1 9 2 8 3 7 4 6 5 5 6 4 7 2 8 1 9 3 10 11 11 12 12 13 13
REMARK SMILES IDX 14 14 15 15 16 16 17 17 18 18 19 19 20 20
REMARK H PARENT
REMARK Flexibility Score: inf
ROOT
ATOM      1  C   UNL     1      27.323   4.227  29.074  1.00  0.00     0.000 C 
ENDROOT
BRANCH   1   2
ATOM      2  C   UNL     1      27.953   5.428  29.804  1.00  0.00     0.000 C 
BRANCH   2   3
ATOM      3  C   UNL     1      26.919   6.505  30.172  1.00  0.00     0.000 C 
BRANCH   3   4
ATOM      4  C   UNL     1      27.552   7.705  30.898  1.00  0.00     0.000 C 
BRANCH   4   5
ATOM      5  C   UNL     1      26.535   8.817  31.197  1.00  0.00     0.000 C 
BRANCH   5   6
ATOM      6  C   UNL     1      26.525   9.920  30.122  1.00  0.00     0.006 C 
BRANCH   6   7
ATOM      7  C   UNL     1      27.937  10.427  29.800  1.00  0.00     0.053 C 
BRANCH   7   8
ATOM      8  C   UNL     1      28.246  10.320  28.337  1.00  0.00     0.041 C 
ATOM      9  O   UNL     1      29.086   9.476  27.928  1.00  0.00    -0.550 OA
ATOM     10  O   UNL     1      27.577  11.125  27.425  1.00  0.00    -0.550 OA
ENDBRANCH   7   8
ENDBRANCH   6   7
ENDBRANCH   5   6
ENDBRANCH   4   5
ENDBRANCH   3   4
ENDBRANCH   2   3
ENDBRANCH   1   2
BRANCH   1  11
ATOM     11  C   UNL     1      27.915   2.882  29.529  1.00  0.00     0.000 C 
BRANCH  11  12
ATOM     12  C   UNL     1      27.954   2.743  31.061  1.00  0.00     0.000 C 
BRANCH  12  13
ATOM     13  C   UNL     1      29.262   2.111  31.563  1.00  0.00     0.000 C 
BRANCH  13  14
ATOM     14  C   UNL     1      29.132   0.598  31.823  1.00  0.00     0.000 C 
BRANCH  14  15
ATOM     15  C   UNL     1      29.758  -0.241  30.689  1.00  0.00     0.000 C 
BRANCH  15  16
ATOM     16  C   UNL     1      28.788  -1.264  30.073  1.00  0.00     0.006 C 
BRANCH  16  17
ATOM     17  C   UNL     1      27.398  -1.234  30.722  1.00  0.00     0.053 C 
BRANCH  17  18
ATOM     18  C   UNL     1      26.441  -0.460  29.872  1.00  0.00     0.041 C 
ATOM     19  O   UNL     1      25.309  -0.141  30.323  1.00  0.00    -0.550 OA
ATOM     20  O   UNL     1      26.779  -0.132  28.565  1.00  0.00    -0.550 OA
ENDBRANCH  17  18
ENDBRANCH  16  17
ENDBRANCH  15  16
ENDBRANCH  14  15
ENDBRANCH  13  14
ENDBRANCH  12  13
ENDBRANCH  11  12
ENDBRANCH   1  11
TORSDOF 15
ENDMDL
MODEL 8
REMARK VINA RESULT:    -4.840      1.983     10.148
REMARK INTER + INTRA:         -10.266
REMARK INTER:                  -9.340
REMARK INTRA:                  -0.926
REMARK UNBOUND:                -1.181
REMARK SMILES O=C([O-])CCCCCCCCCCCCCCC(=O)[O-]
REMARK SMILES IDX 10 1 9 2 8 3 7 4 6 5 5 6 4 7 2 8 1 9 3 10 11 11 12 12 13 13
REMARK SMILES IDX 14 14 15 15 16 16 17 17 18 18 19 19 20 20
REMARK H PARENT
REMARK Flexibility Score: inf
ROOT
ATOM      1  C   UNL     1      28.401   2.289  31.427  1.00  0.00     0.000 C 
ENDROOT
BRANCH   1   2
ATOM      2  C   UNL     1      29.313   1.359  30.606  1.00  0.00     0.000 C 
BRANCH   2   3
ATOM      3  C   UNL     1      28.891   1.268  29.130  1.00  0.00     0.000 C 
BRANCH   3   4
ATOM      4  C   UNL     1      28.028   0.027  28.841  1.00  0.00     0.000 C 
BRANCH   4   5
ATOM      5  C   UNL     1      26.574   0.198  29.307  1.00  0.00     0.000 C 
BRANCH   5   6
ATOM      6  C   UNL     1      26.147  -0.870  30.331  1.00  0.00     0.006 C 
BRANCH   6   7
ATOM      7  C   UNL     1      27.333  -1.716  30.813  1.00  0.00     0.053 C 
BRANCH   7   8
ATOM      8  C   UNL     1      27.053  -3.183  30.698  1.00  0.00     0.041 C 
ATOM      9  O   UNL     1      28.003  -4.008  30.652  1.00  0.00    -0.550 OA
ATOM     10  O   UNL     1      25.742  -3.641  30.683  1.00  0.00    -0.550 OA
ENDBRANCH   7   8
ENDBRANCH   6   7
ENDBRANCH   5   6
ENDBRANCH   4   5
ENDBRANCH   3   4
ENDBRANCH   2   3
ENDBRANCH   1   2
BRANCH   1  11
ATOM     11  C   UNL     1      28.017   3.568  30.663  1.00  0.00     0.000 C 
BRANCH  11  12
ATOM     12  C   UNL     1      28.006   4.813  31.567  1.00  0.00     0.000 C 
BRANCH  12  13
ATOM     13  C   UNL     1      27.246   5.992  30.938  1.00  0.00     0.000 C 
BRANCH  13  14
ATOM     14  C   UNL     1      28.186   7.078  30.383  1.00  0.00     0.000 C 
BRANCH  14  15
ATOM     15  C   UNL     1      27.406   8.295  29.839  1.00  0.00     0.000 C 
BRANCH  15  16
ATOM     16  C   UNL     1      28.172   9.623  29.965  1.00  0.00     0.006 C 
BRANCH  16  17
ATOM     17  C   UNL     1      27.985  10.293  31.332  1.00  0.00     0.053 C 
BRANCH  17  18
ATOM     18  C   UNL     1      26.541  10.286  31.724  1.00  0.00     0.041 C 
ATOM     19  O   UNL     1      25.720  11.039  31.136  1.00  0.00    -0.550 OA
ATOM     20  O   UNL     1      26.109   9.483  32.773  1.00  0.00    -0.550 OA
ENDBRANCH  17  18
ENDBRANCH  16  17
ENDBRANCH  15  16
ENDBRANCH  14  15
ENDBRANCH  13  14
ENDBRANCH  12  13
ENDBRANCH  11  12
ENDBRANCH   1  11
TORSDOF 15
ENDMDL
MODEL 9
REMARK VINA RESULT:    -4.824      1.447      2.226
REMARK INTER + INTRA:         -10.235
REMARK INTER:                  -9.515
REMARK INTRA:                  -0.720
REMARK UNBOUND:                -1.181
REMARK SMILES O=C([O-])CCCCCCCCCCCCCCC(=O)[O-]
REMARK SMILES IDX 10 1 9 2 8 3 7 4 6 5 5 6 4 7 2 8 1 9 3 10 11 11 12 12 13 13
REMARK SMILES IDX 14 14 15 15 16 16 17 17 18 18 19 19 20 20
REMARK H PARENT
REMARK Flexibility Score: inf
ROOT
ATOM      1  C   UNL     1      27.477   4.243  28.974  1.00  0.00     0.000 C 
ENDROOT
BRANCH   1   2
ATOM      2  C   UNL     1      28.106   5.191  30.012  1.00  0.00     0.000 C 
BRANCH   2   3
ATOM      3  C   UNL     1      27.080   6.154  30.631  1.00  0.00     0.000 C 
BRANCH   3   4
ATOM      4  C   UNL     1      27.544   7.620  30.581  1.00  0.00     0.000 C 
BRANCH   4   5
ATOM      5  C   UNL     1      26.482   8.594  31.113  1.00  0.00     0.000 C 
BRANCH   5   6
ATOM      6  C   UNL     1      26.919  10.067  31.010  1.00  0.00     0.006 C 
BRANCH   6   7
ATOM      7  C   UNL     1      26.738  10.626  29.593  1.00  0.00     0.053 C 
BRANCH   7   8
ATOM      8  C   UNL     1      28.050  10.786  28.886  1.00  0.00     0.041 C 
ATOM      9  O   UNL     1      29.122  10.840  29.545  1.00  0.00    -0.550 OA
ATOM     10  O   UNL     1      28.091  10.835  27.499  1.00  0.00    -0.550 OA
ENDBRANCH   7   8
ENDBRANCH   6   7
ENDBRANCH   5   6
ENDBRANCH   4   5
ENDBRANCH   3   4
ENDBRANCH   2   3
ENDBRANCH   1   2
BRANCH   1  11
ATOM     11  C   UNL     1      27.662   2.760  29.338  1.00  0.00     0.000 C 
BRANCH  11  12
ATOM     12  C   UNL     1      26.688   1.841  28.579  1.00  0.00     0.000 C 
BRANCH  12  13
ATOM     13  C   UNL     1      26.739   0.388  29.077  1.00  0.00     0.000 C 
BRANCH  13  14
ATOM     14  C   UNL     1      25.973   0.183  30.397  1.00  0.00     0.000 C 
BRANCH  14  15
ATOM     15  C   UNL     1      26.801   0.629  31.622  1.00  0.00     0.000 C 
BRANCH  15  16
ATOM     16  C   UNL     1      27.949  -0.334  31.971  1.00  0.00     0.006 C 
BRANCH  16  17
ATOM     17  C   UNL     1      29.330   0.331  31.893  1.00  0.00     0.053 C 
BRANCH  17  18
ATOM     18  C   UNL     1      30.053  -0.112  30.660  1.00  0.00     0.041 C 
ATOM     19  O   UNL     1      30.894   0.649  30.111  1.00  0.00    -0.550 OA
ATOM     20  O   UNL     1      29.764  -1.344  30.088  1.00  0.00    -0.550 OA
ENDBRANCH  17  18
ENDBRANCH  16  17
ENDBRANCH  15  16
ENDBRANCH  14  15
ENDBRANCH  13  14
ENDBRANCH  12  13
ENDBRANCH  11  12
ENDBRANCH   1  11
TORSDOF 15
ENDMDL
