MODEL 1
REMARK VINA RESULT:    -3.906      0.000      0.000
REMARK INTER + INTRA:         -12.035
REMARK INTER:                  -8.472
REMARK INTRA:                  -3.562
REMARK UNBOUND:                -3.562
REMARK SMILES CCCCCCCCCCCCCCCCCCCCCC(=O)[O-]
REMARK SMILES IDX 12 1 11 2 10 3 9 4 8 5 7 6 6 7 5 8 4 9 3 10 2 11 1 12 13 13
REMARK SMILES IDX 14 14 15 15 16 16 17 17 18 18 19 19 20 20 21 21 22 22 23 23
REMARK SMILES IDX 24 24
REMARK H PARENT
REMARK Flexibility Score: inf
ROOT
ATOM      1  C   UNL     1     -33.674  12.609  15.256  1.00  0.00     0.000 C 
ENDROOT
BRANCH   1   2
ATOM      2  C   UNL     1     -33.241  13.218  16.599  1.00  0.00     0.000 C 
BRANCH   2   3
ATOM      3  C   UNL     1     -33.347  12.225  17.767  1.00  0.00     0.000 C 
BRANCH   3   4
ATOM      4  C   UNL     1     -32.483  12.676  18.952  1.00  0.00    -0.000 C 
BRANCH   4   5
ATOM      5  C   UNL     1     -31.737  13.977  18.623  1.00  0.00    -0.000 C 
BRANCH   5   6
ATOM      6  C   UNL     1     -30.427  14.129  19.417  1.00  0.00    -0.000 C 
BRANCH   6   7
ATOM      7  C   UNL     1     -29.139  13.874  18.608  1.00  0.00    -0.000 C 
BRANCH   7   8
ATOM      8  C   UNL     1     -28.069  14.975  18.719  1.00  0.00    -0.000 C 
BRANCH   8   9
ATOM      9  C   UNL     1     -28.320  16.151  17.763  1.00  0.00    -0.000 C 
BRANCH   9  10
ATOM     10  C   UNL     1     -29.057  17.293  18.472  1.00  0.00    -0.000 C 
BRANCH  10  11
ATOM     11  C   UNL     1     -28.400  17.618  19.818  1.00  0.00    -0.003 C 
ATOM     12  C   UNL     1     -29.423  17.604  20.950  1.00  0.00     0.004 C 
ENDBRANCH  10  11
ENDBRANCH   9  10
ENDBRANCH   8   9
ENDBRANCH   7   8
ENDBRANCH   6   7
ENDBRANCH   5   6
ENDBRANCH   4   5
ENDBRANCH   3   4
ENDBRANCH   2   3
ENDBRANCH   1   2
BRANCH   1  13
ATOM     13  C   UNL     1     -33.680  13.640  14.113  1.00  0.00     0.000 C 
BRANCH  13  14
ATOM     14  C   UNL     1     -32.690  13.289  12.987  1.00  0.00     0.000 C 
BRANCH  14  15
ATOM     15  C   UNL     1     -31.415  14.155  12.936  1.00  0.00     0.000 C 
BRANCH  15  16
ATOM     16  C   UNL     1     -31.225  15.122  14.119  1.00  0.00     0.000 C 
BRANCH  16  17
ATOM     17  C   UNL     1     -30.093  14.691  15.067  1.00  0.00     0.000 C 
BRANCH  17  18
ATOM     18  C   UNL     1     -29.486  13.326  14.692  1.00  0.00     0.000 C 
BRANCH  18  19
ATOM     19  C   UNL     1     -29.942  12.141  15.567  1.00  0.00     0.000 C 
BRANCH  19  20
ATOM     20  C   UNL     1     -30.197  10.827  14.810  1.00  0.00     0.006 C 
BRANCH  20  21
ATOM     21  C   UNL     1     -29.391  10.723  13.509  1.00  0.00     0.053 C 
BRANCH  21  22
ATOM     22  C   UNL     1     -30.266  10.265  12.385  1.00  0.00     0.041 C 
ATOM     23  O   UNL     1     -29.778  10.070  11.240  1.00  0.00    -0.550 OA
ATOM     24  O   UNL     1     -31.616  10.018  12.608  1.00  0.00    -0.550 OA
ENDBRANCH  21  22
ENDBRANCH  20  21
ENDBRANCH  19  20
ENDBRANCH  18  19
ENDBRANCH  17  18
ENDBRANCH  16  17
ENDBRANCH  15  16
ENDBRANCH  14  15
ENDBRANCH  13  14
ENDBRANCH   1  13
TORSDOF 20
ENDMDL
MODEL 2
REMARK VINA RESULT:    -3.861      2.304      4.601
REMARK INTER + INTRA:         -11.937
REMARK INTER:                  -8.140
REMARK INTRA:                  -3.797
REMARK UNBOUND:                -3.562
REMARK SMILES CCCCCCCCCCCCCCCCCCCCCC(=O)[O-]
REMARK SMILES IDX 12 1 11 2 10 3 9 4 8 5 7 6 6 7 5 8 4 9 3 10 2 11 1 12 13 13
REMARK SMILES IDX 14 14 15 15 16 16 17 17 18 18 19 19 20 20 21 21 22 22 23 23
REMARK SMILES IDX 24 24
REMARK H PARENT
REMARK Flexibility Score: inf
ROOT
ATOM      1  C   UNL     1     -30.784  12.878  12.629  1.00  0.00     0.000 C 
ENDROOT
BRANCH   1   2
ATOM      2  C   UNL     1     -31.184  14.258  13.173  1.00  0.00     0.000 C 
BRANCH   2   3
ATOM      3  C   UNL     1     -32.686  14.368  13.475  1.00  0.00     0.000 C 
BRANCH   3   4
ATOM      4  C   UNL     1     -33.375  13.004  13.338  1.00  0.00    -0.000 C 
BRANCH   4   5
ATOM      5  C   UNL     1     -33.898  12.515  14.697  1.00  0.00    -0.000 C 
BRANCH   5   6
ATOM      6  C   UNL     1     -33.297  13.294  15.880  1.00  0.00    -0.000 C 
BRANCH   6   7
ATOM      7  C   UNL     1     -32.767  12.421  17.036  1.00  0.00    -0.000 C 
BRANCH   7   8
ATOM      8  C   UNL     1     -31.423  12.876  17.634  1.00  0.00    -0.000 C 
BRANCH   8   9
ATOM      9  C   UNL     1     -30.611  13.761  16.676  1.00  0.00    -0.000 C 
BRANCH   9  10
ATOM     10  C   UNL     1     -30.350  15.143  17.286  1.00  0.00    -0.000 C 
BRANCH  10  11
ATOM     11  C   UNL     1     -28.940  15.636  16.945  1.00  0.00    -0.003 C 
ATOM     12  C   UNL     1     -28.466  15.071  15.609  1.00  0.00     0.004 C 
ENDBRANCH  10  11
ENDBRANCH   9  10
ENDBRANCH   8   9
ENDBRANCH   7   8
ENDBRANCH   6   7
ENDBRANCH   5   6
ENDBRANCH   4   5
ENDBRANCH   3   4
ENDBRANCH   2   3
ENDBRANCH   1   2
BRANCH   1  13
ATOM     13  C   UNL     1     -29.533  12.308  13.321  1.00  0.00     0.000 C 
BRANCH  13  14
ATOM     14  C   UNL     1     -29.114  10.935  12.764  1.00  0.00     0.000 C 
BRANCH  14  15
ATOM     15  C   UNL     1     -29.967  10.413  11.589  1.00  0.00     0.000 C 
BRANCH  15  16
ATOM     16  C   UNL     1     -30.783   9.140  11.880  1.00  0.00     0.000 C 
BRANCH  16  17
ATOM     17  C   UNL     1     -32.246   9.440  12.247  1.00  0.00     0.000 C 
BRANCH  17  18
ATOM     18  C   UNL     1     -32.536   9.252  13.748  1.00  0.00     0.000 C 
BRANCH  18  19
ATOM     19  C   UNL     1     -31.347   8.747  14.590  1.00  0.00     0.000 C 
BRANCH  19  20
ATOM     20  C   UNL     1     -30.852   9.719  15.675  1.00  0.00     0.006 C 
BRANCH  20  21
ATOM     21  C   UNL     1     -30.120   9.009  16.821  1.00  0.00     0.053 C 
BRANCH  21  22
ATOM     22  C   UNL     1     -28.977   8.201  16.295  1.00  0.00     0.041 C 
ATOM     23  O   UNL     1     -28.016   8.767  15.711  1.00  0.00    -0.550 OA
ATOM     24  O   UNL     1     -28.953   6.824  16.481  1.00  0.00    -0.550 OA
ENDBRANCH  21  22
ENDBRANCH  20  21
ENDBRANCH  19  20
ENDBRANCH  18  19
ENDBRANCH  17  18
ENDBRANCH  16  17
ENDBRANCH  15  16
ENDBRANCH  14  15
ENDBRANCH  13  14
ENDBRANCH   1  13
TORSDOF 20
ENDMDL
MODEL 3
REMARK VINA RESULT:    -3.785      4.752      8.667
REMARK INTER + INTRA:         -11.772
REMARK INTER:                  -9.730
REMARK INTRA:                  -2.042
REMARK UNBOUND:                -3.562
REMARK SMILES CCCCCCCCCCCCCCCCCCCCCC(=O)[O-]
REMARK SMILES IDX 12 1 11 2 10 3 9 4 8 5 7 6 6 7 5 8 4 9 3 10 2 11 1 12 13 13
REMARK SMILES IDX 14 14 15 15 16 16 17 17 18 18 19 19 20 20 21 21 22 22 23 23
REMARK SMILES IDX 24 24
REMARK H PARENT
REMARK Flexibility Score: inf
ROOT
ATOM      1  C   UNL     1     -29.148  14.475  15.320  1.00  0.00     0.000 C 
ENDROOT
BRANCH   1   2
ATOM      2  C   UNL     1     -30.642  14.803  15.174  1.00  0.00     0.000 C 
BRANCH   2   3
ATOM      3  C   UNL     1     -31.112  14.805  13.711  1.00  0.00     0.000 C 
BRANCH   3   4
ATOM      4  C   UNL     1     -32.584  14.383  13.607  1.00  0.00    -0.000 C 
BRANCH   4   5
ATOM      5  C   UNL     1     -33.053  13.703  14.901  1.00  0.00    -0.000 C 
BRANCH   5   6
ATOM      6  C   UNL     1     -33.115  12.170  14.779  1.00  0.00    -0.000 C 
BRANCH   6   7
ATOM      7  C   UNL     1     -33.221  11.634  13.336  1.00  0.00    -0.000 C 
BRANCH   7   8
ATOM      8  C   UNL     1     -32.031  10.778  12.868  1.00  0.00    -0.000 C 
BRANCH   8   9
ATOM      9  C   UNL     1     -30.803  10.912  13.781  1.00  0.00    -0.000 C 
BRANCH   9  10
ATOM     10  C   UNL     1     -29.612  11.510  13.022  1.00  0.00    -0.000 C 
BRANCH  10  11
ATOM     11  C   UNL     1     -28.310  10.788  13.387  1.00  0.00    -0.003 C 
ATOM     12  C   UNL     1     -28.511   9.856  14.579  1.00  0.00     0.004 C 
ENDBRANCH  10  11
ENDBRANCH   9  10
ENDBRANCH   8   9
ENDBRANCH   7   8
ENDBRANCH   6   7
ENDBRANCH   5   6
ENDBRANCH   4   5
ENDBRANCH   3   4
ENDBRANCH   2   3
ENDBRANCH   1   2
BRANCH   1  13
ATOM     13  C   UNL     1     -28.440  15.381  16.343  1.00  0.00     0.000 C 
BRANCH  13  14
ATOM     14  C   UNL     1     -29.334  15.739  17.545  1.00  0.00     0.000 C 
BRANCH  14  15
ATOM     15  C   UNL     1     -28.913  16.998  18.329  1.00  0.00     0.000 C 
BRANCH  15  16
ATOM     16  C   UNL     1     -29.106  16.922  19.854  1.00  0.00     0.000 C 
BRANCH  16  17
ATOM     17  C   UNL     1     -29.441  15.503  20.344  1.00  0.00     0.000 C 
BRANCH  17  18
ATOM     18  C   UNL     1     -30.596  15.479  21.362  1.00  0.00     0.000 C 
BRANCH  18  19
ATOM     19  C   UNL     1     -30.947  16.843  21.991  1.00  0.00     0.000 C 
BRANCH  19  20
ATOM     20  C   UNL     1     -30.729  16.939  23.511  1.00  0.00     0.006 C 
BRANCH  20  21
ATOM     21  C   UNL     1     -30.707  15.568  24.198  1.00  0.00     0.053 C 
BRANCH  21  22
ATOM     22  C   UNL     1     -31.034  15.704  25.651  1.00  0.00     0.041 C 
ATOM     23  O   UNL     1     -30.137  16.021  26.476  1.00  0.00    -0.550 OA
ATOM     24  O   UNL     1     -32.339  15.516  26.092  1.00  0.00    -0.550 OA
ENDBRANCH  21  22
ENDBRANCH  20  21
ENDBRANCH  19  20
ENDBRANCH  18  19
ENDBRANCH  17  18
ENDBRANCH  16  17
ENDBRANCH  15  16
ENDBRANCH  14  15
ENDBRANCH  13  14
ENDBRANCH   1  13
TORSDOF 20
ENDMDL
MODEL 4
REMARK VINA RESULT:    -3.751      1.686      3.529
REMARK INTER + INTRA:         -11.700
REMARK INTER:                  -8.924
REMARK INTRA:                  -2.776
REMARK UNBOUND:                -3.562
REMARK SMILES CCCCCCCCCCCCCCCCCCCCCC(=O)[O-]
REMARK SMILES IDX 12 1 11 2 10 3 9 4 8 5 7 6 6 7 5 8 4 9 3 10 2 11 1 12 13 13
REMARK SMILES IDX 14 14 15 15 16 16 17 17 18 18 19 19 20 20 21 21 22 22 23 23
REMARK SMILES IDX 24 24
REMARK H PARENT
REMARK Flexibility Score: inf
ROOT
ATOM      1  C   UNL     1     -31.208  14.388  17.093  1.00  0.00     0.000 C 
ENDROOT
BRANCH   1   2
ATOM      2  C   UNL     1     -29.750  14.141  17.512  1.00  0.00     0.000 C 
BRANCH   2   3
ATOM      3  C   UNL     1     -28.798  15.252  17.043  1.00  0.00     0.000 C 
BRANCH   3   4
ATOM      4  C   UNL     1     -29.109  16.577  17.752  1.00  0.00    -0.000 C 
BRANCH   4   5
ATOM      5  C   UNL     1     -28.316  16.697  19.062  1.00  0.00    -0.000 C 
BRANCH   5   6
ATOM      6  C   UNL     1     -28.794  17.866  19.942  1.00  0.00    -0.000 C 
BRANCH   6   7
ATOM      7  C   UNL     1     -29.651  17.459  21.158  1.00  0.00    -0.000 C 
BRANCH   7   8
ATOM      8  C   UNL     1     -29.735  15.945  21.421  1.00  0.00    -0.000 C 
BRANCH   8   9
ATOM      9  C   UNL     1     -28.725  15.465  22.475  1.00  0.00    -0.000 C 
BRANCH   9  10
ATOM     10  C   UNL     1     -28.458  16.553  23.521  1.00  0.00    -0.000 C 
BRANCH  10  11
ATOM     11  C   UNL     1     -26.963  16.877  23.608  1.00  0.00    -0.003 C 
ATOM     12  C   UNL     1     -26.178  16.155  22.516  1.00  0.00     0.004 C 
ENDBRANCH  10  11
ENDBRANCH   9  10
ENDBRANCH   8   9
ENDBRANCH   7   8
ENDBRANCH   6   7
ENDBRANCH   5   6
ENDBRANCH   4   5
ENDBRANCH   3   4
ENDBRANCH   2   3
ENDBRANCH   1   2
BRANCH   1  13
ATOM     13  C   UNL     1     -32.039  13.093  17.050  1.00  0.00     0.000 C 
BRANCH  13  14
ATOM     14  C   UNL     1     -33.374  13.264  16.303  1.00  0.00     0.000 C 
BRANCH  14  15
ATOM     15  C   UNL     1     -33.369  12.809  14.829  1.00  0.00     0.000 C 
BRANCH  15  16
ATOM     16  C   UNL     1     -33.389  13.943  13.788  1.00  0.00     0.000 C 
BRANCH  16  17
ATOM     17  C   UNL     1     -32.009  14.591  13.582  1.00  0.00     0.000 C 
BRANCH  17  18
ATOM     18  C   UNL     1     -30.986  13.630  12.949  1.00  0.00     0.000 C 
BRANCH  18  19
ATOM     19  C   UNL     1     -29.745  13.329  13.812  1.00  0.00     0.000 C 
BRANCH  19  20
ATOM     20  C   UNL     1     -29.711  11.928  14.446  1.00  0.00     0.006 C 
BRANCH  20  21
ATOM     21  C   UNL     1     -30.451  10.877  13.609  1.00  0.00     0.053 C 
BRANCH  21  22
ATOM     22  C   UNL     1     -29.532  10.269  12.597  1.00  0.00     0.041 C 
ATOM     23  O   UNL     1     -28.296  10.501  12.643  1.00  0.00    -0.550 OA
ATOM     24  O   UNL     1     -30.036   9.415  11.623  1.00  0.00    -0.550 OA
ENDBRANCH  21  22
ENDBRANCH  20  21
ENDBRANCH  19  20
ENDBRANCH  18  19
ENDBRANCH  17  18
ENDBRANCH  16  17
ENDBRANCH  15  16
ENDBRANCH  14  15
ENDBRANCH  13  14
ENDBRANCH   1  13
TORSDOF 20
ENDMDL
MODEL 5
REMARK VINA RESULT:    -3.732      5.107      7.958
REMARK INTER + INTRA:         -11.657
REMARK INTER:                  -8.374
REMARK INTRA:                  -3.283
REMARK UNBOUND:                -3.562
REMARK SMILES CCCCCCCCCCCCCCCCCCCCCC(=O)[O-]
REMARK SMILES IDX 12 1 11 2 10 3 9 4 8 5 7 6 6 7 5 8 4 9 3 10 2 11 1 12 13 13
REMARK SMILES IDX 14 14 15 15 16 16 17 17 18 18 19 19 20 20 21 21 22 22 23 23
REMARK SMILES IDX 24 24
REMARK H PARENT
REMARK Flexibility Score: inf
ROOT
ATOM      1  C   UNL     1     -33.781  16.427  24.644  1.00  0.00     0.000 C 
ENDROOT
BRANCH   1   2
ATOM      2  C   UNL     1     -33.797  14.901  24.462  1.00  0.00     0.000 C 
BRANCH   2   3
ATOM      3  C   UNL     1     -33.161  14.153  25.643  1.00  0.00     0.000 C 
BRANCH   3   4
ATOM      4  C   UNL     1     -32.096  15.017  26.331  1.00  0.00    -0.000 C 
BRANCH   4   5
ATOM      5  C   UNL     1     -31.623  14.366  27.639  1.00  0.00    -0.000 C 
BRANCH   5   6
ATOM      6  C   UNL     1     -30.160  13.892  27.573  1.00  0.00    -0.000 C 
BRANCH   6   7
ATOM      7  C   UNL     1     -29.964  12.442  27.083  1.00  0.00    -0.000 C 
BRANCH   7   8
ATOM      8  C   UNL     1     -29.256  12.302  25.724  1.00  0.00    -0.000 C 
BRANCH   8   9
ATOM      9  C   UNL     1     -30.238  12.207  24.546  1.00  0.00    -0.000 C 
BRANCH   9  10
ATOM     10  C   UNL     1     -30.099  13.416  23.612  1.00  0.00    -0.000 C 
BRANCH  10  11
ATOM     11  C   UNL     1     -29.032  14.388  24.128  1.00  0.00    -0.003 C 
ATOM     12  C   UNL     1     -28.044  14.759  23.025  1.00  0.00     0.004 C 
ENDBRANCH  10  11
ENDBRANCH   9  10
ENDBRANCH   8   9
ENDBRANCH   7   8
ENDBRANCH   6   7
ENDBRANCH   5   6
ENDBRANCH   4   5
ENDBRANCH   3   4
ENDBRANCH   2   3
ENDBRANCH   1   2
BRANCH   1  13
ATOM     13  C   UNL     1     -33.290  17.169  23.388  1.00  0.00     0.000 C 
BRANCH  13  14
ATOM     14  C   UNL     1     -32.705  16.221  22.325  1.00  0.00     0.000 C 
BRANCH  14  15
ATOM     15  C   UNL     1     -31.236  16.489  21.939  1.00  0.00     0.000 C 
BRANCH  15  16
ATOM     16  C   UNL     1     -30.548  17.629  22.712  1.00  0.00     0.000 C 
BRANCH  16  17
ATOM     17  C   UNL     1     -29.273  18.137  22.018  1.00  0.00     0.000 C 
BRANCH  17  18
ATOM     18  C   UNL     1     -29.208  17.749  20.529  1.00  0.00     0.000 C 
BRANCH  18  19
ATOM     19  C   UNL     1     -27.876  17.120  20.071  1.00  0.00     0.000 C 
BRANCH  19  20
ATOM     20  C   UNL     1     -27.996  15.729  19.426  1.00  0.00     0.006 C 
BRANCH  20  21
ATOM     21  C   UNL     1     -27.445  15.686  17.995  1.00  0.00     0.053 C 
BRANCH  21  22
ATOM     22  C   UNL     1     -28.561  15.570  17.005  1.00  0.00     0.041 C 
ATOM     23  O   UNL     1     -29.739  15.860  17.342  1.00  0.00    -0.550 OA
ATOM     24  O   UNL     1     -28.295  15.179  15.699  1.00  0.00    -0.550 OA
ENDBRANCH  21  22
ENDBRANCH  20  21
ENDBRANCH  19  20
ENDBRANCH  18  19
ENDBRANCH  17  18
ENDBRANCH  16  17
ENDBRANCH  15  16
ENDBRANCH  14  15
ENDBRANCH  13  14
ENDBRANCH   1  13
TORSDOF 20
ENDMDL
MODEL 6
REMARK VINA RESULT:    -3.706      4.847      9.235
REMARK INTER + INTRA:         -11.601
REMARK INTER:                  -9.673
REMARK INTRA:                  -1.929
REMARK UNBOUND:                -3.562
REMARK SMILES CCCCCCCCCCCCCCCCCCCCCC(=O)[O-]
REMARK SMILES IDX 12 1 11 2 10 3 9 4 8 5 7 6 6 7 5 8 4 9 3 10 2 11 1 12 13 13
REMARK SMILES IDX 14 14 15 15 16 16 17 17 18 18 19 19 20 20 21 21 22 22 23 23
REMARK SMILES IDX 24 24
REMARK H PARENT
REMARK Flexibility Score: inf
ROOT
ATOM      1  C   UNL     1     -29.006  15.475  16.624  1.00  0.00     0.000 C 
ENDROOT
BRANCH   1   2
ATOM      2  C   UNL     1     -30.447  15.052  16.948  1.00  0.00     0.000 C 
BRANCH   2   3
ATOM      3  C   UNL     1     -31.178  14.450  15.738  1.00  0.00     0.000 C 
BRANCH   3   4
ATOM      4  C   UNL     1     -30.408  14.723  14.439  1.00  0.00    -0.000 C 
BRANCH   4   5
ATOM      5  C   UNL     1     -31.277  14.416  13.211  1.00  0.00    -0.000 C 
BRANCH   5   6
ATOM      6  C   UNL     1     -32.783  14.515  13.509  1.00  0.00    -0.000 C 
BRANCH   6   7
ATOM      7  C   UNL     1     -33.621  13.301  13.056  1.00  0.00    -0.000 C 
BRANCH   7   8
ATOM      8  C   UNL     1     -33.583  12.091  14.007  1.00  0.00    -0.000 C 
BRANCH   8   9
ATOM      9  C   UNL     1     -32.666  10.966  13.505  1.00  0.00    -0.000 C 
BRANCH   9  10
ATOM     10  C   UNL     1     -31.429  10.820  14.400  1.00  0.00    -0.000 C 
BRANCH  10  11
ATOM     11  C   UNL     1     -30.226  10.317  13.594  1.00  0.00    -0.003 C 
ATOM     12  C   UNL     1     -30.038  11.129  12.316  1.00  0.00     0.004 C 
ENDBRANCH  10  11
ENDBRANCH   9  10
ENDBRANCH   8   9
ENDBRANCH   7   8
ENDBRANCH   6   7
ENDBRANCH   5   6
ENDBRANCH   4   5
ENDBRANCH   3   4
ENDBRANCH   2   3
ENDBRANCH   1   2
BRANCH   1  13
ATOM     13  C   UNL     1     -28.197  15.834  17.884  1.00  0.00     0.000 C 
BRANCH  13  14
ATOM     14  C   UNL     1     -29.082  16.342  19.037  1.00  0.00     0.000 C 
BRANCH  14  15
ATOM     15  C   UNL     1     -28.754  17.762  19.543  1.00  0.00     0.000 C 
BRANCH  15  16
ATOM     16  C   UNL     1     -28.717  17.926  21.074  1.00  0.00     0.000 C 
BRANCH  16  17
ATOM     17  C   UNL     1     -30.099  17.752  21.727  1.00  0.00     0.000 C 
BRANCH  17  18
ATOM     18  C   UNL     1     -30.029  17.055  23.098  1.00  0.00     0.000 C 
BRANCH  18  19
ATOM     19  C   UNL     1     -28.780  16.179  23.327  1.00  0.00     0.000 C 
BRANCH  19  20
ATOM     20  C   UNL     1     -28.379  15.981  24.798  1.00  0.00     0.006 C 
BRANCH  20  21
ATOM     21  C   UNL     1     -29.082  14.785  25.453  1.00  0.00     0.053 C 
BRANCH  21  22
ATOM     22  C   UNL     1     -30.315  15.230  26.173  1.00  0.00     0.041 C 
ATOM     23  O   UNL     1     -30.229  16.032  27.141  1.00  0.00    -0.550 OA
ATOM     24  O   UNL     1     -31.564  14.790  25.753  1.00  0.00    -0.550 OA
ENDBRANCH  21  22
ENDBRANCH  20  21
ENDBRANCH  19  20
ENDBRANCH  18  19
ENDBRANCH  17  18
ENDBRANCH  16  17
ENDBRANCH  15  16
ENDBRANCH  14  15
ENDBRANCH  13  14
ENDBRANCH   1  13
TORSDOF 20
ENDMDL
MODEL 7
REMARK VINA RESULT:    -3.684      4.625      7.090
REMARK INTER + INTRA:         -11.553
REMARK INTER:                  -9.106
REMARK INTRA:                  -2.447
REMARK UNBOUND:                -3.562
REMARK SMILES CCCCCCCCCCCCCCCCCCCCCC(=O)[O-]
REMARK SMILES IDX 12 1 11 2 10 3 9 4 8 5 7 6 6 7 5 8 4 9 3 10 2 11 1 12 13 13
REMARK SMILES IDX 14 14 15 15 16 16 17 17 18 18 19 19 20 20 21 21 22 22 23 23
REMARK SMILES IDX 24 24
REMARK H PARENT
REMARK Flexibility Score: inf
ROOT
ATOM      1  C   UNL     1     -31.652  16.760  23.892  1.00  0.00     0.000 C 
ENDROOT
BRANCH   1   2
ATOM      2  C   UNL     1     -31.620  15.307  23.393  1.00  0.00     0.000 C 
BRANCH   2   3
ATOM      3  C   UNL     1     -32.309  14.330  24.358  1.00  0.00     0.000 C 
BRANCH   3   4
ATOM      4  C   UNL     1     -33.006  15.084  25.498  1.00  0.00    -0.000 C 
BRANCH   4   5
ATOM      5  C   UNL     1     -32.812  14.355  26.836  1.00  0.00    -0.000 C 
BRANCH   5   6
ATOM      6  C   UNL     1     -31.480  14.712  27.520  1.00  0.00    -0.000 C 
BRANCH   6   7
ATOM      7  C   UNL     1     -30.636  13.504  27.976  1.00  0.00    -0.000 C 
BRANCH   7   8
ATOM      8  C   UNL     1     -29.948  12.723  26.841  1.00  0.00    -0.000 C 
BRANCH   8   9
ATOM      9  C   UNL     1     -28.578  13.305  26.460  1.00  0.00    -0.000 C 
BRANCH   9  10
ATOM     10  C   UNL     1     -28.649  14.056  25.125  1.00  0.00    -0.000 C 
BRANCH  10  11
ATOM     11  C   UNL     1     -28.596  15.572  25.346  1.00  0.00    -0.003 C 
ATOM     12  C   UNL     1     -27.615  16.236  24.383  1.00  0.00     0.004 C 
ENDBRANCH  10  11
ENDBRANCH   9  10
ENDBRANCH   8   9
ENDBRANCH   7   8
ENDBRANCH   6   7
ENDBRANCH   5   6
ENDBRANCH   4   5
ENDBRANCH   3   4
ENDBRANCH   2   3
ENDBRANCH   1   2
BRANCH   1  13
ATOM     13  C   UNL     1     -30.981  17.738  22.910  1.00  0.00     0.000 C 
BRANCH  13  14
ATOM     14  C   UNL     1     -30.357  17.029  21.694  1.00  0.00     0.000 C 
BRANCH  14  15
ATOM     15  C   UNL     1     -29.097  17.704  21.113  1.00  0.00     0.000 C 
BRANCH  15  16
ATOM     16  C   UNL     1     -28.874  17.496  19.603  1.00  0.00     0.000 C 
BRANCH  16  17
ATOM     17  C   UNL     1     -29.112  16.043  19.158  1.00  0.00     0.000 C 
BRANCH  17  18
ATOM     18  C   UNL     1     -28.022  15.525  18.202  1.00  0.00     0.000 C 
BRANCH  18  19
ATOM     19  C   UNL     1     -28.411  15.506  16.709  1.00  0.00     0.000 C 
BRANCH  19  20
ATOM     20  C   UNL     1     -29.866  15.106  16.415  1.00  0.00     0.006 C 
BRANCH  20  21
ATOM     21  C   UNL     1     -29.985  13.721  15.768  1.00  0.00     0.053 C 
BRANCH  21  22
ATOM     22  C   UNL     1     -29.632  13.788  14.316  1.00  0.00     0.041 C 
ATOM     23  O   UNL     1     -28.610  13.192  13.883  1.00  0.00    -0.550 OA
ATOM     24  O   UNL     1     -30.451  14.478  13.431  1.00  0.00    -0.550 OA
ENDBRANCH  21  22
ENDBRANCH  20  21
ENDBRANCH  19  20
ENDBRANCH  18  19
ENDBRANCH  17  18
ENDBRANCH  16  17
ENDBRANCH  15  16
ENDBRANCH  14  15
ENDBRANCH  13  14
ENDBRANCH   1  13
TORSDOF 20
ENDMDL
MODEL 8
REMARK VINA RESULT:    -3.649      8.237     10.643
REMARK INTER + INTRA:         -11.477
REMARK INTER:                  -7.885
REMARK INTRA:                  -3.593
REMARK UNBOUND:                -3.562
REMARK SMILES CCCCCCCCCCCCCCCCCCCCCC(=O)[O-]
REMARK SMILES IDX 12 1 11 2 10 3 9 4 8 5 7 6 6 7 5 8 4 9 3 10 2 11 1 12 13 13
REMARK SMILES IDX 14 14 15 15 16 16 17 17 18 18 19 19 20 20 21 21 22 22 23 23
REMARK SMILES IDX 24 24
REMARK H PARENT
REMARK Flexibility Score: inf
ROOT
ATOM      1  C   UNL     1     -29.472  14.146  27.234  1.00  0.00     0.000 C 
ENDROOT
BRANCH   1   2
ATOM      2  C   UNL     1     -30.895  13.601  27.035  1.00  0.00     0.000 C 
BRANCH   2   3
ATOM      3  C   UNL     1     -31.185  13.206  25.579  1.00  0.00     0.000 C 
BRANCH   3   4
ATOM      4  C   UNL     1     -32.496  13.834  25.090  1.00  0.00    -0.000 C 
BRANCH   4   5
ATOM      5  C   UNL     1     -32.576  15.316  25.484  1.00  0.00    -0.000 C 
BRANCH   5   6
ATOM      6  C   UNL     1     -31.747  16.223  24.557  1.00  0.00    -0.000 C 
BRANCH   6   7
ATOM      7  C   UNL     1     -31.766  15.826  23.067  1.00  0.00    -0.000 C 
BRANCH   7   8
ATOM      8  C   UNL     1     -31.159  16.866  22.106  1.00  0.00    -0.000 C 
BRANCH   8   9
ATOM      9  C   UNL     1     -30.331  17.937  22.831  1.00  0.00    -0.000 C 
BRANCH   9  10
ATOM     10  C   UNL     1     -29.171  18.425  21.956  1.00  0.00    -0.000 C 
BRANCH  10  11
ATOM     11  C   UNL     1     -29.113  17.646  20.637  1.00  0.00    -0.003 C 
ATOM     12  C   UNL     1     -27.772  16.936  20.473  1.00  0.00     0.004 C 
ENDBRANCH  10  11
ENDBRANCH   9  10
ENDBRANCH   8   9
ENDBRANCH   7   8
ENDBRANCH   6   7
ENDBRANCH   5   6
ENDBRANCH   4   5
ENDBRANCH   3   4
ENDBRANCH   2   3
ENDBRANCH   1   2
BRANCH   1  13
ATOM     13  C   UNL     1     -28.619  14.055  25.956  1.00  0.00     0.000 C 
BRANCH  13  14
ATOM     14  C   UNL     1     -28.302  15.434  25.349  1.00  0.00     0.000 C 
BRANCH  14  15
ATOM     15  C   UNL     1     -27.966  15.430  23.844  1.00  0.00     0.000 C 
BRANCH  15  16
ATOM     16  C   UNL     1     -27.787  14.039  23.210  1.00  0.00     0.000 C 
BRANCH  16  17
ATOM     17  C   UNL     1     -26.373  13.817  22.646  1.00  0.00     0.000 C 
BRANCH  17  18
ATOM     18  C   UNL     1     -25.619  12.677  23.354  1.00  0.00     0.000 C 
BRANCH  18  19
ATOM     19  C   UNL     1     -25.258  12.944  24.830  1.00  0.00     0.000 C 
BRANCH  19  20
ATOM     20  C   UNL     1     -24.569  14.291  25.103  1.00  0.00     0.006 C 
BRANCH  20  21
ATOM     21  C   UNL     1     -24.835  14.820  26.518  1.00  0.00     0.053 C 
BRANCH  21  22
ATOM     22  C   UNL     1     -23.636  14.615  27.389  1.00  0.00     0.041 C 
ATOM     23  O   UNL     1     -22.514  15.068  27.041  1.00  0.00    -0.550 OA
ATOM     24  O   UNL     1     -23.764  13.954  28.606  1.00  0.00    -0.550 OA
ENDBRANCH  21  22
ENDBRANCH  20  21
ENDBRANCH  19  20
ENDBRANCH  18  19
ENDBRANCH  17  18
ENDBRANCH  16  17
ENDBRANCH  15  16
ENDBRANCH  14  15
ENDBRANCH  13  14
ENDBRANCH   1  13
TORSDOF 20
ENDMDL
MODEL 9
REMARK VINA RESULT:    -3.649      3.434      7.225
REMARK INTER + INTRA:         -11.477
REMARK INTER:                  -8.093
REMARK INTRA:                  -3.384
REMARK UNBOUND:                -3.562
REMARK SMILES CCCCCCCCCCCCCCCCCCCCCC(=O)[O-]
REMARK SMILES IDX 12 1 11 2 10 3 9 4 8 5 7 6 6 7 5 8 4 9 3 10 2 11 1 12 13 13
REMARK SMILES IDX 14 14 15 15 16 16 17 17 18 18 19 19 20 20 21 21 22 22 23 23
REMARK SMILES IDX 24 24
REMARK H PARENT
REMARK Flexibility Score: inf
ROOT
ATOM      1  C   UNL     1     -32.320  13.593  16.951  1.00  0.00     0.000 C 
ENDROOT
BRANCH   1   2
ATOM      2  C   UNL     1     -33.434  13.013  16.066  1.00  0.00     0.000 C 
BRANCH   2   3
ATOM      3  C   UNL     1     -32.903  12.052  14.992  1.00  0.00     0.000 C 
BRANCH   3   4
ATOM      4  C   UNL     1     -33.235  12.564  13.584  1.00  0.00    -0.000 C 
BRANCH   4   5
ATOM      5  C   UNL     1     -32.937  14.066  13.463  1.00  0.00    -0.000 C 
BRANCH   5   6
ATOM      6  C   UNL     1     -31.501  14.352  12.989  1.00  0.00    -0.000 C 
BRANCH   6   7
ATOM      7  C   UNL     1     -30.516  14.765  14.102  1.00  0.00    -0.000 C 
BRANCH   7   8
ATOM      8  C   UNL     1     -29.411  13.739  14.410  1.00  0.00    -0.000 C 
BRANCH   8   9
ATOM      9  C   UNL     1     -29.437  12.531  13.462  1.00  0.00    -0.000 C 
BRANCH   9  10
ATOM     10  C   UNL     1     -29.369  11.213  14.244  1.00  0.00    -0.000 C 
BRANCH  10  11
ATOM     11  C   UNL     1     -30.126  10.100  13.511  1.00  0.00    -0.003 C 
ATOM     12  C   UNL     1     -30.283  10.424  12.027  1.00  0.00     0.004 C 
ENDBRANCH  10  11
ENDBRANCH   9  10
ENDBRANCH   8   9
ENDBRANCH   7   8
ENDBRANCH   6   7
ENDBRANCH   5   6
ENDBRANCH   4   5
ENDBRANCH   3   4
ENDBRANCH   2   3
ENDBRANCH   1   2
BRANCH   1  13
ATOM     13  C   UNL     1     -31.257  12.545  17.327  1.00  0.00     0.000 C 
BRANCH  13  14
ATOM     14  C   UNL     1     -30.065  13.150  18.092  1.00  0.00     0.000 C 
BRANCH  14  15
ATOM     15  C   UNL     1     -29.928  14.683  17.993  1.00  0.00     0.000 C 
BRANCH  15  16
ATOM     16  C   UNL     1     -28.562  15.193  17.498  1.00  0.00     0.000 C 
BRANCH  16  17
ATOM     17  C   UNL     1     -27.955  16.265  18.420  1.00  0.00     0.000 C 
BRANCH  17  18
ATOM     18  C   UNL     1     -28.952  17.382  18.776  1.00  0.00     0.000 C 
BRANCH  18  19
ATOM     19  C   UNL     1     -28.842  17.928  20.214  1.00  0.00     0.000 C 
BRANCH  19  20
ATOM     20  C   UNL     1     -29.030  16.885  21.328  1.00  0.00     0.006 C 
BRANCH  20  21
ATOM     21  C   UNL     1     -30.428  16.256  21.326  1.00  0.00     0.053 C 
BRANCH  21  22
ATOM     22  C   UNL     1     -30.479  15.084  22.256  1.00  0.00     0.041 C 
ATOM     23  O   UNL     1     -30.057  13.959  21.880  1.00  0.00    -0.550 OA
ATOM     24  O   UNL     1     -30.957  15.242  23.551  1.00  0.00    -0.550 OA
ENDBRANCH  21  22
ENDBRANCH  20  21
ENDBRANCH  19  20
ENDBRANCH  18  19
ENDBRANCH  17  18
ENDBRANCH  16  17
ENDBRANCH  15  16
ENDBRANCH  14  15
ENDBRANCH  13  14
ENDBRANCH   1  13
TORSDOF 20
ENDMDL
