MODEL 1
REMARK VINA RESULT:     9.768      0.000      0.000
REMARK INTER + INTRA:          17.817
REMARK INTER:                  18.334
REMARK INTRA:                  -0.517
REMARK UNBOUND:                -0.517
REMARK SMILES O=C([O-])CCCCCCCCCCCCCCC(=O)[O-]
REMARK SMILES IDX 10 1 9 2 8 3 7 4 6 5 5 6 4 7 2 8 1 9 3 10 11 11 12 12 13 13
REMARK SMILES IDX 14 14 15 15 16 16 17 17 18 18 19 19 20 20
REMARK H PARENT
REMARK Flexibility Score: inf
ROOT
ATOM      1  C   UNL     1       1.164   8.762  -5.569  1.00  0.00     0.000 C 
ENDROOT
BRANCH   1   2
ATOM      2  C   UNL     1       0.367   8.338  -6.811  1.00  0.00     0.000 C 
BRANCH   2   3
ATOM      3  C   UNL     1       1.188   8.436  -8.107  1.00  0.00     0.000 C 
BRANCH   3   4
ATOM      4  C   UNL     1       2.586   9.035  -7.876  1.00  0.00     0.000 C 
BRANCH   4   5
ATOM      5  C   UNL     1       3.407   9.135  -9.172  1.00  0.00     0.000 C 
BRANCH   5   6
ATOM      6  C   UNL     1       2.650   9.860 -10.300  1.00  0.00     0.006 C 
BRANCH   6   7
ATOM      7  C   UNL     1       3.484   9.963 -11.584  1.00  0.00     0.053 C 
BRANCH   7   8
ATOM      8  C   UNL     1       2.772  10.737 -12.649  1.00  0.00     0.041 C 
ATOM      9  O   UNL     1       2.184  10.136 -13.587  1.00  0.00    -0.550 OA
ATOM     10  O   UNL     1       2.781  12.126 -12.622  1.00  0.00    -0.550 OA
ENDBRANCH   7   8
ENDBRANCH   6   7
ENDBRANCH   5   6
ENDBRANCH   4   5
ENDBRANCH   3   4
ENDBRANCH   2   3
ENDBRANCH   1   2
BRANCH   1  11
ATOM     11  C   UNL     1       0.459   8.303  -4.283  1.00  0.00     0.000 C 
BRANCH  11  12
ATOM     12  C   UNL     1       1.326   7.359  -3.430  1.00  0.00     0.000 C 
BRANCH  12  13
ATOM     13  C   UNL     1       2.842   7.635  -3.484  1.00  0.00     0.000 C 
BRANCH  13  14
ATOM     14  C   UNL     1       3.615   7.285  -2.198  1.00  0.00     0.000 C 
BRANCH  14  15
ATOM     15  C   UNL     1       5.101   7.664  -2.274  1.00  0.00     0.000 C 
BRANCH  15  16
ATOM     16  C   UNL     1       5.958   6.448  -2.656  1.00  0.00     0.006 C 
BRANCH  16  17
ATOM     17  C   UNL     1       5.158   5.394  -3.433  1.00  0.00     0.053 C 
BRANCH  17  18
ATOM     18  C   UNL     1       6.050   4.524  -4.265  1.00  0.00     0.041 C 
ATOM     19  O   UNL     1       6.069   4.649  -5.517  1.00  0.00    -0.550 OA
ATOM     20  O   UNL     1       6.884   3.597  -3.653  1.00  0.00    -0.550 OA
ENDBRANCH  17  18
ENDBRANCH  16  17
ENDBRANCH  15  16
ENDBRANCH  14  15
ENDBRANCH  13  14
ENDBRANCH  12  13
ENDBRANCH  11  12
ENDBRANCH   1  11
TORSDOF 15
ENDMDL
MODEL 2
REMARK VINA RESULT:     9.967      0.432      8.217
REMARK INTER + INTRA:          18.190
REMARK INTER:                  19.020
REMARK INTRA:                  -0.831
REMARK UNBOUND:                -0.517
REMARK SMILES O=C([O-])CCCCCCCCCCCCCCC(=O)[O-]
REMARK SMILES IDX 10 1 9 2 8 3 7 4 6 5 5 6 4 7 2 8 1 9 3 10 11 11 12 12 13 13
REMARK SMILES IDX 14 14 15 15 16 16 17 17 18 18 19 19 20 20
REMARK H PARENT
REMARK Flexibility Score: inf
ROOT
ATOM      1  C   UNL     1       0.119   8.250  -4.332  1.00  0.00     0.000 C 
ENDROOT
BRANCH   1   2
ATOM      2  C   UNL     1       1.007   7.268  -3.555  1.00  0.00     0.000 C 
BRANCH   2   3
ATOM      3  C   UNL     1       2.499   7.628  -3.627  1.00  0.00     0.000 C 
BRANCH   3   4
ATOM      4  C   UNL     1       3.283   7.148  -2.393  1.00  0.00     0.000 C 
BRANCH   4   5
ATOM      5  C   UNL     1       4.717   7.699  -2.353  1.00  0.00     0.000 C 
BRANCH   5   6
ATOM      6  C   UNL     1       5.773   6.635  -2.701  1.00  0.00     0.006 C 
BRANCH   6   7
ATOM      7  C   UNL     1       5.137   5.334  -3.210  1.00  0.00     0.053 C 
BRANCH   7   8
ATOM      8  C   UNL     1       6.057   4.587  -4.125  1.00  0.00     0.041 C 
ATOM      9  O   UNL     1       6.811   3.686  -3.671  1.00  0.00    -0.550 OA
ATOM     10  O   UNL     1       6.102   4.904  -5.476  1.00  0.00    -0.550 OA
ENDBRANCH   7   8
ENDBRANCH   6   7
ENDBRANCH   5   6
ENDBRANCH   4   5
ENDBRANCH   3   4
ENDBRANCH   2   3
ENDBRANCH   1   2
BRANCH   1  11
ATOM     11  C   UNL     1       0.891   8.881  -5.500  1.00  0.00     0.000 C 
BRANCH  11  12
ATOM     12  C   UNL     1       0.267   8.566  -6.871  1.00  0.00     0.000 C 
BRANCH  12  13
ATOM     13  C   UNL     1       1.267   8.470  -8.041  1.00  0.00     0.000 C 
BRANCH  13  14
ATOM     14  C   UNL     1       2.721   8.838  -7.688  1.00  0.00     0.000 C 
BRANCH  14  15
ATOM     15  C   UNL     1       3.570   9.165  -8.924  1.00  0.00     0.000 C 
BRANCH  15  16
ATOM     16  C   UNL     1       2.725   9.857 -10.003  1.00  0.00     0.006 C 
BRANCH  16  17
ATOM     17  C   UNL     1       3.590  10.494 -11.099  1.00  0.00     0.053 C 
BRANCH  17  18
ATOM     18  C   UNL     1       2.908  10.461 -12.433  1.00  0.00     0.041 C 
ATOM     19  O   UNL     1       2.696   9.362 -13.009  1.00  0.00    -0.550 OA
ATOM     20  O   UNL     1       2.478  11.642 -13.023  1.00  0.00    -0.550 OA
ENDBRANCH  17  18
ENDBRANCH  16  17
ENDBRANCH  15  16
ENDBRANCH  14  15
ENDBRANCH  13  14
ENDBRANCH  12  13
ENDBRANCH  11  12
ENDBRANCH   1  11
TORSDOF 15
ENDMDL
MODEL 3
REMARK VINA RESULT:    10.500      2.135      2.534
REMARK INTER + INTRA:          19.191
REMARK INTER:                  19.794
REMARK INTRA:                  -0.603
REMARK UNBOUND:                -0.517
REMARK SMILES O=C([O-])CCCCCCCCCCCCCCC(=O)[O-]
REMARK SMILES IDX 10 1 9 2 8 3 7 4 6 5 5 6 4 7 2 8 1 9 3 10 11 11 12 12 13 13
REMARK SMILES IDX 14 14 15 15 16 16 17 17 18 18 19 19 20 20
REMARK H PARENT
REMARK Flexibility Score: inf
ROOT
ATOM      1  C   UNL     1       0.398   8.833  -4.351  1.00  0.00     0.000 C 
ENDROOT
BRANCH   1   2
ATOM      2  C   UNL     1       0.413   9.234  -5.834  1.00  0.00     0.000 C 
BRANCH   2   3
ATOM      3  C   UNL     1       1.531   8.539  -6.628  1.00  0.00     0.000 C 
BRANCH   3   4
ATOM      4  C   UNL     1       1.208   8.428  -8.128  1.00  0.00     0.000 C 
BRANCH   4   5
ATOM      5  C   UNL     1      -0.304   8.425  -8.407  1.00  0.00     0.000 C 
BRANCH   5   6
ATOM      6  C   UNL     1      -0.639   8.789  -9.865  1.00  0.00     0.006 C 
BRANCH   6   7
ATOM      7  C   UNL     1       0.020   7.832 -10.867  1.00  0.00     0.053 C 
BRANCH   7   8
ATOM      8  C   UNL     1      -0.785   7.702 -12.123  1.00  0.00     0.041 C 
ATOM      9  O   UNL     1      -1.720   6.861 -12.195  1.00  0.00    -0.550 OA
ATOM     10  O   UNL     1      -0.484   8.491 -13.226  1.00  0.00    -0.550 OA
ENDBRANCH   7   8
ENDBRANCH   6   7
ENDBRANCH   5   6
ENDBRANCH   4   5
ENDBRANCH   3   4
ENDBRANCH   2   3
ENDBRANCH   1   2
BRANCH   1  11
ATOM     11  C   UNL     1       0.488   7.307  -4.195  1.00  0.00     0.000 C 
BRANCH  11  12
ATOM     12  C   UNL     1       1.515   6.874  -3.133  1.00  0.00     0.000 C 
BRANCH  12  13
ATOM     13  C   UNL     1       2.888   7.569  -3.227  1.00  0.00     0.000 C 
BRANCH  13  14
ATOM     14  C   UNL     1       3.791   7.400  -1.990  1.00  0.00     0.000 C 
BRANCH  14  15
ATOM     15  C   UNL     1       5.267   7.702  -2.284  1.00  0.00     0.000 C 
BRANCH  15  16
ATOM     16  C   UNL     1       6.040   6.411  -2.596  1.00  0.00     0.006 C 
BRANCH  16  17
ATOM     17  C   UNL     1       5.198   5.410  -3.397  1.00  0.00     0.053 C 
BRANCH  17  18
ATOM     18  C   UNL     1       6.054   4.524  -4.252  1.00  0.00     0.041 C 
ATOM     19  O   UNL     1       6.078   4.681  -5.500  1.00  0.00    -0.550 OA
ATOM     20  O   UNL     1       6.849   3.549  -3.663  1.00  0.00    -0.550 OA
ENDBRANCH  17  18
ENDBRANCH  16  17
ENDBRANCH  15  16
ENDBRANCH  14  15
ENDBRANCH  13  14
ENDBRANCH  12  13
ENDBRANCH  11  12
ENDBRANCH   1  11
TORSDOF 15
ENDMDL
MODEL 4
REMARK VINA RESULT:    10.653      2.079      8.601
REMARK INTER + INTRA:          19.478
REMARK INTER:                  20.036
REMARK INTRA:                  -0.558
REMARK UNBOUND:                -0.517
REMARK SMILES O=C([O-])CCCCCCCCCCCCCCC(=O)[O-]
REMARK SMILES IDX 10 1 9 2 8 3 7 4 6 5 5 6 4 7 2 8 1 9 3 10 11 11 12 12 13 13
REMARK SMILES IDX 14 14 15 15 16 16 17 17 18 18 19 19 20 20
REMARK H PARENT
REMARK Flexibility Score: inf
ROOT
ATOM      1  C   UNL     1       0.469   7.285  -4.335  1.00  0.00     0.000 C 
ENDROOT
BRANCH   1   2
ATOM      2  C   UNL     1       1.307   6.951  -3.092  1.00  0.00     0.000 C 
BRANCH   2   3
ATOM      3  C   UNL     1       2.722   7.548  -3.149  1.00  0.00     0.000 C 
BRANCH   3   4
ATOM      4  C   UNL     1       3.595   7.111  -1.960  1.00  0.00     0.000 C 
BRANCH   4   5
ATOM      5  C   UNL     1       5.041   7.620  -2.071  1.00  0.00     0.000 C 
BRANCH   5   6
ATOM      6  C   UNL     1       5.964   6.631  -2.807  1.00  0.00     0.006 C 
BRANCH   6   7
ATOM      7  C   UNL     1       5.218   5.366  -3.252  1.00  0.00     0.053 C 
BRANCH   7   8
ATOM      8  C   UNL     1       6.058   4.513  -4.152  1.00  0.00     0.041 C 
ATOM      9  O   UNL     1       6.045   4.699  -5.397  1.00  0.00    -0.550 OA
ATOM     10  O   UNL     1       6.833   3.493  -3.616  1.00  0.00    -0.550 OA
ENDBRANCH   7   8
ENDBRANCH   6   7
ENDBRANCH   5   6
ENDBRANCH   4   5
ENDBRANCH   3   4
ENDBRANCH   2   3
ENDBRANCH   1   2
BRANCH   1  11
ATOM     11  C   UNL     1       0.266   8.802  -4.467  1.00  0.00     0.000 C 
BRANCH  11  12
ATOM     12  C   UNL     1       0.677   9.343  -5.849  1.00  0.00     0.000 C 
BRANCH  12  13
ATOM     13  C   UNL     1       1.092   8.269  -6.875  1.00  0.00     0.000 C 
BRANCH  13  14
ATOM     14  C   UNL     1       1.007   8.708  -8.349  1.00  0.00     0.000 C 
BRANCH  14  15
ATOM     15  C   UNL     1       0.127   7.780  -9.198  1.00  0.00     0.000 C 
BRANCH  15  16
ATOM     16  C   UNL     1      -0.327   8.482 -10.487  1.00  0.00     0.006 C 
BRANCH  16  17
ATOM     17  C   UNL     1      -0.835   7.489 -11.541  1.00  0.00     0.053 C 
BRANCH  17  18
ATOM     18  C   UNL     1      -0.223   7.746 -12.884  1.00  0.00     0.041 C 
ATOM     19  O   UNL     1       0.539   6.891 -13.407  1.00  0.00    -0.550 OA
ATOM     20  O   UNL     1      -0.521   8.915 -13.572  1.00  0.00    -0.550 OA
ENDBRANCH  17  18
ENDBRANCH  16  17
ENDBRANCH  15  16
ENDBRANCH  14  15
ENDBRANCH  13  14
ENDBRANCH  12  13
ENDBRANCH  11  12
ENDBRANCH   1  11
TORSDOF 15
ENDMDL
MODEL 5
REMARK VINA RESULT:    11.115      2.248      9.103
REMARK INTER + INTRA:          20.344
REMARK INTER:                  21.014
REMARK INTRA:                  -0.670
REMARK UNBOUND:                -0.517
REMARK SMILES O=C([O-])CCCCCCCCCCCCCCC(=O)[O-]
REMARK SMILES IDX 10 1 9 2 8 3 7 4 6 5 5 6 4 7 2 8 1 9 3 10 11 11 12 12 13 13
REMARK SMILES IDX 14 14 15 15 16 16 17 17 18 18 19 19 20 20
REMARK H PARENT
REMARK Flexibility Score: inf
ROOT
ATOM      1  C   UNL     1       1.287   8.401  -7.307  1.00  0.00     0.000 C 
ENDROOT
BRANCH   1   2
ATOM      2  C   UNL     1       0.956   9.004  -5.933  1.00  0.00     0.000 C 
BRANCH   2   3
ATOM      3  C   UNL     1       0.168   8.039  -5.033  1.00  0.00     0.000 C 
BRANCH   3   4
ATOM      4  C   UNL     1       0.610   8.111  -3.561  1.00  0.00     0.000 C 
BRANCH   4   5
ATOM      5  C   UNL     1       1.607   7.002  -3.189  1.00  0.00     0.000 C 
BRANCH   5   6
ATOM      6  C   UNL     1       3.073   7.446  -3.336  1.00  0.00     0.006 C 
BRANCH   6   7
ATOM      7  C   UNL     1       3.882   7.203  -2.055  1.00  0.00     0.053 C 
BRANCH   7   8
ATOM      8  C   UNL     1       5.354   7.341  -2.293  1.00  0.00     0.041 C 
ATOM      9  O   UNL     1       6.006   6.395  -2.810  1.00  0.00    -0.550 OA
ATOM     10  O   UNL     1       6.013   8.505  -1.919  1.00  0.00    -0.550 OA
ENDBRANCH   7   8
ENDBRANCH   6   7
ENDBRANCH   5   6
ENDBRANCH   4   5
ENDBRANCH   3   4
ENDBRANCH   2   3
ENDBRANCH   1   2
BRANCH   1  11
ATOM     11  C   UNL     1       0.070   8.470  -8.243  1.00  0.00     0.000 C 
BRANCH  11  12
ATOM     12  C   UNL     1       0.397   8.033  -9.682  1.00  0.00     0.000 C 
BRANCH  12  13
ATOM     13  C   UNL     1      -0.708   8.316 -10.719  1.00  0.00     0.000 C 
BRANCH  13  14
ATOM     14  C   UNL     1      -0.559   7.561 -12.054  1.00  0.00     0.000 C 
BRANCH  14  15
ATOM     15  C   UNL     1      -0.041   8.454 -13.190  1.00  0.00     0.000 C 
BRANCH  15  16
ATOM     16  C   UNL     1       1.491   8.547 -13.160  1.00  0.00     0.006 C 
BRANCH  16  17
ATOM     17  C   UNL     1       2.001   9.910 -13.645  1.00  0.00     0.053 C 
BRANCH  17  18
ATOM     18  C   UNL     1       2.652  10.685 -12.540  1.00  0.00     0.041 C 
ATOM     19  O   UNL     1       3.123  10.085 -11.538  1.00  0.00    -0.550 OA
ATOM     20  O   UNL     1       2.766  12.066 -12.633  1.00  0.00    -0.550 OA
ENDBRANCH  17  18
ENDBRANCH  16  17
ENDBRANCH  15  16
ENDBRANCH  14  15
ENDBRANCH  13  14
ENDBRANCH  12  13
ENDBRANCH  11  12
ENDBRANCH   1  11
TORSDOF 15
ENDMDL
MODEL 6
REMARK VINA RESULT:    11.201      2.308      3.465
REMARK INTER + INTRA:          20.507
REMARK INTER:                  21.158
REMARK INTRA:                  -0.651
REMARK UNBOUND:                -0.517
REMARK SMILES O=C([O-])CCCCCCCCCCCCCCC(=O)[O-]
REMARK SMILES IDX 10 1 9 2 8 3 7 4 6 5 5 6 4 7 2 8 1 9 3 10 11 11 12 12 13 13
REMARK SMILES IDX 14 14 15 15 16 16 17 17 18 18 19 19 20 20
REMARK H PARENT
REMARK Flexibility Score: inf
ROOT
ATOM      1  C   UNL     1       0.258   8.445  -8.389  1.00  0.00     0.000 C 
ENDROOT
BRANCH   1   2
ATOM      2  C   UNL     1       0.312   7.733  -9.748  1.00  0.00     0.000 C 
BRANCH   2   3
ATOM      3  C   UNL     1      -0.630   8.360 -10.788  1.00  0.00     0.000 C 
BRANCH   3   4
ATOM      4  C   UNL     1      -0.881   7.435 -11.991  1.00  0.00     0.000 C 
BRANCH   4   5
ATOM      5  C   UNL     1       0.158   7.624 -13.108  1.00  0.00     0.000 C 
BRANCH   5   6
ATOM      6  C   UNL     1       0.652   9.078 -13.221  1.00  0.00     0.006 C 
BRANCH   6   7
ATOM      7  C   UNL     1       2.183   9.170 -13.226  1.00  0.00     0.053 C 
BRANCH   7   8
ATOM      8  C   UNL     1       2.670  10.375 -12.482  1.00  0.00     0.041 C 
ATOM      9  O   UNL     1       2.611  11.516 -13.012  1.00  0.00    -0.550 OA
ATOM     10  O   UNL     1       3.216  10.234 -11.213  1.00  0.00    -0.550 OA
ENDBRANCH   7   8
ENDBRANCH   6   7
ENDBRANCH   5   6
ENDBRANCH   4   5
ENDBRANCH   3   4
ENDBRANCH   2   3
ENDBRANCH   1   2
BRANCH   1  11
ATOM     11  C   UNL     1       1.641   8.454  -7.720  1.00  0.00     0.000 C 
BRANCH  11  12
ATOM     12  C   UNL     1       1.587   8.868  -6.238  1.00  0.00     0.000 C 
BRANCH  12  13
ATOM     13  C   UNL     1       0.355   8.360  -5.461  1.00  0.00     0.000 C 
BRANCH  13  14
ATOM     14  C   UNL     1       0.546   8.252  -3.936  1.00  0.00     0.000 C 
BRANCH  14  15
ATOM     15  C   UNL     1       1.550   7.161  -3.537  1.00  0.00     0.000 C 
BRANCH  15  16
ATOM     16  C   UNL     1       2.942   7.762  -3.291  1.00  0.00     0.006 C 
BRANCH  16  17
ATOM     17  C   UNL     1       3.741   6.968  -2.249  1.00  0.00     0.053 C 
BRANCH  17  18
ATOM     18  C   UNL     1       5.218   7.152  -2.424  1.00  0.00     0.041 C 
ATOM     19  O   UNL     1       5.909   6.249  -2.963  1.00  0.00    -0.550 OA
ATOM     20  O   UNL     1       5.823   8.335  -2.020  1.00  0.00    -0.550 OA
ENDBRANCH  17  18
ENDBRANCH  16  17
ENDBRANCH  15  16
ENDBRANCH  14  15
ENDBRANCH  13  14
ENDBRANCH  12  13
ENDBRANCH  11  12
ENDBRANCH   1  11
TORSDOF 15
ENDMDL
MODEL 7
REMARK VINA RESULT:    11.412      5.176      8.904
REMARK INTER + INTRA:          20.901
REMARK INTER:                  21.677
REMARK INTRA:                  -0.776
REMARK UNBOUND:                -0.517
REMARK SMILES O=C([O-])CCCCCCCCCCCCCCC(=O)[O-]
REMARK SMILES IDX 10 1 9 2 8 3 7 4 6 5 5 6 4 7 2 8 1 9 3 10 11 11 12 12 13 13
REMARK SMILES IDX 14 14 15 15 16 16 17 17 18 18 19 19 20 20
REMARK H PARENT
REMARK Flexibility Score: inf
ROOT
ATOM      1  C   UNL     1      -0.543   9.772  -3.182  1.00  0.00     0.000 C 
ENDROOT
BRANCH   1   2
ATOM      2  C   UNL     1       0.131   9.902  -4.556  1.00  0.00     0.000 C 
BRANCH   2   3
ATOM      3  C   UNL     1       0.901   8.637  -4.964  1.00  0.00     0.000 C 
BRANCH   3   4
ATOM      4  C   UNL     1       0.409   7.381  -4.223  1.00  0.00     0.000 C 
BRANCH   4   5
ATOM      5  C   UNL     1       1.411   6.888  -3.167  1.00  0.00     0.000 C 
BRANCH   5   6
ATOM      6  C   UNL     1       2.800   7.533  -3.318  1.00  0.00     0.006 C 
BRANCH   6   7
ATOM      7  C   UNL     1       3.693   7.277  -2.097  1.00  0.00     0.053 C 
BRANCH   7   8
ATOM      8  C   UNL     1       5.139   7.186  -2.476  1.00  0.00     0.041 C 
ATOM      9  O   UNL     1       5.573   6.177  -3.091  1.00  0.00    -0.550 OA
ATOM     10  O   UNL     1       6.014   8.206  -2.124  1.00  0.00    -0.550 OA
ENDBRANCH   7   8
ENDBRANCH   6   7
ENDBRANCH   5   6
ENDBRANCH   4   5
ENDBRANCH   3   4
ENDBRANCH   2   3
ENDBRANCH   1   2
BRANCH   1  11
ATOM     11  C   UNL     1      -1.345  11.038  -2.844  1.00  0.00     0.000 C 
BRANCH  11  12
ATOM     12  C   UNL     1      -1.457  11.289  -1.329  1.00  0.00     0.000 C 
BRANCH  12  13
ATOM     13  C   UNL     1      -0.691  12.523  -0.811  1.00  0.00     0.000 C 
BRANCH  13  14
ATOM     14  C   UNL     1      -0.633  13.713  -1.789  1.00  0.00     0.000 C 
BRANCH  14  15
ATOM     15  C   UNL     1       0.100  14.929  -1.205  1.00  0.00     0.000 C 
BRANCH  15  16
ATOM     16  C   UNL     1       0.227  16.047  -2.251  1.00  0.00     0.006 C 
BRANCH  16  17
ATOM     17  C   UNL     1       1.681  16.273  -2.685  1.00  0.00     0.053 C 
BRANCH  17  18
ATOM     18  C   UNL     1       1.875  15.987  -4.143  1.00  0.00     0.041 C 
ATOM     19  O   UNL     1       0.890  15.994  -4.927  1.00  0.00    -0.550 OA
ATOM     20  O   UNL     1       3.150  15.746  -4.640  1.00  0.00    -0.550 OA
ENDBRANCH  17  18
ENDBRANCH  16  17
ENDBRANCH  15  16
ENDBRANCH  14  15
ENDBRANCH  13  14
ENDBRANCH  12  13
ENDBRANCH  11  12
ENDBRANCH   1  11
TORSDOF 15
ENDMDL
MODEL 8
REMARK VINA RESULT:    11.597      5.199      6.917
REMARK INTER + INTRA:          21.250
REMARK INTER:                  21.876
REMARK INTRA:                  -0.627
REMARK UNBOUND:                -0.517
REMARK SMILES O=C([O-])CCCCCCCCCCCCCCC(=O)[O-]
REMARK SMILES IDX 10 1 9 2 8 3 7 4 6 5 5 6 4 7 2 8 1 9 3 10 11 11 12 12 13 13
REMARK SMILES IDX 14 14 15 15 16 16 17 17 18 18 19 19 20 20
REMARK H PARENT
REMARK Flexibility Score: inf
ROOT
ATOM      1  C   UNL     1      -0.896  11.245  -2.977  1.00  0.00     0.000 C 
ENDROOT
BRANCH   1   2
ATOM      2  C   UNL     1      -1.433  11.329  -1.541  1.00  0.00     0.000 C 
BRANCH   2   3
ATOM      3  C   UNL     1      -0.938  12.576  -0.792  1.00  0.00     0.000 C 
BRANCH   3   4
ATOM      4  C   UNL     1      -0.536  13.716  -1.743  1.00  0.00     0.000 C 
BRANCH   4   5
ATOM      5  C   UNL     1      -0.203  15.019  -0.997  1.00  0.00     0.000 C 
BRANCH   5   6
ATOM      6  C   UNL     1       0.869  15.858  -1.716  1.00  0.00     0.006 C 
BRANCH   6   7
ATOM      7  C   UNL     1       0.476  16.181  -3.164  1.00  0.00     0.053 C 
BRANCH   7   8
ATOM      8  C   UNL     1       1.616  15.964  -4.111  1.00  0.00     0.041 C 
ATOM      9  O   UNL     1       2.796  16.218  -3.752  1.00  0.00    -0.550 OA
ATOM     10  O   UNL     1       1.372  15.509  -5.399  1.00  0.00    -0.550 OA
ENDBRANCH   7   8
ENDBRANCH   6   7
ENDBRANCH   5   6
ENDBRANCH   4   5
ENDBRANCH   3   4
ENDBRANCH   2   3
ENDBRANCH   1   2
BRANCH   1  11
ATOM     11  C   UNL     1      -0.567   9.793  -3.355  1.00  0.00     0.000 C 
BRANCH  11  12
ATOM     12  C   UNL     1      -0.006   9.658  -4.782  1.00  0.00     0.000 C 
BRANCH  12  13
ATOM     13  C   UNL     1       0.932   8.455  -5.007  1.00  0.00     0.000 C 
BRANCH  13  14
ATOM     14  C   UNL     1       0.605   7.207  -4.165  1.00  0.00     0.000 C 
BRANCH  14  15
ATOM     15  C   UNL     1       1.429   7.128  -2.872  1.00  0.00     0.000 C 
BRANCH  15  16
ATOM     16  C   UNL     1       2.897   7.495  -3.133  1.00  0.00     0.006 C 
BRANCH  16  17
ATOM     17  C   UNL     1       3.838   6.919  -2.066  1.00  0.00     0.053 C 
BRANCH  17  18
ATOM     18  C   UNL     1       5.278   7.117  -2.432  1.00  0.00     0.041 C 
ATOM     19  O   UNL     1       5.907   6.214  -3.042  1.00  0.00    -0.550 OA
ATOM     20  O   UNL     1       5.914   8.314  -2.127  1.00  0.00    -0.550 OA
ENDBRANCH  17  18
ENDBRANCH  16  17
ENDBRANCH  15  16
ENDBRANCH  14  15
ENDBRANCH  13  14
ENDBRANCH  12  13
ENDBRANCH  11  12
ENDBRANCH   1  11
TORSDOF 15
ENDMDL
