MODEL 1
REMARK VINA RESULT:    -6.311      0.000      0.000
REMARK INTER + INTRA:          -6.311
REMARK INTER:                  -6.311
REMARK INTRA:                   0.000
REMARK UNBOUND:                 0.000
REMARK SMILES CC(C)=C1CC[C@H](C)CC1=O
REMARK SMILES IDX 8 1 7 2 6 3 5 4 4 5 2 6 1 7 3 8 10 9 11 10 9 11
REMARK H PARENT
REMARK Flexibility Score: inf
ROOT
ATOM      1  C   UNL     1      -8.214  28.266  22.327  1.00  0.00     0.008 C 
ATOM      2  C   UNL     1      -8.529  29.723  22.687  1.00  0.00    -0.006 C 
ATOM      3  C   UNL     1      -7.593  30.220  23.801  1.00  0.00     0.008 C 
ATOM      4  C   UNL     1      -7.960  31.641  24.244  1.00  0.00     0.039 C 
ATOM      5  C   UNL     1      -8.046  32.614  23.075  1.00  0.00    -0.006 C 
ATOM      6  C   UNL     1      -7.724  33.933  23.224  1.00  0.00    -0.070 C 
ATOM      7  C   UNL     1      -7.286  34.486  24.561  1.00  0.00     0.039 C 
ATOM      8  C   UNL     1      -7.752  34.895  22.060  1.00  0.00     0.039 C 
ATOM      9  C   UNL     1      -8.610  32.065  21.807  1.00  0.00     0.159 C 
ATOM     10  O   UNL     1      -9.275  32.789  21.019  1.00  0.00    -0.295 OA
ATOM     11  C   UNL     1      -8.395  30.622  21.450  1.00  0.00     0.084 C 
ENDROOT
TORSDOF 0
ENDMDL
MODEL 2
REMARK VINA RESULT:    -6.238      2.072      3.534
REMARK INTER + INTRA:          -6.238
REMARK INTER:                  -6.238
REMARK INTRA:                   0.000
REMARK UNBOUND:                 0.000
REMARK SMILES CC(C)=C1CC[C@H](C)CC1=O
REMARK SMILES IDX 8 1 7 2 6 3 5 4 4 5 2 6 1 7 3 8 10 9 11 10 9 11
REMARK H PARENT
REMARK Flexibility Score: inf
ROOT
ATOM      1  C   UNL     1      -7.510  33.083  19.830  1.00  0.00     0.008 C 
ATOM      2  C   UNL     1      -7.250  33.190  21.338  1.00  0.00    -0.006 C 
ATOM      3  C   UNL     1      -7.769  34.530  21.883  1.00  0.00     0.008 C 
ATOM      4  C   UNL     1      -7.427  34.697  23.369  1.00  0.00     0.039 C 
ATOM      5  C   UNL     1      -7.879  33.510  24.209  1.00  0.00    -0.006 C 
ATOM      6  C   UNL     1      -8.270  33.669  25.508  1.00  0.00    -0.070 C 
ATOM      7  C   UNL     1      -8.254  35.027  26.171  1.00  0.00     0.039 C 
ATOM      8  C   UNL     1      -8.774  32.508  26.335  1.00  0.00     0.039 C 
ATOM      9  C   UNL     1      -7.756  32.168  23.567  1.00  0.00     0.159 C 
ATOM     10  O   UNL     1      -7.506  31.137  24.248  1.00  0.00    -0.295 OA
ATOM     11  C   UNL     1      -7.922  32.026  22.082  1.00  0.00     0.084 C 
ENDROOT
TORSDOF 0
ENDMDL
MODEL 3
REMARK VINA RESULT:    -6.238      1.775      2.706
REMARK INTER + INTRA:          -6.238
REMARK INTER:                  -6.238
REMARK INTRA:                   0.000
REMARK UNBOUND:                 0.000
REMARK SMILES CC(C)=C1CC[C@H](C)CC1=O
REMARK SMILES IDX 8 1 7 2 6 3 5 4 4 5 2 6 1 7 3 8 10 9 11 10 9 11
REMARK H PARENT
REMARK Flexibility Score: inf
ROOT
ATOM      1  C   UNL     1      -9.363  29.387  25.178  1.00  0.00     0.008 C 
ATOM      2  C   UNL     1      -8.449  30.318  24.372  1.00  0.00    -0.006 C 
ATOM      3  C   UNL     1      -8.599  30.054  22.865  1.00  0.00     0.008 C 
ATOM      4  C   UNL     1      -7.618  30.905  22.050  1.00  0.00     0.039 C 
ATOM      5  C   UNL     1      -7.702  32.386  22.396  1.00  0.00    -0.006 C 
ATOM      6  C   UNL     1      -7.459  33.349  21.457  1.00  0.00    -0.070 C 
ATOM      7  C   UNL     1      -7.079  32.983  20.041  1.00  0.00     0.039 C 
ATOM      8  C   UNL     1      -7.595  34.820  21.774  1.00  0.00     0.039 C 
ATOM      9  C   UNL     1      -7.948  32.711  23.832  1.00  0.00     0.159 C 
ATOM     10  O   UNL     1      -7.471  33.751  24.359  1.00  0.00    -0.295 OA
ATOM     11  C   UNL     1      -8.772  31.787  24.682  1.00  0.00     0.084 C 
ENDROOT
TORSDOF 0
ENDMDL
MODEL 4
REMARK VINA RESULT:    -6.150      1.643      2.404
REMARK INTER + INTRA:          -6.150
REMARK INTER:                  -6.150
REMARK INTRA:                   0.000
REMARK UNBOUND:                 0.000
REMARK SMILES CC(C)=C1CC[C@H](C)CC1=O
REMARK SMILES IDX 8 1 7 2 6 3 5 4 4 5 2 6 1 7 3 8 10 9 11 10 9 11
REMARK H PARENT
REMARK Flexibility Score: inf
ROOT
ATOM      1  C   UNL     1      -8.633  28.048  22.313  1.00  0.00     0.008 C 
ATOM      2  C   UNL     1      -8.059  29.412  22.715  1.00  0.00    -0.006 C 
ATOM      3  C   UNL     1      -8.246  30.433  21.582  1.00  0.00     0.008 C 
ATOM      4  C   UNL     1      -7.589  31.775  21.926  1.00  0.00     0.039 C 
ATOM      5  C   UNL     1      -8.034  32.314  23.279  1.00  0.00    -0.006 C 
ATOM      6  C   UNL     1      -8.124  33.657  23.513  1.00  0.00    -0.070 C 
ATOM      7  C   UNL     1      -7.768  34.664  22.444  1.00  0.00     0.039 C 
ATOM      8  C   UNL     1      -8.619  34.203  24.832  1.00  0.00     0.039 C 
ATOM      9  C   UNL     1      -8.249  31.297  24.351  1.00  0.00     0.159 C 
ATOM     10  O   UNL     1      -8.025  31.566  25.562  1.00  0.00    -0.295 OA
ATOM     11  C   UNL     1      -8.734  29.922  23.997  1.00  0.00     0.084 C 
ENDROOT
TORSDOF 0
ENDMDL
MODEL 5
REMARK VINA RESULT:    -6.131      2.104      3.555
REMARK INTER + INTRA:          -6.131
REMARK INTER:                  -6.131
REMARK INTRA:                   0.000
REMARK UNBOUND:                 0.000
REMARK SMILES CC(C)=C1CC[C@H](C)CC1=O
REMARK SMILES IDX 8 1 7 2 6 3 5 4 4 5 2 6 1 7 3 8 10 9 11 10 9 11
REMARK H PARENT
REMARK Flexibility Score: inf
ROOT
ATOM      1  C   UNL     1      -7.128  33.371  19.949  1.00  0.00     0.008 C 
ATOM      2  C   UNL     1      -7.891  33.336  21.278  1.00  0.00    -0.006 C 
ATOM      3  C   UNL     1      -7.637  32.010  22.014  1.00  0.00     0.008 C 
ATOM      4  C   UNL     1      -8.471  31.915  23.297  1.00  0.00     0.039 C 
ATOM      5  C   UNL     1      -8.295  33.129  24.200  1.00  0.00    -0.006 C 
ATOM      6  C   UNL     1      -8.378  33.020  25.559  1.00  0.00    -0.070 C 
ATOM      7  C   UNL     1      -8.666  31.693  26.222  1.00  0.00     0.039 C 
ATOM      8  C   UNL     1      -8.148  34.205  26.467  1.00  0.00     0.039 C 
ATOM      9  C   UNL     1      -8.145  34.444  23.509  1.00  0.00     0.159 C 
ATOM     10  O   UNL     1      -8.578  35.508  24.027  1.00  0.00    -0.295 OA
ATOM     11  C   UNL     1      -7.475  34.517  22.167  1.00  0.00     0.084 C 
ENDROOT
TORSDOF 0
ENDMDL
MODEL 6
REMARK VINA RESULT:    -5.996      1.498      4.146
REMARK INTER + INTRA:          -5.996
REMARK INTER:                  -5.996
REMARK INTRA:                   0.000
REMARK UNBOUND:                 0.000
REMARK SMILES CC(C)=C1CC[C@H](C)CC1=O
REMARK SMILES IDX 8 1 7 2 6 3 5 4 4 5 2 6 1 7 3 8 10 9 11 10 9 11
REMARK H PARENT
REMARK Flexibility Score: inf
ROOT
ATOM      1  C   UNL     1      -8.495  35.411  26.397  1.00  0.00     0.008 C 
ATOM      2  C   UNL     1      -7.897  34.577  25.258  1.00  0.00    -0.006 C 
ATOM      3  C   UNL     1      -8.336  33.108  25.374  1.00  0.00     0.008 C 
ATOM      4  C   UNL     1      -7.667  32.240  24.302  1.00  0.00     0.039 C 
ATOM      5  C   UNL     1      -7.855  32.797  22.897  1.00  0.00    -0.006 C 
ATOM      6  C   UNL     1      -7.940  31.972  21.812  1.00  0.00    -0.070 C 
ATOM      7  C   UNL     1      -7.833  30.471  21.959  1.00  0.00     0.039 C 
ATOM      8  C   UNL     1      -8.184  32.509  20.421  1.00  0.00     0.039 C 
ATOM      9  C   UNL     1      -7.823  34.284  22.772  1.00  0.00     0.159 C 
ATOM     10  O   UNL     1      -7.374  34.845  21.736  1.00  0.00    -0.295 OA
ATOM     11  C   UNL     1      -8.323  35.145  23.896  1.00  0.00     0.084 C 
ENDROOT
TORSDOF 0
ENDMDL
MODEL 7
REMARK VINA RESULT:    -5.932      1.674      4.406
REMARK INTER + INTRA:          -5.932
REMARK INTER:                  -5.932
REMARK INTRA:                   0.000
REMARK UNBOUND:                 0.000
REMARK SMILES CC(C)=C1CC[C@H](C)CC1=O
REMARK SMILES IDX 8 1 7 2 6 3 5 4 4 5 2 6 1 7 3 8 10 9 11 10 9 11
REMARK H PARENT
REMARK Flexibility Score: inf
ROOT
ATOM      1  C   UNL     1      -8.357  35.364  26.327  1.00  0.00     0.008 C 
ATOM      2  C   UNL     1      -8.604  34.549  25.051  1.00  0.00    -0.006 C 
ATOM      3  C   UNL     1      -7.615  34.958  23.948  1.00  0.00     0.008 C 
ATOM      4  C   UNL     1      -7.913  34.226  22.633  1.00  0.00     0.039 C 
ATOM      5  C   UNL     1      -7.999  32.716  22.812  1.00  0.00    -0.006 C 
ATOM      6  C   UNL     1      -7.622  31.861  21.816  1.00  0.00    -0.070 C 
ATOM      7  C   UNL     1      -7.121  32.379  20.487  1.00  0.00     0.039 C 
ATOM      8  C   UNL     1      -7.649  30.362  22.002  1.00  0.00     0.039 C 
ATOM      9  C   UNL     1      -8.623  32.241  24.083  1.00  0.00     0.159 C 
ATOM     10  O   UNL     1      -9.284  31.169  24.126  1.00  0.00    -0.295 OA
ATOM     11  C   UNL     1      -8.475  33.046  25.341  1.00  0.00     0.084 C 
ENDROOT
TORSDOF 0
ENDMDL
MODEL 8
REMARK VINA RESULT:    -5.906      1.473      2.432
REMARK INTER + INTRA:          -5.906
REMARK INTER:                  -5.906
REMARK INTRA:                   0.000
REMARK UNBOUND:                 0.000
REMARK SMILES CC(C)=C1CC[C@H](C)CC1=O
REMARK SMILES IDX 8 1 7 2 6 3 5 4 4 5 2 6 1 7 3 8 10 9 11 10 9 11
REMARK H PARENT
REMARK Flexibility Score: inf
ROOT
ATOM      1  C   UNL     1      -8.423  30.130  26.180  1.00  0.00     0.008 C 
ATOM      2  C   UNL     1      -8.690  31.028  24.966  1.00  0.00    -0.006 C 
ATOM      3  C   UNL     1      -8.025  32.401  25.152  1.00  0.00     0.008 C 
ATOM      4  C   UNL     1      -8.366  33.347  23.994  1.00  0.00     0.039 C 
ATOM      5  C   UNL     1      -8.070  32.733  22.632  1.00  0.00    -0.006 C 
ATOM      6  C   UNL     1      -7.682  33.506  21.574  1.00  0.00    -0.070 C 
ATOM      7  C   UNL     1      -7.548  35.006  21.708  1.00  0.00     0.039 C 
ATOM      8  C   UNL     1      -7.331  32.903  20.234  1.00  0.00     0.039 C 
ATOM      9  C   UNL     1      -8.342  31.271  22.499  1.00  0.00     0.159 C 
ATOM     10  O   UNL     1      -8.721  30.773  21.405  1.00  0.00    -0.295 OA
ATOM     11  C   UNL     1      -8.171  30.363  23.682  1.00  0.00     0.084 C 
ENDROOT
TORSDOF 0
ENDMDL
MODEL 9
REMARK VINA RESULT:    -5.797      1.533      4.444
REMARK INTER + INTRA:          -5.797
REMARK INTER:                  -5.797
REMARK INTRA:                   0.000
REMARK UNBOUND:                 0.000
REMARK SMILES CC(C)=C1CC[C@H](C)CC1=O
REMARK SMILES IDX 8 1 7 2 6 3 5 4 4 5 2 6 1 7 3 8 10 9 11 10 9 11
REMARK H PARENT
REMARK Flexibility Score: inf
ROOT
ATOM      1  C   UNL     1      -7.473  35.001  21.652  1.00  0.00     0.008 C 
ATOM      2  C   UNL     1      -8.216  33.682  21.894  1.00  0.00    -0.006 C 
ATOM      3  C   UNL     1      -7.467  32.509  21.242  1.00  0.00     0.008 C 
ATOM      4  C   UNL     1      -8.248  31.198  21.387  1.00  0.00     0.039 C 
ATOM      5  C   UNL     1      -8.643  30.909  22.830  1.00  0.00    -0.006 C 
ATOM      6  C   UNL     1      -8.741  29.629  23.297  1.00  0.00    -0.070 C 
ATOM      7  C   UNL     1      -8.479  28.445  22.395  1.00  0.00     0.039 C 
ATOM      8  C   UNL     1      -9.076  29.332  24.739  1.00  0.00     0.039 C 
ATOM      9  C   UNL     1      -9.024  32.094  23.654  1.00  0.00     0.159 C 
ATOM     10  O   UNL     1      -9.888  32.006  24.567  1.00  0.00    -0.295 OA
ATOM     11  C   UNL     1      -8.380  33.426  23.400  1.00  0.00     0.084 C 
ENDROOT
TORSDOF 0
ENDMDL
