MODEL 1
REMARK VINA RESULT:    -2.701      0.000      0.000
REMARK INTER + INTRA:         -12.571
REMARK INTER:                  -6.808
REMARK INTRA:                  -5.764
REMARK UNBOUND:                -5.764
REMARK SMILES CCCCCCCCCCCCCCCCCCCCCCCCCCCC(=O)[O-]
REMARK SMILES IDX 15 1 16 2 17 3 18 4 19 5 20 6 21 7 22 8 23 9 24 10 25 11
REMARK SMILES IDX 26 12 27 13 28 14 29 15 30 16 14 17 13 18 12 19 11 20 10 21
REMARK SMILES IDX 9 22 8 23 7 24 6 25 5 26 4 27 3 28 2 29 1 30
REMARK H PARENT
REMARK Flexibility Score: inf
ROOT
ATOM      1  C   UNL     1     151.260 157.990 162.837  1.00  0.00     0.000 C 
ENDROOT
BRANCH   1   2
ATOM      2  C   UNL     1     151.017 159.294 162.066  1.00  0.00     0.000 C 
BRANCH   2   3
ATOM      3  C   UNL     1     149.652 159.903 162.424  1.00  0.00     0.000 C 
BRANCH   3   4
ATOM      4  C   UNL     1     148.569 159.613 161.368  1.00  0.00     0.000 C 
BRANCH   4   5
ATOM      5  C   UNL     1     147.148 160.079 161.738  1.00  0.00     0.000 C 
BRANCH   5   6
ATOM      6  C   UNL     1     146.184 160.081 160.539  1.00  0.00     0.000 C 
BRANCH   6   7
ATOM      7  C   UNL     1     146.914 160.015 159.184  1.00  0.00     0.000 C 
BRANCH   7   8
ATOM      8  C   UNL     1     146.198 159.203 158.091  1.00  0.00     0.000 C 
BRANCH   8   9
ATOM      9  C   UNL     1     146.945 159.215 156.747  1.00  0.00     0.000 C 
BRANCH   9  10
ATOM     10  C   UNL     1     147.789 160.486 156.559  1.00  0.00     0.000 C 
BRANCH  10  11
ATOM     11  C   UNL     1     147.851 160.941 155.092  1.00  0.00     0.000 C 
BRANCH  11  12
ATOM     12  C   UNL     1     149.247 160.694 154.499  1.00  0.00     0.006 C 
BRANCH  12  13
ATOM     13  C   UNL     1     149.974 162.003 154.161  1.00  0.00     0.053 C 
BRANCH  13  14
ATOM     14  C   UNL     1     150.363 162.759 155.396  1.00  0.00     0.041 C 
ATOM     15  O   UNL     1     149.767 163.826 155.700  1.00  0.00    -0.550 OA
ATOM     16  O   UNL     1     151.369 162.272 156.220  1.00  0.00    -0.550 OA
ENDBRANCH  13  14
ENDBRANCH  12  13
ENDBRANCH  11  12
ENDBRANCH  10  11
ENDBRANCH   9  10
ENDBRANCH   8   9
ENDBRANCH   7   8
ENDBRANCH   6   7
ENDBRANCH   5   6
ENDBRANCH   4   5
ENDBRANCH   3   4
ENDBRANCH   2   3
ENDBRANCH   1   2
BRANCH   1  17
ATOM     17  C   UNL     1     150.850 156.742 162.037  1.00  0.00     0.000 C 
BRANCH  17  18
ATOM     18  C   UNL     1     149.639 155.977 162.607  1.00  0.00     0.000 C 
BRANCH  18  19
ATOM     19  C   UNL     1     149.004 156.605 163.865  1.00  0.00     0.000 C 
BRANCH  19  20
ATOM     20  C   UNL     1     147.500 156.919 163.757  1.00  0.00     0.000 C 
BRANCH  20  21
ATOM     21  C   UNL     1     146.748 155.937 162.843  1.00  0.00     0.000 C 
BRANCH  21  22
ATOM     22  C   UNL     1     145.878 156.646 161.790  1.00  0.00    -0.000 C 
BRANCH  22  23
ATOM     23  C   UNL     1     146.024 156.109 160.355  1.00  0.00    -0.000 C 
BRANCH  23  24
ATOM     24  C   UNL     1     146.959 154.889 160.263  1.00  0.00    -0.000 C 
BRANCH  24  25
ATOM     25  C   UNL     1     148.167 155.142 159.338  1.00  0.00    -0.000 C 
BRANCH  25  26
ATOM     26  C   UNL     1     148.482 156.631 159.095  1.00  0.00    -0.000 C 
BRANCH  26  27
ATOM     27  C   UNL     1     149.778 156.923 158.312  1.00  0.00    -0.000 C 
BRANCH  27  28
ATOM     28  C   UNL     1     150.341 158.348 158.515  1.00  0.00    -0.000 C 
BRANCH  28  29
ATOM     29  C   UNL     1     151.039 158.924 157.270  1.00  0.00    -0.003 C 
ATOM     30  C   UNL     1     151.077 157.947 156.097  1.00  0.00     0.004 C 
ENDBRANCH  28  29
ENDBRANCH  27  28
ENDBRANCH  26  27
ENDBRANCH  25  26
ENDBRANCH  24  25
ENDBRANCH  23  24
ENDBRANCH  22  23
ENDBRANCH  21  22
ENDBRANCH  20  21
ENDBRANCH  19  20
ENDBRANCH  18  19
ENDBRANCH  17  18
ENDBRANCH   1  17
TORSDOF 26
ENDMDL
MODEL 2
REMARK VINA RESULT:    -2.679      6.828      9.107
REMARK INTER + INTRA:         -12.516
REMARK INTER:                  -6.732
REMARK INTRA:                  -5.784
REMARK UNBOUND:                -5.764
REMARK SMILES CCCCCCCCCCCCCCCCCCCCCCCCCCCC(=O)[O-]
REMARK SMILES IDX 15 1 16 2 17 3 18 4 19 5 20 6 21 7 22 8 23 9 24 10 25 11
REMARK SMILES IDX 26 12 27 13 28 14 29 15 30 16 14 17 13 18 12 19 11 20 10 21
REMARK SMILES IDX 9 22 8 23 7 24 6 25 5 26 4 27 3 28 2 29 1 30
REMARK H PARENT
REMARK Flexibility Score: inf
ROOT
ATOM      1  C   UNL     1     149.176 165.140 154.029  1.00  0.00     0.000 C 
ENDROOT
BRANCH   1   2
ATOM      2  C   UNL     1     148.382 165.384 155.319  1.00  0.00     0.000 C 
BRANCH   2   3
ATOM      3  C   UNL     1     146.978 165.926 155.010  1.00  0.00     0.000 C 
BRANCH   3   4
ATOM      4  C   UNL     1     145.876 165.252 155.849  1.00  0.00     0.000 C 
BRANCH   4   5
ATOM      5  C   UNL     1     146.203 163.832 156.347  1.00  0.00     0.000 C 
BRANCH   5   6
ATOM      6  C   UNL     1     145.969 162.750 155.279  1.00  0.00     0.000 C 
BRANCH   6   7
ATOM      7  C   UNL     1     147.259 162.007 154.887  1.00  0.00     0.000 C 
BRANCH   7   8
ATOM      8  C   UNL     1     147.525 161.906 153.374  1.00  0.00     0.000 C 
BRANCH   8   9
ATOM      9  C   UNL     1     146.237 161.929 152.535  1.00  0.00     0.000 C 
BRANCH   9  10
ATOM     10  C   UNL     1     146.279 162.994 151.427  1.00  0.00     0.000 C 
BRANCH  10  11
ATOM     11  C   UNL     1     145.883 164.389 151.936  1.00  0.00     0.000 C 
BRANCH  11  12
ATOM     12  C   UNL     1     146.124 165.456 150.857  1.00  0.00     0.006 C 
BRANCH  12  13
ATOM     13  C   UNL     1     147.273 166.404 151.223  1.00  0.00     0.053 C 
BRANCH  13  14
ATOM     14  C   UNL     1     147.764 167.172 150.033  1.00  0.00     0.041 C 
ATOM     15  O   UNL     1     147.862 166.606 148.911  1.00  0.00    -0.550 OA
ATOM     16  O   UNL     1     148.090 168.515 150.158  1.00  0.00    -0.550 OA
ENDBRANCH  13  14
ENDBRANCH  12  13
ENDBRANCH  11  12
ENDBRANCH  10  11
ENDBRANCH   9  10
ENDBRANCH   8   9
ENDBRANCH   7   8
ENDBRANCH   6   7
ENDBRANCH   5   6
ENDBRANCH   4   5
ENDBRANCH   3   4
ENDBRANCH   2   3
ENDBRANCH   1   2
BRANCH   1  17
ATOM     17  C   UNL     1     150.450 164.311 154.264  1.00  0.00     0.000 C 
BRANCH  17  18
ATOM     18  C   UNL     1     150.546 163.654 155.657  1.00  0.00     0.000 C 
BRANCH  18  19
ATOM     19  C   UNL     1     151.176 162.246 155.672  1.00  0.00     0.000 C 
BRANCH  19  20
ATOM     20  C   UNL     1     150.958 161.413 154.394  1.00  0.00     0.000 C 
BRANCH  20  21
ATOM     21  C   UNL     1     152.271 161.082 153.665  1.00  0.00     0.000 C 
BRANCH  21  22
ATOM     22  C   UNL     1     152.057 160.710 152.187  1.00  0.00    -0.000 C 
BRANCH  22  23
ATOM     23  C   UNL     1     150.787 159.888 151.899  1.00  0.00    -0.000 C 
BRANCH  23  24
ATOM     24  C   UNL     1     149.796 160.621 150.975  1.00  0.00    -0.000 C 
BRANCH  24  25
ATOM     25  C   UNL     1     150.421 161.863 150.308  1.00  0.00    -0.000 C 
BRANCH  25  26
ATOM     26  C   UNL     1     149.805 163.204 150.755  1.00  0.00    -0.000 C 
BRANCH  26  27
ATOM     27  C   UNL     1     150.662 164.457 150.488  1.00  0.00    -0.000 C 
BRANCH  27  28
ATOM     28  C   UNL     1     151.950 164.191 149.677  1.00  0.00    -0.000 C 
BRANCH  28  29
ATOM     29  C   UNL     1     153.218 164.072 150.543  1.00  0.00    -0.003 C 
ATOM     30  C   UNL     1     153.109 164.817 151.871  1.00  0.00     0.004 C 
ENDBRANCH  28  29
ENDBRANCH  27  28
ENDBRANCH  26  27
ENDBRANCH  25  26
ENDBRANCH  24  25
ENDBRANCH  23  24
ENDBRANCH  22  23
ENDBRANCH  21  22
ENDBRANCH  20  21
ENDBRANCH  19  20
ENDBRANCH  18  19
ENDBRANCH  17  18
ENDBRANCH   1  17
TORSDOF 26
ENDMDL
MODEL 3
REMARK VINA RESULT:    -2.658      5.574     10.209
REMARK INTER + INTRA:         -12.461
REMARK INTER:                  -6.467
REMARK INTRA:                  -5.994
REMARK UNBOUND:                -5.764
REMARK SMILES CCCCCCCCCCCCCCCCCCCCCCCCCCCC(=O)[O-]
REMARK SMILES IDX 15 1 16 2 17 3 18 4 19 5 20 6 21 7 22 8 23 9 24 10 25 11
REMARK SMILES IDX 26 12 27 13 28 14 29 15 30 16 14 17 13 18 12 19 11 20 10 21
REMARK SMILES IDX 9 22 8 23 7 24 6 25 5 26 4 27 3 28 2 29 1 30
REMARK H PARENT
REMARK Flexibility Score: inf
ROOT
ATOM      1  C   UNL     1     151.893 160.908 150.500  1.00  0.00     0.000 C 
ENDROOT
BRANCH   1   2
ATOM      2  C   UNL     1     151.590 160.526 149.045  1.00  0.00     0.000 C 
BRANCH   2   3
ATOM      3  C   UNL     1     151.156 161.754 148.230  1.00  0.00     0.000 C 
BRANCH   3   4
ATOM      4  C   UNL     1     151.477 163.086 148.933  1.00  0.00     0.000 C 
BRANCH   4   5
ATOM      5  C   UNL     1     150.254 163.953 149.289  1.00  0.00     0.000 C 
BRANCH   5   6
ATOM      6  C   UNL     1     150.415 164.699 150.625  1.00  0.00     0.000 C 
BRANCH   6   7
ATOM      7  C   UNL     1     151.804 164.498 151.259  1.00  0.00     0.000 C 
BRANCH   7   8
ATOM      8  C   UNL     1     151.796 164.134 152.755  1.00  0.00     0.000 C 
BRANCH   8   9
ATOM      9  C   UNL     1     150.487 164.525 153.461  1.00  0.00     0.000 C 
BRANCH   9  10
ATOM     10  C   UNL     1     150.359 163.883 154.852  1.00  0.00     0.000 C 
BRANCH  10  11
ATOM     11  C   UNL     1     150.967 162.473 154.909  1.00  0.00     0.000 C 
BRANCH  11  12
ATOM     12  C   UNL     1     150.043 161.507 155.666  1.00  0.00     0.006 C 
BRANCH  12  13
ATOM     13  C   UNL     1     150.081 160.088 155.081  1.00  0.00     0.053 C 
BRANCH  13  14
ATOM     14  C   UNL     1     150.900 159.159 155.926  1.00  0.00     0.041 C 
ATOM     15  O   UNL     1     150.934 157.928 155.661  1.00  0.00    -0.550 OA
ATOM     16  O   UNL     1     151.641 159.657 156.989  1.00  0.00    -0.550 OA
ENDBRANCH  13  14
ENDBRANCH  12  13
ENDBRANCH  11  12
ENDBRANCH  10  11
ENDBRANCH   9  10
ENDBRANCH   8   9
ENDBRANCH   7   8
ENDBRANCH   6   7
ENDBRANCH   5   6
ENDBRANCH   4   5
ENDBRANCH   3   4
ENDBRANCH   2   3
ENDBRANCH   1   2
BRANCH   1  17
ATOM     17  C   UNL     1     150.842 160.370 151.486  1.00  0.00     0.000 C 
BRANCH  17  18
ATOM     18  C   UNL     1     149.384 160.738 151.141  1.00  0.00     0.000 C 
BRANCH  18  19
ATOM     19  C   UNL     1     148.756 161.823 152.039  1.00  0.00     0.000 C 
BRANCH  19  20
ATOM     20  C   UNL     1     147.408 162.385 151.548  1.00  0.00     0.000 C 
BRANCH  20  21
ATOM     21  C   UNL     1     146.309 162.329 152.622  1.00  0.00     0.000 C 
BRANCH  21  22
ATOM     22  C   UNL     1     146.870 162.151 154.044  1.00  0.00    -0.000 C 
BRANCH  22  23
ATOM     23  C   UNL     1     146.057 162.836 155.157  1.00  0.00    -0.000 C 
BRANCH  23  24
ATOM     24  C   UNL     1     146.865 163.900 155.922  1.00  0.00    -0.000 C 
BRANCH  24  25
ATOM     25  C   UNL     1     146.423 165.337 155.577  1.00  0.00    -0.000 C 
BRANCH  25  26
ATOM     26  C   UNL     1     147.198 165.978 154.410  1.00  0.00    -0.000 C 
BRANCH  26  27
ATOM     27  C   UNL     1     146.531 165.874 153.024  1.00  0.00    -0.000 C 
BRANCH  27  28
ATOM     28  C   UNL     1     147.437 166.291 151.844  1.00  0.00    -0.000 C 
BRANCH  28  29
ATOM     29  C   UNL     1     146.860 165.939 150.460  1.00  0.00    -0.003 C 
ATOM     30  C   UNL     1     147.245 166.945 149.378  1.00  0.00     0.004 C 
ENDBRANCH  28  29
ENDBRANCH  27  28
ENDBRANCH  26  27
ENDBRANCH  25  26
ENDBRANCH  24  25
ENDBRANCH  23  24
ENDBRANCH  22  23
ENDBRANCH  21  22
ENDBRANCH  20  21
ENDBRANCH  19  20
ENDBRANCH  18  19
ENDBRANCH  17  18
ENDBRANCH   1  17
TORSDOF 26
ENDMDL
MODEL 4
REMARK VINA RESULT:    -2.632      6.211      9.952
REMARK INTER + INTRA:         -12.396
REMARK INTER:                  -6.823
REMARK INTRA:                  -5.573
REMARK UNBOUND:                -5.764
REMARK SMILES CCCCCCCCCCCCCCCCCCCCCCCCCCCC(=O)[O-]
REMARK SMILES IDX 15 1 16 2 17 3 18 4 19 5 20 6 21 7 22 8 23 9 24 10 25 11
REMARK SMILES IDX 26 12 27 13 28 14 29 15 30 16 14 17 13 18 12 19 11 20 10 21
REMARK SMILES IDX 9 22 8 23 7 24 6 25 5 26 4 27 3 28 2 29 1 30
REMARK H PARENT
REMARK Flexibility Score: inf
ROOT
ATOM      1  C   UNL     1     146.957 163.494 156.025  1.00  0.00     0.000 C 
ENDROOT
BRANCH   1   2
ATOM      2  C   UNL     1     146.154 164.761 155.700  1.00  0.00     0.000 C 
BRANCH   2   3
ATOM      3  C   UNL     1     147.087 165.949 155.416  1.00  0.00     0.000 C 
BRANCH   3   4
ATOM      4  C   UNL     1     147.295 166.204 153.911  1.00  0.00     0.000 C 
BRANCH   4   5
ATOM      5  C   UNL     1     148.740 166.026 153.409  1.00  0.00     0.000 C 
BRANCH   5   6
ATOM      6  C   UNL     1     149.102 164.559 153.122  1.00  0.00     0.000 C 
BRANCH   6   7
ATOM      7  C   UNL     1     150.473 164.157 153.697  1.00  0.00     0.000 C 
BRANCH   7   8
ATOM      8  C   UNL     1     150.484 163.822 155.199  1.00  0.00     0.000 C 
BRANCH   8   9
ATOM      9  C   UNL     1     151.096 162.444 155.502  1.00  0.00     0.000 C 
BRANCH   9  10
ATOM     10  C   UNL     1     152.316 162.139 154.618  1.00  0.00     0.000 C 
BRANCH  10  11
ATOM     11  C   UNL     1     152.293 160.710 154.054  1.00  0.00     0.000 C 
BRANCH  11  12
ATOM     12  C   UNL     1     150.856 160.169 153.987  1.00  0.00     0.006 C 
BRANCH  12  13
ATOM     13  C   UNL     1     150.706 158.828 154.716  1.00  0.00     0.053 C 
BRANCH  13  14
ATOM     14  C   UNL     1     151.635 157.788 154.167  1.00  0.00     0.041 C 
ATOM     15  O   UNL     1     151.479 157.355 152.994  1.00  0.00    -0.550 OA
ATOM     16  O   UNL     1     152.684 157.313 154.943  1.00  0.00    -0.550 OA
ENDBRANCH  13  14
ENDBRANCH  12  13
ENDBRANCH  11  12
ENDBRANCH  10  11
ENDBRANCH   9  10
ENDBRANCH   8   9
ENDBRANCH   7   8
ENDBRANCH   6   7
ENDBRANCH   5   6
ENDBRANCH   4   5
ENDBRANCH   3   4
ENDBRANCH   2   3
ENDBRANCH   1   2
BRANCH   1  17
ATOM     17  C   UNL     1     146.496 162.274 155.210  1.00  0.00     0.000 C 
BRANCH  17  18
ATOM     18  C   UNL     1     147.630 161.504 154.502  1.00  0.00     0.000 C 
BRANCH  18  19
ATOM     19  C   UNL     1     147.474 161.374 152.973  1.00  0.00     0.000 C 
BRANCH  19  20
ATOM     20  C   UNL     1     146.237 162.073 152.375  1.00  0.00     0.000 C 
BRANCH  20  21
ATOM     21  C   UNL     1     146.561 162.876 151.104  1.00  0.00     0.000 C 
BRANCH  21  22
ATOM     22  C   UNL     1     145.987 164.304 151.136  1.00  0.00    -0.000 C 
BRANCH  22  23
ATOM     23  C   UNL     1     146.297 165.160 149.895  1.00  0.00    -0.000 C 
BRANCH  23  24
ATOM     24  C   UNL     1     147.125 166.417 150.224  1.00  0.00    -0.000 C 
BRANCH  24  25
ATOM     25  C   UNL     1     148.253 166.663 149.202  1.00  0.00    -0.000 C 
BRANCH  25  26
ATOM     26  C   UNL     1     149.432 165.675 149.306  1.00  0.00    -0.000 C 
BRANCH  26  27
ATOM     27  C   UNL     1     149.519 164.615 148.189  1.00  0.00    -0.000 C 
BRANCH  27  28
ATOM     28  C   UNL     1     150.104 163.258 148.639  1.00  0.00    -0.000 C 
BRANCH  28  29
ATOM     29  C   UNL     1     150.160 163.079 150.167  1.00  0.00    -0.003 C 
ATOM     30  C   UNL     1     150.271 161.617 150.596  1.00  0.00     0.004 C 
ENDBRANCH  28  29
ENDBRANCH  27  28
ENDBRANCH  26  27
ENDBRANCH  25  26
ENDBRANCH  24  25
ENDBRANCH  23  24
ENDBRANCH  22  23
ENDBRANCH  21  22
ENDBRANCH  20  21
ENDBRANCH  19  20
ENDBRANCH  18  19
ENDBRANCH  17  18
ENDBRANCH   1  17
TORSDOF 26
ENDMDL
MODEL 5
REMARK VINA RESULT:    -2.621      2.919      7.755
REMARK INTER + INTRA:         -12.370
REMARK INTER:                  -7.347
REMARK INTRA:                  -5.023
REMARK UNBOUND:                -5.764
REMARK SMILES CCCCCCCCCCCCCCCCCCCCCCCCCCCC(=O)[O-]
REMARK SMILES IDX 15 1 16 2 17 3 18 4 19 5 20 6 21 7 22 8 23 9 24 10 25 11
REMARK SMILES IDX 26 12 27 13 28 14 29 15 30 16 14 17 13 18 12 19 11 20 10 21
REMARK SMILES IDX 9 22 8 23 7 24 6 25 5 26 4 27 3 28 2 29 1 30
REMARK H PARENT
REMARK Flexibility Score: inf
ROOT
ATOM      1  C   UNL     1     150.577 158.328 155.850  1.00  0.00     0.000 C 
ENDROOT
BRANCH   1   2
ATOM      2  C   UNL     1     152.076 158.456 156.155  1.00  0.00     0.000 C 
BRANCH   2   3
ATOM      3  C   UNL     1     152.332 158.486 157.669  1.00  0.00     0.000 C 
BRANCH   3   4
ATOM      4  C   UNL     1     152.039 159.860 158.301  1.00  0.00     0.000 C 
BRANCH   4   5
ATOM      5  C   UNL     1     151.397 159.817 159.700  1.00  0.00     0.000 C 
BRANCH   5   6
ATOM      6  C   UNL     1     150.386 158.670 159.864  1.00  0.00     0.000 C 
BRANCH   6   7
ATOM      7  C   UNL     1     149.009 158.995 159.256  1.00  0.00     0.000 C 
BRANCH   7   8
ATOM      8  C   UNL     1     148.236 157.787 158.696  1.00  0.00     0.000 C 
BRANCH   8   9
ATOM      9  C   UNL     1     149.018 156.468 158.812  1.00  0.00     0.000 C 
BRANCH   9  10
ATOM     10  C   UNL     1     148.160 155.328 159.383  1.00  0.00     0.000 C 
BRANCH  10  11
ATOM     11  C   UNL     1     146.780 155.810 159.858  1.00  0.00     0.000 C 
BRANCH  11  12
ATOM     12  C   UNL     1     146.599 155.560 161.363  1.00  0.00     0.006 C 
BRANCH  12  13
ATOM     13  C   UNL     1     146.175 156.828 162.115  1.00  0.00     0.053 C 
BRANCH  13  14
ATOM     14  C   UNL     1     147.328 157.763 162.325  1.00  0.00     0.041 C 
ATOM     15  O   UNL     1     147.146 159.009 162.298  1.00  0.00    -0.550 OA
ATOM     16  O   UNL     1     148.597 157.257 162.571  1.00  0.00    -0.550 OA
ENDBRANCH  13  14
ENDBRANCH  12  13
ENDBRANCH  11  12
ENDBRANCH  10  11
ENDBRANCH   9  10
ENDBRANCH   8   9
ENDBRANCH   7   8
ENDBRANCH   6   7
ENDBRANCH   5   6
ENDBRANCH   4   5
ENDBRANCH   3   4
ENDBRANCH   2   3
ENDBRANCH   1   2
BRANCH   1  17
ATOM     17  C   UNL     1     150.020 159.545 155.091  1.00  0.00     0.000 C 
BRANCH  17  18
ATOM     18  C   UNL     1     149.292 160.579 155.973  1.00  0.00     0.000 C 
BRANCH  18  19
ATOM     19  C   UNL     1     147.759 160.619 155.800  1.00  0.00     0.000 C 
BRANCH  19  20
ATOM     20  C   UNL     1     146.971 161.119 157.026  1.00  0.00     0.000 C 
BRANCH  20  21
ATOM     21  C   UNL     1     146.192 162.416 156.749  1.00  0.00     0.000 C 
BRANCH  21  22
ATOM     22  C   UNL     1     146.338 162.902 155.296  1.00  0.00    -0.000 C 
BRANCH  22  23
ATOM     23  C   UNL     1     146.614 164.408 155.137  1.00  0.00    -0.000 C 
BRANCH  23  24
ATOM     24  C   UNL     1     148.090 164.777 155.379  1.00  0.00    -0.000 C 
BRANCH  24  25
ATOM     25  C   UNL     1     149.056 163.925 154.529  1.00  0.00    -0.000 C 
BRANCH  25  26
ATOM     26  C   UNL     1     149.250 164.432 153.087  1.00  0.00    -0.000 C 
BRANCH  26  27
ATOM     27  C   UNL     1     148.985 163.400 151.973  1.00  0.00    -0.000 C 
BRANCH  27  28
ATOM     28  C   UNL     1     148.609 161.990 152.482  1.00  0.00    -0.000 C 
BRANCH  28  29
ATOM     29  C   UNL     1     147.326 161.421 151.851  1.00  0.00    -0.003 C 
ATOM     30  C   UNL     1     146.249 162.480 151.624  1.00  0.00     0.004 C 
ENDBRANCH  28  29
ENDBRANCH  27  28
ENDBRANCH  26  27
ENDBRANCH  25  26
ENDBRANCH  24  25
ENDBRANCH  23  24
ENDBRANCH  22  23
ENDBRANCH  21  22
ENDBRANCH  20  21
ENDBRANCH  19  20
ENDBRANCH  18  19
ENDBRANCH  17  18
ENDBRANCH   1  17
TORSDOF 26
ENDMDL
MODEL 6
REMARK VINA RESULT:    -2.600      5.745      9.152
REMARK INTER + INTRA:         -12.316
REMARK INTER:                  -6.134
REMARK INTRA:                  -6.182
REMARK UNBOUND:                -5.764
REMARK SMILES CCCCCCCCCCCCCCCCCCCCCCCCCCCC(=O)[O-]
REMARK SMILES IDX 15 1 16 2 17 3 18 4 19 5 20 6 21 7 22 8 23 9 24 10 25 11
REMARK SMILES IDX 26 12 27 13 28 14 29 15 30 16 14 17 13 18 12 19 11 20 10 21
REMARK SMILES IDX 9 22 8 23 7 24 6 25 5 26 4 27 3 28 2 29 1 30
REMARK H PARENT
REMARK Flexibility Score: inf
ROOT
ATOM      1  C   UNL     1     150.793 162.003 151.374  1.00  0.00     0.000 C 
ENDROOT
BRANCH   1   2
ATOM      2  C   UNL     1     150.727 162.385 152.859  1.00  0.00     0.000 C 
BRANCH   2   3
ATOM      3  C   UNL     1     152.115 162.766 153.395  1.00  0.00     0.000 C 
BRANCH   3   4
ATOM      4  C   UNL     1     152.069 163.911 154.425  1.00  0.00     0.000 C 
BRANCH   4   5
ATOM      5  C   UNL     1     152.952 163.712 155.671  1.00  0.00     0.000 C 
BRANCH   5   6
ATOM      6  C   UNL     1     152.164 163.209 156.892  1.00  0.00     0.000 C 
BRANCH   6   7
ATOM      7  C   UNL     1     152.532 161.766 157.288  1.00  0.00     0.000 C 
BRANCH   7   8
ATOM      8  C   UNL     1     151.994 160.670 156.350  1.00  0.00     0.000 C 
BRANCH   8   9
ATOM      9  C   UNL     1     150.460 160.572 156.358  1.00  0.00     0.000 C 
BRANCH   9  10
ATOM     10  C   UNL     1     149.920 159.745 155.180  1.00  0.00     0.000 C 
BRANCH  10  11
ATOM     11  C   UNL     1     150.881 158.622 154.759  1.00  0.00     0.000 C 
BRANCH  11  12
ATOM     12  C   UNL     1     151.112 158.638 153.240  1.00  0.00     0.006 C 
BRANCH  12  13
ATOM     13  C   UNL     1     152.533 159.087 152.874  1.00  0.00     0.053 C 
BRANCH  13  14
ATOM     14  C   UNL     1     153.560 158.075 153.281  1.00  0.00     0.041 C 
ATOM     15  O   UNL     1     153.687 157.004 152.631  1.00  0.00    -0.550 OA
ATOM     16  O   UNL     1     154.391 158.325 154.365  1.00  0.00    -0.550 OA
ENDBRANCH  13  14
ENDBRANCH  12  13
ENDBRANCH  11  12
ENDBRANCH  10  11
ENDBRANCH   9  10
ENDBRANCH   8   9
ENDBRANCH   7   8
ENDBRANCH   6   7
ENDBRANCH   5   6
ENDBRANCH   4   5
ENDBRANCH   3   4
ENDBRANCH   2   3
ENDBRANCH   1   2
BRANCH   1  17
ATOM     17  C   UNL     1     149.499 161.340 150.874  1.00  0.00     0.000 C 
BRANCH  17  18
ATOM     18  C   UNL     1     148.471 161.014 151.977  1.00  0.00     0.000 C 
BRANCH  18  19
ATOM     19  C   UNL     1     147.090 161.677 151.796  1.00  0.00     0.000 C 
BRANCH  19  20
ATOM     20  C   UNL     1     146.494 162.314 153.066  1.00  0.00     0.000 C 
BRANCH  20  21
ATOM     21  C   UNL     1     147.233 161.896 154.349  1.00  0.00     0.000 C 
BRANCH  21  22
ATOM     22  C   UNL     1     147.299 163.022 155.395  1.00  0.00    -0.000 C 
BRANCH  22  23
ATOM     23  C   UNL     1     148.670 163.709 155.528  1.00  0.00    -0.000 C 
BRANCH  23  24
ATOM     24  C   UNL     1     148.670 165.156 155.000  1.00  0.00    -0.000 C 
BRANCH  24  25
ATOM     25  C   UNL     1     147.245 165.715 154.816  1.00  0.00    -0.000 C 
BRANCH  25  26
ATOM     26  C   UNL     1     146.927 166.190 153.385  1.00  0.00    -0.000 C 
BRANCH  26  27
ATOM     27  C   UNL     1     148.139 166.331 152.442  1.00  0.00    -0.000 C 
BRANCH  27  28
ATOM     28  C   UNL     1     148.275 165.198 151.400  1.00  0.00    -0.000 C 
BRANCH  28  29
ATOM     29  C   UNL     1     149.638 165.168 150.686  1.00  0.00    -0.003 C 
ATOM     30  C   UNL     1     150.738 165.886 151.465  1.00  0.00     0.004 C 
ENDBRANCH  28  29
ENDBRANCH  27  28
ENDBRANCH  26  27
ENDBRANCH  25  26
ENDBRANCH  24  25
ENDBRANCH  23  24
ENDBRANCH  22  23
ENDBRANCH  21  22
ENDBRANCH  20  21
ENDBRANCH  19  20
ENDBRANCH  18  19
ENDBRANCH  17  18
ENDBRANCH   1  17
TORSDOF 26
ENDMDL
MODEL 7
REMARK VINA RESULT:    -2.586      6.482     11.288
REMARK INTER + INTRA:         -12.279
REMARK INTER:                  -7.170
REMARK INTRA:                  -5.110
REMARK UNBOUND:                -5.764
REMARK SMILES CCCCCCCCCCCCCCCCCCCCCCCCCCCC(=O)[O-]
REMARK SMILES IDX 15 1 16 2 17 3 18 4 19 5 20 6 21 7 22 8 23 9 24 10 25 11
REMARK SMILES IDX 26 12 27 13 28 14 29 15 30 16 14 17 13 18 12 19 11 20 10 21
REMARK SMILES IDX 9 22 8 23 7 24 6 25 5 26 4 27 3 28 2 29 1 30
REMARK H PARENT
REMARK Flexibility Score: inf
ROOT
ATOM      1  C   UNL     1     148.097 165.192 154.932  1.00  0.00     0.000 C 
ENDROOT
BRANCH   1   2
ATOM      2  C   UNL     1     147.902 163.793 155.532  1.00  0.00     0.000 C 
BRANCH   2   3
ATOM      3  C   UNL     1     146.695 163.084 154.900  1.00  0.00     0.000 C 
BRANCH   3   4
ATOM      4  C   UNL     1     147.099 162.012 153.869  1.00  0.00     0.000 C 
BRANCH   4   5
ATOM      5  C   UNL     1     146.292 162.024 152.557  1.00  0.00     0.000 C 
BRANCH   5   6
ATOM      6  C   UNL     1     147.178 162.153 151.307  1.00  0.00     0.000 C 
BRANCH   6   7
ATOM      7  C   UNL     1     148.682 162.096 151.632  1.00  0.00     0.000 C 
BRANCH   7   8
ATOM      8  C   UNL     1     149.431 163.436 151.516  1.00  0.00     0.000 C 
BRANCH   8   9
ATOM      9  C   UNL     1     150.468 163.643 152.632  1.00  0.00     0.000 C 
BRANCH   9  10
ATOM     10  C   UNL     1     151.082 162.318 153.113  1.00  0.00     0.000 C 
BRANCH  10  11
ATOM     11  C   UNL     1     150.980 162.140 154.636  1.00  0.00     0.000 C 
BRANCH  11  12
ATOM     12  C   UNL     1     150.350 160.783 154.989  1.00  0.00     0.006 C 
BRANCH  12  13
ATOM     13  C   UNL     1     150.365 159.810 153.803  1.00  0.00     0.053 C 
BRANCH  13  14
ATOM     14  C   UNL     1     151.223 158.611 154.076  1.00  0.00     0.041 C 
ATOM     15  O   UNL     1     151.293 157.677 153.234  1.00  0.00    -0.550 OA
ATOM     16  O   UNL     1     151.961 158.538 155.250  1.00  0.00    -0.550 OA
ENDBRANCH  13  14
ENDBRANCH  12  13
ENDBRANCH  11  12
ENDBRANCH  10  11
ENDBRANCH   9  10
ENDBRANCH   8   9
ENDBRANCH   7   8
ENDBRANCH   6   7
ENDBRANCH   5   6
ENDBRANCH   4   5
ENDBRANCH   3   4
ENDBRANCH   2   3
ENDBRANCH   1   2
BRANCH   1  17
ATOM     17  C   UNL     1     146.858 165.688 154.168  1.00  0.00     0.000 C 
BRANCH  17  18
ATOM     18  C   UNL     1     147.134 166.161 152.726  1.00  0.00     0.000 C 
BRANCH  18  19
ATOM     19  C   UNL     1     146.180 165.587 151.658  1.00  0.00     0.000 C 
BRANCH  19  20
ATOM     20  C   UNL     1     146.361 166.158 150.238  1.00  0.00     0.000 C 
BRANCH  20  21
ATOM     21  C   UNL     1     146.937 165.131 149.249  1.00  0.00     0.000 C 
BRANCH  21  22
ATOM     22  C   UNL     1     148.318 165.534 148.703  1.00  0.00    -0.000 C 
BRANCH  22  23
ATOM     23  C   UNL     1     148.838 166.899 149.190  1.00  0.00    -0.000 C 
BRANCH  23  24
ATOM     24  C   UNL     1     150.078 166.780 150.097  1.00  0.00    -0.000 C 
BRANCH  24  25
ATOM     25  C   UNL     1     149.996 167.703 151.329  1.00  0.00    -0.000 C 
BRANCH  25  26
ATOM     26  C   UNL     1     150.151 169.203 151.012  1.00  0.00    -0.000 C 
BRANCH  26  27
ATOM     27  C   UNL     1     151.274 169.937 151.772  1.00  0.00    -0.000 C 
BRANCH  27  28
ATOM     28  C   UNL     1     152.002 169.074 152.827  1.00  0.00    -0.000 C 
BRANCH  28  29
ATOM     29  C   UNL     1     153.014 169.858 153.682  1.00  0.00    -0.003 C 
ATOM     30  C   UNL     1     154.381 169.183 153.761  1.00  0.00     0.004 C 
ENDBRANCH  28  29
ENDBRANCH  27  28
ENDBRANCH  26  27
ENDBRANCH  25  26
ENDBRANCH  24  25
ENDBRANCH  23  24
ENDBRANCH  22  23
ENDBRANCH  21  22
ENDBRANCH  20  21
ENDBRANCH  19  20
ENDBRANCH  18  19
ENDBRANCH  17  18
ENDBRANCH   1  17
TORSDOF 26
ENDMDL
MODEL 8
REMARK VINA RESULT:    -2.559      5.392     11.038
REMARK INTER + INTRA:         -12.211
REMARK INTER:                  -6.176
REMARK INTRA:                  -6.036
REMARK UNBOUND:                -5.764
REMARK SMILES CCCCCCCCCCCCCCCCCCCCCCCCCCCC(=O)[O-]
REMARK SMILES IDX 15 1 16 2 17 3 18 4 19 5 20 6 21 7 22 8 23 9 24 10 25 11
REMARK SMILES IDX 26 12 27 13 28 14 29 15 30 16 14 17 13 18 12 19 11 20 10 21
REMARK SMILES IDX 9 22 8 23 7 24 6 25 5 26 4 27 3 28 2 29 1 30
REMARK H PARENT
REMARK Flexibility Score: inf
ROOT
ATOM      1  C   UNL     1     148.202 162.425 151.730  1.00  0.00     0.000 C 
ENDROOT
BRANCH   1   2
ATOM      2  C   UNL     1     146.806 161.809 151.559  1.00  0.00     0.000 C 
BRANCH   2   3
ATOM      3  C   UNL     1     145.875 162.220 152.709  1.00  0.00     0.000 C 
BRANCH   3   4
ATOM      4  C   UNL     1     146.636 162.749 153.939  1.00  0.00     0.000 C 
BRANCH   4   5
ATOM      5  C   UNL     1     146.217 164.152 154.419  1.00  0.00     0.000 C 
BRANCH   5   6
ATOM      6  C   UNL     1     147.399 164.988 154.939  1.00  0.00     0.000 C 
BRANCH   6   7
ATOM      7  C   UNL     1     148.058 165.841 153.839  1.00  0.00     0.000 C 
BRANCH   7   8
ATOM      8  C   UNL     1     149.555 165.573 153.607  1.00  0.00     0.000 C 
BRANCH   8   9
ATOM      9  C   UNL     1     150.073 164.351 154.383  1.00  0.00     0.000 C 
BRANCH   9  10
ATOM     10  C   UNL     1     151.178 163.600 153.622  1.00  0.00     0.000 C 
BRANCH  10  11
ATOM     11  C   UNL     1     151.126 162.081 153.856  1.00  0.00     0.000 C 
BRANCH  11  12
ATOM     12  C   UNL     1     150.077 161.725 154.919  1.00  0.00     0.006 C 
BRANCH  12  13
ATOM     13  C   UNL     1     149.459 160.340 154.684  1.00  0.00     0.053 C 
BRANCH  13  14
ATOM     14  C   UNL     1     148.766 159.823 155.909  1.00  0.00     0.041 C 
ATOM     15  O   UNL     1     149.376 159.067 156.710  1.00  0.00    -0.550 OA
ATOM     16  O   UNL     1     147.455 160.195 156.175  1.00  0.00    -0.550 OA
ENDBRANCH  13  14
ENDBRANCH  12  13
ENDBRANCH  11  12
ENDBRANCH  10  11
ENDBRANCH   9  10
ENDBRANCH   8   9
ENDBRANCH   7   8
ENDBRANCH   6   7
ENDBRANCH   5   6
ENDBRANCH   4   5
ENDBRANCH   3   4
ENDBRANCH   2   3
ENDBRANCH   1   2
BRANCH   1  17
ATOM     17  C   UNL     1     148.407 163.677 150.860  1.00  0.00     0.000 C 
BRANCH  17  18
ATOM     18  C   UNL     1     147.173 164.105 150.041  1.00  0.00     0.000 C 
BRANCH  18  19
ATOM     19  C   UNL     1     146.509 165.420 150.500  1.00  0.00     0.000 C 
BRANCH  19  20
ATOM     20  C   UNL     1     146.980 166.688 149.762  1.00  0.00     0.000 C 
BRANCH  20  21
ATOM     21  C   UNL     1     148.035 167.482 150.551  1.00  0.00     0.000 C 
BRANCH  21  22
ATOM     22  C   UNL     1     149.363 167.635 149.789  1.00  0.00    -0.000 C 
BRANCH  22  23
ATOM     23  C   UNL     1     150.466 166.640 150.195  1.00  0.00    -0.000 C 
BRANCH  23  24
ATOM     24  C   UNL     1     151.128 165.953 148.985  1.00  0.00    -0.000 C 
BRANCH  24  25
ATOM     25  C   UNL     1     150.095 165.354 148.010  1.00  0.00    -0.000 C 
BRANCH  25  26
ATOM     26  C   UNL     1     150.264 163.844 147.753  1.00  0.00    -0.000 C 
BRANCH  26  27
ATOM     27  C   UNL     1     151.307 163.127 148.634  1.00  0.00    -0.000 C 
BRANCH  27  28
ATOM     28  C   UNL     1     151.087 161.604 148.776  1.00  0.00    -0.000 C 
BRANCH  28  29
ATOM     29  C   UNL     1     151.561 161.028 150.122  1.00  0.00    -0.003 C 
ATOM     30  C   UNL     1     150.588 160.012 150.716  1.00  0.00     0.004 C 
ENDBRANCH  28  29
ENDBRANCH  27  28
ENDBRANCH  26  27
ENDBRANCH  25  26
ENDBRANCH  24  25
ENDBRANCH  23  24
ENDBRANCH  22  23
ENDBRANCH  21  22
ENDBRANCH  20  21
ENDBRANCH  19  20
ENDBRANCH  18  19
ENDBRANCH  17  18
ENDBRANCH   1  17
TORSDOF 26
ENDMDL
MODEL 9
REMARK VINA RESULT:    -2.518      1.764      4.096
REMARK INTER + INTRA:         -12.108
REMARK INTER:                  -6.806
REMARK INTRA:                  -5.302
REMARK UNBOUND:                -5.764
REMARK SMILES CCCCCCCCCCCCCCCCCCCCCCCCCCCC(=O)[O-]
REMARK SMILES IDX 15 1 16 2 17 3 18 4 19 5 20 6 21 7 22 8 23 9 24 10 25 11
REMARK SMILES IDX 26 12 27 13 28 14 29 15 30 16 14 17 13 18 12 19 11 20 10 21
REMARK SMILES IDX 9 22 8 23 7 24 6 25 5 26 4 27 3 28 2 29 1 30
REMARK H PARENT
REMARK Flexibility Score: inf
ROOT
ATOM      1  C   UNL     1     146.082 158.474 162.283  1.00  0.00     0.000 C 
ENDROOT
BRANCH   1   2
ATOM      2  C   UNL     1     146.166 156.946 162.162  1.00  0.00     0.000 C 
BRANCH   2   3
ATOM      3  C   UNL     1     146.724 156.530 160.793  1.00  0.00     0.000 C 
BRANCH   3   4
ATOM      4  C   UNL     1     148.068 155.783 160.893  1.00  0.00     0.000 C 
BRANCH   4   5
ATOM      5  C   UNL     1     148.977 155.896 159.654  1.00  0.00     0.000 C 
BRANCH   5   6
ATOM      6  C   UNL     1     148.534 157.002 158.682  1.00  0.00     0.000 C 
BRANCH   6   7
ATOM      7  C   UNL     1     149.720 157.714 158.006  1.00  0.00     0.000 C 
BRANCH   7   8
ATOM      8  C   UNL     1     149.477 159.189 157.638  1.00  0.00     0.000 C 
BRANCH   8   9
ATOM      9  C   UNL     1     147.997 159.504 157.366  1.00  0.00     0.000 C 
BRANCH   9  10
ATOM     10  C   UNL     1     147.806 160.387 156.122  1.00  0.00     0.000 C 
BRANCH  10  11
ATOM     11  C   UNL     1     146.967 161.642 156.413  1.00  0.00     0.000 C 
BRANCH  11  12
ATOM     12  C   UNL     1     147.058 162.644 155.252  1.00  0.00     0.006 C 
BRANCH  12  13
ATOM     13  C   UNL     1     147.450 164.050 155.728  1.00  0.00     0.053 C 
BRANCH  13  14
ATOM     14  C   UNL     1     148.815 164.441 155.247  1.00  0.00     0.041 C 
ATOM     15  O   UNL     1     148.943 165.316 154.350  1.00  0.00    -0.550 OA
ATOM     16  O   UNL     1     149.943 163.855 155.804  1.00  0.00    -0.550 OA
ENDBRANCH  13  14
ENDBRANCH  12  13
ENDBRANCH  11  12
ENDBRANCH  10  11
ENDBRANCH   9  10
ENDBRANCH   8   9
ENDBRANCH   7   8
ENDBRANCH   6   7
ENDBRANCH   5   6
ENDBRANCH   4   5
ENDBRANCH   3   4
ENDBRANCH   2   3
ENDBRANCH   1   2
BRANCH   1  17
ATOM     17  C   UNL     1     146.186 159.183 160.922  1.00  0.00     0.000 C 
BRANCH  17  18
ATOM     18  C   UNL     1     147.284 160.264 160.839  1.00  0.00     0.000 C 
BRANCH  18  19
ATOM     19  C   UNL     1     148.442 160.096 161.845  1.00  0.00     0.000 C 
BRANCH  19  20
ATOM     20  C   UNL     1     149.651 159.294 161.328  1.00  0.00     0.000 C 
BRANCH  20  21
ATOM     21  C   UNL     1     150.348 158.483 162.434  1.00  0.00     0.000 C 
BRANCH  21  22
ATOM     22  C   UNL     1     149.434 158.210 163.642  1.00  0.00    -0.000 C 
BRANCH  22  23
ATOM     23  C   UNL     1     149.393 156.744 164.111  1.00  0.00    -0.000 C 
BRANCH  23  24
ATOM     24  C   UNL     1     150.754 156.034 163.977  1.00  0.00    -0.000 C 
BRANCH  24  25
ATOM     25  C   UNL     1     150.610 154.568 163.518  1.00  0.00    -0.000 C 
BRANCH  25  26
ATOM     26  C   UNL     1     151.232 154.270 162.140  1.00  0.00    -0.000 C 
BRANCH  26  27
ATOM     27  C   UNL     1     152.025 155.426 161.498  1.00  0.00    -0.000 C 
BRANCH  27  28
ATOM     28  C   UNL     1     152.815 155.033 160.229  1.00  0.00    -0.000 C 
BRANCH  28  29
ATOM     29  C   UNL     1     152.965 156.176 159.209  1.00  0.00    -0.003 C 
ATOM     30  C   UNL     1     152.867 157.562 159.843  1.00  0.00     0.004 C 
ENDBRANCH  28  29
ENDBRANCH  27  28
ENDBRANCH  26  27
ENDBRANCH  25  26
ENDBRANCH  24  25
ENDBRANCH  23  24
ENDBRANCH  22  23
ENDBRANCH  21  22
ENDBRANCH  20  21
ENDBRANCH  19  20
ENDBRANCH  18  19
ENDBRANCH  17  18
ENDBRANCH   1  17
TORSDOF 26
ENDMDL
