MODEL 1
REMARK VINA RESULT:    -2.012      0.000      0.000
REMARK INTER + INTRA:          -6.201
REMARK INTER:                  -3.658
REMARK INTRA:                  -2.542
REMARK UNBOUND:                -2.542
REMARK SMILES CCCCCCCCCCCCCCCC(=O)[O-]
REMARK SMILES IDX 9 1 10 2 11 3 12 4 13 5 14 6 15 7 16 8 17 9 18 10 8 11 7 12
REMARK SMILES IDX 6 13 5 14 4 15 3 16 2 17 1 18
REMARK H PARENT
REMARK Flexibility Score: inf
ROOT
ATOM      1  C   UNL     1     176.224 204.182 200.501  1.00  0.00     0.000 C 
ENDROOT
BRANCH   1   2
ATOM      2  C   UNL     1     176.494 204.063 198.990  1.00  0.00     0.000 C 
BRANCH   2   3
ATOM      3  C   UNL     1     175.380 204.693 198.135  1.00  0.00     0.000 C 
BRANCH   3   4
ATOM      4  C   UNL     1     174.421 205.570 198.958  1.00  0.00     0.000 C 
BRANCH   4   5
ATOM      5  C   UNL     1     173.940 206.853 198.252  1.00  0.00     0.000 C 
BRANCH   5   6
ATOM      6  C   UNL     1     173.401 207.932 199.214  1.00  0.00     0.006 C 
BRANCH   6   7
ATOM      7  C   UNL     1     171.884 207.824 199.419  1.00  0.00     0.053 C 
BRANCH   7   8
ATOM      8  C   UNL     1     171.576 207.283 200.779  1.00  0.00     0.041 C 
ATOM      9  O   UNL     1     170.407 206.909 201.064  1.00  0.00    -0.550 OA
ATOM     10  O   UNL     1     172.569 207.239 201.749  1.00  0.00    -0.550 OA
ENDBRANCH   7   8
ENDBRANCH   6   7
ENDBRANCH   5   6
ENDBRANCH   4   5
ENDBRANCH   3   4
ENDBRANCH   2   3
ENDBRANCH   1   2
BRANCH   1  11
ATOM     11  C   UNL     1     177.445 204.573 201.359  1.00  0.00     0.000 C 
BRANCH  11  12
ATOM     12  C   UNL     1     177.200 205.705 202.373  1.00  0.00    -0.000 C 
BRANCH  12  13
ATOM     13  C   UNL     1     176.041 206.631 201.964  1.00  0.00    -0.000 C 
BRANCH  13  14
ATOM     14  C   UNL     1     176.523 208.034 201.558  1.00  0.00    -0.000 C 
BRANCH  14  15
ATOM     15  C   UNL     1     176.927 208.118 200.078  1.00  0.00    -0.000 C 
BRANCH  15  16
ATOM     16  C   UNL     1     178.432 207.860 199.906  1.00  0.00    -0.000 C 
BRANCH  16  17
ATOM     17  C   UNL     1     178.749 207.030 198.652  1.00  0.00    -0.003 C 
ATOM     18  C   UNL     1     177.788 207.312 197.497  1.00  0.00     0.004 C 
ENDBRANCH  16  17
ENDBRANCH  15  16
ENDBRANCH  14  15
ENDBRANCH  13  14
ENDBRANCH  12  13
ENDBRANCH  11  12
ENDBRANCH   1  11
TORSDOF 14
ENDMDL
MODEL 2
REMARK VINA RESULT:    -1.989      2.990      5.156
REMARK INTER + INTRA:          -6.160
REMARK INTER:                  -3.465
REMARK INTRA:                  -2.694
REMARK UNBOUND:                -2.542
REMARK SMILES CCCCCCCCCCCCCCCC(=O)[O-]
REMARK SMILES IDX 9 1 10 2 11 3 12 4 13 5 14 6 15 7 16 8 17 9 18 10 8 11 7 12
REMARK SMILES IDX 6 13 5 14 4 15 3 16 2 17 1 18
REMARK H PARENT
REMARK Flexibility Score: inf
ROOT
ATOM      1  C   UNL     1     176.257 205.549 201.798  1.00  0.00     0.000 C 
ENDROOT
BRANCH   1   2
ATOM      2  C   UNL     1     177.470 204.648 201.502  1.00  0.00     0.000 C 
BRANCH   2   3
ATOM      3  C   UNL     1     178.812 205.344 201.791  1.00  0.00     0.000 C 
BRANCH   3   4
ATOM      4  C   UNL     1     179.621 205.630 200.515  1.00  0.00     0.000 C 
BRANCH   4   5
ATOM      5  C   UNL     1     179.628 207.104 200.063  1.00  0.00     0.000 C 
BRANCH   5   6
ATOM      6  C   UNL     1     178.672 207.401 198.889  1.00  0.00     0.006 C 
BRANCH   6   7
ATOM      7  C   UNL     1     178.149 206.120 198.225  1.00  0.00     0.053 C 
BRANCH   7   8
ATOM      8  C   UNL     1     177.751 206.388 196.809  1.00  0.00     0.041 C 
ATOM      9  O   UNL     1     177.535 205.432 196.018  1.00  0.00    -0.550 OA
ATOM     10  O   UNL     1     177.669 207.696 196.347  1.00  0.00    -0.550 OA
ENDBRANCH   7   8
ENDBRANCH   6   7
ENDBRANCH   5   6
ENDBRANCH   4   5
ENDBRANCH   3   4
ENDBRANCH   2   3
ENDBRANCH   1   2
BRANCH   1  11
ATOM     11  C   UNL     1     176.595 206.951 202.343  1.00  0.00     0.000 C 
BRANCH  11  12
ATOM     12  C   UNL     1     176.213 208.124 201.423  1.00  0.00    -0.000 C 
BRANCH  12  13
ATOM     13  C   UNL     1     174.898 207.881 200.662  1.00  0.00    -0.000 C 
BRANCH  13  14
ATOM     14  C   UNL     1     175.050 208.077 199.145  1.00  0.00    -0.000 C 
BRANCH  14  15
ATOM     15  C   UNL     1     174.419 206.936 198.331  1.00  0.00    -0.000 C 
BRANCH  15  16
ATOM     16  C   UNL     1     173.488 206.087 199.210  1.00  0.00    -0.000 C 
BRANCH  16  17
ATOM     17  C   UNL     1     173.670 204.579 198.976  1.00  0.00    -0.003 C 
ATOM     18  C   UNL     1     175.091 204.213 198.546  1.00  0.00     0.004 C 
ENDBRANCH  16  17
ENDBRANCH  15  16
ENDBRANCH  14  15
ENDBRANCH  13  14
ENDBRANCH  12  13
ENDBRANCH  11  12
ENDBRANCH   1  11
TORSDOF 14
ENDMDL
MODEL 3
REMARK VINA RESULT:    -1.889      3.219      5.049
REMARK INTER + INTRA:          -5.977
REMARK INTER:                  -3.717
REMARK INTRA:                  -2.260
REMARK UNBOUND:                -2.542
REMARK SMILES CCCCCCCCCCCCCCCC(=O)[O-]
REMARK SMILES IDX 9 1 10 2 11 3 12 4 13 5 14 6 15 7 16 8 17 9 18 10 8 11 7 12
REMARK SMILES IDX 6 13 5 14 4 15 3 16 2 17 1 18
REMARK H PARENT
REMARK Flexibility Score: inf
ROOT
ATOM      1  C   UNL     1     178.720 204.934 199.574  1.00  0.00     0.000 C 
ENDROOT
BRANCH   1   2
ATOM      2  C   UNL     1     179.997 205.749 199.847  1.00  0.00     0.000 C 
BRANCH   2   3
ATOM      3  C   UNL     1     180.030 207.079 199.074  1.00  0.00     0.000 C 
BRANCH   3   4
ATOM      4  C   UNL     1     180.878 207.003 197.793  1.00  0.00     0.000 C 
BRANCH   4   5
ATOM      5  C   UNL     1     180.084 206.736 196.498  1.00  0.00     0.000 C 
BRANCH   5   6
ATOM      6  C   UNL     1     178.609 207.186 196.567  1.00  0.00     0.006 C 
BRANCH   6   7
ATOM      7  C   UNL     1     177.656 206.149 195.957  1.00  0.00     0.053 C 
BRANCH   7   8
ATOM      8  C   UNL     1     176.752 206.795 194.955  1.00  0.00     0.041 C 
ATOM      9  O   UNL     1     176.367 206.154 193.942  1.00  0.00    -0.550 OA
ATOM     10  O   UNL     1     176.376 208.122 195.114  1.00  0.00    -0.550 OA
ENDBRANCH   7   8
ENDBRANCH   6   7
ENDBRANCH   5   6
ENDBRANCH   4   5
ENDBRANCH   3   4
ENDBRANCH   2   3
ENDBRANCH   1   2
BRANCH   1  11
ATOM     11  C   UNL     1     177.792 204.737 200.790  1.00  0.00     0.000 C 
BRANCH  11  12
ATOM     12  C   UNL     1     177.823 205.870 201.831  1.00  0.00    -0.000 C 
BRANCH  12  13
ATOM     13  C   UNL     1     176.421 206.260 202.331  1.00  0.00    -0.000 C 
BRANCH  13  14
ATOM     14  C   UNL     1     175.878 207.521 201.639  1.00  0.00    -0.000 C 
BRANCH  14  15
ATOM     15  C   UNL     1     176.866 208.112 200.621  1.00  0.00    -0.000 C 
BRANCH  15  16
ATOM     16  C   UNL     1     176.258 208.122 199.210  1.00  0.00    -0.000 C 
BRANCH  16  17
ATOM     17  C   UNL     1     175.363 206.901 198.944  1.00  0.00    -0.003 C 
ATOM     18  C   UNL     1     174.347 207.144 197.828  1.00  0.00     0.004 C 
ENDBRANCH  16  17
ENDBRANCH  15  16
ENDBRANCH  14  15
ENDBRANCH  13  14
ENDBRANCH  12  13
ENDBRANCH  11  12
ENDBRANCH   1  11
TORSDOF 14
ENDMDL
MODEL 4
REMARK VINA RESULT:    -1.865      3.024      5.689
REMARK INTER + INTRA:          -5.933
REMARK INTER:                  -3.620
REMARK INTRA:                  -2.314
REMARK UNBOUND:                -2.542
REMARK SMILES CCCCCCCCCCCCCCCC(=O)[O-]
REMARK SMILES IDX 9 1 10 2 11 3 12 4 13 5 14 6 15 7 16 8 17 9 18 10 8 11 7 12
REMARK SMILES IDX 6 13 5 14 4 15 3 16 2 17 1 18
REMARK H PARENT
REMARK Flexibility Score: inf
ROOT
ATOM      1  C   UNL     1     176.042 204.663 200.142  1.00  0.00     0.000 C 
ENDROOT
BRANCH   1   2
ATOM      2  C   UNL     1     176.114 204.845 201.668  1.00  0.00     0.000 C 
BRANCH   2   3
ATOM      3  C   UNL     1     177.042 205.999 202.087  1.00  0.00     0.000 C 
BRANCH   3   4
ATOM      4  C   UNL     1     176.387 207.380 201.921  1.00  0.00     0.000 C 
BRANCH   4   5
ATOM      5  C   UNL     1     176.752 208.125 200.621  1.00  0.00     0.000 C 
BRANCH   5   6
ATOM      6  C   UNL     1     178.166 207.803 200.093  1.00  0.00     0.006 C 
BRANCH   6   7
ATOM      7  C   UNL     1     178.151 207.362 198.623  1.00  0.00     0.053 C 
BRANCH   7   8
ATOM      8  C   UNL     1     179.357 206.532 198.313  1.00  0.00     0.041 C 
ATOM      9  O   UNL     1     180.252 206.976 197.547  1.00  0.00    -0.550 OA
ATOM     10  O   UNL     1     179.467 205.248 198.832  1.00  0.00    -0.550 OA
ENDBRANCH   7   8
ENDBRANCH   6   7
ENDBRANCH   5   6
ENDBRANCH   4   5
ENDBRANCH   3   4
ENDBRANCH   2   3
ENDBRANCH   1   2
BRANCH   1  11
ATOM     11  C   UNL     1     174.770 203.964 199.620  1.00  0.00     0.000 C 
BRANCH  11  12
ATOM     12  C   UNL     1     173.871 204.826 198.715  1.00  0.00    -0.000 C 
BRANCH  12  13
ATOM     13  C   UNL     1     174.408 206.257 198.530  1.00  0.00    -0.000 C 
BRANCH  13  14
ATOM     14  C   UNL     1     173.328 207.230 198.031  1.00  0.00    -0.000 C 
BRANCH  14  15
ATOM     15  C   UNL     1     172.367 207.674 199.145  1.00  0.00    -0.000 C 
BRANCH  15  16
ATOM     16  C   UNL     1     173.143 208.087 200.405  1.00  0.00    -0.000 C 
BRANCH  16  17
ATOM     17  C   UNL     1     172.727 207.279 201.644  1.00  0.00    -0.003 C 
ATOM     18  C   UNL     1     171.635 206.253 201.343  1.00  0.00     0.004 C 
ENDBRANCH  16  17
ENDBRANCH  15  16
ENDBRANCH  14  15
ENDBRANCH  13  14
ENDBRANCH  12  13
ENDBRANCH  11  12
ENDBRANCH   1  11
TORSDOF 14
ENDMDL
MODEL 5
REMARK VINA RESULT:    -1.864      1.978      3.314
REMARK INTER + INTRA:          -5.932
REMARK INTER:                  -3.816
REMARK INTRA:                  -2.115
REMARK UNBOUND:                -2.542
REMARK SMILES CCCCCCCCCCCCCCCC(=O)[O-]
REMARK SMILES IDX 9 1 10 2 11 3 12 4 13 5 14 6 15 7 16 8 17 9 18 10 8 11 7 12
REMARK SMILES IDX 6 13 5 14 4 15 3 16 2 17 1 18
REMARK H PARENT
REMARK Flexibility Score: inf
ROOT
ATOM      1  C   UNL     1     177.953 204.294 200.293  1.00  0.00     0.000 C 
ENDROOT
BRANCH   1   2
ATOM      2  C   UNL     1     176.836 204.677 201.281  1.00  0.00     0.000 C 
BRANCH   2   3
ATOM      3  C   UNL     1     177.211 205.878 202.167  1.00  0.00     0.000 C 
BRANCH   3   4
ATOM      4  C   UNL     1     176.243 207.062 202.005  1.00  0.00     0.000 C 
BRANCH   4   5
ATOM      5  C   UNL     1     176.623 208.072 200.903  1.00  0.00     0.000 C 
BRANCH   5   6
ATOM      6  C   UNL     1     175.620 208.125 199.732  1.00  0.00     0.006 C 
BRANCH   6   7
ATOM      7  C   UNL     1     174.339 207.331 200.027  1.00  0.00     0.053 C 
BRANCH   7   8
ATOM      8  C   UNL     1     173.586 207.065 198.763  1.00  0.00     0.041 C 
ATOM      9  O   UNL     1     174.184 207.068 197.655  1.00  0.00    -0.550 OA
ATOM     10  O   UNL     1     172.212 206.864 198.803  1.00  0.00    -0.550 OA
ENDBRANCH   7   8
ENDBRANCH   6   7
ENDBRANCH   5   6
ENDBRANCH   4   5
ENDBRANCH   3   4
ENDBRANCH   2   3
ENDBRANCH   1   2
BRANCH   1  11
ATOM     11  C   UNL     1     179.205 203.657 200.930  1.00  0.00     0.000 C 
BRANCH  11  12
ATOM     12  C   UNL     1     180.536 204.362 200.611  1.00  0.00    -0.000 C 
BRANCH  12  13
ATOM     13  C   UNL     1     180.597 205.797 201.163  1.00  0.00    -0.000 C 
BRANCH  13  14
ATOM     14  C   UNL     1     180.906 206.836 200.073  1.00  0.00    -0.000 C 
BRANCH  14  15
ATOM     15  C   UNL     1     179.639 207.387 199.401  1.00  0.00    -0.000 C 
BRANCH  15  16
ATOM     16  C   UNL     1     179.556 206.936 197.935  1.00  0.00    -0.000 C 
BRANCH  16  17
ATOM     17  C   UNL     1     178.127 206.556 197.514  1.00  0.00    -0.003 C 
ATOM     18  C   UNL     1     177.517 207.549 196.525  1.00  0.00     0.004 C 
ENDBRANCH  16  17
ENDBRANCH  15  16
ENDBRANCH  14  15
ENDBRANCH  13  14
ENDBRANCH  12  13
ENDBRANCH  11  12
ENDBRANCH   1  11
TORSDOF 14
ENDMDL
MODEL 6
REMARK VINA RESULT:    -1.838      3.737      6.008
REMARK INTER + INTRA:          -5.885
REMARK INTER:                  -3.355
REMARK INTRA:                  -2.530
REMARK UNBOUND:                -2.542
REMARK SMILES CCCCCCCCCCCCCCCC(=O)[O-]
REMARK SMILES IDX 9 1 10 2 11 3 12 4 13 5 14 6 15 7 16 8 17 9 18 10 8 11 7 12
REMARK SMILES IDX 6 13 5 14 4 15 3 16 2 17 1 18
REMARK H PARENT
REMARK Flexibility Score: inf
ROOT
ATOM      1  C   UNL     1     176.877 205.194 198.272  1.00  0.00     0.000 C 
ENDROOT
BRANCH   1   2
ATOM      2  C   UNL     1     176.849 206.257 197.159  1.00  0.00     0.000 C 
BRANCH   2   3
ATOM      3  C   UNL     1     177.851 207.399 197.402  1.00  0.00     0.000 C 
BRANCH   3   4
ATOM      4  C   UNL     1     178.438 207.384 198.824  1.00  0.00     0.000 C 
BRANCH   4   5
ATOM      5  C   UNL     1     179.954 207.113 198.902  1.00  0.00     0.000 C 
BRANCH   5   6
ATOM      6  C   UNL     1     180.616 206.871 197.530  1.00  0.00     0.006 C 
BRANCH   6   7
ATOM      7  C   UNL     1     181.095 205.422 197.363  1.00  0.00     0.053 C 
BRANCH   7   8
ATOM      8  C   UNL     1     180.188 204.674 196.437  1.00  0.00     0.041 C 
ATOM      9  O   UNL     1     179.844 203.492 196.703  1.00  0.00    -0.550 OA
ATOM     10  O   UNL     1     179.762 205.266 195.255  1.00  0.00    -0.550 OA
ENDBRANCH   7   8
ENDBRANCH   6   7
ENDBRANCH   5   6
ENDBRANCH   4   5
ENDBRANCH   3   4
ENDBRANCH   2   3
ENDBRANCH   1   2
BRANCH   1  11
ATOM     11  C   UNL     1     175.543 204.987 199.019  1.00  0.00     0.000 C 
BRANCH  11  12
ATOM     12  C   UNL     1     174.670 206.246 199.165  1.00  0.00    -0.000 C 
BRANCH  12  13
ATOM     13  C   UNL     1     174.504 206.690 200.630  1.00  0.00    -0.000 C 
BRANCH  13  14
ATOM     14  C   UNL     1     175.499 207.793 201.027  1.00  0.00    -0.000 C 
BRANCH  14  15
ATOM     15  C   UNL     1     176.603 207.287 201.968  1.00  0.00    -0.000 C 
BRANCH  15  16
ATOM     16  C   UNL     1     176.228 205.923 202.569  1.00  0.00    -0.000 C 
BRANCH  16  17
ATOM     17  C   UNL     1     177.297 204.850 202.309  1.00  0.00    -0.003 C 
ATOM     18  C   UNL     1     178.672 205.445 202.007  1.00  0.00     0.004 C 
ENDBRANCH  16  17
ENDBRANCH  15  16
ENDBRANCH  14  15
ENDBRANCH  13  14
ENDBRANCH  12  13
ENDBRANCH  11  12
ENDBRANCH   1  11
TORSDOF 14
ENDMDL
MODEL 7
REMARK VINA RESULT:    -1.827      2.202      4.492
REMARK INTER + INTRA:          -5.865
REMARK INTER:                  -3.684
REMARK INTRA:                  -2.181
REMARK UNBOUND:                -2.542
REMARK SMILES CCCCCCCCCCCCCCCC(=O)[O-]
REMARK SMILES IDX 9 1 10 2 11 3 12 4 13 5 14 6 15 7 16 8 17 9 18 10 8 11 7 12
REMARK SMILES IDX 6 13 5 14 4 15 3 16 2 17 1 18
REMARK H PARENT
REMARK Flexibility Score: inf
ROOT
ATOM      1  C   UNL     1     176.705 206.343 196.950  1.00  0.00     0.000 C 
ENDROOT
BRANCH   1   2
ATOM      2  C   UNL     1     175.942 206.663 198.247  1.00  0.00     0.000 C 
BRANCH   2   3
ATOM      3  C   UNL     1     176.302 208.044 198.824  1.00  0.00     0.000 C 
BRANCH   3   4
ATOM      4  C   UNL     1     177.186 207.953 200.079  1.00  0.00     0.000 C 
BRANCH   4   5
ATOM      5  C   UNL     1     177.225 206.567 200.752  1.00  0.00     0.000 C 
BRANCH   5   6
ATOM      6  C   UNL     1     176.693 206.560 202.200  1.00  0.00     0.006 C 
BRANCH   6   7
ATOM      7  C   UNL     1     175.552 205.553 202.396  1.00  0.00     0.053 C 
BRANCH   7   8
ATOM      8  C   UNL     1     174.398 205.889 201.506  1.00  0.00     0.041 C 
ATOM      9  O   UNL     1     173.903 205.011 200.750  1.00  0.00    -0.550 OA
ATOM     10  O   UNL     1     173.900 207.185 201.474  1.00  0.00    -0.550 OA
ENDBRANCH   7   8
ENDBRANCH   6   7
ENDBRANCH   5   6
ENDBRANCH   4   5
ENDBRANCH   3   4
ENDBRANCH   2   3
ENDBRANCH   1   2
BRANCH   1  11
ATOM     11  C   UNL     1     177.624 207.467 196.431  1.00  0.00     0.000 C 
BRANCH  11  12
ATOM     12  C   UNL     1     178.950 206.997 195.806  1.00  0.00    -0.000 C 
BRANCH  12  13
ATOM     13  C   UNL     1     179.873 206.299 196.820  1.00  0.00    -0.000 C 
BRANCH  13  14
ATOM     14  C   UNL     1     180.151 207.167 198.058  1.00  0.00    -0.000 C 
BRANCH  14  15
ATOM     15  C   UNL     1     181.073 206.475 199.074  1.00  0.00    -0.000 C 
BRANCH  15  16
ATOM     16  C   UNL     1     180.907 207.092 200.472  1.00  0.00    -0.000 C 
BRANCH  16  17
ATOM     17  C   UNL     1     180.835 206.030 201.581  1.00  0.00    -0.003 C 
ATOM     18  C   UNL     1     180.418 204.655 201.058  1.00  0.00     0.004 C 
ENDBRANCH  16  17
ENDBRANCH  15  16
ENDBRANCH  14  15
ENDBRANCH  13  14
ENDBRANCH  12  13
ENDBRANCH  11  12
ENDBRANCH   1  11
TORSDOF 14
ENDMDL
MODEL 8
REMARK VINA RESULT:    -1.807      2.661      5.589
REMARK INTER + INTRA:          -5.827
REMARK INTER:                  -3.237
REMARK INTRA:                  -2.591
REMARK UNBOUND:                -2.542
REMARK SMILES CCCCCCCCCCCCCCCC(=O)[O-]
REMARK SMILES IDX 9 1 10 2 11 3 12 4 13 5 14 6 15 7 16 8 17 9 18 10 8 11 7 12
REMARK SMILES IDX 6 13 5 14 4 15 3 16 2 17 1 18
REMARK H PARENT
REMARK Flexibility Score: inf
ROOT
ATOM      1  C   UNL     1     173.814 207.386 198.400  1.00  0.00     0.000 C 
ENDROOT
BRANCH   1   2
ATOM      2  C   UNL     1     175.044 206.970 199.226  1.00  0.00     0.000 C 
BRANCH   2   3
ATOM      3  C   UNL     1     176.192 207.991 199.140  1.00  0.00     0.000 C 
BRANCH   3   4
ATOM      4  C   UNL     1     177.003 208.086 200.444  1.00  0.00     0.000 C 
BRANCH   4   5
ATOM      5  C   UNL     1     176.255 207.632 201.713  1.00  0.00     0.000 C 
BRANCH   5   6
ATOM      6  C   UNL     1     176.725 206.268 202.261  1.00  0.00     0.006 C 
BRANCH   6   7
ATOM      7  C   UNL     1     178.087 205.851 201.690  1.00  0.00     0.053 C 
BRANCH   7   8
ATOM      8  C   UNL     1     177.997 204.501 201.053  1.00  0.00     0.041 C 
ATOM      9  O   UNL     1     178.670 203.538 201.506  1.00  0.00    -0.550 OA
ATOM     10  O   UNL     1     177.206 204.317 199.925  1.00  0.00    -0.550 OA
ENDBRANCH   7   8
ENDBRANCH   6   7
ENDBRANCH   5   6
ENDBRANCH   4   5
ENDBRANCH   3   4
ENDBRANCH   2   3
ENDBRANCH   1   2
BRANCH   1  11
ATOM     11  C   UNL     1     172.578 207.804 199.224  1.00  0.00     0.000 C 
BRANCH  11  12
ATOM     12  C   UNL     1     172.840 208.055 200.720  1.00  0.00    -0.000 C 
BRANCH  12  13
ATOM     13  C   UNL     1     172.051 207.099 201.632  1.00  0.00    -0.000 C 
BRANCH  13  14
ATOM     14  C   UNL     1     172.948 206.038 202.289  1.00  0.00    -0.000 C 
BRANCH  14  15
ATOM     15  C   UNL     1     172.657 204.617 201.783  1.00  0.00    -0.000 C 
BRANCH  15  16
ATOM     16  C   UNL     1     173.893 204.016 201.097  1.00  0.00    -0.000 C 
BRANCH  16  17
ATOM     17  C   UNL     1     173.626 203.623 199.636  1.00  0.00    -0.003 C 
ATOM     18  C   UNL     1     172.240 204.052 199.152  1.00  0.00     0.004 C 
ENDBRANCH  16  17
ENDBRANCH  15  16
ENDBRANCH  14  15
ENDBRANCH  13  14
ENDBRANCH  12  13
ENDBRANCH  11  12
ENDBRANCH   1  11
TORSDOF 14
ENDMDL
