MODEL 1
REMARK VINA RESULT:    -5.547      0.000      0.000
REMARK INTER + INTRA:          -5.547
REMARK INTER:                  -5.547
REMARK INTRA:                   0.000
REMARK UNBOUND:                 0.000
REMARK SMILES CC(C)=C1CC[C@@H](C)CC1=O
REMARK SMILES IDX 8 1 7 2 6 3 5 4 4 5 2 6 1 7 3 8 10 9 11 10 9 11
REMARK H PARENT
REMARK Flexibility Score: inf
ROOT
ATOM      1  C   UNL     1      80.498   7.482  26.845  1.00  0.00     0.008 C 
ATOM      2  C   UNL     1      81.770   6.820  27.387  1.00  0.00    -0.006 C 
ATOM      3  C   UNL     1      82.526   6.097  26.260  1.00  0.00     0.008 C 
ATOM      4  C   UNL     1      83.855   5.516  26.763  1.00  0.00     0.039 C 
ATOM      5  C   UNL     1      83.681   4.648  28.001  1.00  0.00    -0.006 C 
ATOM      6  C   UNL     1      84.496   3.578  28.238  1.00  0.00    -0.070 C 
ATOM      7  C   UNL     1      85.618   3.222  27.289  1.00  0.00     0.039 C 
ATOM      8  C   UNL     1      84.297   2.675  29.433  1.00  0.00     0.039 C 
ATOM      9  C   UNL     1      82.652   5.105  28.984  1.00  0.00     0.159 C 
ATOM     10  O   UNL     1      82.792   4.902  30.219  1.00  0.00    -0.295 OA
ATOM     11  C   UNL     1      81.427   5.828  28.508  1.00  0.00     0.084 C 
ENDROOT
TORSDOF 0
ENDMDL
MODEL 2
REMARK VINA RESULT:    -5.317      1.545      2.436
REMARK INTER + INTRA:          -5.317
REMARK INTER:                  -5.317
REMARK INTRA:                   0.000
REMARK UNBOUND:                 0.000
REMARK SMILES CC(C)=C1CC[C@@H](C)CC1=O
REMARK SMILES IDX 8 1 7 2 6 3 5 4 4 5 2 6 1 7 3 8 10 9 11 10 9 11
REMARK H PARENT
REMARK Flexibility Score: inf
ROOT
ATOM      1  C   UNL     1      80.648   7.799  27.102  1.00  0.00     0.008 C 
ATOM      2  C   UNL     1      81.320   6.423  27.152  1.00  0.00    -0.006 C 
ATOM      3  C   UNL     1      81.599   6.009  28.606  1.00  0.00     0.008 C 
ATOM      4  C   UNL     1      82.178   4.590  28.681  1.00  0.00     0.039 C 
ATOM      5  C   UNL     1      83.390   4.406  27.779  1.00  0.00    -0.006 C 
ATOM      6  C   UNL     1      84.402   3.551  28.114  1.00  0.00    -0.070 C 
ATOM      7  C   UNL     1      84.351   2.738  29.387  1.00  0.00     0.039 C 
ATOM      8  C   UNL     1      85.636   3.403  27.255  1.00  0.00     0.039 C 
ATOM      9  C   UNL     1      83.347   5.120  26.468  1.00  0.00     0.159 C 
ATOM     10  O   UNL     1      83.897   4.639  25.442  1.00  0.00    -0.295 OA
ATOM     11  C   UNL     1      82.630   6.433  26.350  1.00  0.00     0.084 C 
ENDROOT
TORSDOF 0
ENDMDL
MODEL 3
REMARK VINA RESULT:    -5.297      2.239      3.412
REMARK INTER + INTRA:          -5.297
REMARK INTER:                  -5.297
REMARK INTRA:                   0.000
REMARK UNBOUND:                 0.000
REMARK SMILES CC(C)=C1CC[C@@H](C)CC1=O
REMARK SMILES IDX 8 1 7 2 6 3 5 4 4 5 2 6 1 7 3 8 10 9 11 10 9 11
REMARK H PARENT
REMARK Flexibility Score: inf
ROOT
ATOM      1  C   UNL     1      85.140   5.301  25.091  1.00  0.00     0.008 C 
ATOM      2  C   UNL     1      84.100   4.892  26.140  1.00  0.00    -0.006 C 
ATOM      3  C   UNL     1      84.307   5.678  27.444  1.00  0.00     0.008 C 
ATOM      4  C   UNL     1      83.212   5.357  28.470  1.00  0.00     0.039 C 
ATOM      5  C   UNL     1      83.056   3.861  28.708  1.00  0.00    -0.006 C 
ATOM      6  C   UNL     1      82.674   3.372  29.925  1.00  0.00    -0.070 C 
ATOM      7  C   UNL     1      82.373   4.297  31.082  1.00  0.00     0.039 C 
ATOM      8  C   UNL     1      82.572   1.888  30.189  1.00  0.00     0.039 C 
ATOM      9  C   UNL     1      83.231   2.985  27.511  1.00  0.00     0.159 C 
ATOM     10  O   UNL     1      82.588   1.908  27.389  1.00  0.00    -0.295 OA
ATOM     11  C   UNL     1      84.180   3.383  26.419  1.00  0.00     0.084 C 
ENDROOT
TORSDOF 0
ENDMDL
MODEL 4
REMARK VINA RESULT:    -5.011      1.118      4.146
REMARK INTER + INTRA:          -5.011
REMARK INTER:                  -5.011
REMARK INTRA:                   0.000
REMARK UNBOUND:                 0.000
REMARK SMILES CC(C)=C1CC[C@@H](C)CC1=O
REMARK SMILES IDX 8 1 7 2 6 3 5 4 4 5 2 6 1 7 3 8 10 9 11 10 9 11
REMARK H PARENT
REMARK Flexibility Score: inf
ROOT
ATOM      1  C   UNL     1      86.760   2.474  28.493  1.00  0.00     0.008 C 
ATOM      2  C   UNL     1      85.339   2.916  28.129  1.00  0.00    -0.006 C 
ATOM      3  C   UNL     1      85.345   3.748  26.837  1.00  0.00     0.008 C 
ATOM      4  C   UNL     1      83.920   4.112  26.400  1.00  0.00     0.039 C 
ATOM      5  C   UNL     1      83.118   4.770  27.515  1.00  0.00    -0.006 C 
ATOM      6  C   UNL     1      82.161   5.705  27.244  1.00  0.00    -0.070 C 
ATOM      7  C   UNL     1      81.844   6.114  25.824  1.00  0.00     0.039 C 
ATOM      8  C   UNL     1      81.398   6.406  28.345  1.00  0.00     0.039 C 
ATOM      9  C   UNL     1      83.361   4.247  28.893  1.00  0.00     0.159 C 
ATOM     10  O   UNL     1      82.442   4.223  29.755  1.00  0.00    -0.295 OA
ATOM     11  C   UNL     1      84.716   3.729  29.274  1.00  0.00     0.084 C 
ENDROOT
TORSDOF 0
ENDMDL
MODEL 5
REMARK VINA RESULT:    -4.989      2.151      3.448
REMARK INTER + INTRA:          -4.989
REMARK INTER:                  -4.989
REMARK INTRA:                   0.000
REMARK UNBOUND:                 0.000
REMARK SMILES CC(C)=C1CC[C@@H](C)CC1=O
REMARK SMILES IDX 8 1 7 2 6 3 5 4 4 5 2 6 1 7 3 8 10 9 11 10 9 11
REMARK H PARENT
REMARK Flexibility Score: inf
ROOT
ATOM      1  C   UNL     1      84.776   4.501  24.588  1.00  0.00     0.008 C 
ATOM      2  C   UNL     1      84.687   4.385  26.113  1.00  0.00    -0.006 C 
ATOM      3  C   UNL     1      83.678   3.297  26.516  1.00  0.00     0.008 C 
ATOM      4  C   UNL     1      83.652   3.097  28.037  1.00  0.00     0.039 C 
ATOM      5  C   UNL     1      83.439   4.400  28.795  1.00  0.00    -0.006 C 
ATOM      6  C   UNL     1      82.771   4.428  29.986  1.00  0.00    -0.070 C 
ATOM      7  C   UNL     1      82.231   3.162  30.611  1.00  0.00     0.039 C 
ATOM      8  C   UNL     1      82.505   5.723  30.718  1.00  0.00     0.039 C 
ATOM      9  C   UNL     1      84.101   5.609  28.218  1.00  0.00     0.159 C 
ATOM     10  O   UNL     1      84.522   6.539  28.956  1.00  0.00    -0.295 OA
ATOM     11  C   UNL     1      84.282   5.731  26.734  1.00  0.00     0.084 C 
ENDROOT
TORSDOF 0
ENDMDL
MODEL 6
REMARK VINA RESULT:    -4.854      1.705      2.955
REMARK INTER + INTRA:          -4.854
REMARK INTER:                  -4.854
REMARK INTRA:                   0.000
REMARK UNBOUND:                 0.000
REMARK SMILES CC(C)=C1CC[C@@H](C)CC1=O
REMARK SMILES IDX 8 1 7 2 6 3 5 4 4 5 2 6 1 7 3 8 10 9 11 10 9 11
REMARK H PARENT
REMARK Flexibility Score: inf
ROOT
ATOM      1  C   UNL     1      84.425   5.972  25.932  1.00  0.00     0.008 C 
ATOM      2  C   UNL     1      84.299   5.155  27.222  1.00  0.00    -0.006 C 
ATOM      3  C   UNL     1      83.905   3.702  26.907  1.00  0.00     0.008 C 
ATOM      4  C   UNL     1      83.875   2.844  28.179  1.00  0.00     0.039 C 
ATOM      5  C   UNL     1      83.016   3.457  29.276  1.00  0.00    -0.006 C 
ATOM      6  C   UNL     1      82.336   2.675  30.166  1.00  0.00    -0.070 C 
ATOM      7  C   UNL     1      82.422   1.167  30.109  1.00  0.00     0.039 C 
ATOM      8  C   UNL     1      81.435   3.271  31.223  1.00  0.00     0.039 C 
ATOM      9  C   UNL     1      83.058   4.946  29.388  1.00  0.00     0.159 C 
ATOM     10  O   UNL     1      82.934   5.523  30.501  1.00  0.00    -0.295 OA
ATOM     11  C   UNL     1      83.260   5.787  28.161  1.00  0.00     0.084 C 
ENDROOT
TORSDOF 0
ENDMDL
MODEL 7
REMARK VINA RESULT:    -4.811      1.907      4.698
REMARK INTER + INTRA:          -4.811
REMARK INTER:                  -4.811
REMARK INTRA:                   0.000
REMARK UNBOUND:                 0.000
REMARK SMILES CC(C)=C1CC[C@@H](C)CC1=O
REMARK SMILES IDX 8 1 7 2 6 3 5 4 4 5 2 6 1 7 3 8 10 9 11 10 9 11
REMARK H PARENT
REMARK Flexibility Score: inf
ROOT
ATOM      1  C   UNL     1      86.583   2.599  28.609  1.00  0.00     0.008 C 
ATOM      2  C   UNL     1      85.712   3.779  28.164  1.00  0.00    -0.006 C 
ATOM      3  C   UNL     1      84.669   4.120  29.240  1.00  0.00     0.008 C 
ATOM      4  C   UNL     1      83.856   5.363  28.856  1.00  0.00     0.039 C 
ATOM      5  C   UNL     1      83.246   5.255  27.466  1.00  0.00    -0.006 C 
ATOM      6  C   UNL     1      82.053   5.849  27.166  1.00  0.00    -0.070 C 
ATOM      7  C   UNL     1      81.297   6.654  28.198  1.00  0.00     0.039 C 
ATOM      8  C   UNL     1      81.410   5.702  25.806  1.00  0.00     0.039 C 
ATOM      9  C   UNL     1      84.081   4.568  26.435  1.00  0.00     0.159 C 
ATOM     10  O   UNL     1      84.030   4.904  25.222  1.00  0.00    -0.295 OA
ATOM     11  C   UNL     1      85.009   3.459  26.836  1.00  0.00     0.084 C 
ENDROOT
TORSDOF 0
ENDMDL
MODEL 8
REMARK VINA RESULT:    -4.610      1.848      3.563
REMARK INTER + INTRA:          -4.610
REMARK INTER:                  -4.610
REMARK INTRA:                   0.000
REMARK UNBOUND:                 0.000
REMARK SMILES CC(C)=C1CC[C@@H](C)CC1=O
REMARK SMILES IDX 8 1 7 2 6 3 5 4 4 5 2 6 1 7 3 8 10 9 11 10 9 11
REMARK H PARENT
REMARK Flexibility Score: inf
ROOT
ATOM      1  C   UNL     1      81.707   2.999  31.885  1.00  0.00     0.008 C 
ATOM      2  C   UNL     1      81.934   3.381  30.418  1.00  0.00    -0.006 C 
ATOM      3  C   UNL     1      83.031   2.504  29.793  1.00  0.00     0.008 C 
ATOM      4  C   UNL     1      83.199   2.802  28.298  1.00  0.00     0.039 C 
ATOM      5  C   UNL     1      83.406   4.284  28.018  1.00  0.00    -0.006 C 
ATOM      6  C   UNL     1      84.173   4.708  26.970  1.00  0.00    -0.070 C 
ATOM      7  C   UNL     1      84.832   3.723  26.032  1.00  0.00     0.039 C 
ATOM      8  C   UNL     1      84.432   6.176  26.716  1.00  0.00     0.039 C 
ATOM      9  C   UNL     1      82.634   5.229  28.880  1.00  0.00     0.159 C 
ATOM     10  O   UNL     1      82.229   6.336  28.437  1.00  0.00    -0.295 OA
ATOM     11  C   UNL     1      82.318   4.864  30.300  1.00  0.00     0.084 C 
ENDROOT
TORSDOF 0
ENDMDL
MODEL 9
REMARK VINA RESULT:    -4.452      1.988      3.682
REMARK INTER + INTRA:          -4.452
REMARK INTER:                  -4.452
REMARK INTRA:                   0.000
REMARK UNBOUND:                 0.000
REMARK SMILES CC(C)=C1CC[C@@H](C)CC1=O
REMARK SMILES IDX 8 1 7 2 6 3 5 4 4 5 2 6 1 7 3 8 10 9 11 10 9 11
REMARK H PARENT
REMARK Flexibility Score: inf
ROOT
ATOM      1  C   UNL     1      81.478   2.997  31.521  1.00  0.00     0.008 C 
ATOM      2  C   UNL     1      82.523   3.634  30.597  1.00  0.00    -0.006 C 
ATOM      3  C   UNL     1      81.892   4.757  29.759  1.00  0.00     0.008 C 
ATOM      4  C   UNL     1      82.946   5.474  28.904  1.00  0.00     0.039 C 
ATOM      5  C   UNL     1      83.770   4.509  28.063  1.00  0.00    -0.006 C 
ATOM      6  C   UNL     1      84.262   4.874  26.842  1.00  0.00    -0.070 C 
ATOM      7  C   UNL     1      84.024   6.258  26.283  1.00  0.00     0.039 C 
ATOM      8  C   UNL     1      85.033   3.907  25.973  1.00  0.00     0.039 C 
ATOM      9  C   UNL     1      84.099   3.199  28.701  1.00  0.00     0.159 C 
ATOM     10  O   UNL     1      85.178   2.600  28.446  1.00  0.00    -0.295 OA
ATOM     11  C   UNL     1      83.143   2.575  29.673  1.00  0.00     0.084 C 
ENDROOT
TORSDOF 0
ENDMDL
