MODEL 1
REMARK VINA RESULT:    -3.472      0.000      0.000
REMARK INTER + INTRA:          -6.199
REMARK INTER:                  -5.298
REMARK INTRA:                  -0.901
REMARK UNBOUND:                -0.901
REMARK SMILES CCCCCCCCCCC(=O)[O-]
REMARK SMILES IDX 7 1 8 2 9 3 10 4 11 5 12 6 13 7 6 8 5 9 4 10 3 11 2 12 1 13
REMARK H PARENT
REMARK Flexibility Score: inf
ROOT
ATOM      1  C   UNL     1      63.019  32.341  59.554  1.00  0.00     0.000 C 
ENDROOT
BRANCH   1   2
ATOM      2  C   UNL     1      61.710  32.514  60.341  1.00  0.00     0.000 C 
BRANCH   2   3
ATOM      3  C   UNL     1      60.860  31.234  60.367  1.00  0.00     0.006 C 
BRANCH   3   4
ATOM      4  C   UNL     1      61.050  30.424  61.656  1.00  0.00     0.053 C 
BRANCH   4   5
ATOM      5  C   UNL     1      61.946  29.252  61.408  1.00  0.00     0.041 C 
ATOM      6  O   UNL     1      63.197  29.401  61.404  1.00  0.00    -0.550 OA
ATOM      7  O   UNL     1      61.400  28.006  61.134  1.00  0.00    -0.550 OA
ENDBRANCH   4   5
ENDBRANCH   3   4
ENDBRANCH   2   3
ENDBRANCH   1   2
BRANCH   1   8
ATOM      8  C   UNL     1      64.229  32.733  60.416  1.00  0.00     0.000 C 
BRANCH   8   9
ATOM      9  C   UNL     1      64.656  34.195  60.210  1.00  0.00    -0.000 C 
BRANCH   9  10
ATOM     10  C   UNL     1      64.430  35.060  61.463  1.00  0.00    -0.000 C 
BRANCH  10  11
ATOM     11  C   UNL     1      63.643  36.344  61.160  1.00  0.00    -0.000 C 
BRANCH  11  12
ATOM     12  C   UNL     1      62.635  36.166  60.013  1.00  0.00    -0.003 C 
ATOM     13  C   UNL     1      61.205  36.106  60.543  1.00  0.00     0.004 C 
ENDBRANCH  11  12
ENDBRANCH  10  11
ENDBRANCH   9  10
ENDBRANCH   8   9
ENDBRANCH   1   8
TORSDOF 9
ENDMDL
MODEL 2
REMARK VINA RESULT:    -3.432     12.508     13.820
REMARK INTER + INTRA:          -6.139
REMARK INTER:                  -5.596
REMARK INTRA:                  -0.543
REMARK UNBOUND:                -0.901
REMARK SMILES CCCCCCCCCCC(=O)[O-]
REMARK SMILES IDX 7 1 8 2 9 3 10 4 11 5 12 6 13 7 6 8 5 9 4 10 3 11 2 12 1 13
REMARK H PARENT
REMARK Flexibility Score: inf
ROOT
ATOM      1  C   UNL     1      58.930  29.254  49.608  1.00  0.00     0.000 C 
ENDROOT
BRANCH   1   2
ATOM      2  C   UNL     1      60.068  28.469  48.938  1.00  0.00     0.000 C 
BRANCH   2   3
ATOM      3  C   UNL     1      60.031  26.970  49.272  1.00  0.00     0.006 C 
BRANCH   3   4
ATOM      4  C   UNL     1      61.318  26.482  49.950  1.00  0.00     0.053 C 
BRANCH   4   5
ATOM      5  C   UNL     1      61.329  24.988  50.035  1.00  0.00     0.041 C 
ATOM      6  O   UNL     1      62.405  24.352  49.882  1.00  0.00    -0.550 OA
ATOM      7  O   UNL     1      60.142  24.295  50.235  1.00  0.00    -0.550 OA
ENDBRANCH   4   5
ENDBRANCH   3   4
ENDBRANCH   2   3
ENDBRANCH   1   2
BRANCH   1   8
ATOM      8  C   UNL     1      57.910  28.299  50.247  1.00  0.00     0.000 C 
BRANCH   8   9
ATOM      9  C   UNL     1      56.510  28.920  50.375  1.00  0.00    -0.000 C 
BRANCH   9  10
ATOM     10  C   UNL     1      55.391  27.864  50.369  1.00  0.00    -0.000 C 
BRANCH  10  11
ATOM     11  C   UNL     1      55.813  26.561  49.672  1.00  0.00    -0.000 C 
BRANCH  11  12
ATOM     12  C   UNL     1      54.616  25.756  49.143  1.00  0.00    -0.003 C 
ATOM     13  C   UNL     1      53.356  26.616  49.091  1.00  0.00     0.004 C 
ENDBRANCH  11  12
ENDBRANCH  10  11
ENDBRANCH   9  10
ENDBRANCH   8   9
ENDBRANCH   1   8
TORSDOF 9
ENDMDL
MODEL 3
REMARK VINA RESULT:    -3.345     12.301     13.572
REMARK INTER + INTRA:          -6.006
REMARK INTER:                  -4.846
REMARK INTRA:                  -1.160
REMARK UNBOUND:                -0.901
REMARK SMILES CCCCCCCCCCC(=O)[O-]
REMARK SMILES IDX 7 1 8 2 9 3 10 4 11 5 12 6 13 7 6 8 5 9 4 10 3 11 2 12 1 13
REMARK H PARENT
REMARK Flexibility Score: inf
ROOT
ATOM      1  C   UNL     1      58.547  29.191  50.421  1.00  0.00     0.000 C 
ENDROOT
BRANCH   1   2
ATOM      2  C   UNL     1      57.056  28.909  50.180  1.00  0.00     0.000 C 
BRANCH   2   3
ATOM      3  C   UNL     1      56.579  27.617  50.863  1.00  0.00     0.006 C 
BRANCH   3   4
ATOM      4  C   UNL     1      56.362  26.468  49.869  1.00  0.00     0.053 C 
BRANCH   4   5
ATOM      5  C   UNL     1      54.919  26.381  49.481  1.00  0.00     0.041 C 
ATOM      6  O   UNL     1      54.473  25.340  48.930  1.00  0.00    -0.550 OA
ATOM      7  O   UNL     1      54.078  27.467  49.685  1.00  0.00    -0.550 OA
ENDBRANCH   4   5
ENDBRANCH   3   4
ENDBRANCH   2   3
ENDBRANCH   1   2
BRANCH   1   8
ATOM      8  C   UNL     1      59.288  29.384  49.089  1.00  0.00     0.000 C 
BRANCH   8   9
ATOM      9  C   UNL     1      60.441  28.385  48.899  1.00  0.00    -0.000 C 
BRANCH   9  10
ATOM     10  C   UNL     1      60.493  27.324  50.013  1.00  0.00    -0.000 C 
BRANCH  10  11
ATOM     11  C   UNL     1      60.112  25.922  49.511  1.00  0.00    -0.000 C 
BRANCH  11  12
ATOM     12  C   UNL     1      59.736  24.965  50.653  1.00  0.00    -0.003 C 
ATOM     13  C   UNL     1      59.611  25.713  51.978  1.00  0.00     0.004 C 
ENDBRANCH  11  12
ENDBRANCH  10  11
ENDBRANCH   9  10
ENDBRANCH   8   9
ENDBRANCH   1   8
TORSDOF 9
ENDMDL
MODEL 4
REMARK VINA RESULT:    -3.333      1.261      2.506
REMARK INTER + INTRA:          -5.988
REMARK INTER:                  -4.873
REMARK INTRA:                  -1.115
REMARK UNBOUND:                -0.901
REMARK SMILES CCCCCCCCCCC(=O)[O-]
REMARK SMILES IDX 7 1 8 2 9 3 10 4 11 5 12 6 13 7 6 8 5 9 4 10 3 11 2 12 1 13
REMARK H PARENT
REMARK Flexibility Score: inf
ROOT
ATOM      1  C   UNL     1      62.733  32.986  59.044  1.00  0.00     0.000 C 
ENDROOT
BRANCH   1   2
ATOM      2  C   UNL     1      63.908  32.059  59.394  1.00  0.00     0.000 C 
BRANCH   2   3
ATOM      3  C   UNL     1      63.825  31.512  60.828  1.00  0.00     0.006 C 
BRANCH   3   4
ATOM      4  C   UNL     1      63.958  29.985  60.887  1.00  0.00     0.053 C 
BRANCH   4   5
ATOM      5  C   UNL     1      62.650  29.363  61.263  1.00  0.00     0.041 C 
ATOM      6  O   UNL     1      62.472  28.124  61.117  1.00  0.00    -0.550 OA
ATOM      7  O   UNL     1      61.611  30.157  61.728  1.00  0.00    -0.550 OA
ENDBRANCH   4   5
ENDBRANCH   3   4
ENDBRANCH   2   3
ENDBRANCH   1   2
BRANCH   1   8
ATOM      8  C   UNL     1      61.884  33.284  60.290  1.00  0.00     0.000 C 
BRANCH   8   9
ATOM      9  C   UNL     1      61.518  34.772  60.418  1.00  0.00    -0.000 C 
BRANCH   9  10
ATOM     10  C   UNL     1      62.655  35.702  59.959  1.00  0.00    -0.000 C 
BRANCH  10  11
ATOM     11  C   UNL     1      63.449  36.289  61.137  1.00  0.00    -0.000 C 
BRANCH  11  12
ATOM     12  C   UNL     1      64.719  35.485  61.454  1.00  0.00    -0.003 C 
ATOM     13  C   UNL     1      65.606  35.350  60.219  1.00  0.00     0.004 C 
ENDBRANCH  11  12
ENDBRANCH  10  11
ENDBRANCH   9  10
ENDBRANCH   8   9
ENDBRANCH   1   8
TORSDOF 9
ENDMDL
MODEL 5
REMARK VINA RESULT:    -3.270      3.380      5.801
REMARK INTER + INTRA:          -5.892
REMARK INTER:                  -4.781
REMARK INTRA:                  -1.110
REMARK UNBOUND:                -0.901
REMARK SMILES CCCCCCCCCCC(=O)[O-]
REMARK SMILES IDX 7 1 8 2 9 3 10 4 11 5 12 6 13 7 6 8 5 9 4 10 3 11 2 12 1 13
REMARK H PARENT
REMARK Flexibility Score: inf
ROOT
ATOM      1  C   UNL     1      61.014  32.170  59.291  1.00  0.00     0.000 C 
ENDROOT
BRANCH   1   2
ATOM      2  C   UNL     1      61.586  33.127  60.348  1.00  0.00     0.000 C 
BRANCH   2   3
ATOM      3  C   UNL     1      62.415  34.265  59.732  1.00  0.00     0.006 C 
BRANCH   3   4
ATOM      4  C   UNL     1      63.679  34.581  60.542  1.00  0.00     0.053 C 
BRANCH   4   5
ATOM      5  C   UNL     1      63.624  35.980  61.069  1.00  0.00     0.041 C 
ATOM      6  O   UNL     1      62.602  36.691  60.877  1.00  0.00    -0.550 OA
ATOM      7  O   UNL     1      64.721  36.516  61.732  1.00  0.00    -0.550 OA
ENDBRANCH   4   5
ENDBRANCH   3   4
ENDBRANCH   2   3
ENDBRANCH   1   2
BRANCH   1   8
ATOM      8  C   UNL     1      60.556  30.853  59.936  1.00  0.00     0.000 C 
BRANCH   8   9
ATOM      9  C   UNL     1      61.167  30.629  61.328  1.00  0.00    -0.000 C 
BRANCH   9  10
ATOM     10  C   UNL     1      61.821  29.243  61.470  1.00  0.00    -0.000 C 
BRANCH  10  11
ATOM     11  C   UNL     1      63.239  29.196  60.879  1.00  0.00    -0.000 C 
BRANCH  11  12
ATOM     12  C   UNL     1      64.027  30.492  61.127  1.00  0.00    -0.003 C 
ATOM     13  C   UNL     1      64.695  30.982  59.845  1.00  0.00     0.004 C 
ENDBRANCH  11  12
ENDBRANCH  10  11
ENDBRANCH   9  10
ENDBRANCH   8   9
ENDBRANCH   1   8
TORSDOF 9
ENDMDL
MODEL 6
REMARK VINA RESULT:    -3.254     12.228     14.103
REMARK INTER + INTRA:          -5.867
REMARK INTER:                  -5.502
REMARK INTRA:                  -0.365
REMARK UNBOUND:                -0.901
REMARK SMILES CCCCCCCCCCC(=O)[O-]
REMARK SMILES IDX 7 1 8 2 9 3 10 4 11 5 12 6 13 7 6 8 5 9 4 10 3 11 2 12 1 13
REMARK H PARENT
REMARK Flexibility Score: inf
ROOT
ATOM      1  C   UNL     1      58.261  29.267  50.089  1.00  0.00     0.000 C 
ENDROOT
BRANCH   1   2
ATOM      2  C   UNL     1      59.400  28.945  49.110  1.00  0.00     0.000 C 
BRANCH   2   3
ATOM      3  C   UNL     1      60.756  28.774  49.813  1.00  0.00     0.006 C 
BRANCH   3   4
ATOM      4  C   UNL     1      61.473  27.479  49.410  1.00  0.00     0.053 C 
BRANCH   4   5
ATOM      5  C   UNL     1      62.944  27.718  49.274  1.00  0.00     0.041 C 
ATOM      6  O   UNL     1      63.389  28.893  49.182  1.00  0.00    -0.550 OA
ATOM      7  O   UNL     1      63.818  26.642  49.199  1.00  0.00    -0.550 OA
ENDBRANCH   4   5
ENDBRANCH   3   4
ENDBRANCH   2   3
ENDBRANCH   1   2
BRANCH   1   8
ATOM      8  C   UNL     1      57.276  28.091  50.188  1.00  0.00     0.000 C 
BRANCH   8   9
ATOM      9  C   UNL     1      55.840  28.543  50.496  1.00  0.00    -0.000 C 
BRANCH   9  10
ATOM     10  C   UNL     1      54.782  27.663  49.805  1.00  0.00    -0.000 C 
BRANCH  10  11
ATOM     11  C   UNL     1      55.318  26.268  49.447  1.00  0.00    -0.000 C 
BRANCH  11  12
ATOM     12  C   UNL     1      54.196  25.253  49.176  1.00  0.00    -0.003 C 
ATOM     13  C   UNL     1      52.985  25.931  48.542  1.00  0.00     0.004 C 
ENDBRANCH  11  12
ENDBRANCH  10  11
ENDBRANCH   9  10
ENDBRANCH   8   9
ENDBRANCH   1   8
TORSDOF 9
ENDMDL
MODEL 7
REMARK VINA RESULT:    -3.225      2.872      5.259
REMARK INTER + INTRA:          -5.823
REMARK INTER:                  -4.598
REMARK INTRA:                  -1.225
REMARK UNBOUND:                -0.901
REMARK SMILES CCCCCCCCCCC(=O)[O-]
REMARK SMILES IDX 7 1 8 2 9 3 10 4 11 5 12 6 13 7 6 8 5 9 4 10 3 11 2 12 1 13
REMARK H PARENT
REMARK Flexibility Score: inf
ROOT
ATOM      1  C   UNL     1      63.403  32.110  58.774  1.00  0.00     0.000 C 
ENDROOT
BRANCH   1   2
ATOM      2  C   UNL     1      62.603  33.414  58.925  1.00  0.00     0.000 C 
BRANCH   2   3
ATOM      3  C   UNL     1      62.337  33.779  60.394  1.00  0.00     0.006 C 
BRANCH   3   4
ATOM      4  C   UNL     1      62.499  35.279  60.669  1.00  0.00     0.053 C 
BRANCH   4   5
ATOM      5  C   UNL     1      63.948  35.640  60.757  1.00  0.00     0.041 C 
ATOM      6  O   UNL     1      64.435  36.503  59.979  1.00  0.00    -0.550 OA
ATOM      7  O   UNL     1      64.773  34.990  61.665  1.00  0.00    -0.550 OA
ENDBRANCH   4   5
ENDBRANCH   3   4
ENDBRANCH   2   3
ENDBRANCH   1   2
BRANCH   1   8
ATOM      8  C   UNL     1      64.472  31.995  59.870  1.00  0.00     0.000 C 
BRANCH   8   9
ATOM      9  C   UNL     1      64.370  30.684  60.666  1.00  0.00    -0.000 C 
BRANCH   9  10
ATOM     10  C   UNL     1      63.169  29.823  60.235  1.00  0.00    -0.000 C 
BRANCH  10  11
ATOM     11  C   UNL     1      62.202  29.537  61.395  1.00  0.00    -0.000 C 
BRANCH  11  12
ATOM     12  C   UNL     1      61.029  30.528  61.447  1.00  0.00    -0.003 C 
ATOM     13  C   UNL     1      60.315  30.605  60.101  1.00  0.00     0.004 C 
ENDBRANCH  11  12
ENDBRANCH  10  11
ENDBRANCH   9  10
ENDBRANCH   8   9
ENDBRANCH   1   8
TORSDOF 9
ENDMDL
MODEL 8
REMARK VINA RESULT:    -3.222      1.655      2.946
REMARK INTER + INTRA:          -5.819
REMARK INTER:                  -4.975
REMARK INTRA:                  -0.843
REMARK UNBOUND:                -0.901
REMARK SMILES CCCCCCCCCCC(=O)[O-]
REMARK SMILES IDX 7 1 8 2 9 3 10 4 11 5 12 6 13 7 6 8 5 9 4 10 3 11 2 12 1 13
REMARK H PARENT
REMARK Flexibility Score: inf
ROOT
ATOM      1  C   UNL     1      60.995  31.203  60.811  1.00  0.00     0.000 C 
ENDROOT
BRANCH   1   2
ATOM      2  C   UNL     1      61.970  30.193  61.435  1.00  0.00     0.000 C 
BRANCH   2   3
ATOM      3  C   UNL     1      63.434  30.472  61.057  1.00  0.00     0.006 C 
BRANCH   3   4
ATOM      4  C   UNL     1      64.249  29.187  60.862  1.00  0.00     0.053 C 
BRANCH   4   5
ATOM      5  C   UNL     1      63.431  28.153  60.154  1.00  0.00     0.041 C 
ATOM      6  O   UNL     1      63.144  27.069  60.728  1.00  0.00    -0.550 OA
ATOM      7  O   UNL     1      63.026  28.365  58.843  1.00  0.00    -0.550 OA
ENDBRANCH   4   5
ENDBRANCH   3   4
ENDBRANCH   2   3
ENDBRANCH   1   2
BRANCH   1   8
ATOM      8  C   UNL     1      61.393  31.523  59.361  1.00  0.00     0.000 C 
BRANCH   8   9
ATOM      9  C   UNL     1      61.469  33.033  59.085  1.00  0.00    -0.000 C 
BRANCH   9  10
ATOM     10  C   UNL     1      61.558  33.867  60.376  1.00  0.00    -0.000 C 
BRANCH  10  11
ATOM     11  C   UNL     1      62.746  34.842  60.367  1.00  0.00    -0.000 C 
BRANCH  11  12
ATOM     12  C   UNL     1      64.025  34.225  60.952  1.00  0.00    -0.003 C 
ATOM     13  C   UNL     1      64.984  35.307  61.441  1.00  0.00     0.004 C 
ENDBRANCH  11  12
ENDBRANCH  10  11
ENDBRANCH   9  10
ENDBRANCH   8   9
ENDBRANCH   1   8
TORSDOF 9
ENDMDL
MODEL 9
REMARK VINA RESULT:    -3.149      1.850      2.851
REMARK INTER + INTRA:          -5.707
REMARK INTER:                  -4.798
REMARK INTRA:                  -0.908
REMARK UNBOUND:                -0.901
REMARK SMILES CCCCCCCCCCC(=O)[O-]
REMARK SMILES IDX 7 1 8 2 9 3 10 4 11 5 12 6 13 7 6 8 5 9 4 10 3 11 2 12 1 13
REMARK H PARENT
REMARK Flexibility Score: inf
ROOT
ATOM      1  C   UNL     1      61.675  32.022  59.162  1.00  0.00     0.000 C 
ENDROOT
BRANCH   1   2
ATOM      2  C   UNL     1      61.514  31.624  60.637  1.00  0.00     0.000 C 
BRANCH   2   3
ATOM      3  C   UNL     1      62.404  30.434  61.030  1.00  0.00     0.006 C 
BRANCH   3   4
ATOM      4  C   UNL     1      63.899  30.772  60.981  1.00  0.00     0.053 C 
BRANCH   4   5
ATOM      5  C   UNL     1      64.629  29.787  60.122  1.00  0.00     0.041 C 
ATOM      6  O   UNL     1      64.207  29.520  58.966  1.00  0.00    -0.550 OA
ATOM      7  O   UNL     1      65.747  29.129  60.616  1.00  0.00    -0.550 OA
ENDBRANCH   4   5
ENDBRANCH   3   4
ENDBRANCH   2   3
ENDBRANCH   1   2
BRANCH   1   8
ATOM      8  C   UNL     1      61.984  33.522  59.031  1.00  0.00     0.000 C 
BRANCH   8   9
ATOM      9  C   UNL     1      61.613  34.318  60.292  1.00  0.00    -0.000 C 
BRANCH   9  10
ATOM     10  C   UNL     1      62.746  35.251  60.756  1.00  0.00    -0.000 C 
BRANCH  10  11
ATOM     11  C   UNL     1      64.062  34.499  61.011  1.00  0.00    -0.000 C 
BRANCH  11  12
ATOM     12  C   UNL     1      65.285  35.430  61.020  1.00  0.00    -0.003 C 
ATOM     13  C   UNL     1      65.743  35.748  59.599  1.00  0.00     0.004 C 
ENDBRANCH  11  12
ENDBRANCH  10  11
ENDBRANCH   9  10
ENDBRANCH   8   9
ENDBRANCH   1   8
TORSDOF 9
ENDMDL
