MODEL 1
REMARK VINA RESULT:    -3.808      0.000      0.000
REMARK INTER + INTRA:          -7.159
REMARK INTER:                  -5.590
REMARK INTRA:                  -1.569
REMARK UNBOUND:                -1.569
REMARK SMILES O=c1c(O[C@@H]2O[C@H](CO)[C@H](O)[C@@H](O)[C@@H]2O)c(-c2ccc(O)c(O)c2)oc2cc(O)cc(O)c12
REMARK SMILES IDX 4 1 3 2 16 3 25 4 2 5 26 6 1 7 33 8 27 9 31 10 28 11 30 12
REMARK SMILES IDX 17 13 18 14 19 15 20 16 24 17 22 18 21 19 23 21 32 23 29 25
REMARK SMILES IDX 5 27 14 28 6 29 12 30 7 31 10 32 15 33 13 35 8 37 9 38 11 40
REMARK H PARENT 21 20 23 22 32 24 29 26 15 34 13 36 9 39 11 41
REMARK Flexibility Score: inf
ROOT
ATOM      1  O   UNL     1      23.002 -11.746  31.305  1.00  0.00    -0.454 OA
ENDROOT
BRANCH   1   2
ATOM      2  C   UNL     1      23.355 -10.975  32.421  1.00  0.00     0.214 A 
ATOM      3  C   UNL     1      24.585 -10.305  32.503  1.00  0.00     0.180 A 
ATOM      4  O   UNL     1      24.833  -9.494  33.529  1.00  0.00    -0.452 OA
ATOM      5  C   UNL     1      22.466 -10.873  33.493  1.00  0.00     0.239 A 
ATOM      6  C   UNL     1      23.974  -9.290  34.521  1.00  0.00     0.146 A 
ATOM      7  O   UNL     1      21.401 -11.542  33.475  1.00  0.00    -0.285 OA
ATOM      8  C   UNL     1      22.747  -9.981  34.556  1.00  0.00     0.111 A 
ATOM      9  C   UNL     1      24.294  -8.379  35.525  1.00  0.00     0.094 A 
ATOM     10  C   UNL     1      21.817  -9.696  35.583  1.00  0.00     0.134 A 
ATOM     11  C   UNL     1      23.350  -8.043  36.494  1.00  0.00     0.123 A 
ATOM     12  C   UNL     1      22.126  -8.717  36.539  1.00  0.00     0.093 A 
BRANCH   3  13
ATOM     13  C   UNL     1      25.687 -10.517  31.539  1.00  0.00     0.025 A 
ATOM     14  C   UNL     1      26.345 -11.759  31.523  1.00  0.00     0.016 A 
ATOM     15  C   UNL     1      27.135 -12.125  30.424  1.00  0.00     0.051 A 
ATOM     16  C   UNL     1      27.298 -11.252  29.341  1.00  0.00     0.157 A 
ATOM     17  C   UNL     1      25.943  -9.597  30.504  1.00  0.00     0.062 A 
ATOM     18  C   UNL     1      26.742  -9.970  29.399  1.00  0.00     0.158 A 
BRANCH  16  19
ATOM     19  O   UNL     1      28.022 -11.672  28.232  1.00  0.00    -0.504 OA
ATOM     20  H   UNL     1      28.161 -11.075  27.424  1.00  0.00     0.293 HD
ENDBRANCH  16  19
BRANCH  18  21
ATOM     21  O   UNL     1      26.987  -9.050  28.383  1.00  0.00    -0.504 OA
ATOM     22  H   UNL     1      27.018  -9.358  27.416  1.00  0.00     0.293 HD
ENDBRANCH  18  21
ENDBRANCH   3  13
BRANCH  10  23
ATOM     23  O   UNL     1      20.581 -10.349  35.637  1.00  0.00    -0.507 OA
ATOM     24  H   UNL     1      20.305 -11.045  34.954  1.00  0.00     0.293 HD
ENDBRANCH  10  23
BRANCH  11  25
ATOM     25  O   UNL     1      23.650  -7.023  37.392  1.00  0.00    -0.508 OA
ATOM     26  H   UNL     1      23.097  -6.167  37.414  1.00  0.00     0.293 HD
ENDBRANCH  11  25
ENDBRANCH   1   2
BRANCH   1  27
ATOM     27  C   UNL     1      22.402 -11.218  30.107  1.00  0.00     0.339 C 
ATOM     28  C   UNL     1      20.852 -11.238  30.129  1.00  0.00     0.214 C 
ATOM     29  O   UNL     1      22.838  -9.899  29.861  1.00  0.00    -0.332 OA
ATOM     30  C   UNL     1      20.363 -11.003  28.692  1.00  0.00     0.180 C 
ATOM     31  C   UNL     1      22.505  -9.495  28.540  1.00  0.00     0.179 C 
ATOM     32  C   UNL     1      20.991  -9.708  28.133  1.00  0.00     0.177 C 
BRANCH  28  33
ATOM     33  O   UNL     1      20.316 -10.197  30.911  1.00  0.00    -0.384 OA
ATOM     34  H   UNL     1      20.592 -10.299  31.863  1.00  0.00     0.211 HD
ENDBRANCH  28  33
BRANCH  30  35
ATOM     35  O   UNL     1      20.678 -12.118  27.882  1.00  0.00    -0.387 OA
ATOM     36  H   UNL     1      21.507 -12.508  28.281  1.00  0.00     0.211 HD
ENDBRANCH  30  35
BRANCH  31  37
ATOM     37  C   UNL     1      22.899  -8.014  28.393  1.00  0.00     0.191 C 
BRANCH  37  38
ATOM     38  O   UNL     1      22.585  -7.290  29.549  1.00  0.00    -0.394 OA
ATOM     39  H   UNL     1      22.114  -7.915  30.162  1.00  0.00     0.210 HD
ENDBRANCH  37  38
ENDBRANCH  31  37
BRANCH  32  40
ATOM     40  O   UNL     1      20.197  -8.612  28.557  1.00  0.00    -0.387 OA
ATOM     41  H   UNL     1      20.613  -8.223  29.369  1.00  0.00     0.211 HD
ENDBRANCH  32  40
ENDBRANCH   1  27
TORSDOF 12
ENDMDL
MODEL 2
REMARK VINA RESULT:    -3.700      1.615      5.642
REMARK INTER + INTRA:          -6.999
REMARK INTER:                  -6.072
REMARK INTRA:                  -0.927
REMARK UNBOUND:                -1.569
REMARK SMILES O=c1c(O[C@@H]2O[C@H](CO)[C@H](O)[C@@H](O)[C@@H]2O)c(-c2ccc(O)c(O)c2)oc2cc(O)cc(O)c12
REMARK SMILES IDX 4 1 3 2 16 3 25 4 2 5 26 6 1 7 33 8 27 9 31 10 28 11 30 12
REMARK SMILES IDX 17 13 18 14 19 15 20 16 24 17 22 18 21 19 23 21 32 23 29 25
REMARK SMILES IDX 5 27 14 28 6 29 12 30 7 31 10 32 15 33 13 35 8 37 9 38 11 40
REMARK H PARENT 21 20 23 22 32 24 29 26 15 34 13 36 9 39 11 41
REMARK Flexibility Score: inf
ROOT
ATOM      1  O   UNL     1      23.451 -11.432  30.621  1.00  0.00    -0.454 OA
ENDROOT
BRANCH   1   2
ATOM      2  C   UNL     1      24.811 -11.198  30.859  1.00  0.00     0.214 A 
ATOM      3  C   UNL     1      25.281 -10.739  32.099  1.00  0.00     0.180 A 
ATOM      4  O   UNL     1      26.590 -10.639  32.318  1.00  0.00    -0.452 OA
ATOM      5  C   UNL     1      25.735 -11.419  29.835  1.00  0.00     0.239 A 
ATOM      6  C   UNL     1      27.507 -10.933  31.404  1.00  0.00     0.146 A 
ATOM      7  O   UNL     1      25.321 -11.741  28.692  1.00  0.00    -0.285 OA
ATOM      8  C   UNL     1      27.121 -11.330  30.108  1.00  0.00     0.111 A 
ATOM      9  C   UNL     1      28.857 -10.854  31.739  1.00  0.00     0.094 A 
ATOM     10  C   UNL     1      28.112 -11.707  29.172  1.00  0.00     0.134 A 
ATOM     11  C   UNL     1      29.828 -11.297  30.844  1.00  0.00     0.123 A 
ATOM     12  C   UNL     1      29.461 -11.697  29.556  1.00  0.00     0.093 A 
BRANCH   3  13
ATOM     13  C   UNL     1      24.386 -10.262  33.177  1.00  0.00     0.025 A 
ATOM     14  C   UNL     1      23.302 -11.068  33.564  1.00  0.00     0.016 A 
ATOM     15  C   UNL     1      22.651 -10.837  34.784  1.00  0.00     0.051 A 
ATOM     16  C   UNL     1      23.055  -9.788  35.620  1.00  0.00     0.157 A 
ATOM     17  C   UNL     1      24.718  -9.142  33.963  1.00  0.00     0.062 A 
ATOM     18  C   UNL     1      24.057  -8.911  35.191  1.00  0.00     0.158 A 
BRANCH  16  19
ATOM     19  O   UNL     1      22.443  -9.630  36.858  1.00  0.00    -0.504 OA
ATOM     20  H   UNL     1      22.867  -9.086  37.600  1.00  0.00     0.293 HD
ENDBRANCH  16  19
BRANCH  18  21
ATOM     21  O   UNL     1      24.394  -7.799  35.958  1.00  0.00    -0.504 OA
ATOM     22  H   UNL     1      24.563  -7.902  36.954  1.00  0.00     0.293 HD
ENDBRANCH  18  21
ENDBRANCH   3  13
BRANCH  10  23
ATOM     23  O   UNL     1      27.763 -12.125  27.883  1.00  0.00    -0.507 OA
ATOM     24  H   UNL     1      28.367 -12.717  27.324  1.00  0.00     0.293 HD
ENDBRANCH  10  23
BRANCH  11  25
ATOM     25  O   UNL     1      31.154 -11.341  31.267  1.00  0.00    -0.508 OA
ATOM     26  H   UNL     1      31.883 -11.716  30.660  1.00  0.00     0.293 HD
ENDBRANCH  11  25
ENDBRANCH   1   2
BRANCH   1  27
ATOM     27  C   UNL     1      22.634 -10.653  29.726  1.00  0.00     0.339 C 
ATOM     28  C   UNL     1      21.182 -10.450  30.230  1.00  0.00     0.214 C 
ATOM     29  O   UNL     1      23.213  -9.390  29.482  1.00  0.00    -0.332 OA
ATOM     30  C   UNL     1      20.346  -9.939  29.048  1.00  0.00     0.180 C 
ATOM     31  C   UNL     1      22.588  -8.752  28.377  1.00  0.00     0.179 C 
ATOM     32  C   UNL     1      21.009  -8.682  28.446  1.00  0.00     0.177 C 
BRANCH  28  33
ATOM     33  O   UNL     1      21.098  -9.469  31.236  1.00  0.00    -0.384 OA
ATOM     34  H   UNL     1      20.704  -8.629  30.871  1.00  0.00     0.211 HD
ENDBRANCH  28  33
BRANCH  30  35
ATOM     35  O   UNL     1      20.200 -10.957  28.078  1.00  0.00    -0.387 OA
ATOM     36  H   UNL     1      20.357 -10.509  27.200  1.00  0.00     0.211 HD
ENDBRANCH  30  35
BRANCH  31  37
ATOM     37  C   UNL     1      23.186  -7.339  28.254  1.00  0.00     0.191 C 
BRANCH  37  38
ATOM     38  O   UNL     1      23.673  -6.888  29.487  1.00  0.00    -0.394 OA
ATOM     39  H   UNL     1      23.796  -5.906  29.407  1.00  0.00     0.210 HD
ENDBRANCH  37  38
ENDBRANCH  31  37
BRANCH  32  40
ATOM     40  O   UNL     1      20.588  -7.555  29.200  1.00  0.00    -0.387 OA
ATOM     41  H   UNL     1      20.443  -7.846  30.137  1.00  0.00     0.211 HD
ENDBRANCH  32  40
ENDBRANCH   1  27
TORSDOF 12
ENDMDL
MODEL 3
REMARK VINA RESULT:    -3.270      5.174      8.758
REMARK INTER + INTRA:          -6.368
REMARK INTER:                  -6.077
REMARK INTRA:                  -0.291
REMARK UNBOUND:                -1.569
REMARK SMILES O=c1c(O[C@@H]2O[C@H](CO)[C@H](O)[C@@H](O)[C@@H]2O)c(-c2ccc(O)c(O)c2)oc2cc(O)cc(O)c12
REMARK SMILES IDX 4 1 3 2 16 3 25 4 2 5 26 6 1 7 33 8 27 9 31 10 28 11 30 12
REMARK SMILES IDX 17 13 18 14 19 15 20 16 24 17 22 18 21 19 23 21 32 23 29 25
REMARK SMILES IDX 5 27 14 28 6 29 12 30 7 31 10 32 15 33 13 35 8 37 9 38 11 40
REMARK H PARENT 21 20 23 22 32 24 29 26 15 34 13 36 9 39 11 41
REMARK Flexibility Score: inf
ROOT
ATOM      1  O   UNL     1      30.247 -10.403  32.396  1.00  0.00    -0.454 OA
ENDROOT
BRANCH   1   2
ATOM      2  C   UNL     1      29.315 -10.680  31.388  1.00  0.00     0.214 A 
ATOM      3  C   UNL     1      29.634 -11.478  30.278  1.00  0.00     0.180 A 
ATOM      4  O   UNL     1      28.688 -11.808  29.403  1.00  0.00    -0.452 OA
ATOM      5  C   UNL     1      28.029 -10.143  31.477  1.00  0.00     0.239 A 
ATOM      6  C   UNL     1      27.428 -11.400  29.503  1.00  0.00     0.146 A 
ATOM      7  O   UNL     1      27.756  -9.352  32.415  1.00  0.00    -0.285 OA
ATOM      8  C   UNL     1      27.038 -10.535  30.545  1.00  0.00     0.111 A 
ATOM      9  C   UNL     1      26.491 -11.842  28.572  1.00  0.00     0.094 A 
ATOM     10  C   UNL     1      25.678 -10.171  30.674  1.00  0.00     0.134 A 
ATOM     11  C   UNL     1      25.140 -11.545  28.742  1.00  0.00     0.123 A 
ATOM     12  C   UNL     1      24.737 -10.692  29.773  1.00  0.00     0.093 A 
BRANCH   3  13
ATOM     13  C   UNL     1      31.013 -11.913  29.965  1.00  0.00     0.025 A 
ATOM     14  C   UNL     1      31.390 -12.060  28.619  1.00  0.00     0.016 A 
ATOM     15  C   UNL     1      32.745 -12.125  28.268  1.00  0.00     0.051 A 
ATOM     16  C   UNL     1      33.740 -12.067  29.253  1.00  0.00     0.157 A 
ATOM     17  C   UNL     1      32.008 -11.969  30.961  1.00  0.00     0.062 A 
ATOM     18  C   UNL     1      33.373 -12.037  30.602  1.00  0.00     0.158 A 
BRANCH  16  19
ATOM     19  O   UNL     1      35.076 -12.055  28.870  1.00  0.00    -0.504 OA
ATOM     20  H   UNL     1      35.386 -12.457  27.992  1.00  0.00     0.293 HD
ENDBRANCH  16  19
BRANCH  18  21
ATOM     21  O   UNL     1      34.346 -12.092  31.597  1.00  0.00    -0.504 OA
ATOM     22  H   UNL     1      34.819 -11.244  31.892  1.00  0.00     0.293 HD
ENDBRANCH  18  21
ENDBRANCH   3  13
BRANCH  10  23
ATOM     23  O   UNL     1      25.252  -9.330  31.708  1.00  0.00    -0.507 OA
ATOM     24  H   UNL     1      24.272  -9.195  31.928  1.00  0.00     0.293 HD
ENDBRANCH  10  23
BRANCH  11  25
ATOM     25  O   UNL     1      24.216 -12.124  27.877  1.00  0.00    -0.508 OA
ATOM     26  H   UNL     1      24.071 -11.748  26.940  1.00  0.00     0.293 HD
ENDBRANCH  11  25
ENDBRANCH   1   2
BRANCH   1  27
ATOM     27  C   UNL     1      31.129  -9.265  32.402  1.00  0.00     0.339 C 
ATOM     28  C   UNL     1      30.558  -8.034  31.653  1.00  0.00     0.214 C 
ATOM     29  O   UNL     1      31.458  -8.886  33.720  1.00  0.00    -0.332 OA
ATOM     30  C   UNL     1      31.715  -7.050  31.424  1.00  0.00     0.180 C 
ATOM     31  C   UNL     1      32.554  -7.982  33.728  1.00  0.00     0.179 C 
ATOM     32  C   UNL     1      32.404  -6.734  32.768  1.00  0.00     0.177 C 
BRANCH  28  33
ATOM     33  O   UNL     1      29.592  -7.348  32.413  1.00  0.00    -0.384 OA
ATOM     34  H   UNL     1      29.223  -7.940  33.125  1.00  0.00     0.211 HD
ENDBRANCH  28  33
BRANCH  30  35
ATOM     35  O   UNL     1      32.630  -7.586  30.489  1.00  0.00    -0.387 OA
ATOM     36  H   UNL     1      32.346  -8.534  30.355  1.00  0.00     0.211 HD
ENDBRANCH  30  35
BRANCH  31  37
ATOM     37  C   UNL     1      32.768  -7.521  35.182  1.00  0.00     0.191 C 
BRANCH  37  38
ATOM     38  O   UNL     1      33.827  -6.610  35.272  1.00  0.00    -0.394 OA
ATOM     39  H   UNL     1      34.641  -7.080  34.950  1.00  0.00     0.210 HD
ENDBRANCH  37  38
ENDBRANCH  31  37
BRANCH  32  40
ATOM     40  O   UNL     1      31.677  -5.694  33.404  1.00  0.00    -0.387 OA
ATOM     41  H   UNL     1      32.117  -5.494  34.271  1.00  0.00     0.211 HD
ENDBRANCH  32  40
ENDBRANCH   1  27
TORSDOF 12
ENDMDL
MODEL 4
REMARK VINA RESULT:    -3.227      2.312      6.450
REMARK INTER + INTRA:          -6.305
REMARK INTER:                  -5.498
REMARK INTRA:                  -0.807
REMARK UNBOUND:                -1.569
REMARK SMILES O=c1c(O[C@@H]2O[C@H](CO)[C@H](O)[C@@H](O)[C@@H]2O)c(-c2ccc(O)c(O)c2)oc2cc(O)cc(O)c12
REMARK SMILES IDX 4 1 3 2 16 3 25 4 2 5 26 6 1 7 33 8 27 9 31 10 28 11 30 12
REMARK SMILES IDX 17 13 18 14 19 15 20 16 24 17 22 18 21 19 23 21 32 23 29 25
REMARK SMILES IDX 5 27 14 28 6 29 12 30 7 31 10 32 15 33 13 35 8 37 9 38 11 40
REMARK H PARENT 21 20 23 22 32 24 29 26 15 34 13 36 9 39 11 41
REMARK Flexibility Score: inf
ROOT
ATOM      1  O   UNL     1      24.468 -10.990  31.989  1.00  0.00    -0.454 OA
ENDROOT
BRANCH   1   2
ATOM      2  C   UNL     1      25.699 -10.546  31.487  1.00  0.00     0.214 A 
ATOM      3  C   UNL     1      25.787  -9.519  30.535  1.00  0.00     0.180 A 
ATOM      4  O   UNL     1      26.977  -9.051  30.170  1.00  0.00    -0.452 OA
ATOM      5  C   UNL     1      26.878 -11.143  31.937  1.00  0.00     0.239 A 
ATOM      6  C   UNL     1      28.124  -9.523  30.647  1.00  0.00     0.146 A 
ATOM      7  O   UNL     1      26.811 -12.125  32.719  1.00  0.00    -0.285 OA
ATOM      8  C   UNL     1      28.129 -10.604  31.551  1.00  0.00     0.111 A 
ATOM      9  C   UNL     1      29.323  -8.933  30.252  1.00  0.00     0.094 A 
ATOM     10  C   UNL     1      29.355 -11.043  32.102  1.00  0.00     0.134 A 
ATOM     11  C   UNL     1      30.522  -9.316  30.851  1.00  0.00     0.123 A 
ATOM     12  C   UNL     1      30.543 -10.384  31.752  1.00  0.00     0.093 A 
BRANCH   3  13
ATOM     13  C   UNL     1      24.609  -8.970  29.826  1.00  0.00     0.025 A 
ATOM     14  C   UNL     1      24.298  -9.460  28.547  1.00  0.00     0.016 A 
ATOM     15  C   UNL     1      23.029  -9.237  27.995  1.00  0.00     0.051 A 
ATOM     16  C   UNL     1      22.063  -8.506  28.700  1.00  0.00     0.157 A 
ATOM     17  C   UNL     1      23.679  -8.142  30.484  1.00  0.00     0.062 A 
ATOM     18  C   UNL     1      22.401  -7.918  29.923  1.00  0.00     0.158 A 
BRANCH  16  19
ATOM     19  O   UNL     1      20.789  -8.367  28.163  1.00  0.00    -0.504 OA
ATOM     20  H   UNL     1      20.630  -8.332  27.162  1.00  0.00     0.293 HD
ENDBRANCH  16  19
BRANCH  18  21
ATOM     21  O   UNL     1      21.491  -7.096  30.583  1.00  0.00    -0.504 OA
ATOM     22  H   UNL     1      20.562  -7.441  30.803  1.00  0.00     0.293 HD
ENDBRANCH  18  21
ENDBRANCH   3  13
BRANCH  10  23
ATOM     23  O   UNL     1      29.396 -12.101  33.017  1.00  0.00    -0.507 OA
ATOM     24  H   UNL     1      29.133 -13.047  32.764  1.00  0.00     0.293 HD
ENDBRANCH  10  23
BRANCH  11  25
ATOM     25  O   UNL     1      31.678  -8.606  30.539  1.00  0.00    -0.508 OA
ATOM     26  H   UNL     1      31.946  -8.446  29.568  1.00  0.00     0.293 HD
ENDBRANCH  11  25
ENDBRANCH   1   2
BRANCH   1  27
ATOM     27  C   UNL     1      23.967 -10.689  33.305  1.00  0.00     0.339 C 
ATOM     28  C   UNL     1      24.943  -9.843  34.161  1.00  0.00     0.214 C 
ATOM     29  O   UNL     1      22.726 -10.023  33.234  1.00  0.00    -0.332 OA
ATOM     30  C   UNL     1      24.462  -9.908  35.618  1.00  0.00     0.180 C 
ATOM     31  C   UNL     1      22.089 -10.005  34.504  1.00  0.00     0.179 C 
ATOM     32  C   UNL     1      22.982  -9.477  35.698  1.00  0.00     0.177 C 
BRANCH  28  33
ATOM     33  O   UNL     1      24.933  -8.483  33.796  1.00  0.00    -0.384 OA
ATOM     34  H   UNL     1      25.424  -8.348  32.939  1.00  0.00     0.211 HD
ENDBRANCH  28  33
BRANCH  30  35
ATOM     35  O   UNL     1      24.647 -11.212  36.133  1.00  0.00    -0.387 OA
ATOM     36  H   UNL     1      25.099 -11.722  35.403  1.00  0.00     0.211 HD
ENDBRANCH  30  35
BRANCH  31  37
ATOM     37  C   UNL     1      20.810  -9.158  34.372  1.00  0.00     0.191 C 
BRANCH  37  38
ATOM     38  O   UNL     1      19.875  -9.498  35.357  1.00  0.00    -0.394 OA
ATOM     39  H   UNL     1      20.389  -9.706  36.182  1.00  0.00     0.210 HD
ENDBRANCH  37  38
ENDBRANCH  31  37
BRANCH  32  40
ATOM     40  O   UNL     1      22.937  -8.060  35.772  1.00  0.00    -0.387 OA
ATOM     41  H   UNL     1      21.992  -7.775  35.674  1.00  0.00     0.211 HD
ENDBRANCH  32  40
ENDBRANCH   1  27
TORSDOF 12
ENDMDL
MODEL 5
REMARK VINA RESULT:    -0.888      5.332      9.409
REMARK INTER + INTRA:          -2.872
REMARK INTER:                  -1.836
REMARK INTRA:                  -1.036
REMARK UNBOUND:                -1.569
REMARK SMILES O=c1c(O[C@@H]2O[C@H](CO)[C@H](O)[C@@H](O)[C@@H]2O)c(-c2ccc(O)c(O)c2)oc2cc(O)cc(O)c12
REMARK SMILES IDX 4 1 3 2 16 3 25 4 2 5 26 6 1 7 33 8 27 9 31 10 28 11 30 12
REMARK SMILES IDX 17 13 18 14 19 15 20 16 24 17 22 18 21 19 23 21 32 23 29 25
REMARK SMILES IDX 5 27 14 28 6 29 12 30 7 31 10 32 15 33 13 35 8 37 9 38 11 40
REMARK H PARENT 21 20 23 22 32 24 29 26 15 34 13 36 9 39 11 41
REMARK Flexibility Score: inf
ROOT
ATOM      1  O   UNL     1      31.107  -9.322  29.845  1.00  0.00    -0.454 OA
ENDROOT
BRANCH   1   2
ATOM      2  C   UNL     1      29.858  -9.740  30.324  1.00  0.00     0.214 A 
ATOM      3  C   UNL     1      29.366  -9.332  31.573  1.00  0.00     0.180 A 
ATOM      4  O   UNL     1      28.130  -9.660  31.939  1.00  0.00    -0.452 OA
ATOM      5  C   UNL     1      29.076 -10.596  29.545  1.00  0.00     0.239 A 
ATOM      6  C   UNL     1      27.315 -10.390  31.186  1.00  0.00     0.146 A 
ATOM      7  O   UNL     1      29.542 -11.044  28.467  1.00  0.00    -0.285 OA
ATOM      8  C   UNL     1      27.755 -10.904  29.950  1.00  0.00     0.111 A 
ATOM      9  C   UNL     1      26.016 -10.636  31.625  1.00  0.00     0.094 A 
ATOM     10  C   UNL     1      26.849 -11.617  29.132  1.00  0.00     0.134 A 
ATOM     11  C   UNL     1      25.103 -11.274  30.787  1.00  0.00     0.123 A 
ATOM     12  C   UNL     1      25.523 -11.786  29.556  1.00  0.00     0.093 A 
BRANCH   3  13
ATOM     13  C   UNL     1      30.190  -8.614  32.572  1.00  0.00     0.025 A 
ATOM     14  C   UNL     1      31.207  -9.316  33.241  1.00  0.00     0.016 A 
ATOM     15  C   UNL     1      32.217  -8.618  33.917  1.00  0.00     0.051 A 
ATOM     16  C   UNL     1      32.215  -7.217  33.954  1.00  0.00     0.157 A 
ATOM     17  C   UNL     1      30.126  -7.214  32.704  1.00  0.00     0.062 A 
ATOM     18  C   UNL     1      31.146  -6.515  33.389  1.00  0.00     0.158 A 
BRANCH  16  19
ATOM     19  O   UNL     1      33.271  -6.551  34.565  1.00  0.00    -0.504 OA
ATOM     20  H   UNL     1      33.680  -6.877  35.433  1.00  0.00     0.293 HD
ENDBRANCH  16  19
BRANCH  18  21
ATOM     21  O   UNL     1      31.070  -5.130  33.514  1.00  0.00    -0.504 OA
ATOM     22  H   UNL     1      31.566  -4.534  32.859  1.00  0.00     0.293 HD
ENDBRANCH  18  21
ENDBRANCH   3  13
BRANCH  10  23
ATOM     23  O   UNL     1      27.247 -12.125  27.890  1.00  0.00    -0.507 OA
ATOM     24  H   UNL     1      26.580 -12.394  27.176  1.00  0.00     0.293 HD
ENDBRANCH  10  23
BRANCH  11  25
ATOM     25  O   UNL     1      23.777 -11.373  31.200  1.00  0.00    -0.508 OA
ATOM     26  H   UNL     1      23.466 -12.157  31.773  1.00  0.00     0.293 HD
ENDBRANCH  11  25
ENDBRANCH   1   2
BRANCH   1  27
ATOM     27  C   UNL     1      32.353  -9.987  30.126  1.00  0.00     0.339 C 
ATOM     28  C   UNL     1      32.288 -11.525  29.948  1.00  0.00     0.214 C 
ATOM     29  O   UNL     1      33.392  -9.477  29.321  1.00  0.00    -0.332 OA
ATOM     30  C   UNL     1      33.534 -12.124  30.618  1.00  0.00     0.180 C 
ATOM     31  C   UNL     1      34.660  -9.898  29.804  1.00  0.00     0.179 C 
ATOM     32  C   UNL     1      34.803 -11.454  30.050  1.00  0.00     0.177 C 
BRANCH  28  33
ATOM     33  O   UNL     1      32.336 -11.909  28.594  1.00  0.00    -0.384 OA
ATOM     34  H   UNL     1      31.424 -11.883  28.192  1.00  0.00     0.211 HD
ENDBRANCH  28  33
BRANCH  30  35
ATOM     35  O   UNL     1      33.455 -11.969  32.020  1.00  0.00    -0.387 OA
ATOM     36  H   UNL     1      33.612 -10.998  32.188  1.00  0.00     0.211 HD
ENDBRANCH  30  35
BRANCH  31  37
ATOM     37  C   UNL     1      35.726  -9.408  28.807  1.00  0.00     0.191 C 
BRANCH  37  38
ATOM     38  O   UNL     1      35.230  -8.371  28.007  1.00  0.00    -0.394 OA
ATOM     39  H   UNL     1      35.373  -8.642  27.062  1.00  0.00     0.210 HD
ENDBRANCH  37  38
ENDBRANCH  31  37
BRANCH  32  40
ATOM     40  O   UNL     1      35.157 -12.122  28.848  1.00  0.00    -0.387 OA
ATOM     41  H   UNL     1      34.637 -12.965  28.797  1.00  0.00     0.211 HD
ENDBRANCH  32  40
ENDBRANCH   1  27
TORSDOF 12
ENDMDL
