MODEL 1
REMARK VINA RESULT:    -6.700      0.000      0.000
REMARK INTER + INTRA:         -10.036
REMARK INTER:                  -9.050
REMARK INTRA:                  -0.985
REMARK UNBOUND:                -0.985
REMARK SMILES O=c1c(-c2ccc(O)cc2)coc2c([C@H]3O[C@@H](CO)[C@H](O)[C@H](O)[C@@H]3O)c(O)ccc12
REMARK SMILES IDX 3 1 11 2 12 3 13 4 30 5 2 6 1 7 29 8 28 9 26 10 14 11 4 12
REMARK SMILES IDX 5 13 6 14 7 15 10 16 9 17 8 18 15 20 24 21 16 22 22 23 17 24
REMARK SMILES IDX 20 25 25 26 23 28 18 30 19 31 21 33 27 35
REMARK H PARENT 8 19 25 27 23 29 19 32 21 34 27 36
REMARK Flexibility Score: inf
ROOT
ATOM      1  C   UNL     1      -2.246  64.234  -3.657  1.00  0.00     0.065 A 
ATOM      2  C   UNL     1      -2.481  63.799  -2.345  1.00  0.00     0.208 A 
ATOM      3  O   UNL     1      -1.797  64.306  -1.327  1.00  0.00    -0.463 OA
ATOM      4  C   UNL     1      -0.861  65.241  -1.470  1.00  0.00     0.147 A 
ATOM      5  C   UNL     1      -0.555  65.730  -2.761  1.00  0.00     0.066 A 
ATOM      6  C   UNL     1      -1.257  65.212  -3.864  1.00  0.00     0.200 A 
ATOM      7  O   UNL     1      -0.988  65.606  -5.032  1.00  0.00    -0.288 OA
ATOM      8  C   UNL     1       0.444  66.705  -2.913  1.00  0.00     0.020 A 
ATOM      9  C   UNL     1       1.132  67.185  -1.800  1.00  0.00     0.047 A 
ATOM     10  C   UNL     1       0.836  66.707  -0.518  1.00  0.00     0.125 A 
ATOM     11  C   UNL     1      -0.177  65.739  -0.335  1.00  0.00     0.069 A 
ENDROOT
BRANCH   1  12
ATOM     12  C   UNL     1      -3.029  63.657  -4.779  1.00  0.00    -0.011 A 
ATOM     13  C   UNL     1      -2.577  62.500  -5.437  1.00  0.00     0.013 A 
ATOM     14  C   UNL     1      -3.317  61.949  -6.489  1.00  0.00     0.047 A 
ATOM     15  C   UNL     1      -4.518  62.542  -6.891  1.00  0.00     0.115 A 
ATOM     16  C   UNL     1      -4.241  64.244  -5.184  1.00  0.00     0.013 A 
ATOM     17  C   UNL     1      -4.978  63.691  -6.235  1.00  0.00     0.047 A 
BRANCH  15  18
ATOM     18  O   UNL     1      -5.244  61.983  -7.940  1.00  0.00    -0.508 OA
ATOM     19  H   UNL     1      -5.855  62.546  -8.520  1.00  0.00     0.293 HD
ENDBRANCH  15  18
ENDBRANCH   1  12
BRANCH  11  20
ATOM     20  C   UNL     1      -0.484  65.201   1.056  1.00  0.00     0.188 C 
ATOM     21  C   UNL     1      -0.961  66.351   1.980  1.00  0.00     0.179 C 
ATOM     22  O   UNL     1       0.684  64.594   1.585  1.00  0.00    -0.362 OA
ATOM     23  C   UNL     1      -1.176  65.856   3.426  1.00  0.00     0.177 C 
ATOM     24  C   UNL     1       0.413  63.951   2.821  1.00  0.00     0.176 C 
ATOM     25  C   UNL     1       0.021  64.997   3.897  1.00  0.00     0.177 C 
BRANCH  21  26
ATOM     26  O   UNL     1      -2.120  66.976   1.481  1.00  0.00    -0.387 OA
ATOM     27  H   UNL     1      -2.341  67.733   2.084  1.00  0.00     0.211 HD
ENDBRANCH  21  26
BRANCH  23  28
ATOM     28  O   UNL     1      -2.399  65.173   3.577  1.00  0.00    -0.387 OA
ATOM     29  H   UNL     1      -2.422  64.767   4.480  1.00  0.00     0.211 HD
ENDBRANCH  23  28
BRANCH  24  30
ATOM     30  C   UNL     1       1.678  63.179   3.231  1.00  0.00     0.191 C 
BRANCH  30  31
ATOM     31  O   UNL     1       2.275  63.743   4.368  1.00  0.00    -0.394 OA
ATOM     32  H   UNL     1       3.085  64.225   4.055  1.00  0.00     0.210 HD
ENDBRANCH  30  31
ENDBRANCH  24  30
BRANCH  25  33
ATOM     33  O   UNL     1      -0.300  64.354   5.105  1.00  0.00    -0.388 OA
ATOM     34  H   UNL     1      -1.232  64.615   5.328  1.00  0.00     0.211 HD
ENDBRANCH  25  33
ENDBRANCH  11  20
BRANCH  10  35
ATOM     35  O   UNL     1       1.555  67.193   0.575  1.00  0.00    -0.507 OA
ATOM     36  H   UNL     1       1.645  68.186   0.755  1.00  0.00     0.293 HD
ENDBRANCH  10  35
TORSDOF 9
ENDMDL
MODEL 2
REMARK VINA RESULT:    -6.657      6.174     11.139
REMARK INTER + INTRA:          -9.977
REMARK INTER:                  -9.211
REMARK INTRA:                  -0.766
REMARK UNBOUND:                -0.985
REMARK SMILES O=c1c(-c2ccc(O)cc2)coc2c([C@H]3O[C@@H](CO)[C@H](O)[C@H](O)[C@@H]3O)c(O)ccc12
REMARK SMILES IDX 3 1 11 2 12 3 13 4 30 5 2 6 1 7 29 8 28 9 26 10 14 11 4 12
REMARK SMILES IDX 5 13 6 14 7 15 10 16 9 17 8 18 15 20 24 21 16 22 22 23 17 24
REMARK SMILES IDX 20 25 25 26 23 28 18 30 19 31 21 33 27 35
REMARK H PARENT 8 19 25 27 23 29 19 32 21 34 27 36
REMARK Flexibility Score: inf
ROOT
ATOM      1  C   UNL     1      -1.313  63.584  -7.264  1.00  0.00     0.065 A 
ATOM      2  C   UNL     1      -2.324  64.484  -7.628  1.00  0.00     0.208 A 
ATOM      3  O   UNL     1      -3.497  64.048  -8.070  1.00  0.00    -0.463 OA
ATOM      4  C   UNL     1      -3.794  62.757  -8.197  1.00  0.00     0.147 A 
ATOM      5  C   UNL     1      -2.829  61.780  -7.861  1.00  0.00     0.066 A 
ATOM      6  C   UNL     1      -1.573  62.207  -7.393  1.00  0.00     0.200 A 
ATOM      7  O   UNL     1      -0.678  61.363  -7.111  1.00  0.00    -0.288 OA
ATOM      8  C   UNL     1      -3.138  60.420  -8.010  1.00  0.00     0.020 A 
ATOM      9  C   UNL     1      -4.386  60.032  -8.492  1.00  0.00     0.047 A 
ATOM     10  C   UNL     1      -5.350  60.991  -8.829  1.00  0.00     0.125 A 
ATOM     11  C   UNL     1      -5.071  62.367  -8.670  1.00  0.00     0.069 A 
ENDROOT
BRANCH   1  12
ATOM     12  C   UNL     1      -0.011  64.095  -6.766  1.00  0.00    -0.011 A 
ATOM     13  C   UNL     1       1.053  64.315  -7.658  1.00  0.00     0.013 A 
ATOM     14  C   UNL     1       2.278  64.805  -7.193  1.00  0.00     0.047 A 
ATOM     15  C   UNL     1       2.452  65.087  -5.835  1.00  0.00     0.115 A 
ATOM     16  C   UNL     1       0.170  64.388  -5.402  1.00  0.00     0.013 A 
ATOM     17  C   UNL     1       1.395  64.878  -4.940  1.00  0.00     0.047 A 
BRANCH  15  18
ATOM     18  O   UNL     1       3.678  65.575  -5.386  1.00  0.00    -0.508 OA
ATOM     19  H   UNL     1       4.475  64.963  -5.255  1.00  0.00     0.293 HD
ENDBRANCH  15  18
ENDBRANCH   1  12
BRANCH  11  20
ATOM     20  C   UNL     1      -6.109  63.411  -9.058  1.00  0.00     0.188 C 
ATOM     21  C   UNL     1      -7.411  63.197  -8.243  1.00  0.00     0.179 C 
ATOM     22  O   UNL     1      -6.372  63.309 -10.448  1.00  0.00    -0.362 OA
ATOM     23  C   UNL     1      -8.520  64.173  -8.692  1.00  0.00     0.177 C 
ATOM     24  C   UNL     1      -7.227  64.353 -10.886  1.00  0.00     0.176 C 
ATOM     25  C   UNL     1      -8.627  64.212 -10.234  1.00  0.00     0.177 C 
BRANCH  21  26
ATOM     26  O   UNL     1      -7.184  63.292  -6.858  1.00  0.00    -0.387 OA
ATOM     27  H   UNL     1      -7.033  64.248  -6.638  1.00  0.00     0.211 HD
ENDBRANCH  21  26
BRANCH  23  28
ATOM     28  O   UNL     1      -8.344  65.461  -8.149  1.00  0.00    -0.387 OA
ATOM     29  H   UNL     1      -9.222  65.787  -7.825  1.00  0.00     0.211 HD
ENDBRANCH  23  28
BRANCH  24  30
ATOM     30  C   UNL     1      -7.316  64.268 -12.419  1.00  0.00     0.191 C 
BRANCH  30  31
ATOM     31  O   UNL     1      -6.372  63.368 -12.936  1.00  0.00    -0.394 OA
ATOM     32  H   UNL     1      -5.946  63.817 -13.712  1.00  0.00     0.210 HD
ENDBRANCH  30  31
ENDBRANCH  24  30
BRANCH  25  33
ATOM     33  O   UNL     1      -9.455  65.278 -10.628  1.00  0.00    -0.388 OA
ATOM     34  H   UNL     1      -9.358  65.366 -11.612  1.00  0.00     0.211 HD
ENDBRANCH  25  33
ENDBRANCH  11  20
BRANCH  10  35
ATOM     35  O   UNL     1      -6.585  60.573  -9.326  1.00  0.00    -0.507 OA
ATOM     36  H   UNL     1      -6.774  59.599  -9.536  1.00  0.00     0.293 HD
ENDBRANCH  10  35
TORSDOF 9
ENDMDL
MODEL 3
REMARK VINA RESULT:    -6.647      2.371      9.571
REMARK INTER + INTRA:          -9.964
REMARK INTER:                  -8.840
REMARK INTRA:                  -1.124
REMARK UNBOUND:                -0.985
REMARK SMILES O=c1c(-c2ccc(O)cc2)coc2c([C@H]3O[C@@H](CO)[C@H](O)[C@H](O)[C@@H]3O)c(O)ccc12
REMARK SMILES IDX 3 1 11 2 12 3 13 4 30 5 2 6 1 7 29 8 28 9 26 10 14 11 4 12
REMARK SMILES IDX 5 13 6 14 7 15 10 16 9 17 8 18 15 20 24 21 16 22 22 23 17 24
REMARK SMILES IDX 20 25 25 26 23 28 18 30 19 31 21 33 27 35
REMARK H PARENT 8 19 25 27 23 29 19 32 21 34 27 36
REMARK Flexibility Score: inf
ROOT
ATOM      1  C   UNL     1      -2.161  65.344  -3.200  1.00  0.00     0.065 A 
ATOM      2  C   UNL     1      -3.119  64.360  -3.482  1.00  0.00     0.208 A 
ATOM      3  O   UNL     1      -3.424  64.046  -4.734  1.00  0.00    -0.463 OA
ATOM      4  C   UNL     1      -2.860  64.626  -5.790  1.00  0.00     0.147 A 
ATOM      5  C   UNL     1      -1.889  65.636  -5.597  1.00  0.00     0.066 A 
ATOM      6  C   UNL     1      -1.544  65.998  -4.282  1.00  0.00     0.200 A 
ATOM      7  O   UNL     1      -0.703  66.915  -4.073  1.00  0.00    -0.288 OA
ATOM      8  C   UNL     1      -1.305  66.259  -6.711  1.00  0.00     0.020 A 
ATOM      9  C   UNL     1      -1.683  65.889  -8.000  1.00  0.00     0.047 A 
ATOM     10  C   UNL     1      -2.643  64.890  -8.203  1.00  0.00     0.125 A 
ATOM     11  C   UNL     1      -3.232  64.234  -7.099  1.00  0.00     0.069 A 
ENDROOT
BRANCH   1  12
ATOM     12  C   UNL     1      -1.831  65.673  -1.790  1.00  0.00    -0.011 A 
ATOM     13  C   UNL     1      -0.758  65.034  -1.146  1.00  0.00     0.013 A 
ATOM     14  C   UNL     1      -0.438  65.348   0.179  1.00  0.00     0.047 A 
ATOM     15  C   UNL     1      -1.181  66.308   0.873  1.00  0.00     0.115 A 
ATOM     16  C   UNL     1      -2.569  66.642  -1.088  1.00  0.00     0.013 A 
ATOM     17  C   UNL     1      -2.248  66.955   0.236  1.00  0.00     0.047 A 
BRANCH  15  18
ATOM     18  O   UNL     1      -0.852  66.611   2.193  1.00  0.00    -0.508 OA
ATOM     19  H   UNL     1      -1.490  66.417   2.955  1.00  0.00     0.293 HD
ENDBRANCH  15  18
ENDBRANCH   1  12
BRANCH  11  20
ATOM     20  C   UNL     1      -4.294  63.164  -7.317  1.00  0.00     0.188 C 
ATOM     21  C   UNL     1      -3.622  61.799  -7.616  1.00  0.00     0.179 C 
ATOM     22  O   UNL     1      -5.127  63.553  -8.397  1.00  0.00    -0.362 OA
ATOM     23  C   UNL     1      -4.672  60.718  -7.950  1.00  0.00     0.177 C 
ATOM     24  C   UNL     1      -6.219  62.659  -8.550  1.00  0.00     0.176 C 
ATOM     25  C   UNL     1      -5.710  61.254  -8.964  1.00  0.00     0.177 C 
BRANCH  21  26
ATOM     26  O   UNL     1      -2.786  61.385  -6.563  1.00  0.00    -0.387 OA
ATOM     27  H   UNL     1      -2.383  62.197  -6.156  1.00  0.00     0.211 HD
ENDBRANCH  21  26
BRANCH  23  28
ATOM     28  O   UNL     1      -5.291  60.206  -6.792  1.00  0.00    -0.387 OA
ATOM     29  H   UNL     1      -6.266  60.373  -6.858  1.00  0.00     0.211 HD
ENDBRANCH  23  28
BRANCH  24  30
ATOM     30  C   UNL     1      -7.156  63.248  -9.618  1.00  0.00     0.191 C 
BRANCH  30  31
ATOM     31  O   UNL     1      -8.456  62.735  -9.496  1.00  0.00    -0.394 OA
ATOM     32  H   UNL     1      -8.540  62.011 -10.171  1.00  0.00     0.210 HD
ENDBRANCH  30  31
ENDBRANCH  24  30
BRANCH  25  33
ATOM     33  O   UNL     1      -6.788  60.357  -9.061  1.00  0.00    -0.388 OA
ATOM     34  H   UNL     1      -6.508  59.524  -8.599  1.00  0.00     0.211 HD
ENDBRANCH  25  33
ENDBRANCH  11  20
BRANCH  10  35
ATOM     35  O   UNL     1      -3.013  64.553  -9.505  1.00  0.00    -0.507 OA
ATOM     36  H   UNL     1      -2.717  63.685  -9.937  1.00  0.00     0.293 HD
ENDBRANCH  10  35
TORSDOF 9
ENDMDL
MODEL 4
REMARK VINA RESULT:    -6.494      3.471     10.425
REMARK INTER + INTRA:          -9.757
REMARK INTER:                  -8.656
REMARK INTRA:                  -1.102
REMARK UNBOUND:                -0.985
REMARK SMILES O=c1c(-c2ccc(O)cc2)coc2c([C@H]3O[C@@H](CO)[C@H](O)[C@H](O)[C@@H]3O)c(O)ccc12
REMARK SMILES IDX 3 1 11 2 12 3 13 4 30 5 2 6 1 7 29 8 28 9 26 10 14 11 4 12
REMARK SMILES IDX 5 13 6 14 7 15 10 16 9 17 8 18 15 20 24 21 16 22 22 23 17 24
REMARK SMILES IDX 20 25 25 26 23 28 18 30 19 31 21 33 27 35
REMARK H PARENT 8 19 25 27 23 29 19 32 21 34 27 36
REMARK Flexibility Score: inf
ROOT
ATOM      1  C   UNL     1      -1.794  64.529  -4.952  1.00  0.00     0.065 A 
ATOM      2  C   UNL     1      -2.954  65.128  -5.462  1.00  0.00     0.208 A 
ATOM      3  O   UNL     1      -3.705  64.502  -6.359  1.00  0.00    -0.463 OA
ATOM      4  C   UNL     1      -3.421  63.290  -6.830  1.00  0.00     0.147 A 
ATOM      5  C   UNL     1      -2.263  62.617  -6.376  1.00  0.00     0.066 A 
ATOM      6  C   UNL     1      -1.442  63.253  -5.428  1.00  0.00     0.200 A 
ATOM      7  O   UNL     1      -0.386  62.693  -5.022  1.00  0.00    -0.288 OA
ATOM      8  C   UNL     1      -1.956  61.346  -6.885  1.00  0.00     0.020 A 
ATOM      9  C   UNL     1      -2.783  60.752  -7.836  1.00  0.00     0.047 A 
ATOM     10  C   UNL     1      -3.932  61.409  -8.293  1.00  0.00     0.125 A 
ATOM     11  C   UNL     1      -4.274  62.682  -7.783  1.00  0.00     0.069 A 
ENDROOT
BRANCH   1  12
ATOM     12  C   UNL     1      -0.973  65.246  -3.943  1.00  0.00    -0.011 A 
ATOM     13  C   UNL     1       0.039  66.131  -4.352  1.00  0.00     0.013 A 
ATOM     14  C   UNL     1       0.808  66.815  -3.404  1.00  0.00     0.047 A 
ATOM     15  C   UNL     1       0.570  66.628  -2.039  1.00  0.00     0.115 A 
ATOM     16  C   UNL     1      -1.210  65.069  -2.568  1.00  0.00     0.013 A 
ATOM     17  C   UNL     1      -0.441  65.753  -1.623  1.00  0.00     0.047 A 
BRANCH  15  18
ATOM     18  O   UNL     1       1.344  67.316  -1.106  1.00  0.00    -0.508 OA
ATOM     19  H   UNL     1       1.254  67.140  -0.112  1.00  0.00     0.293 HD
ENDBRANCH  15  18
ENDBRANCH   1  12
BRANCH  11  20
ATOM     20  C   UNL     1      -5.510  63.408  -8.296  1.00  0.00     0.188 C 
ATOM     21  C   UNL     1      -6.752  63.004  -7.461  1.00  0.00     0.179 C 
ATOM     22  O   UNL     1      -5.705  63.082  -9.663  1.00  0.00    -0.362 OA
ATOM     23  C   UNL     1      -8.039  63.641  -8.026  1.00  0.00     0.177 C 
ATOM     24  C   UNL     1      -6.761  63.844 -10.227  1.00  0.00     0.176 C 
ATOM     25  C   UNL     1      -8.110  63.469  -9.561  1.00  0.00     0.177 C 
BRANCH  21  26
ATOM     26  O   UNL     1      -6.589  63.315  -6.098  1.00  0.00    -0.387 OA
ATOM     27  H   UNL     1      -7.401  63.006  -5.616  1.00  0.00     0.211 HD
ENDBRANCH  21  26
BRANCH  23  28
ATOM     28  O   UNL     1      -8.173  64.992  -7.647  1.00  0.00    -0.387 OA
ATOM     29  H   UNL     1      -7.646  65.547  -8.276  1.00  0.00     0.211 HD
ENDBRANCH  23  28
BRANCH  24  30
ATOM     30  C   UNL     1      -6.786  63.556 -11.737  1.00  0.00     0.191 C 
BRANCH  30  31
ATOM     31  O   UNL     1      -7.660  62.501 -12.042  1.00  0.00    -0.394 OA
ATOM     32  H   UNL     1      -7.816  62.535 -13.022  1.00  0.00     0.210 HD
ENDBRANCH  30  31
ENDBRANCH  24  30
BRANCH  25  33
ATOM     33  O   UNL     1      -9.146  64.263 -10.083  1.00  0.00    -0.388 OA
ATOM     34  H   UNL     1      -9.868  63.642 -10.363  1.00  0.00     0.211 HD
ENDBRANCH  25  33
ENDBRANCH  11  20
BRANCH  10  35
ATOM     35  O   UNL     1      -4.731  60.797  -9.259  1.00  0.00    -0.507 OA
ATOM     36  H   UNL     1      -5.742  60.844  -9.223  1.00  0.00     0.293 HD
ENDBRANCH  10  35
TORSDOF 9
ENDMDL
MODEL 5
REMARK VINA RESULT:    -6.077      2.010      3.474
REMARK INTER + INTRA:          -9.194
REMARK INTER:                  -8.050
REMARK INTRA:                  -1.144
REMARK UNBOUND:                -0.985
REMARK SMILES O=c1c(-c2ccc(O)cc2)coc2c([C@H]3O[C@@H](CO)[C@H](O)[C@H](O)[C@@H]3O)c(O)ccc12
REMARK SMILES IDX 3 1 11 2 12 3 13 4 30 5 2 6 1 7 29 8 28 9 26 10 14 11 4 12
REMARK SMILES IDX 5 13 6 14 7 15 10 16 9 17 8 18 15 20 24 21 16 22 22 23 17 24
REMARK SMILES IDX 20 25 25 26 23 28 18 30 19 31 21 33 27 35
REMARK H PARENT 8 19 25 27 23 29 19 32 21 34 27 36
REMARK Flexibility Score: inf
ROOT
ATOM      1  C   UNL     1      -3.166  63.631  -6.009  1.00  0.00     0.065 A 
ATOM      2  C   UNL     1      -3.506  63.981  -4.695  1.00  0.00     0.208 A 
ATOM      3  O   UNL     1      -2.680  64.702  -3.947  1.00  0.00    -0.463 OA
ATOM      4  C   UNL     1      -1.497  65.135  -4.376  1.00  0.00     0.147 A 
ATOM      5  C   UNL     1      -1.071  64.820  -5.687  1.00  0.00     0.066 A 
ATOM      6  C   UNL     1      -1.919  64.053  -6.506  1.00  0.00     0.200 A 
ATOM      7  O   UNL     1      -1.558  63.729  -7.671  1.00  0.00    -0.288 OA
ATOM      8  C   UNL     1       0.184  65.263  -6.133  1.00  0.00     0.020 A 
ATOM      9  C   UNL     1       1.006  66.006  -5.289  1.00  0.00     0.047 A 
ATOM     10  C   UNL     1       0.594  66.324  -3.989  1.00  0.00     0.125 A 
ATOM     11  C   UNL     1      -0.672  65.906  -3.522  1.00  0.00     0.069 A 
ENDROOT
BRANCH   1  12
ATOM     12  C   UNL     1      -4.109  62.831  -6.829  1.00  0.00    -0.011 A 
ATOM     13  C   UNL     1      -5.079  63.470  -7.621  1.00  0.00     0.013 A 
ATOM     14  C   UNL     1      -5.964  62.719  -8.402  1.00  0.00     0.047 A 
ATOM     15  C   UNL     1      -5.886  61.322  -8.407  1.00  0.00     0.115 A 
ATOM     16  C   UNL     1      -4.032  61.426  -6.845  1.00  0.00     0.013 A 
ATOM     17  C   UNL     1      -4.917  60.678  -7.627  1.00  0.00     0.047 A 
BRANCH  15  18
ATOM     18  O   UNL     1      -6.773  60.587  -9.190  1.00  0.00    -0.508 OA
ATOM     19  H   UNL     1      -6.738  59.575  -9.221  1.00  0.00     0.293 HD
ENDBRANCH  15  18
ENDBRANCH   1  12
BRANCH  11  20
ATOM     20  C   UNL     1      -1.112  66.230  -2.100  1.00  0.00     0.188 C 
ATOM     21  C   UNL     1      -1.443  67.740  -1.976  1.00  0.00     0.179 C 
ATOM     22  O   UNL     1      -0.074  65.876  -1.202  1.00  0.00    -0.362 OA
ATOM     23  C   UNL     1      -1.788  68.121  -0.520  1.00  0.00     0.177 C 
ATOM     24  C   UNL     1      -0.489  66.027   0.147  1.00  0.00     0.176 C 
ATOM     25  C   UNL     1      -0.757  67.521   0.464  1.00  0.00     0.177 C 
BRANCH  21  26
ATOM     26  O   UNL     1      -2.471  68.124  -2.857  1.00  0.00    -0.387 OA
ATOM     27  H   UNL     1      -3.123  68.671  -2.345  1.00  0.00     0.211 HD
ENDBRANCH  21  26
BRANCH  23  28
ATOM     28  O   UNL     1      -3.106  67.762  -0.177  1.00  0.00    -0.387 OA
ATOM     29  H   UNL     1      -3.088  66.861   0.236  1.00  0.00     0.211 HD
ENDBRANCH  23  28
BRANCH  24  30
ATOM     30  C   UNL     1       0.626  65.459   1.042  1.00  0.00     0.191 C 
BRANCH  30  31
ATOM     31  O   UNL     1       0.133  65.102   2.306  1.00  0.00    -0.394 OA
ATOM     32  H   UNL     1      -0.307  65.911   2.679  1.00  0.00     0.210 HD
ENDBRANCH  30  31
ENDBRANCH  24  30
BRANCH  25  33
ATOM     33  O   UNL     1      -1.220  67.661   1.784  1.00  0.00    -0.388 OA
ATOM     34  H   UNL     1      -2.173  67.384   1.782  1.00  0.00     0.211 HD
ENDBRANCH  25  33
ENDBRANCH  11  20
BRANCH  10  35
ATOM     35  O   UNL     1       1.448  67.054  -3.161  1.00  0.00    -0.507 OA
ATOM     36  H   UNL     1       1.298  68.040  -2.977  1.00  0.00     0.293 HD
ENDBRANCH  10  35
TORSDOF 9
ENDMDL
MODEL 6
REMARK VINA RESULT:    -6.026      9.162     14.379
REMARK INTER + INTRA:          -9.124
REMARK INTER:                  -8.049
REMARK INTRA:                  -1.075
REMARK UNBOUND:                -0.985
REMARK SMILES O=c1c(-c2ccc(O)cc2)coc2c([C@H]3O[C@@H](CO)[C@H](O)[C@H](O)[C@@H]3O)c(O)ccc12
REMARK SMILES IDX 3 1 11 2 12 3 13 4 30 5 2 6 1 7 29 8 28 9 26 10 14 11 4 12
REMARK SMILES IDX 5 13 6 14 7 15 10 16 9 17 8 18 15 20 24 21 16 22 22 23 17 24
REMARK SMILES IDX 20 25 25 26 23 28 18 30 19 31 21 33 27 35
REMARK H PARENT 8 19 25 27 23 29 19 32 21 34 27 36
REMARK Flexibility Score: inf
ROOT
ATOM      1  C   UNL     1       2.086  59.343  -8.408  1.00  0.00     0.065 A 
ATOM      2  C   UNL     1       2.937  58.557  -9.196  1.00  0.00     0.208 A 
ATOM      3  O   UNL     1       2.533  57.390  -9.681  1.00  0.00    -0.463 OA
ATOM      4  C   UNL     1       1.320  56.890  -9.460  1.00  0.00     0.147 A 
ATOM      5  C   UNL     1       0.399  57.613  -8.667  1.00  0.00     0.066 A 
ATOM      6  C   UNL     1       0.796  58.853  -8.134  1.00  0.00     0.200 A 
ATOM      7  O   UNL     1       0.010  59.511  -7.398  1.00  0.00    -0.288 OA
ATOM      8  C   UNL     1      -0.875  57.077  -8.421  1.00  0.00     0.020 A 
ATOM      9  C   UNL     1      -1.229  55.839  -8.951  1.00  0.00     0.047 A 
ATOM     10  C   UNL     1      -0.326  55.114  -9.738  1.00  0.00     0.125 A 
ATOM     11  C   UNL     1       0.956  55.639 -10.015  1.00  0.00     0.069 A 
ENDROOT
BRANCH   1  12
ATOM     12  C   UNL     1       2.558  60.649  -7.883  1.00  0.00    -0.011 A 
ATOM     13  C   UNL     1       2.996  60.762  -6.552  1.00  0.00     0.013 A 
ATOM     14  C   UNL     1       3.451  61.989  -6.058  1.00  0.00     0.047 A 
ATOM     15  C   UNL     1       3.479  63.115  -6.887  1.00  0.00     0.115 A 
ATOM     16  C   UNL     1       2.596  61.784  -8.713  1.00  0.00     0.013 A 
ATOM     17  C   UNL     1       3.051  63.009  -8.217  1.00  0.00     0.047 A 
BRANCH  15  18
ATOM     18  O   UNL     1       3.934  64.331  -6.381  1.00  0.00    -0.508 OA
ATOM     19  H   UNL     1       4.457  64.981  -6.956  1.00  0.00     0.293 HD
ENDBRANCH  15  18
ENDBRANCH   1  12
BRANCH  11  20
ATOM     20  C   UNL     1       1.949  54.842 -10.851  1.00  0.00     0.188 C 
ATOM     21  C   UNL     1       1.736  55.137 -12.358  1.00  0.00     0.179 C 
ATOM     22  O   UNL     1       1.771  53.459 -10.588  1.00  0.00    -0.362 OA
ATOM     23  C   UNL     1       2.655  54.261 -13.236  1.00  0.00     0.177 C 
ATOM     24  C   UNL     1       2.766  52.681 -11.234  1.00  0.00     0.176 C 
ATOM     25  C   UNL     1       2.616  52.786 -12.774  1.00  0.00     0.177 C 
BRANCH  21  26
ATOM     26  O   UNL     1       1.906  56.503 -12.653  1.00  0.00    -0.387 OA
ATOM     27  H   UNL     1       1.181  56.773 -13.275  1.00  0.00     0.211 HD
ENDBRANCH  21  26
BRANCH  23  28
ATOM     28  O   UNL     1       3.973  54.757 -13.283  1.00  0.00    -0.387 OA
ATOM     29  H   UNL     1       4.146  55.268 -12.452  1.00  0.00     0.211 HD
ENDBRANCH  23  28
BRANCH  24  30
ATOM     30  C   UNL     1       2.603  51.229 -10.757  1.00  0.00     0.191 C 
BRANCH  30  31
ATOM     31  O   UNL     1       1.945  50.446 -11.717  1.00  0.00    -0.394 OA
ATOM     32  H   UNL     1       2.373  49.550 -11.696  1.00  0.00     0.210 HD
ENDBRANCH  30  31
ENDBRANCH  24  30
BRANCH  25  33
ATOM     33  O   UNL     1       3.635  52.059 -13.411  1.00  0.00    -0.388 OA
ATOM     34  H   UNL     1       3.268  51.155 -13.597  1.00  0.00     0.211 HD
ENDBRANCH  25  33
ENDBRANCH  11  20
BRANCH  10  35
ATOM     35  O   UNL     1      -0.703  53.868 -10.240  1.00  0.00    -0.507 OA
ATOM     36  H   UNL     1      -0.018  53.172 -10.512  1.00  0.00     0.293 HD
ENDBRANCH  10  35
TORSDOF 9
ENDMDL
MODEL 7
REMARK VINA RESULT:    -5.967      7.804     10.924
REMARK INTER + INTRA:          -9.044
REMARK INTER:                  -8.250
REMARK INTRA:                  -0.794
REMARK UNBOUND:                -0.985
REMARK SMILES O=c1c(-c2ccc(O)cc2)coc2c([C@H]3O[C@@H](CO)[C@H](O)[C@H](O)[C@@H]3O)c(O)ccc12
REMARK SMILES IDX 3 1 11 2 12 3 13 4 30 5 2 6 1 7 29 8 28 9 26 10 14 11 4 12
REMARK SMILES IDX 5 13 6 14 7 15 10 16 9 17 8 18 15 20 24 21 16 22 22 23 17 24
REMARK SMILES IDX 20 25 25 26 23 28 18 30 19 31 21 33 27 35
REMARK H PARENT 8 19 25 27 23 29 19 32 21 34 27 36
REMARK Flexibility Score: inf
ROOT
ATOM      1  C   UNL     1      -3.565  61.507  -8.009  1.00  0.00     0.065 A 
ATOM      2  C   UNL     1      -3.489  60.239  -8.601  1.00  0.00     0.208 A 
ATOM      3  O   UNL     1      -2.323  59.621  -8.742  1.00  0.00    -0.463 OA
ATOM      4  C   UNL     1      -1.167  60.147  -8.344  1.00  0.00     0.147 A 
ATOM      5  C   UNL     1      -1.151  61.427  -7.745  1.00  0.00     0.066 A 
ATOM      6  C   UNL     1      -2.368  62.112  -7.583  1.00  0.00     0.200 A 
ATOM      7  O   UNL     1      -2.387  63.269  -7.078  1.00  0.00    -0.288 OA
ATOM      8  C   UNL     1       0.071  61.987  -7.339  1.00  0.00     0.020 A 
ATOM      9  C   UNL     1       1.261  61.289  -7.530  1.00  0.00     0.047 A 
ATOM     10  C   UNL     1       1.257  60.020  -8.122  1.00  0.00     0.125 A 
ATOM     11  C   UNL     1       0.039  59.426  -8.522  1.00  0.00     0.069 A 
ENDROOT
BRANCH   1  12
ATOM     12  C   UNL     1      -4.882  62.174  -7.855  1.00  0.00    -0.011 A 
ATOM     13  C   UNL     1      -5.740  62.313  -8.960  1.00  0.00     0.013 A 
ATOM     14  C   UNL     1      -6.986  62.933  -8.816  1.00  0.00     0.047 A 
ATOM     15  C   UNL     1      -7.391  63.416  -7.568  1.00  0.00     0.115 A 
ATOM     16  C   UNL     1      -5.300  62.655  -6.602  1.00  0.00     0.013 A 
ATOM     17  C   UNL     1      -6.545  63.274  -6.460  1.00  0.00     0.047 A 
BRANCH  15  18
ATOM     18  O   UNL     1      -8.635  64.031  -7.439  1.00  0.00    -0.508 OA
ATOM     19  H   UNL     1      -8.977  64.682  -8.136  1.00  0.00     0.293 HD
ENDBRANCH  15  18
ENDBRANCH   1  12
BRANCH  11  20
ATOM     20  C   UNL     1       0.034  58.056  -9.188  1.00  0.00     0.188 C 
ATOM     21  C   UNL     1       0.019  56.940  -8.112  1.00  0.00     0.179 C 
ATOM     22  O   UNL     1       1.185  57.936 -10.009  1.00  0.00    -0.362 OA
ATOM     23  C   UNL     1       0.123  55.540  -8.755  1.00  0.00     0.177 C 
ATOM     24  C   UNL     1       1.156  56.734 -10.762  1.00  0.00     0.176 C 
ATOM     25  C   UNL     1       1.245  55.506  -9.819  1.00  0.00     0.177 C 
BRANCH  21  26
ATOM     26  O   UNL     1      -1.113  57.031  -7.280  1.00  0.00    -0.387 OA
ATOM     27  H   UNL     1      -1.398  57.982  -7.257  1.00  0.00     0.211 HD
ENDBRANCH  21  26
BRANCH  23  28
ATOM     28  O   UNL     1      -1.109  55.105  -9.283  1.00  0.00    -0.387 OA
ATOM     29  H   UNL     1      -1.438  54.353  -8.729  1.00  0.00     0.211 HD
ENDBRANCH  23  28
BRANCH  24  30
ATOM     30  C   UNL     1       2.340  56.770 -11.742  1.00  0.00     0.191 C 
BRANCH  30  31
ATOM     31  O   UNL     1       2.021  56.137 -12.952  1.00  0.00    -0.394 OA
ATOM     32  H   UNL     1       1.116  56.456 -13.210  1.00  0.00     0.210 HD
ENDBRANCH  30  31
ENDBRANCH  24  30
BRANCH  25  33
ATOM     33  O   UNL     1       1.161  54.316 -10.563  1.00  0.00    -0.388 OA
ATOM     34  H   UNL     1       1.698  54.456 -11.386  1.00  0.00     0.211 HD
ENDBRANCH  25  33
ENDBRANCH  11  20
BRANCH  10  35
ATOM     35  O   UNL     1       2.466  59.352  -8.316  1.00  0.00    -0.507 OA
ATOM     36  H   UNL     1       3.109  59.180  -7.552  1.00  0.00     0.293 HD
ENDBRANCH  10  35
TORSDOF 9
ENDMDL
MODEL 8
REMARK VINA RESULT:    -5.848      6.265     10.121
REMARK INTER + INTRA:          -8.885
REMARK INTER:                  -7.750
REMARK INTRA:                  -1.135
REMARK UNBOUND:                -0.985
REMARK SMILES O=c1c(-c2ccc(O)cc2)coc2c([C@H]3O[C@@H](CO)[C@H](O)[C@H](O)[C@@H]3O)c(O)ccc12
REMARK SMILES IDX 3 1 11 2 12 3 13 4 30 5 2 6 1 7 29 8 28 9 26 10 14 11 4 12
REMARK SMILES IDX 5 13 6 14 7 15 10 16 9 17 8 18 15 20 24 21 16 22 22 23 17 24
REMARK SMILES IDX 20 25 25 26 23 28 18 30 19 31 21 33 27 35
REMARK H PARENT 8 19 25 27 23 29 19 32 21 34 27 36
REMARK Flexibility Score: inf
ROOT
ATOM      1  C   UNL     1      -1.364  61.016   2.702  1.00  0.00     0.065 A 
ATOM      2  C   UNL     1      -1.716  59.749   2.216  1.00  0.00     0.208 A 
ATOM      3  O   UNL     1      -2.964  59.482   1.852  1.00  0.00    -0.463 OA
ATOM      4  C   UNL     1      -3.950  60.373   1.921  1.00  0.00     0.147 A 
ATOM      5  C   UNL     1      -3.685  61.673   2.408  1.00  0.00     0.066 A 
ATOM      6  C   UNL     1      -2.373  61.990   2.806  1.00  0.00     0.200 A 
ATOM      7  O   UNL     1      -2.108  63.132   3.273  1.00  0.00    -0.288 OA
ATOM      8  C   UNL     1      -4.729  62.607   2.495  1.00  0.00     0.020 A 
ATOM      9  C   UNL     1      -6.020  62.255   2.108  1.00  0.00     0.047 A 
ATOM     10  C   UNL     1      -6.294  60.970   1.624  1.00  0.00     0.125 A 
ATOM     11  C   UNL     1      -5.257  60.017   1.509  1.00  0.00     0.069 A 
ENDROOT
BRANCH   1  12
ATOM     12  C   UNL     1       0.041  61.294   3.095  1.00  0.00    -0.011 A 
ATOM     13  C   UNL     1       0.938  61.854   2.170  1.00  0.00     0.013 A 
ATOM     14  C   UNL     1       2.260  62.126   2.540  1.00  0.00     0.047 A 
ATOM     15  C   UNL     1       2.698  61.847   3.838  1.00  0.00     0.115 A 
ATOM     16  C   UNL     1       0.487  61.023   4.401  1.00  0.00     0.013 A 
ATOM     17  C   UNL     1       1.808  61.295   4.769  1.00  0.00     0.047 A 
BRANCH  15  18
ATOM     18  O   UNL     1       4.017  62.122   4.193  1.00  0.00    -0.508 OA
ATOM     19  H   UNL     1       4.785  61.555   3.854  1.00  0.00     0.293 HD
ENDBRANCH  15  18
ENDBRANCH   1  12
BRANCH  11  20
ATOM     20  C   UNL     1      -5.558  58.611   1.005  1.00  0.00     0.188 C 
ATOM     21  C   UNL     1      -5.549  58.587  -0.545  1.00  0.00     0.179 C 
ATOM     22  O   UNL     1      -6.823  58.203   1.499  1.00  0.00    -0.362 OA
ATOM     23  C   UNL     1      -5.957  57.200  -1.087  1.00  0.00     0.177 C 
ATOM     24  C   UNL     1      -7.087  56.847   1.175  1.00  0.00     0.176 C 
ATOM     25  C   UNL     1      -7.218  56.676  -0.360  1.00  0.00     0.177 C 
BRANCH  21  26
ATOM     26  O   UNL     1      -4.305  58.989  -1.068  1.00  0.00    -0.387 OA
ATOM     27  H   UNL     1      -3.862  59.564  -0.391  1.00  0.00     0.211 HD
ENDBRANCH  21  26
BRANCH  23  28
ATOM     28  O   UNL     1      -4.897  56.274  -1.026  1.00  0.00    -0.387 OA
ATOM     29  H   UNL     1      -4.177  56.583  -1.632  1.00  0.00     0.211 HD
ENDBRANCH  23  28
BRANCH  24  30
ATOM     30  C   UNL     1      -8.386  56.442   1.893  1.00  0.00     0.191 C 
BRANCH  30  31
ATOM     31  O   UNL     1      -9.487  56.497   1.025  1.00  0.00    -0.394 OA
ATOM     32  H   UNL     1      -9.158  56.882   0.172  1.00  0.00     0.210 HD
ENDBRANCH  30  31
ENDBRANCH  24  30
BRANCH  25  33
ATOM     33  O   UNL     1      -7.425  55.323  -0.682  1.00  0.00    -0.388 OA
ATOM     34  H   UNL     1      -8.343  55.096  -0.378  1.00  0.00     0.211 HD
ENDBRANCH  25  33
ENDBRANCH  11  20
BRANCH  10  35
ATOM     35  O   UNL     1      -7.600  60.641   1.261  1.00  0.00    -0.507 OA
ATOM     36  H   UNL     1      -8.121  59.915   1.740  1.00  0.00     0.293 HD
ENDBRANCH  10  35
TORSDOF 9
ENDMDL
MODEL 9
REMARK VINA RESULT:    -5.709      8.712     13.537
REMARK INTER + INTRA:          -8.696
REMARK INTER:                  -7.824
REMARK INTRA:                  -0.872
REMARK UNBOUND:                -0.985
REMARK SMILES O=c1c(-c2ccc(O)cc2)coc2c([C@H]3O[C@@H](CO)[C@H](O)[C@H](O)[C@@H]3O)c(O)ccc12
REMARK SMILES IDX 3 1 11 2 12 3 13 4 30 5 2 6 1 7 29 8 28 9 26 10 14 11 4 12
REMARK SMILES IDX 5 13 6 14 7 15 10 16 9 17 8 18 15 20 24 21 16 22 22 23 17 24
REMARK SMILES IDX 20 25 25 26 23 28 18 30 19 31 21 33 27 35
REMARK H PARENT 8 19 25 27 23 29 19 32 21 34 27 36
REMARK Flexibility Score: inf
ROOT
ATOM      1  C   UNL     1       2.791  61.588  -8.880  1.00  0.00     0.065 A 
ATOM      2  C   UNL     1       2.309  60.303  -8.593  1.00  0.00     0.208 A 
ATOM      3  O   UNL     1       2.417  59.321  -9.480  1.00  0.00    -0.463 OA
ATOM      4  C   UNL     1       2.975  59.478 -10.677  1.00  0.00     0.147 A 
ATOM      5  C   UNL     1       3.481  60.745 -11.052  1.00  0.00     0.066 A 
ATOM      6  C   UNL     1       3.379  61.809 -10.138  1.00  0.00     0.200 A 
ATOM      7  O   UNL     1       3.793  62.959 -10.452  1.00  0.00    -0.288 OA
ATOM      8  C   UNL     1       4.056  60.913 -12.321  1.00  0.00     0.020 A 
ATOM      9  C   UNL     1       4.125  59.842 -13.208  1.00  0.00     0.047 A 
ATOM     10  C   UNL     1       3.628  58.583 -12.848  1.00  0.00     0.125 A 
ATOM     11  C   UNL     1       3.061  58.382 -11.569  1.00  0.00     0.069 A 
ENDROOT
BRANCH   1  12
ATOM     12  C   UNL     1       2.666  62.668  -7.869  1.00  0.00    -0.011 A 
ATOM     13  C   UNL     1       1.563  63.540  -7.896  1.00  0.00     0.013 A 
ATOM     14  C   UNL     1       1.438  64.553  -6.940  1.00  0.00     0.047 A 
ATOM     15  C   UNL     1       2.407  64.703  -5.943  1.00  0.00     0.115 A 
ATOM     16  C   UNL     1       3.633  62.821  -6.859  1.00  0.00     0.013 A 
ATOM     17  C   UNL     1       3.505  63.834  -5.904  1.00  0.00     0.047 A 
BRANCH  15  18
ATOM     18  O   UNL     1       2.269  65.717  -4.997  1.00  0.00    -0.508 OA
ATOM     19  H   UNL     1       1.450  66.313  -4.976  1.00  0.00     0.293 HD
ENDBRANCH  15  18
ENDBRANCH   1  12
BRANCH  11  20
ATOM     20  C   UNL     1       2.498  57.020 -11.184  1.00  0.00     0.188 C 
ATOM     21  C   UNL     1       3.591  56.169 -10.487  1.00  0.00     0.179 C 
ATOM     22  O   UNL     1       2.030  56.365 -12.351  1.00  0.00    -0.362 OA
ATOM     23  C   UNL     1       3.083  54.744 -10.182  1.00  0.00     0.177 C 
ATOM     24  C   UNL     1       1.368  55.153 -12.028  1.00  0.00     0.176 C 
ATOM     25  C   UNL     1       2.368  54.140 -11.413  1.00  0.00     0.177 C 
BRANCH  21  26
ATOM     26  O   UNL     1       4.078  56.793  -9.323  1.00  0.00    -0.387 OA
ATOM     27  H   UNL     1       4.969  56.406  -9.119  1.00  0.00     0.211 HD
ENDBRANCH  21  26
BRANCH  23  28
ATOM     28  O   UNL     1       2.265  54.707  -9.034  1.00  0.00    -0.387 OA
ATOM     29  H   UNL     1       2.798  54.342  -8.283  1.00  0.00     0.211 HD
ENDBRANCH  23  28
BRANCH  24  30
ATOM     30  C   UNL     1       0.746  54.604 -13.323  1.00  0.00     0.191 C 
BRANCH  30  31
ATOM     31  O   UNL     1       0.760  55.565 -14.345  1.00  0.00    -0.394 OA
ATOM     32  H   UNL     1       1.223  55.150 -15.119  1.00  0.00     0.210 HD
ENDBRANCH  30  31
ENDBRANCH  24  30
BRANCH  25  33
ATOM     33  O   UNL     1       1.698  52.960 -11.044  1.00  0.00    -0.388 OA
ATOM     34  H   UNL     1       2.358  52.222 -11.123  1.00  0.00     0.211 HD
ENDBRANCH  25  33
ENDBRANCH  11  20
BRANCH  10  35
ATOM     35  O   UNL     1       3.695  57.533 -13.764  1.00  0.00    -0.507 OA
ATOM     36  H   UNL     1       3.707  57.698 -14.764  1.00  0.00     0.293 HD
ENDBRANCH  10  35
TORSDOF 9
ENDMDL
