MODEL 1
REMARK VINA RESULT:    -5.952      0.000      0.000
REMARK INTER + INTRA:          -5.952
REMARK INTER:                  -5.952
REMARK INTRA:                   0.000
REMARK UNBOUND:                 0.000
REMARK SMILES C=C1c2ccccc2-c2ccccc21
REMARK SMILES IDX 1 1 2 2 3 3 4 4 5 5 6 6 7 7 8 8 9 9 10 10 11 11 12 12 13 13
REMARK SMILES IDX 14 14
REMARK H PARENT
REMARK Flexibility Score: inf
ROOT
ATOM      1  C   UNL     1    -116.522  10.927  20.401  1.00  0.00     0.018 C 
ATOM      2  C   UNL     1    -116.370  11.517  21.585  1.00  0.00    -0.017 C 
ATOM      3  C   UNL     1    -117.087  12.695  22.091  1.00  0.00    -0.010 A 
ATOM      4  C   UNL     1    -118.076  13.475  21.488  1.00  0.00     0.009 A 
ATOM      5  C   UNL     1    -118.599  14.563  22.209  1.00  0.00     0.001 A 
ATOM      6  C   UNL     1    -118.131  14.853  23.506  1.00  0.00     0.001 A 
ATOM      7  C   UNL     1    -117.135  14.057  24.099  1.00  0.00     0.009 A 
ATOM      8  C   UNL     1    -116.629  12.982  23.368  1.00  0.00    -0.010 A 
ATOM      9  C   UNL     1    -115.607  12.004  23.724  1.00  0.00    -0.010 A 
ATOM     10  C   UNL     1    -114.858  11.876  24.893  1.00  0.00     0.009 A 
ATOM     11  C   UNL     1    -113.928  10.826  24.973  1.00  0.00     0.001 A 
ATOM     12  C   UNL     1    -113.764   9.932  23.894  1.00  0.00     0.001 A 
ATOM     13  C   UNL     1    -114.529  10.078  22.724  1.00  0.00     0.009 A 
ATOM     14  C   UNL     1    -115.450  11.127  22.662  1.00  0.00    -0.010 A 
ENDROOT
TORSDOF 0
ENDMDL
MODEL 2
REMARK VINA RESULT:    -5.950      0.039      4.268
REMARK INTER + INTRA:          -5.950
REMARK INTER:                  -5.950
REMARK INTRA:                   0.000
REMARK UNBOUND:                 0.000
REMARK SMILES C=C1c2ccccc2-c2ccccc21
REMARK SMILES IDX 1 1 2 2 3 3 4 4 5 5 6 6 7 7 8 8 9 9 10 10 11 11 12 12 13 13
REMARK SMILES IDX 14 14
REMARK H PARENT
REMARK Flexibility Score: inf
ROOT
ATOM      1  C   UNL     1    -116.533  10.920  20.403  1.00  0.00     0.018 C 
ATOM      2  C   UNL     1    -116.376  11.508  21.588  1.00  0.00    -0.017 C 
ATOM      3  C   UNL     1    -115.440  11.127  22.654  1.00  0.00    -0.010 A 
ATOM      4  C   UNL     1    -114.505  10.089  22.704  1.00  0.00     0.009 A 
ATOM      5  C   UNL     1    -113.726   9.949  23.865  1.00  0.00     0.001 A 
ATOM      6  C   UNL     1    -113.889  10.836  24.947  1.00  0.00     0.001 A 
ATOM      7  C   UNL     1    -114.834  11.875  24.881  1.00  0.00     0.009 A 
ATOM      8  C   UNL     1    -115.597  11.998  23.720  1.00  0.00    -0.010 A 
ATOM      9  C   UNL     1    -116.636  12.964  23.378  1.00  0.00    -0.010 A 
ATOM     10  C   UNL     1    -117.147  14.029  24.118  1.00  0.00     0.009 A 
ATOM     11  C   UNL     1    -118.159  14.813  23.540  1.00  0.00     0.001 A 
ATOM     12  C   UNL     1    -118.637  14.522  22.246  1.00  0.00     0.001 A 
ATOM     13  C   UNL     1    -118.108  13.443  21.516  1.00  0.00     0.009 A 
ATOM     14  C   UNL     1    -117.102  12.675  22.106  1.00  0.00    -0.010 A 
ENDROOT
TORSDOF 0
ENDMDL
MODEL 3
REMARK VINA RESULT:    -5.879      0.704      4.784
REMARK INTER + INTRA:          -5.879
REMARK INTER:                  -5.879
REMARK INTRA:                   0.000
REMARK UNBOUND:                 0.000
REMARK SMILES C=C1c2ccccc2-c2ccccc21
REMARK SMILES IDX 1 1 2 2 3 3 4 4 5 5 6 6 7 7 8 8 9 9 10 10 11 11 12 12 13 13
REMARK SMILES IDX 14 14
REMARK H PARENT
REMARK Flexibility Score: inf
ROOT
ATOM      1  C   UNL     1    -115.146  11.685  24.844  1.00  0.00     0.018 C 
ATOM      2  C   UNL     1    -115.743  11.879  23.670  1.00  0.00    -0.017 C 
ATOM      3  C   UNL     1    -115.553  11.105  22.435  1.00  0.00    -0.010 A 
ATOM      4  C   UNL     1    -114.730  10.006  22.179  1.00  0.00     0.009 A 
ATOM      5  C   UNL     1    -114.743   9.450  20.888  1.00  0.00     0.001 A 
ATOM      6  C   UNL     1    -115.568   9.994  19.883  1.00  0.00     0.001 A 
ATOM      7  C   UNL     1    -116.390  11.100  20.158  1.00  0.00     0.009 A 
ATOM      8  C   UNL     1    -116.364  11.637  21.445  1.00  0.00    -0.010 A 
ATOM      9  C   UNL     1    -117.099  12.766  22.005  1.00  0.00    -0.010 A 
ATOM     10  C   UNL     1    -118.030  13.615  21.408  1.00  0.00     0.009 A 
ATOM     11  C   UNL     1    -118.594  14.637  22.190  1.00  0.00     0.001 A 
ATOM     12  C   UNL     1    -118.221  14.790  23.541  1.00  0.00     0.001 A 
ATOM     13  C   UNL     1    -117.281  13.924  24.125  1.00  0.00     0.009 A 
ATOM     14  C   UNL     1    -116.731  12.913  23.333  1.00  0.00    -0.010 A 
ENDROOT
TORSDOF 0
ENDMDL
MODEL 4
REMARK VINA RESULT:    -5.855      0.741      2.971
REMARK INTER + INTRA:          -5.855
REMARK INTER:                  -5.855
REMARK INTRA:                   0.000
REMARK UNBOUND:                 0.000
REMARK SMILES C=C1c2ccccc2-c2ccccc21
REMARK SMILES IDX 1 1 2 2 3 3 4 4 5 5 6 6 7 7 8 8 9 9 10 10 11 11 12 12 13 13
REMARK SMILES IDX 14 14
REMARK H PARENT
REMARK Flexibility Score: inf
ROOT
ATOM      1  C   UNL     1    -115.200  11.641  24.816  1.00  0.00     0.018 C 
ATOM      2  C   UNL     1    -115.797  11.861  23.646  1.00  0.00    -0.017 C 
ATOM      3  C   UNL     1    -116.782  12.905  23.332  1.00  0.00    -0.010 A 
ATOM      4  C   UNL     1    -117.331  13.900  24.145  1.00  0.00     0.009 A 
ATOM      5  C   UNL     1    -118.269  14.781  23.580  1.00  0.00     0.001 A 
ATOM      6  C   UNL     1    -118.642  14.657  22.227  1.00  0.00     0.001 A 
ATOM      7  C   UNL     1    -118.080  13.650  21.422  1.00  0.00     0.009 A 
ATOM      8  C   UNL     1    -117.151  12.786  22.001  1.00  0.00    -0.010 A 
ATOM      9  C   UNL     1    -116.419  11.667  21.417  1.00  0.00    -0.010 A 
ATOM     10  C   UNL     1    -116.448  11.158  20.119  1.00  0.00     0.009 A 
ATOM     11  C   UNL     1    -115.629  10.056  19.821  1.00  0.00     0.001 A 
ATOM     12  C   UNL     1    -114.804   9.489  20.814  1.00  0.00     0.001 A 
ATOM     13  C   UNL     1    -114.789  10.018  22.116  1.00  0.00     0.009 A 
ATOM     14  C   UNL     1    -115.610  11.114  22.395  1.00  0.00    -0.010 A 
ENDROOT
TORSDOF 0
ENDMDL
MODEL 5
REMARK VINA RESULT:    -5.781      1.085      3.157
REMARK INTER + INTRA:          -5.781
REMARK INTER:                  -5.781
REMARK INTRA:                   0.000
REMARK UNBOUND:                 0.000
REMARK SMILES C=C1c2ccccc2-c2ccccc21
REMARK SMILES IDX 1 1 2 2 3 3 4 4 5 5 6 6 7 7 8 8 9 9 10 10 11 11 12 12 13 13
REMARK SMILES IDX 14 14
REMARK H PARENT
REMARK Flexibility Score: inf
ROOT
ATOM      1  C   UNL     1    -117.553  14.977  24.515  1.00  0.00     0.018 C 
ATOM      2  C   UNL     1    -117.471  14.138  23.484  1.00  0.00    -0.017 C 
ATOM      3  C   UNL     1    -118.228  14.196  22.227  1.00  0.00    -0.010 A 
ATOM      4  C   UNL     1    -119.195  15.109  21.798  1.00  0.00     0.009 A 
ATOM      5  C   UNL     1    -119.769  14.926  20.528  1.00  0.00     0.001 A 
ATOM      6  C   UNL     1    -119.374  13.846  19.714  1.00  0.00     0.001 A 
ATOM      7  C   UNL     1    -118.401  12.936  20.160  1.00  0.00     0.009 A 
ATOM      8  C   UNL     1    -117.843  13.135  21.423  1.00  0.00    -0.010 A 
ATOM      9  C   UNL     1    -116.830  12.361  22.133  1.00  0.00    -0.010 A 
ATOM     10  C   UNL     1    -116.141  11.214  21.742  1.00  0.00     0.009 A 
ATOM     11  C   UNL     1    -115.203  10.666  22.633  1.00  0.00     0.001 A 
ATOM     12  C   UNL     1    -114.972  11.270  23.887  1.00  0.00     0.001 A 
ATOM     13  C   UNL     1    -115.677  12.427  24.262  1.00  0.00     0.009 A 
ATOM     14  C   UNL     1    -116.605  12.958  23.363  1.00  0.00    -0.010 A 
ENDROOT
TORSDOF 0
ENDMDL
MODEL 6
REMARK VINA RESULT:    -5.753      1.116      5.241
REMARK INTER + INTRA:          -5.753
REMARK INTER:                  -5.753
REMARK INTRA:                   0.000
REMARK UNBOUND:                 0.000
REMARK SMILES C=C1c2ccccc2-c2ccccc21
REMARK SMILES IDX 1 1 2 2 3 3 4 4 5 5 6 6 7 7 8 8 9 9 10 10 11 11 12 12 13 13
REMARK SMILES IDX 14 14
REMARK H PARENT
REMARK Flexibility Score: inf
ROOT
ATOM      1  C   UNL     1    -117.604  14.895  24.465  1.00  0.00     0.018 C 
ATOM      2  C   UNL     1    -117.484  14.084  23.416  1.00  0.00    -0.017 C 
ATOM      3  C   UNL     1    -116.621  12.902  23.299  1.00  0.00    -0.010 A 
ATOM      4  C   UNL     1    -115.733  12.340  24.220  1.00  0.00     0.009 A 
ATOM      5  C   UNL     1    -115.020  11.189  23.842  1.00  0.00     0.001 A 
ATOM      6  C   UNL     1    -115.201  10.622  22.565  1.00  0.00     0.001 A 
ATOM      7  C   UNL     1    -116.098  11.200  21.650  1.00  0.00     0.009 A 
ATOM      8  C   UNL     1    -116.796  12.342  22.043  1.00  0.00    -0.010 A 
ATOM      9  C   UNL     1    -117.774  13.141  21.313  1.00  0.00    -0.010 A 
ATOM     10  C   UNL     1    -118.280  12.981  20.023  1.00  0.00     0.009 A 
ATOM     11  C   UNL     1    -119.228  13.910  19.562  1.00  0.00     0.001 A 
ATOM     12  C   UNL     1    -119.650  14.970  20.390  1.00  0.00     0.001 A 
ATOM     13  C   UNL     1    -119.129  15.114  21.687  1.00  0.00     0.009 A 
ATOM     14  C   UNL     1    -118.188  14.182  22.129  1.00  0.00    -0.010 A 
ENDROOT
TORSDOF 0
ENDMDL
MODEL 7
REMARK VINA RESULT:    -5.679      0.947      1.349
REMARK INTER + INTRA:          -5.679
REMARK INTER:                  -5.679
REMARK INTRA:                   0.000
REMARK UNBOUND:                 0.000
REMARK SMILES C=C1c2ccccc2-c2ccccc21
REMARK SMILES IDX 1 1 2 2 3 3 4 4 5 5 6 6 7 7 8 8 9 9 10 10 11 11 12 12 13 13
REMARK SMILES IDX 14 14
REMARK H PARENT
REMARK Flexibility Score: inf
ROOT
ATOM      1  C   UNL     1    -116.624  11.220  19.541  1.00  0.00     0.018 C 
ATOM      2  C   UNL     1    -116.779  11.850  20.703  1.00  0.00    -0.017 C 
ATOM      3  C   UNL     1    -117.653  12.997  20.985  1.00  0.00    -0.010 A 
ATOM      4  C   UNL     1    -118.518  13.699  20.142  1.00  0.00     0.009 A 
ATOM      5  C   UNL     1    -119.248  14.773  20.680  1.00  0.00     0.001 A 
ATOM      6  C   UNL     1    -119.106  15.126  22.036  1.00  0.00     0.001 A 
ATOM      7  C   UNL     1    -118.231  14.410  22.871  1.00  0.00     0.009 A 
ATOM      8  C   UNL     1    -117.516  13.347  22.319  1.00  0.00    -0.010 A 
ATOM      9  C   UNL     1    -116.553  12.443  22.938  1.00  0.00    -0.010 A 
ATOM     10  C   UNL     1    -116.085  12.393  24.251  1.00  0.00     0.009 A 
ATOM     11  C   UNL     1    -115.145  11.404  24.583  1.00  0.00     0.001 A 
ATOM     12  C   UNL     1    -114.692  10.491  23.607  1.00  0.00     0.001 A 
ATOM     13  C   UNL     1    -115.176  10.558  22.289  1.00  0.00     0.009 A 
ATOM     14  C   UNL     1    -116.111  11.548  21.977  1.00  0.00    -0.010 A 
ENDROOT
TORSDOF 0
ENDMDL
MODEL 8
REMARK VINA RESULT:    -5.664      1.446      4.418
REMARK INTER + INTRA:          -5.664
REMARK INTER:                  -5.664
REMARK INTRA:                   0.000
REMARK UNBOUND:                 0.000
REMARK SMILES C=C1c2ccccc2-c2ccccc21
REMARK SMILES IDX 1 1 2 2 3 3 4 4 5 5 6 6 7 7 8 8 9 9 10 10 11 11 12 12 13 13
REMARK SMILES IDX 14 14
REMARK H PARENT
REMARK Flexibility Score: inf
ROOT
ATOM      1  C   UNL     1    -118.055  12.934  18.958  1.00  0.00     0.018 C 
ATOM      2  C   UNL     1    -117.520  12.648  20.143  1.00  0.00    -0.017 C 
ATOM      3  C   UNL     1    -116.571  11.571  20.455  1.00  0.00    -0.010 A 
ATOM      4  C   UNL     1    -116.003  10.602  19.623  1.00  0.00     0.009 A 
ATOM      5  C   UNL     1    -115.111   9.676  20.191  1.00  0.00     0.001 A 
ATOM      6  C   UNL     1    -114.802   9.730  21.565  1.00  0.00     0.001 A 
ATOM      7  C   UNL     1    -115.382  10.711  22.387  1.00  0.00     0.009 A 
ATOM      8  C   UNL     1    -116.264  11.621  21.805  1.00  0.00    -0.010 A 
ATOM      9  C   UNL     1    -117.003  12.727  22.407  1.00  0.00    -0.010 A 
ATOM     10  C   UNL     1    -117.026  13.177  23.726  1.00  0.00     0.009 A 
ATOM     11  C   UNL     1    -117.837  14.281  24.036  1.00  0.00     0.001 A 
ATOM     12  C   UNL     1    -118.602  14.910  23.032  1.00  0.00     0.001 A 
ATOM     13  C   UNL     1    -118.565  14.441  21.708  1.00  0.00     0.009 A 
ATOM     14  C   UNL     1    -117.752  13.342  21.417  1.00  0.00    -0.010 A 
ENDROOT
TORSDOF 0
ENDMDL
MODEL 9
REMARK VINA RESULT:    -5.639      1.048      1.675
REMARK INTER + INTRA:          -5.639
REMARK INTER:                  -5.639
REMARK INTRA:                   0.000
REMARK UNBOUND:                 0.000
REMARK SMILES C=C1c2ccccc2-c2ccccc21
REMARK SMILES IDX 1 1 2 2 3 3 4 4 5 5 6 6 7 7 8 8 9 9 10 10 11 11 12 12 13 13
REMARK SMILES IDX 14 14
REMARK H PARENT
REMARK Flexibility Score: inf
ROOT
ATOM      1  C   UNL     1    -117.545  12.288  19.082  1.00  0.00     0.018 C 
ATOM      2  C   UNL     1    -117.195  12.291  20.366  1.00  0.00    -0.017 C 
ATOM      3  C   UNL     1    -117.670  13.201  21.417  1.00  0.00    -0.010 A 
ATOM      4  C   UNL     1    -118.576  14.262  21.348  1.00  0.00     0.009 A 
ATOM      5  C   UNL     1    -118.855  14.979  22.523  1.00  0.00     0.001 A 
ATOM      6  C   UNL     1    -118.230  14.632  23.738  1.00  0.00     0.001 A 
ATOM      7  C   UNL     1    -117.320  13.563  23.791  1.00  0.00     0.009 A 
ATOM      8  C   UNL     1    -117.057  12.862  22.613  1.00  0.00    -0.010 A 
ATOM      9  C   UNL     1    -116.172  11.728  22.374  1.00  0.00    -0.010 A 
ATOM     10  C   UNL     1    -115.347  11.033  23.258  1.00  0.00     0.009 A 
ATOM     11  C   UNL     1    -114.589   9.962  22.755  1.00  0.00     0.001 A 
ATOM     12  C   UNL     1    -114.667   9.609  21.392  1.00  0.00     0.001 A 
ATOM     13  C   UNL     1    -115.504  10.323  20.517  1.00  0.00     0.009 A 
ATOM     14  C   UNL     1    -116.252  11.384  21.035  1.00  0.00    -0.010 A 
ENDROOT
TORSDOF 0
ENDMDL
