MODEL 1
REMARK VINA RESULT:    -2.179      0.000      0.000
REMARK INTER + INTRA:          -2.179
REMARK INTER:                  -2.179
REMARK INTRA:                   0.000
REMARK UNBOUND:                 0.000
REMARK SMILES CC1=CC[C@H]2[C@@H](C1)C2(C)C
REMARK SMILES IDX 1 1 2 2 3 3 4 4 5 5 6 6 7 7 8 8 9 9 10 10
REMARK H PARENT
REMARK Flexibility Score: inf
ROOT
ATOM      1  C   UNL     1     -17.204   0.413  17.150  1.00  0.00     0.039 C 
ATOM      2  C   UNL     1     -16.289  -0.780  17.090  1.00  0.00    -0.077 C 
ATOM      3  C   UNL     1     -15.672  -1.196  18.209  1.00  0.00    -0.028 C 
ATOM      4  C   UNL     1     -14.744  -2.378  18.203  1.00  0.00     0.031 C 
ATOM      5  C   UNL     1     -15.245  -3.498  17.267  1.00  0.00     0.003 C 
ATOM      6  C   UNL     1     -15.951  -3.030  15.974  1.00  0.00     0.003 C 
ATOM      7  C   UNL     1     -16.066  -1.501  15.781  1.00  0.00     0.034 C 
ATOM      8  C   UNL     1     -14.582  -3.725  15.898  1.00  0.00    -0.029 C 
ATOM      9  C   UNL     1     -13.325  -2.928  15.500  1.00  0.00     0.012 C 
ATOM     10  C   UNL     1     -14.631  -5.174  15.398  1.00  0.00     0.012 C 
ENDROOT
TORSDOF 0
ENDMDL
MODEL 2
REMARK VINA RESULT:    -1.656      0.984      4.020
REMARK INTER + INTRA:          -1.656
REMARK INTER:                  -1.656
REMARK INTRA:                   0.000
REMARK UNBOUND:                 0.000
REMARK SMILES CC1=CC[C@H]2[C@@H](C1)C2(C)C
REMARK SMILES IDX 1 1 2 2 3 3 4 4 5 5 6 6 7 7 8 8 9 9 10 10
REMARK H PARENT
REMARK Flexibility Score: inf
ROOT
ATOM      1  C   UNL     1     -14.736  -5.941  14.878  1.00  0.00     0.039 C 
ATOM      2  C   UNL     1     -14.575  -4.645  15.625  1.00  0.00    -0.077 C 
ATOM      3  C   UNL     1     -13.375  -4.040  15.647  1.00  0.00    -0.028 C 
ATOM      4  C   UNL     1     -13.159  -2.747  16.382  1.00  0.00     0.031 C 
ATOM      5  C   UNL     1     -14.374  -1.804  16.257  1.00  0.00     0.003 C 
ATOM      6  C   UNL     1     -15.760  -2.491  16.238  1.00  0.00     0.003 C 
ATOM      7  C   UNL     1     -15.754  -4.032  16.346  1.00  0.00     0.034 C 
ATOM      8  C   UNL     1     -15.345  -1.623  17.437  1.00  0.00    -0.029 C 
ATOM      9  C   UNL     1     -15.041  -2.274  18.800  1.00  0.00     0.012 C 
ATOM     10  C   UNL     1     -16.026  -0.251  17.497  1.00  0.00     0.012 C 
ENDROOT
TORSDOF 0
ENDMDL
MODEL 3
REMARK VINA RESULT:     0.323      1.378      2.851
REMARK INTER + INTRA:           0.323
REMARK INTER:                   0.323
REMARK INTRA:                   0.000
REMARK UNBOUND:                 0.000
REMARK SMILES CC1=CC[C@H]2[C@@H](C1)C2(C)C
REMARK SMILES IDX 1 1 2 2 3 3 4 4 5 5 6 6 7 7 8 8 9 9 10 10
REMARK H PARENT
REMARK Flexibility Score: inf
ROOT
ATOM      1  C   UNL     1     -14.881  -2.000  20.858  1.00  0.00     0.039 C 
ATOM      2  C   UNL     1     -14.858  -2.145  19.361  1.00  0.00    -0.077 C 
ATOM      3  C   UNL     1     -15.784  -1.511  18.621  1.00  0.00    -0.028 C 
ATOM      4  C   UNL     1     -15.810  -1.627  17.123  1.00  0.00     0.031 C 
ATOM      5  C   UNL     1     -14.388  -1.653  16.524  1.00  0.00     0.003 C 
ATOM      6  C   UNL     1     -13.317  -2.386  17.364  1.00  0.00     0.003 C 
ATOM      7  C   UNL     1     -13.803  -2.999  18.696  1.00  0.00     0.034 C 
ATOM      8  C   UNL     1     -13.778  -2.973  16.021  1.00  0.00    -0.029 C 
ATOM      9  C   UNL     1     -14.628  -4.258  15.983  1.00  0.00     0.012 C 
ATOM     10  C   UNL     1     -12.771  -2.814  14.876  1.00  0.00     0.012 C 
ENDROOT
TORSDOF 0
ENDMDL
