MODEL 1
REMARK VINA RESULT:    -6.265      0.000      0.000
REMARK INTER + INTRA:          -9.963
REMARK INTER:                  -9.561
REMARK INTRA:                  -0.401
REMARK UNBOUND:                -0.401
REMARK SMILES O=C([O-])CCCCCCCCC(=O)[O-]
REMARK SMILES IDX 7 1 6 2 5 3 4 4 2 5 1 6 3 7 8 8 9 9 10 10 11 11 12 12 13 13
REMARK SMILES IDX 14 14
REMARK H PARENT
REMARK Flexibility Score: inf
ROOT
ATOM      1  C   UNL     1      -8.244  -5.463 -18.779  1.00  0.00     0.000 C 
ENDROOT
BRANCH   1   2
ATOM      2  C   UNL     1      -8.859  -6.490 -19.744  1.00  0.00     0.000 C 
BRANCH   2   3
ATOM      3  C   UNL     1      -7.904  -7.653 -20.055  1.00  0.00     0.006 C 
BRANCH   3   4
ATOM      4  C   UNL     1      -8.500  -9.021 -19.696  1.00  0.00     0.053 C 
BRANCH   4   5
ATOM      5  C   UNL     1      -8.089 -10.049 -20.701  1.00  0.00     0.041 C 
ATOM      6  O   UNL     1      -7.517 -11.107 -20.328  1.00  0.00    -0.550 OA
ATOM      7  O   UNL     1      -8.381  -9.863 -22.047  1.00  0.00    -0.550 OA
ENDBRANCH   4   5
ENDBRANCH   3   4
ENDBRANCH   2   3
ENDBRANCH   1   2
BRANCH   1   8
ATOM      8  C   UNL     1      -7.134  -4.622 -19.433  1.00  0.00     0.000 C 
BRANCH   8   9
ATOM      9  C   UNL     1      -7.522  -4.050 -20.814  1.00  0.00     0.000 C 
BRANCH   9  10
ATOM     10  C   UNL     1      -6.949  -2.643 -21.040  1.00  0.00     0.006 C 
BRANCH  10  11
ATOM     11  C   UNL     1      -6.960  -1.830 -19.742  1.00  0.00     0.053 C 
BRANCH  11  12
ATOM     12  C   UNL     1      -5.584  -1.339 -19.420  1.00  0.00     0.041 C 
ATOM     13  O   UNL     1      -4.600  -1.717 -20.108  1.00  0.00    -0.550 OA
ATOM     14  O   UNL     1      -5.381  -0.504 -18.329  1.00  0.00    -0.550 OA
ENDBRANCH  11  12
ENDBRANCH  10  11
ENDBRANCH   9  10
ENDBRANCH   8   9
ENDBRANCH   1   8
TORSDOF 9
ENDMDL
MODEL 2
REMARK VINA RESULT:    -6.259      0.565      7.308
REMARK INTER + INTRA:          -9.953
REMARK INTER:                  -9.543
REMARK INTRA:                  -0.411
REMARK UNBOUND:                -0.401
REMARK SMILES O=C([O-])CCCCCCCCC(=O)[O-]
REMARK SMILES IDX 7 1 6 2 5 3 4 4 2 5 1 6 3 7 8 8 9 9 10 10 11 11 12 12 13 13
REMARK SMILES IDX 14 14
REMARK H PARENT
REMARK Flexibility Score: inf
ROOT
ATOM      1  C   UNL     1      -7.652  -4.492 -19.119  1.00  0.00     0.000 C 
ENDROOT
BRANCH   1   2
ATOM      2  C   UNL     1      -7.395  -4.075 -20.576  1.00  0.00     0.000 C 
BRANCH   2   3
ATOM      3  C   UNL     1      -7.204  -2.557 -20.729  1.00  0.00     0.006 C 
BRANCH   3   4
ATOM      4  C   UNL     1      -7.099  -1.835 -19.380  1.00  0.00     0.053 C 
BRANCH   4   5
ATOM      5  C   UNL     1      -5.675  -1.483 -19.086  1.00  0.00     0.041 C 
ATOM      6  O   UNL     1      -5.321  -0.276 -19.022  1.00  0.00    -0.550 OA
ATOM      7  O   UNL     1      -4.749  -2.487 -18.834  1.00  0.00    -0.550 OA
ENDBRANCH   4   5
ENDBRANCH   3   4
ENDBRANCH   2   3
ENDBRANCH   1   2
BRANCH   1   8
ATOM      8  C   UNL     1      -8.907  -5.368 -18.963  1.00  0.00     0.000 C 
BRANCH   8   9
ATOM      9  C   UNL     1      -9.006  -6.502 -20.007  1.00  0.00     0.000 C 
BRANCH   9  10
ATOM     10  C   UNL     1      -7.918  -7.568 -19.809  1.00  0.00     0.006 C 
BRANCH  10  11
ATOM     11  C   UNL     1      -8.539  -8.945 -19.554  1.00  0.00     0.053 C 
BRANCH  11  12
ATOM     12  C   UNL     1      -8.118  -9.913 -20.614  1.00  0.00     0.041 C 
ATOM     13  O   UNL     1      -7.460 -10.942 -20.306  1.00  0.00    -0.550 OA
ATOM     14  O   UNL     1      -8.409  -9.655 -21.947  1.00  0.00    -0.550 OA
ENDBRANCH  11  12
ENDBRANCH  10  11
ENDBRANCH   9  10
ENDBRANCH   8   9
ENDBRANCH   1   8
TORSDOF 9
ENDMDL
MODEL 3
REMARK VINA RESULT:    -6.215      1.087      1.735
REMARK INTER + INTRA:          -9.887
REMARK INTER:                  -9.418
REMARK INTRA:                  -0.469
REMARK UNBOUND:                -0.401
REMARK SMILES O=C([O-])CCCCCCCCC(=O)[O-]
REMARK SMILES IDX 7 1 6 2 5 3 4 4 2 5 1 6 3 7 8 8 9 9 10 10 11 11 12 12 13 13
REMARK SMILES IDX 14 14
REMARK H PARENT
REMARK Flexibility Score: inf
ROOT
ATOM      1  C   UNL     1      -7.196  -4.718 -19.554  1.00  0.00     0.000 C 
ENDROOT
BRANCH   1   2
ATOM      2  C   UNL     1      -8.496  -5.308 -18.985  1.00  0.00     0.000 C 
BRANCH   2   3
ATOM      3  C   UNL     1      -8.956  -6.564 -19.744  1.00  0.00     0.006 C 
BRANCH   3   4
ATOM      4  C   UNL     1      -7.784  -7.460 -20.168  1.00  0.00     0.053 C 
BRANCH   4   5
ATOM      5  C   UNL     1      -8.164  -8.902 -20.055  1.00  0.00     0.041 C 
ATOM      6  O   UNL     1      -7.863  -9.711 -20.973  1.00  0.00    -0.550 OA
ATOM      7  O   UNL     1      -8.805  -9.365 -18.913  1.00  0.00    -0.550 OA
ENDBRANCH   4   5
ENDBRANCH   3   4
ENDBRANCH   2   3
ENDBRANCH   1   2
BRANCH   1   8
ATOM      8  C   UNL     1      -7.411  -3.973 -20.882  1.00  0.00     0.000 C 
BRANCH   8   9
ATOM      9  C   UNL     1      -7.127  -2.457 -20.795  1.00  0.00     0.000 C 
BRANCH   9  10
ATOM     10  C   UNL     1      -7.339  -1.909 -19.376  1.00  0.00     0.006 C 
BRANCH  10  11
ATOM     11  C   UNL     1      -6.332  -0.798 -19.061  1.00  0.00     0.053 C 
BRANCH  11  12
ATOM     12  C   UNL     1      -4.953  -1.364 -18.928  1.00  0.00     0.041 C 
ATOM     13  O   UNL     1      -3.971  -0.762 -19.435  1.00  0.00    -0.550 OA
ATOM     14  O   UNL     1      -4.759  -2.581 -18.289  1.00  0.00    -0.550 OA
ENDBRANCH  11  12
ENDBRANCH  10  11
ENDBRANCH   9  10
ENDBRANCH   8   9
ENDBRANCH   1   8
TORSDOF 9
ENDMDL
MODEL 4
REMARK VINA RESULT:    -6.215      1.337      1.751
REMARK INTER + INTRA:          -9.886
REMARK INTER:                  -9.444
REMARK INTRA:                  -0.442
REMARK UNBOUND:                -0.401
REMARK SMILES O=C([O-])CCCCCCCCC(=O)[O-]
REMARK SMILES IDX 7 1 6 2 5 3 4 4 2 5 1 6 3 7 8 8 9 9 10 10 11 11 12 12 13 13
REMARK SMILES IDX 14 14
REMARK H PARENT
REMARK Flexibility Score: inf
ROOT
ATOM      1  C   UNL     1      -8.443  -5.078 -19.507  1.00  0.00     0.000 C 
ENDROOT
BRANCH   1   2
ATOM      2  C   UNL     1      -9.071  -6.473 -19.656  1.00  0.00     0.000 C 
BRANCH   2   3
ATOM      3  C   UNL     1      -8.024  -7.566 -19.925  1.00  0.00     0.006 C 
BRANCH   3   4
ATOM      4  C   UNL     1      -8.532  -8.972 -19.577  1.00  0.00     0.053 C 
BRANCH   4   5
ATOM      5  C   UNL     1      -8.128  -9.949 -20.634  1.00  0.00     0.041 C 
ATOM      6  O   UNL     1      -8.335  -9.691 -21.849  1.00  0.00    -0.550 OA
ATOM      7  O   UNL     1      -7.477 -11.125 -20.281  1.00  0.00    -0.550 OA
ENDBRANCH   4   5
ENDBRANCH   3   4
ENDBRANCH   2   3
ENDBRANCH   1   2
BRANCH   1   8
ATOM      8  C   UNL     1      -6.917  -5.089 -19.700  1.00  0.00     0.000 C 
BRANCH   8   9
ATOM      9  C   UNL     1      -6.168  -4.113 -18.767  1.00  0.00     0.000 C 
BRANCH   9  10
ATOM     10  C   UNL     1      -5.483  -2.978 -19.544  1.00  0.00     0.006 C 
BRANCH  10  11
ATOM     11  C   UNL     1      -5.963  -1.609 -19.053  1.00  0.00     0.053 C 
BRANCH  11  12
ATOM     12  C   UNL     1      -7.142  -1.150 -19.851  1.00  0.00     0.041 C 
ATOM     13  O   UNL     1      -7.499  -1.787 -20.876  1.00  0.00    -0.550 OA
ATOM     14  O   UNL     1      -7.816   0.010 -19.492  1.00  0.00    -0.550 OA
ENDBRANCH  11  12
ENDBRANCH  10  11
ENDBRANCH   9  10
ENDBRANCH   8   9
ENDBRANCH   1   8
TORSDOF 9
ENDMDL
MODEL 5
REMARK VINA RESULT:    -6.186      2.221      7.740
REMARK INTER + INTRA:          -9.842
REMARK INTER:                  -9.313
REMARK INTRA:                  -0.529
REMARK UNBOUND:                -0.401
REMARK SMILES O=C([O-])CCCCCCCCC(=O)[O-]
REMARK SMILES IDX 7 1 6 2 5 3 4 4 2 5 1 6 3 7 8 8 9 9 10 10 11 11 12 12 13 13
REMARK SMILES IDX 14 14
REMARK H PARENT
REMARK Flexibility Score: inf
ROOT
ATOM      1  C   UNL     1      -7.462  -1.634 -19.601  1.00  0.00     0.000 C 
ENDROOT
BRANCH   1   2
ATOM      2  C   UNL     1      -6.413  -0.655 -19.050  1.00  0.00     0.000 C 
BRANCH   2   3
ATOM      3  C   UNL     1      -5.116  -1.360 -18.622  1.00  0.00     0.006 C 
BRANCH   3   4
ATOM      4  C   UNL     1      -3.858  -0.581 -19.027  1.00  0.00     0.053 C 
BRANCH   4   5
ATOM      5  C   UNL     1      -3.539   0.464 -18.006  1.00  0.00     0.041 C 
ATOM      6  O   UNL     1      -3.742   0.239 -16.783  1.00  0.00    -0.550 OA
ATOM      7  O   UNL     1      -2.971   1.669 -18.399  1.00  0.00    -0.550 OA
ENDBRANCH   4   5
ENDBRANCH   3   4
ENDBRANCH   2   3
ENDBRANCH   1   2
BRANCH   1   8
ATOM      8  C   UNL     1      -7.142  -2.109 -21.029  1.00  0.00     0.000 C 
BRANCH   8   9
ATOM      9  C   UNL     1      -7.234  -3.640 -21.208  1.00  0.00     0.000 C 
BRANCH   9  10
ATOM     10  C   UNL     1      -7.102  -4.389 -19.872  1.00  0.00     0.006 C 
BRANCH  10  11
ATOM     11  C   UNL     1      -6.997  -5.900 -20.098  1.00  0.00     0.053 C 
BRANCH  11  12
ATOM     12  C   UNL     1      -8.281  -6.575 -19.731  1.00  0.00     0.041 C 
ATOM     13  O   UNL     1      -9.356  -5.921 -19.713  1.00  0.00    -0.550 OA
ATOM     14  O   UNL     1      -8.282  -7.913 -19.362  1.00  0.00    -0.550 OA
ENDBRANCH  11  12
ENDBRANCH  10  11
ENDBRANCH   9  10
ENDBRANCH   8   9
ENDBRANCH   1   8
TORSDOF 9
ENDMDL
MODEL 6
REMARK VINA RESULT:    -6.122      2.267      3.710
REMARK INTER + INTRA:          -9.744
REMARK INTER:                  -9.181
REMARK INTRA:                  -0.563
REMARK UNBOUND:                -0.401
REMARK SMILES O=C([O-])CCCCCCCCC(=O)[O-]
REMARK SMILES IDX 7 1 6 2 5 3 4 4 2 5 1 6 3 7 8 8 9 9 10 10 11 11 12 12 13 13
REMARK SMILES IDX 14 14
REMARK H PARENT
REMARK Flexibility Score: inf
ROOT
ATOM      1  C   UNL     1      -7.364  -1.997 -20.872  1.00  0.00     0.000 C 
ENDROOT
BRANCH   1   2
ATOM      2  C   UNL     1      -7.120  -3.490 -21.148  1.00  0.00     0.000 C 
BRANCH   2   3
ATOM      3  C   UNL     1      -6.945  -4.307 -19.858  1.00  0.00     0.006 C 
BRANCH   3   4
ATOM      4  C   UNL     1      -6.971  -5.821 -20.110  1.00  0.00     0.053 C 
BRANCH   4   5
ATOM      5  C   UNL     1      -8.285  -6.397 -19.688  1.00  0.00     0.041 C 
ATOM      6  O   UNL     1      -8.429  -7.645 -19.592  1.00  0.00    -0.550 OA
ATOM      7  O   UNL     1      -9.338  -5.555 -19.351  1.00  0.00    -0.550 OA
ENDBRANCH   4   5
ENDBRANCH   3   4
ENDBRANCH   2   3
ENDBRANCH   1   2
BRANCH   1   8
ATOM      8  C   UNL     1      -7.235  -1.639 -19.381  1.00  0.00     0.000 C 
BRANCH   8   9
ATOM      9  C   UNL     1      -6.069  -0.674 -19.074  1.00  0.00     0.000 C 
BRANCH   9  10
ATOM     10  C   UNL     1      -4.715  -1.238 -19.531  1.00  0.00     0.006 C 
BRANCH  10  11
ATOM     11  C   UNL     1      -3.734  -1.327 -18.358  1.00  0.00     0.053 C 
BRANCH  11  12
ATOM     12  C   UNL     1      -3.427   0.037 -17.826  1.00  0.00     0.041 C 
ATOM     13  O   UNL     1      -3.787   0.359 -16.664  1.00  0.00    -0.550 OA
ATOM     14  O   UNL     1      -2.789   0.970 -18.633  1.00  0.00    -0.550 OA
ENDBRANCH  11  12
ENDBRANCH  10  11
ENDBRANCH   9  10
ENDBRANCH   8   9
ENDBRANCH   1   8
TORSDOF 9
ENDMDL
MODEL 7
REMARK VINA RESULT:    -6.038      1.645      2.006
REMARK INTER + INTRA:          -9.616
REMARK INTER:                  -9.224
REMARK INTRA:                  -0.392
REMARK UNBOUND:                -0.401
REMARK SMILES O=C([O-])CCCCCCCCC(=O)[O-]
REMARK SMILES IDX 7 1 6 2 5 3 4 4 2 5 1 6 3 7 8 8 9 9 10 10 11 11 12 12 13 13
REMARK SMILES IDX 14 14
REMARK H PARENT
REMARK Flexibility Score: inf
ROOT
ATOM      1  C   UNL     1      -7.314  -5.591 -19.565  1.00  0.00     0.000 C 
ENDROOT
BRANCH   1   2
ATOM      2  C   UNL     1      -8.683  -6.282 -19.458  1.00  0.00     0.000 C 
BRANCH   2   3
ATOM      3  C   UNL     1      -8.783  -7.533 -20.345  1.00  0.00     0.006 C 
BRANCH   3   4
ATOM      4  C   UNL     1      -8.342  -8.811 -19.619  1.00  0.00     0.053 C 
BRANCH   4   5
ATOM      5  C   UNL     1      -8.062  -9.901 -20.604  1.00  0.00     0.041 C 
ATOM      6  O   UNL     1      -7.574 -10.996 -20.217  1.00  0.00    -0.550 OA
ATOM      7  O   UNL     1      -8.386  -9.727 -21.944  1.00  0.00    -0.550 OA
ENDBRANCH   4   5
ENDBRANCH   3   4
ENDBRANCH   2   3
ENDBRANCH   1   2
BRANCH   1   8
ATOM      8  C   UNL     1      -7.072  -4.571 -18.440  1.00  0.00     0.000 C 
BRANCH   8   9
ATOM      9  C   UNL     1      -5.647  -3.976 -18.439  1.00  0.00     0.000 C 
BRANCH   9  10
ATOM     10  C   UNL     1      -5.614  -2.549 -19.008  1.00  0.00     0.006 C 
BRANCH  10  11
ATOM     11  C   UNL     1      -5.039  -2.537 -20.427  1.00  0.00     0.053 C 
BRANCH  11  12
ATOM     12  C   UNL     1      -6.109  -2.844 -21.428  1.00  0.00     0.041 C 
ATOM     13  O   UNL     1      -5.879  -3.641 -22.375  1.00  0.00    -0.550 OA
ATOM     14  O   UNL     1      -7.342  -2.212 -21.344  1.00  0.00    -0.550 OA
ENDBRANCH  11  12
ENDBRANCH  10  11
ENDBRANCH   9  10
ENDBRANCH   8   9
ENDBRANCH   1   8
TORSDOF 9
ENDMDL
MODEL 8
REMARK VINA RESULT:    -6.030      2.154      3.486
REMARK INTER + INTRA:          -9.604
REMARK INTER:                  -9.175
REMARK INTRA:                  -0.429
REMARK UNBOUND:                -0.401
REMARK SMILES O=C([O-])CCCCCCCCC(=O)[O-]
REMARK SMILES IDX 7 1 6 2 5 3 4 4 2 5 1 6 3 7 8 8 9 9 10 10 11 11 12 12 13 13
REMARK SMILES IDX 14 14
REMARK H PARENT
REMARK Flexibility Score: inf
ROOT
ATOM      1  C   UNL     1      -7.316  -2.168 -21.096  1.00  0.00     0.000 C 
ENDROOT
BRANCH   1   2
ATOM      2  C   UNL     1      -7.198  -3.687 -21.298  1.00  0.00     0.000 C 
BRANCH   2   3
ATOM      3  C   UNL     1      -7.042  -4.448 -19.971  1.00  0.00     0.006 C 
BRANCH   3   4
ATOM      4  C   UNL     1      -7.129  -5.970 -20.148  1.00  0.00     0.053 C 
BRANCH   4   5
ATOM      5  C   UNL     1      -8.479  -6.467 -19.738  1.00  0.00     0.041 C 
ATOM      6  O   UNL     1      -8.739  -7.699 -19.775  1.00  0.00    -0.550 OA
ATOM      7  O   UNL     1      -9.434  -5.575 -19.267  1.00  0.00    -0.550 OA
ENDBRANCH   4   5
ENDBRANCH   3   4
ENDBRANCH   2   3
ENDBRANCH   1   2
BRANCH   1   8
ATOM      8  C   UNL     1      -7.517  -1.777 -19.622  1.00  0.00     0.000 C 
BRANCH   8   9
ATOM      9  C   UNL     1      -7.021  -0.354 -19.286  1.00  0.00     0.000 C 
BRANCH   9  10
ATOM     10  C   UNL     1      -5.641  -0.365 -18.609  1.00  0.00     0.006 C 
BRANCH  10  11
ATOM     11  C   UNL     1      -4.623  -1.139 -19.451  1.00  0.00     0.053 C 
BRANCH  11  12
ATOM     12  C   UNL     1      -3.897  -2.139 -18.607  1.00  0.00     0.041 C 
ATOM     13  O   UNL     1      -2.693  -1.946 -18.294  1.00  0.00    -0.550 OA
ATOM     14  O   UNL     1      -4.534  -3.306 -18.208  1.00  0.00    -0.550 OA
ENDBRANCH  11  12
ENDBRANCH  10  11
ENDBRANCH   9  10
ENDBRANCH   8   9
ENDBRANCH   1   8
TORSDOF 9
ENDMDL
MODEL 9
REMARK VINA RESULT:    -5.999      2.645      7.517
REMARK INTER + INTRA:          -9.557
REMARK INTER:                  -8.936
REMARK INTRA:                  -0.621
REMARK UNBOUND:                -0.401
REMARK SMILES O=C([O-])CCCCCCCCC(=O)[O-]
REMARK SMILES IDX 7 1 6 2 5 3 4 4 2 5 1 6 3 7 8 8 9 9 10 10 11 11 12 12 13 13
REMARK SMILES IDX 14 14
REMARK H PARENT
REMARK Flexibility Score: inf
ROOT
ATOM      1  C   UNL     1      -6.451  -1.064 -19.202  1.00  0.00     0.000 C 
ENDROOT
BRANCH   1   2
ATOM      2  C   UNL     1      -5.037  -1.425 -19.684  1.00  0.00     0.000 C 
BRANCH   2   3
ATOM      3  C   UNL     1      -4.150  -1.972 -18.553  1.00  0.00     0.006 C 
BRANCH   3   4
ATOM      4  C   UNL     1      -2.938  -1.075 -18.266  1.00  0.00     0.053 C 
BRANCH   4   5
ATOM      5  C   UNL     1      -3.385   0.255 -17.748  1.00  0.00     0.041 C 
ATOM      6  O   UNL     1      -4.061   0.328 -16.688  1.00  0.00    -0.550 OA
ATOM      7  O   UNL     1      -3.012   1.419 -18.408  1.00  0.00    -0.550 OA
ENDBRANCH   4   5
ENDBRANCH   3   4
ENDBRANCH   2   3
ENDBRANCH   1   2
BRANCH   1   8
ATOM      8  C   UNL     1      -7.533  -1.989 -19.784  1.00  0.00     0.000 C 
BRANCH   8   9
ATOM      9  C   UNL     1      -7.104  -2.705 -21.083  1.00  0.00     0.000 C 
BRANCH   9  10
ATOM     10  C   UNL     1      -6.860  -4.206 -20.865  1.00  0.00     0.006 C 
BRANCH  10  11
ATOM     11  C   UNL     1      -7.111  -4.597 -19.406  1.00  0.00     0.053 C 
BRANCH  11  12
ATOM     12  C   UNL     1      -8.255  -5.556 -19.310  1.00  0.00     0.041 C 
ATOM     13  O   UNL     1      -8.100  -6.760 -19.645  1.00  0.00    -0.550 OA
ATOM     14  O   UNL     1      -9.504  -5.110 -18.900  1.00  0.00    -0.550 OA
ENDBRANCH  11  12
ENDBRANCH  10  11
ENDBRANCH   9  10
ENDBRANCH   8   9
ENDBRANCH   1   8
TORSDOF 9
ENDMDL
