MODEL 1
REMARK VINA RESULT:    -3.172      0.000      0.000
REMARK INTER + INTRA:          -4.047
REMARK INTER:                  -3.914
REMARK INTRA:                  -0.133
REMARK UNBOUND:                -0.133
REMARK SMILES CCCCCC(=O)[O-]
REMARK SMILES IDX 4 1 5 2 6 3 7 4 8 5 3 6 2 7 1 8
REMARK H PARENT
REMARK Flexibility Score: inf
ROOT
ATOM      1  C   UNL     1     -27.009 -18.959  12.841  1.00  0.00     0.006 C 
ENDROOT
BRANCH   1   2
ATOM      2  C   UNL     1     -27.443 -18.854  14.307  1.00  0.00     0.053 C 
BRANCH   2   3
ATOM      3  C   UNL     1     -26.488 -17.996  15.076  1.00  0.00     0.041 C 
ATOM      4  O   UNL     1     -25.514 -18.517  15.680  1.00  0.00    -0.550 OA
ATOM      5  O   UNL     1     -26.704 -16.627  15.171  1.00  0.00    -0.550 OA
ENDBRANCH   2   3
ENDBRANCH   1   2
BRANCH   1   6
ATOM      6  C   UNL     1     -27.706 -17.891  11.984  1.00  0.00     0.000 C 
BRANCH   6   7
ATOM      7  C   UNL     1     -26.765 -16.739  11.600  1.00  0.00    -0.003 C 
ATOM      8  C   UNL     1     -27.154 -16.073  10.281  1.00  0.00     0.004 C 
ENDBRANCH   6   7
ENDBRANCH   1   6
TORSDOF 4
ENDMDL
MODEL 2
REMARK VINA RESULT:    -2.834      2.306      4.001
REMARK INTER + INTRA:          -3.629
REMARK INTER:                  -3.498
REMARK INTRA:                  -0.130
REMARK UNBOUND:                -0.133
REMARK SMILES CCCCCC(=O)[O-]
REMARK SMILES IDX 4 1 5 2 6 3 7 4 8 5 3 6 2 7 1 8
REMARK H PARENT
REMARK Flexibility Score: inf
ROOT
ATOM      1  C   UNL     1     -27.073 -18.839  12.681  1.00  0.00     0.006 C 
ENDROOT
BRANCH   1   2
ATOM      2  C   UNL     1     -28.042 -17.901  11.954  1.00  0.00     0.053 C 
BRANCH   2   3
ATOM      3  C   UNL     1     -27.291 -16.830  11.228  1.00  0.00     0.041 C 
ATOM      4  O   UNL     1     -26.296 -16.277  11.767  1.00  0.00    -0.550 OA
ATOM      5  O   UNL     1     -27.719 -16.405   9.977  1.00  0.00    -0.550 OA
ENDBRANCH   2   3
ENDBRANCH   1   2
BRANCH   1   6
ATOM      6  C   UNL     1     -27.791 -19.614  13.796  1.00  0.00     0.000 C 
BRANCH   6   7
ATOM      7  C   UNL     1     -27.452 -19.082  15.197  1.00  0.00    -0.003 C 
ATOM      8  C   UNL     1     -26.155 -18.274  15.225  1.00  0.00     0.004 C 
ENDBRANCH   6   7
ENDBRANCH   1   6
TORSDOF 4
ENDMDL
MODEL 3
REMARK VINA RESULT:    -2.753     22.753     23.344
REMARK INTER + INTRA:          -3.530
REMARK INTER:                  -3.410
REMARK INTRA:                  -0.120
REMARK UNBOUND:                -0.133
REMARK SMILES CCCCCC(=O)[O-]
REMARK SMILES IDX 4 1 5 2 6 3 7 4 8 5 3 6 2 7 1 8
REMARK H PARENT
REMARK Flexibility Score: inf
ROOT
ATOM      1  C   UNL     1      -9.757 -19.995  -3.239  1.00  0.00     0.006 C 
ENDROOT
BRANCH   1   2
ATOM      2  C   UNL     1     -10.036 -20.796  -1.964  1.00  0.00     0.053 C 
BRANCH   2   3
ATOM      3  C   UNL     1     -10.449 -22.194  -2.302  1.00  0.00     0.041 C 
ATOM      4  O   UNL     1     -10.272 -23.124  -1.472  1.00  0.00    -0.550 OA
ATOM      5  O   UNL     1     -10.981 -22.480  -3.552  1.00  0.00    -0.550 OA
ENDBRANCH   2   3
ENDBRANCH   1   2
BRANCH   1   6
ATOM      6  C   UNL     1      -9.511 -18.514  -2.915  1.00  0.00     0.000 C 
BRANCH   6   7
ATOM      7  C   UNL     1      -9.871 -18.160  -1.464  1.00  0.00    -0.003 C 
ATOM      8  C   UNL     1      -8.728 -17.471  -0.721  1.00  0.00     0.004 C 
ENDBRANCH   6   7
ENDBRANCH   1   6
TORSDOF 4
ENDMDL
MODEL 4
REMARK VINA RESULT:    -2.702     22.858     23.465
REMARK INTER + INTRA:          -3.466
REMARK INTER:                  -3.368
REMARK INTRA:                  -0.098
REMARK UNBOUND:                -0.133
REMARK SMILES CCCCCC(=O)[O-]
REMARK SMILES IDX 4 1 5 2 6 3 7 4 8 5 3 6 2 7 1 8
REMARK H PARENT
REMARK Flexibility Score: inf
ROOT
ATOM      1  C   UNL     1      -9.776 -20.616  -1.865  1.00  0.00     0.006 C 
ENDROOT
BRANCH   1   2
ATOM      2  C   UNL     1      -9.645 -19.662  -3.056  1.00  0.00     0.053 C 
BRANCH   2   3
ATOM      3  C   UNL     1      -9.637 -18.239  -2.592  1.00  0.00     0.041 C 
ATOM      4  O   UNL     1     -10.234 -17.916  -1.531  1.00  0.00    -0.550 OA
ATOM      5  O   UNL     1      -9.014 -17.261  -3.356  1.00  0.00    -0.550 OA
ENDBRANCH   2   3
ENDBRANCH   1   2
BRANCH   1   6
ATOM      6  C   UNL     1     -10.552 -21.882  -2.258  1.00  0.00     0.000 C 
BRANCH   6   7
ATOM      7  C   UNL     1     -10.083 -23.125  -1.487  1.00  0.00    -0.003 C 
ATOM      8  C   UNL     1      -9.112 -22.788  -0.357  1.00  0.00     0.004 C 
ENDBRANCH   6   7
ENDBRANCH   1   6
TORSDOF 4
ENDMDL
MODEL 5
REMARK VINA RESULT:    -2.691     22.788     23.413
REMARK INTER + INTRA:          -3.453
REMARK INTER:                  -3.311
REMARK INTRA:                  -0.142
REMARK UNBOUND:                -0.133
REMARK SMILES CCCCCC(=O)[O-]
REMARK SMILES IDX 4 1 5 2 6 3 7 4 8 5 3 6 2 7 1 8
REMARK H PARENT
REMARK Flexibility Score: inf
ROOT
ATOM      1  C   UNL     1      -9.742 -18.597  -2.973  1.00  0.00     0.006 C 
ENDROOT
BRANCH   1   2
ATOM      2  C   UNL     1      -9.839 -18.190  -1.499  1.00  0.00     0.053 C 
BRANCH   2   3
ATOM      3  C   UNL     1      -8.578 -17.518  -1.055  1.00  0.00     0.041 C 
ATOM      4  O   UNL     1      -7.984 -17.909  -0.016  1.00  0.00    -0.550 OA
ATOM      5  O   UNL     1      -8.086 -16.427  -1.760  1.00  0.00    -0.550 OA
ENDBRANCH   2   3
ENDBRANCH   1   2
BRANCH   1   6
ATOM      6  C   UNL     1      -9.577 -20.118  -3.113  1.00  0.00     0.000 C 
BRANCH   6   7
ATOM      7  C   UNL     1     -10.031 -20.878  -1.857  1.00  0.00    -0.003 C 
ATOM      8  C   UNL     1     -10.567 -22.274  -2.172  1.00  0.00     0.004 C 
ENDBRANCH   6   7
ENDBRANCH   1   6
TORSDOF 4
ENDMDL
MODEL 6
REMARK VINA RESULT:    -2.631     16.969     17.414
REMARK INTER + INTRA:          -3.378
REMARK INTER:                  -3.297
REMARK INTRA:                  -0.082
REMARK UNBOUND:                -0.133
REMARK SMILES CCCCCC(=O)[O-]
REMARK SMILES IDX 4 1 5 2 6 3 7 4 8 5 3 6 2 7 1 8
REMARK H PARENT
REMARK Flexibility Score: inf
ROOT
ATOM      1  C   UNL     1      -9.780 -17.510  11.678  1.00  0.00     0.006 C 
ENDROOT
BRANCH   1   2
ATOM      2  C   UNL     1      -9.673 -18.009  13.123  1.00  0.00     0.053 C 
BRANCH   2   3
ATOM      3  C   UNL     1     -10.051 -16.925  14.082  1.00  0.00     0.041 C 
ATOM      4  O   UNL     1     -11.261 -16.610  14.236  1.00  0.00    -0.550 OA
ATOM      5  O   UNL     1      -9.066 -16.227  14.768  1.00  0.00    -0.550 OA
ENDBRANCH   2   3
ENDBRANCH   1   2
BRANCH   1   6
ATOM      6  C   UNL     1     -10.003 -18.680  10.708  1.00  0.00     0.000 C 
BRANCH   6   7
ATOM      7  C   UNL     1      -9.166 -18.552   9.427  1.00  0.00    -0.003 C 
ATOM      8  C   UNL     1      -7.924 -19.442   9.440  1.00  0.00     0.004 C 
ENDBRANCH   6   7
ENDBRANCH   1   6
TORSDOF 4
ENDMDL
MODEL 7
REMARK VINA RESULT:    -2.628      2.609      4.322
REMARK INTER + INTRA:          -3.375
REMARK INTER:                  -3.260
REMARK INTRA:                  -0.115
REMARK UNBOUND:                -0.133
REMARK SMILES CCCCCC(=O)[O-]
REMARK SMILES IDX 4 1 5 2 6 3 7 4 8 5 3 6 2 7 1 8
REMARK H PARENT
REMARK Flexibility Score: inf
ROOT
ATOM      1  C   UNL     1     -26.908 -18.342  12.614  1.00  0.00     0.006 C 
ENDROOT
BRANCH   1   2
ATOM      2  C   UNL     1     -28.095 -17.621  11.967  1.00  0.00     0.053 C 
BRANCH   2   3
ATOM      3  C   UNL     1     -27.622 -16.678  10.906  1.00  0.00     0.041 C 
ATOM      4  O   UNL     1     -28.125 -16.719   9.752  1.00  0.00    -0.550 OA
ATOM      5  O   UNL     1     -26.589 -15.789  11.174  1.00  0.00    -0.550 OA
ENDBRANCH   2   3
ENDBRANCH   1   2
BRANCH   1   6
ATOM      6  C   UNL     1     -26.999 -18.282  14.146  1.00  0.00     0.000 C 
BRANCH   6   7
ATOM      7  C   UNL     1     -28.125 -19.165  14.706  1.00  0.00    -0.003 C 
ATOM      8  C   UNL     1     -28.065 -20.600  14.185  1.00  0.00     0.004 C 
ENDBRANCH   6   7
ENDBRANCH   1   6
TORSDOF 4
ENDMDL
MODEL 8
REMARK VINA RESULT:    -2.537     15.935     16.452
REMARK INTER + INTRA:          -3.263
REMARK INTER:                  -3.186
REMARK INTRA:                  -0.077
REMARK UNBOUND:                -0.133
REMARK SMILES CCCCCC(=O)[O-]
REMARK SMILES IDX 4 1 5 2 6 3 7 4 8 5 3 6 2 7 1 8
REMARK H PARENT
REMARK Flexibility Score: inf
ROOT
ATOM      1  C   UNL     1     -10.538 -17.065  12.877  1.00  0.00     0.006 C 
ENDROOT
BRANCH   1   2
ATOM      2  C   UNL     1     -10.163 -16.852  14.347  1.00  0.00     0.053 C 
BRANCH   2   3
ATOM      3  C   UNL     1     -11.272 -17.306  15.243  1.00  0.00     0.041 C 
ATOM      4  O   UNL     1     -12.066 -16.466  15.743  1.00  0.00    -0.550 OA
ATOM      5  O   UNL     1     -11.398 -18.650  15.568  1.00  0.00    -0.550 OA
ENDBRANCH   2   3
ENDBRANCH   1   2
BRANCH   1   6
ATOM      6  C   UNL     1      -9.493 -17.937  12.165  1.00  0.00     0.000 C 
BRANCH   6   7
ATOM      7  C   UNL     1      -9.850 -18.202  10.694  1.00  0.00    -0.003 C 
ATOM      8  C   UNL     1      -9.541 -17.012   9.787  1.00  0.00     0.004 C 
ENDBRANCH   6   7
ENDBRANCH   1   6
TORSDOF 4
ENDMDL
MODEL 9
REMARK VINA RESULT:    -2.469     17.293     17.937
REMARK INTER + INTRA:          -3.179
REMARK INTER:                  -3.068
REMARK INTRA:                  -0.111
REMARK UNBOUND:                -0.133
REMARK SMILES CCCCCC(=O)[O-]
REMARK SMILES IDX 4 1 5 2 6 3 7 4 8 5 3 6 2 7 1 8
REMARK H PARENT
REMARK Flexibility Score: inf
ROOT
ATOM      1  C   UNL     1     -10.008 -17.506  11.847  1.00  0.00     0.006 C 
ENDROOT
BRANCH   1   2
ATOM      2  C   UNL     1      -9.870 -18.657  10.846  1.00  0.00     0.053 C 
BRANCH   2   3
ATOM      3  C   UNL     1      -8.841 -18.332   9.809  1.00  0.00     0.041 C 
ATOM      4  O   UNL     1      -8.469 -19.211   8.988  1.00  0.00    -0.550 OA
ATOM      5  O   UNL     1      -8.254 -17.073   9.782  1.00  0.00    -0.550 OA
ENDBRANCH   2   3
ENDBRANCH   1   2
BRANCH   1   6
ATOM      6  C   UNL     1      -9.260 -17.820  13.151  1.00  0.00     0.000 C 
BRANCH   6   7
ATOM      7  C   UNL     1      -9.637 -16.863  14.293  1.00  0.00    -0.003 C 
ATOM      8  C   UNL     1     -11.147 -16.703  14.456  1.00  0.00     0.004 C 
ENDBRANCH   6   7
ENDBRANCH   1   6
TORSDOF 4
ENDMDL
