MODEL 1
REMARK VINA RESULT:    -4.056      0.000      0.000
REMARK INTER + INTRA:         -16.961
REMARK INTER:                 -10.694
REMARK INTRA:                  -6.267
REMARK UNBOUND:                -6.267
REMARK SMILES CCCCCCCCCCCCCCCCCCCCCCCCCCCCCC(=O)[O-]
REMARK SMILES IDX 16 1 17 2 18 3 19 4 20 5 21 6 22 7 23 8 24 9 25 10 26 11
REMARK SMILES IDX 27 12 28 13 29 14 30 15 31 16 32 17 15 18 14 19 13 20 12 21
REMARK SMILES IDX 11 22 10 23 9 24 8 25 7 26 6 27 5 28 4 29 3 30 2 31 1 32
REMARK H PARENT
REMARK Flexibility Score: inf
ROOT
ATOM      1  C   UNL     1      47.224  -3.041  75.790  1.00  0.00     0.000 C 
ENDROOT
BRANCH   1   2
ATOM      2  C   UNL     1      48.314  -2.117  75.219  1.00  0.00     0.000 C 
BRANCH   2   3
ATOM      3  C   UNL     1      49.642  -2.120  76.002  1.00  0.00     0.000 C 
BRANCH   3   4
ATOM      4  C   UNL     1      49.469  -1.855  77.514  1.00  0.00     0.000 C 
BRANCH   4   5
ATOM      5  C   UNL     1      49.981  -3.024  78.373  1.00  0.00     0.000 C 
BRANCH   5   6
ATOM      6  C   UNL     1      50.440  -4.223  77.524  1.00  0.00     0.000 C 
BRANCH   6   7
ATOM      7  C   UNL     1      49.893  -5.561  78.050  1.00  0.00     0.000 C 
BRANCH   7   8
ATOM      8  C   UNL     1      48.509  -5.419  78.703  1.00  0.00     0.000 C 
BRANCH   8   9
ATOM      9  C   UNL     1      47.614  -6.651  78.482  1.00  0.00     0.000 C 
BRANCH   9  10
ATOM     10  C   UNL     1      48.409  -7.848  77.915  1.00  0.00     0.000 C 
BRANCH  10  11
ATOM     11  C   UNL     1      47.690  -8.578  76.768  1.00  0.00     0.000 C 
BRANCH  11  12
ATOM     12  C   UNL     1      46.172  -8.332  76.761  1.00  0.00     0.000 C 
BRANCH  12  13
ATOM     13  C   UNL     1      45.667  -7.830  75.399  1.00  0.00     0.006 C 
BRANCH  13  14
ATOM     14  C   UNL     1      46.498  -8.374  74.228  1.00  0.00     0.053 C 
BRANCH  14  15
ATOM     15  C   UNL     1      45.608  -8.750  73.087  1.00  0.00     0.041 C 
ATOM     16  O   UNL     1      44.493  -9.295  73.306  1.00  0.00    -0.550 OA
ATOM     17  O   UNL     1      45.988  -8.457  71.783  1.00  0.00    -0.550 OA
ENDBRANCH  14  15
ENDBRANCH  13  14
ENDBRANCH  12  13
ENDBRANCH  11  12
ENDBRANCH  10  11
ENDBRANCH   9  10
ENDBRANCH   8   9
ENDBRANCH   7   8
ENDBRANCH   6   7
ENDBRANCH   5   6
ENDBRANCH   4   5
ENDBRANCH   3   4
ENDBRANCH   2   3
ENDBRANCH   1   2
BRANCH   1  18
ATOM     18  C   UNL     1      47.293  -4.504  75.311  1.00  0.00     0.000 C 
BRANCH  18  19
ATOM     19  C   UNL     1      47.104  -4.675  73.789  1.00  0.00     0.000 C 
BRANCH  19  20
ATOM     20  C   UNL     1      48.336  -5.287  73.107  1.00  0.00     0.000 C 
BRANCH  20  21
ATOM     21  C   UNL     1      49.344  -5.796  74.143  1.00  0.00     0.000 C 
BRANCH  21  22
ATOM     22  C   UNL     1      50.712  -5.121  73.959  1.00  0.00     0.000 C 
BRANCH  22  23
ATOM     23  C   UNL     1      50.766  -4.209  72.724  1.00  0.00     0.000 C 
BRANCH  23  24
ATOM     24  C   UNL     1      51.605  -2.943  72.949  1.00  0.00    -0.000 C 
BRANCH  24  25
ATOM     25  C   UNL     1      50.989  -1.739  72.220  1.00  0.00    -0.000 C 
BRANCH  25  26
ATOM     26  C   UNL     1      49.531  -1.985  71.798  1.00  0.00    -0.000 C 
BRANCH  26  27
ATOM     27  C   UNL     1      48.719  -0.681  71.690  1.00  0.00    -0.000 C 
BRANCH  27  28
ATOM     28  C   UNL     1      49.322   0.453  72.545  1.00  0.00    -0.000 C 
BRANCH  28  29
ATOM     29  C   UNL     1      48.278   1.457  73.065  1.00  0.00    -0.000 C 
BRANCH  29  30
ATOM     30  C   UNL     1      48.628   2.020  74.452  1.00  0.00    -0.000 C 
BRANCH  30  31
ATOM     31  C   UNL     1      47.641   1.569  75.539  1.00  0.00    -0.003 C 
ATOM     32  C   UNL     1      46.328   1.040  74.962  1.00  0.00     0.004 C 
ENDBRANCH  30  31
ENDBRANCH  29  30
ENDBRANCH  28  29
ENDBRANCH  27  28
ENDBRANCH  26  27
ENDBRANCH  25  26
ENDBRANCH  24  25
ENDBRANCH  23  24
ENDBRANCH  22  23
ENDBRANCH  21  22
ENDBRANCH  20  21
ENDBRANCH  19  20
ENDBRANCH  18  19
ENDBRANCH   1  18
TORSDOF 28
ENDMDL
MODEL 2
REMARK VINA RESULT:    -4.019      1.616      4.937
REMARK INTER + INTRA:         -16.864
REMARK INTER:                 -10.661
REMARK INTRA:                  -6.203
REMARK UNBOUND:                -6.267
REMARK SMILES CCCCCCCCCCCCCCCCCCCCCCCCCCCCCC(=O)[O-]
REMARK SMILES IDX 16 1 17 2 18 3 19 4 20 5 21 6 22 7 23 8 24 9 25 10 26 11
REMARK SMILES IDX 27 12 28 13 29 14 30 15 31 16 32 17 15 18 14 19 13 20 12 21
REMARK SMILES IDX 11 22 10 23 9 24 8 25 7 26 6 27 5 28 4 29 3 30 2 31 1 32
REMARK H PARENT
REMARK Flexibility Score: inf
ROOT
ATOM      1  C   UNL     1      47.903  -5.742  78.633  1.00  0.00     0.000 C 
ENDROOT
BRANCH   1   2
ATOM      2  C   UNL     1      48.458  -7.019  77.977  1.00  0.00     0.000 C 
BRANCH   2   3
ATOM      3  C   UNL     1      48.179  -7.145  76.466  1.00  0.00     0.000 C 
BRANCH   3   4
ATOM      4  C   UNL     1      49.447  -7.036  75.592  1.00  0.00     0.000 C 
BRANCH   4   5
ATOM      5  C   UNL     1      50.725  -6.880  76.434  1.00  0.00     0.000 C 
BRANCH   5   6
ATOM      6  C   UNL     1      51.454  -5.553  76.160  1.00  0.00     0.000 C 
BRANCH   6   7
ATOM      7  C   UNL     1      50.715  -4.675  75.137  1.00  0.00     0.000 C 
BRANCH   7   8
ATOM      8  C   UNL     1      50.320  -3.305  75.710  1.00  0.00     0.000 C 
BRANCH   8   9
ATOM      9  C   UNL     1      49.002  -2.768  75.124  1.00  0.00     0.000 C 
BRANCH   9  10
ATOM     10  C   UNL     1      47.798  -3.661  75.495  1.00  0.00     0.000 C 
BRANCH  10  11
ATOM     11  C   UNL     1      46.941  -4.075  74.287  1.00  0.00     0.000 C 
BRANCH  11  12
ATOM     12  C   UNL     1      47.747  -4.154  72.981  1.00  0.00     0.000 C 
BRANCH  12  13
ATOM     13  C   UNL     1      47.987  -5.603  72.528  1.00  0.00     0.006 C 
BRANCH  13  14
ATOM     14  C   UNL     1      46.689  -6.312  72.118  1.00  0.00     0.053 C 
BRANCH  14  15
ATOM     15  C   UNL     1      46.427  -7.480  73.015  1.00  0.00     0.041 C 
ATOM     16  O   UNL     1      47.132  -8.520  72.924  1.00  0.00    -0.550 OA
ATOM     17  O   UNL     1      45.432  -7.404  73.982  1.00  0.00    -0.550 OA
ENDBRANCH  14  15
ENDBRANCH  13  14
ENDBRANCH  12  13
ENDBRANCH  11  12
ENDBRANCH  10  11
ENDBRANCH   9  10
ENDBRANCH   8   9
ENDBRANCH   7   8
ENDBRANCH   6   7
ENDBRANCH   5   6
ENDBRANCH   4   5
ENDBRANCH   3   4
ENDBRANCH   2   3
ENDBRANCH   1   2
BRANCH   1  18
ATOM     18  C   UNL     1      48.922  -4.596  78.793  1.00  0.00     0.000 C 
BRANCH  18  19
ATOM     19  C   UNL     1      48.356  -3.351  79.507  1.00  0.00     0.000 C 
BRANCH  19  20
ATOM     20  C   UNL     1      46.933  -3.002  79.046  1.00  0.00     0.000 C 
BRANCH  20  21
ATOM     21  C   UNL     1      46.902  -1.645  78.333  1.00  0.00     0.000 C 
BRANCH  21  22
ATOM     22  C   UNL     1      45.627  -1.496  77.490  1.00  0.00     0.000 C 
BRANCH  22  23
ATOM     23  C   UNL     1      45.540  -0.138  76.774  1.00  0.00     0.000 C 
BRANCH  23  24
ATOM     24  C   UNL     1      46.915   0.417  76.374  1.00  0.00    -0.000 C 
BRANCH  24  25
ATOM     25  C   UNL     1      47.110   0.353  74.851  1.00  0.00    -0.000 C 
BRANCH  25  26
ATOM     26  C   UNL     1      48.384   1.078  74.386  1.00  0.00    -0.000 C 
BRANCH  26  27
ATOM     27  C   UNL     1      48.606   0.965  72.867  1.00  0.00    -0.000 C 
BRANCH  27  28
ATOM     28  C   UNL     1      48.170  -0.408  72.314  1.00  0.00    -0.000 C 
BRANCH  28  29
ATOM     29  C   UNL     1      49.316  -1.207  71.669  1.00  0.00    -0.000 C 
BRANCH  29  30
ATOM     30  C   UNL     1      50.663  -1.002  72.383  1.00  0.00    -0.000 C 
BRANCH  30  31
ATOM     31  C   UNL     1      51.541  -2.262  72.357  1.00  0.00    -0.003 C 
ATOM     32  C   UNL     1      52.998  -1.975  72.722  1.00  0.00     0.004 C 
ENDBRANCH  30  31
ENDBRANCH  29  30
ENDBRANCH  28  29
ENDBRANCH  27  28
ENDBRANCH  26  27
ENDBRANCH  25  26
ENDBRANCH  24  25
ENDBRANCH  23  24
ENDBRANCH  22  23
ENDBRANCH  21  22
ENDBRANCH  20  21
ENDBRANCH  19  20
ENDBRANCH  18  19
ENDBRANCH   1  18
TORSDOF 28
ENDMDL
MODEL 3
REMARK VINA RESULT:    -4.017      1.839      3.127
REMARK INTER + INTRA:         -16.858
REMARK INTER:                 -12.102
REMARK INTRA:                  -4.756
REMARK UNBOUND:                -6.267
REMARK SMILES CCCCCCCCCCCCCCCCCCCCCCCCCCCCCC(=O)[O-]
REMARK SMILES IDX 16 1 17 2 18 3 19 4 20 5 21 6 22 7 23 8 24 9 25 10 26 11
REMARK SMILES IDX 27 12 28 13 29 14 30 15 31 16 32 17 15 18 14 19 13 20 12 21
REMARK SMILES IDX 11 22 10 23 9 24 8 25 7 26 6 27 5 28 4 29 3 30 2 31 1 32
REMARK H PARENT
REMARK Flexibility Score: inf
ROOT
ATOM      1  C   UNL     1      48.916  -2.759  77.056  1.00  0.00     0.000 C 
ENDROOT
BRANCH   1   2
ATOM      2  C   UNL     1      49.589  -1.461  77.537  1.00  0.00     0.000 C 
BRANCH   2   3
ATOM      3  C   UNL     1      49.339  -1.112  79.017  1.00  0.00     0.000 C 
BRANCH   3   4
ATOM      4  C   UNL     1      49.540  -2.304  79.978  1.00  0.00     0.000 C 
BRANCH   4   5
ATOM      5  C   UNL     1      50.860  -2.205  80.763  1.00  0.00     0.000 C 
BRANCH   5   6
ATOM      6  C   UNL     1      52.065  -2.721  79.958  1.00  0.00     0.000 C 
BRANCH   6   7
ATOM      7  C   UNL     1      52.762  -3.912  80.639  1.00  0.00     0.000 C 
BRANCH   7   8
ATOM      8  C   UNL     1      52.788  -5.167  79.752  1.00  0.00     0.000 C 
BRANCH   8   9
ATOM      9  C   UNL     1      51.690  -5.161  78.674  1.00  0.00     0.000 C 
BRANCH   9  10
ATOM     10  C   UNL     1      51.498  -6.555  78.037  1.00  0.00     0.000 C 
BRANCH  10  11
ATOM     11  C   UNL     1      50.051  -7.071  78.102  1.00  0.00     0.000 C 
BRANCH  11  12
ATOM     12  C   UNL     1      49.048  -5.984  78.520  1.00  0.00     0.000 C 
BRANCH  12  13
ATOM     13  C   UNL     1      47.590  -6.419  78.303  1.00  0.00     0.006 C 
BRANCH  13  14
ATOM     14  C   UNL     1      47.449  -7.938  78.139  1.00  0.00     0.053 C 
BRANCH  14  15
ATOM     15  C   UNL     1      46.904  -8.269  76.786  1.00  0.00     0.041 C 
ATOM     16  O   UNL     1      45.755  -8.775  76.672  1.00  0.00    -0.550 OA
ATOM     17  O   UNL     1      47.644  -7.977  75.647  1.00  0.00    -0.550 OA
ENDBRANCH  14  15
ENDBRANCH  13  14
ENDBRANCH  12  13
ENDBRANCH  11  12
ENDBRANCH  10  11
ENDBRANCH   9  10
ENDBRANCH   8   9
ENDBRANCH   7   8
ENDBRANCH   6   7
ENDBRANCH   5   6
ENDBRANCH   4   5
ENDBRANCH   3   4
ENDBRANCH   2   3
ENDBRANCH   1   2
BRANCH   1  18
ATOM     18  C   UNL     1      47.408  -2.862  77.357  1.00  0.00     0.000 C 
BRANCH  18  19
ATOM     19  C   UNL     1      46.541  -3.161  76.116  1.00  0.00     0.000 C 
BRANCH  19  20
ATOM     20  C   UNL     1      47.381  -3.537  74.887  1.00  0.00     0.000 C 
BRANCH  20  21
ATOM     21  C   UNL     1      46.896  -4.854  74.270  1.00  0.00     0.000 C 
BRANCH  21  22
ATOM     22  C   UNL     1      47.663  -5.173  72.977  1.00  0.00     0.000 C 
BRANCH  22  23
ATOM     23  C   UNL     1      48.317  -3.932  72.350  1.00  0.00     0.000 C 
BRANCH  23  24
ATOM     24  C   UNL     1      49.820  -4.111  72.093  1.00  0.00    -0.000 C 
BRANCH  24  25
ATOM     25  C   UNL     1      50.622  -3.960  73.395  1.00  0.00    -0.000 C 
BRANCH  25  26
ATOM     26  C   UNL     1      51.350  -2.609  73.489  1.00  0.00    -0.000 C 
BRANCH  26  27
ATOM     27  C   UNL     1      51.261  -1.798  72.184  1.00  0.00    -0.000 C 
BRANCH  27  28
ATOM     28  C   UNL     1      50.507  -0.465  72.375  1.00  0.00    -0.000 C 
BRANCH  28  29
ATOM     29  C   UNL     1      49.138  -0.424  71.674  1.00  0.00    -0.000 C 
BRANCH  29  30
ATOM     30  C   UNL     1      47.997   0.003  72.613  1.00  0.00    -0.000 C 
BRANCH  30  31
ATOM     31  C   UNL     1      48.299  -0.307  74.087  1.00  0.00    -0.003 C 
ATOM     32  C   UNL     1      47.375   0.438  75.050  1.00  0.00     0.004 C 
ENDBRANCH  30  31
ENDBRANCH  29  30
ENDBRANCH  28  29
ENDBRANCH  27  28
ENDBRANCH  26  27
ENDBRANCH  25  26
ENDBRANCH  24  25
ENDBRANCH  23  24
ENDBRANCH  22  23
ENDBRANCH  21  22
ENDBRANCH  20  21
ENDBRANCH  19  20
ENDBRANCH  18  19
ENDBRANCH   1  18
TORSDOF 28
ENDMDL
MODEL 4
REMARK VINA RESULT:    -3.974      3.287      7.358
REMARK INTER + INTRA:         -16.747
REMARK INTER:                 -10.999
REMARK INTRA:                  -5.747
REMARK UNBOUND:                -6.267
REMARK SMILES CCCCCCCCCCCCCCCCCCCCCCCCCCCCCC(=O)[O-]
REMARK SMILES IDX 16 1 17 2 18 3 19 4 20 5 21 6 22 7 23 8 24 9 25 10 26 11
REMARK SMILES IDX 27 12 28 13 29 14 30 15 31 16 32 17 15 18 14 19 13 20 12 21
REMARK SMILES IDX 11 22 10 23 9 24 8 25 7 26 6 27 5 28 4 29 3 30 2 31 1 32
REMARK H PARENT
REMARK Flexibility Score: inf
ROOT
ATOM      1  C   UNL     1      51.151  -3.622  73.596  1.00  0.00     0.000 C 
ENDROOT
BRANCH   1   2
ATOM      2  C   UNL     1      52.004  -2.352  73.428  1.00  0.00     0.000 C 
BRANCH   2   3
ATOM      3  C   UNL     1      51.710  -1.539  72.152  1.00  0.00     0.000 C 
BRANCH   3   4
ATOM      4  C   UNL     1      50.727  -0.369  72.377  1.00  0.00     0.000 C 
BRANCH   4   5
ATOM      5  C   UNL     1      49.399  -0.571  71.627  1.00  0.00     0.000 C 
BRANCH   5   6
ATOM      6  C   UNL     1      48.255  -1.002  72.561  1.00  0.00     0.000 C 
BRANCH   6   7
ATOM      7  C   UNL     1      48.321  -0.309  73.933  1.00  0.00     0.000 C 
BRANCH   7   8
ATOM      8  C   UNL     1      48.109  -1.287  75.099  1.00  0.00     0.000 C 
BRANCH   8   9
ATOM      9  C   UNL     1      49.351  -1.425  75.998  1.00  0.00     0.000 C 
BRANCH   9  10
ATOM     10  C   UNL     1      49.407  -2.800  76.700  1.00  0.00     0.000 C 
BRANCH  10  11
ATOM     11  C   UNL     1      48.526  -2.888  77.957  1.00  0.00     0.000 C 
BRANCH  11  12
ATOM     12  C   UNL     1      49.306  -3.334  79.204  1.00  0.00     0.000 C 
BRANCH  12  13
ATOM     13  C   UNL     1      50.820  -3.402  78.954  1.00  0.00     0.006 C 
BRANCH  13  14
ATOM     14  C   UNL     1      51.638  -3.170  80.232  1.00  0.00     0.053 C 
BRANCH  14  15
ATOM     15  C   UNL     1      52.782  -4.131  80.301  1.00  0.00     0.041 C 
ATOM     16  O   UNL     1      53.783  -3.873  81.022  1.00  0.00    -0.550 OA
ATOM     17  O   UNL     1      52.724  -5.332  79.606  1.00  0.00    -0.550 OA
ENDBRANCH  14  15
ENDBRANCH  13  14
ENDBRANCH  12  13
ENDBRANCH  11  12
ENDBRANCH  10  11
ENDBRANCH   9  10
ENDBRANCH   8   9
ENDBRANCH   7   8
ENDBRANCH   6   7
ENDBRANCH   5   6
ENDBRANCH   4   5
ENDBRANCH   3   4
ENDBRANCH   2   3
ENDBRANCH   1   2
BRANCH   1  18
ATOM     18  C   UNL     1      50.416  -4.087  72.323  1.00  0.00     0.000 C 
BRANCH  18  19
ATOM     19  C   UNL     1      48.983  -4.600  72.580  1.00  0.00     0.000 C 
BRANCH  19  20
ATOM     20  C   UNL     1      48.836  -5.278  73.950  1.00  0.00     0.000 C 
BRANCH  20  21
ATOM     21  C   UNL     1      49.083  -6.787  73.848  1.00  0.00     0.000 C 
BRANCH  21  22
ATOM     22  C   UNL     1      49.919  -7.290  75.035  1.00  0.00     0.000 C 
BRANCH  22  23
ATOM     23  C   UNL     1      50.012  -6.265  76.176  1.00  0.00     0.000 C 
BRANCH  23  24
ATOM     24  C   UNL     1      50.106  -6.919  77.563  1.00  0.00    -0.000 C 
BRANCH  24  25
ATOM     25  C   UNL     1      48.809  -6.706  78.358  1.00  0.00    -0.000 C 
BRANCH  25  26
ATOM     26  C   UNL     1      47.560  -6.686  77.462  1.00  0.00    -0.000 C 
BRANCH  26  27
ATOM     27  C   UNL     1      46.706  -7.958  77.609  1.00  0.00    -0.000 C 
BRANCH  27  28
ATOM     28  C   UNL     1      46.825  -8.885  76.381  1.00  0.00    -0.000 C 
BRANCH  28  29
ATOM     29  C   UNL     1      45.525  -8.999  75.565  1.00  0.00    -0.000 C 
BRANCH  29  30
ATOM     30  C   UNL     1      45.475  -8.021  74.379  1.00  0.00    -0.000 C 
BRANCH  30  31
ATOM     31  C   UNL     1      44.567  -6.812  74.649  1.00  0.00    -0.003 C 
ATOM     32  C   UNL     1      45.301  -5.478  74.509  1.00  0.00     0.004 C 
ENDBRANCH  30  31
ENDBRANCH  29  30
ENDBRANCH  28  29
ENDBRANCH  27  28
ENDBRANCH  26  27
ENDBRANCH  25  26
ENDBRANCH  24  25
ENDBRANCH  23  24
ENDBRANCH  22  23
ENDBRANCH  21  22
ENDBRANCH  20  21
ENDBRANCH  19  20
ENDBRANCH  18  19
ENDBRANCH   1  18
TORSDOF 28
ENDMDL
MODEL 5
REMARK VINA RESULT:    -3.959      2.950      5.944
REMARK INTER + INTRA:         -16.706
REMARK INTER:                 -10.921
REMARK INTRA:                  -5.785
REMARK UNBOUND:                -6.267
REMARK SMILES CCCCCCCCCCCCCCCCCCCCCCCCCCCCCC(=O)[O-]
REMARK SMILES IDX 16 1 17 2 18 3 19 4 20 5 21 6 22 7 23 8 24 9 25 10 26 11
REMARK SMILES IDX 27 12 28 13 29 14 30 15 31 16 32 17 15 18 14 19 13 20 12 21
REMARK SMILES IDX 11 22 10 23 9 24 8 25 7 26 6 27 5 28 4 29 3 30 2 31 1 32
REMARK H PARENT
REMARK Flexibility Score: inf
ROOT
ATOM      1  C   UNL     1      50.680  -5.714  74.003  1.00  0.00     0.000 C 
ENDROOT
BRANCH   1   2
ATOM      2  C   UNL     1      50.656  -7.077  74.716  1.00  0.00     0.000 C 
BRANCH   2   3
ATOM      3  C   UNL     1      49.420  -7.946  74.409  1.00  0.00     0.000 C 
BRANCH   3   4
ATOM      4  C   UNL     1      48.343  -7.903  75.516  1.00  0.00     0.000 C 
BRANCH   4   5
ATOM      5  C   UNL     1      48.655  -8.868  76.672  1.00  0.00     0.000 C 
BRANCH   5   6
ATOM      6  C   UNL     1      48.569  -8.187  78.049  1.00  0.00     0.000 C 
BRANCH   6   7
ATOM      7  C   UNL     1      47.883  -6.812  77.984  1.00  0.00     0.000 C 
BRANCH   7   8
ATOM      8  C   UNL     1      48.778  -5.680  78.511  1.00  0.00     0.000 C 
BRANCH   8   9
ATOM      9  C   UNL     1      50.255  -5.851  78.115  1.00  0.00     0.000 C 
BRANCH   9  10
ATOM     10  C   UNL     1      51.138  -4.713  78.673  1.00  0.00     0.000 C 
BRANCH  10  11
ATOM     11  C   UNL     1      50.436  -3.345  78.703  1.00  0.00     0.000 C 
BRANCH  11  12
ATOM     12  C   UNL     1      50.494  -2.674  80.085  1.00  0.00     0.000 C 
BRANCH  12  13
ATOM     13  C   UNL     1      49.259  -1.804  80.365  1.00  0.00     0.006 C 
BRANCH  13  14
ATOM     14  C   UNL     1      47.943  -2.566  80.152  1.00  0.00     0.053 C 
BRANCH  14  15
ATOM     15  C   UNL     1      47.133  -1.917  79.075  1.00  0.00     0.041 C 
ATOM     16  O   UNL     1      47.633  -0.998  78.373  1.00  0.00    -0.550 OA
ATOM     17  O   UNL     1      45.840  -2.356  78.818  1.00  0.00    -0.550 OA
ENDBRANCH  14  15
ENDBRANCH  13  14
ENDBRANCH  12  13
ENDBRANCH  11  12
ENDBRANCH  10  11
ENDBRANCH   9  10
ENDBRANCH   8   9
ENDBRANCH   7   8
ENDBRANCH   6   7
ENDBRANCH   5   6
ENDBRANCH   4   5
ENDBRANCH   3   4
ENDBRANCH   2   3
ENDBRANCH   1   2
BRANCH   1  18
ATOM     18  C   UNL     1      51.748  -4.728  74.517  1.00  0.00     0.000 C 
BRANCH  18  19
ATOM     19  C   UNL     1      53.147  -4.944  73.904  1.00  0.00     0.000 C 
BRANCH  19  20
ATOM     20  C   UNL     1      53.664  -3.703  73.162  1.00  0.00     0.000 C 
BRANCH  20  21
ATOM     21  C   UNL     1      52.911  -2.443  73.603  1.00  0.00     0.000 C 
BRANCH  21  22
ATOM     22  C   UNL     1      52.507  -1.590  72.391  1.00  0.00     0.000 C 
BRANCH  22  23
ATOM     23  C   UNL     1      51.008  -1.250  72.373  1.00  0.00     0.000 C 
BRANCH  23  24
ATOM     24  C   UNL     1      50.135  -2.411  71.877  1.00  0.00    -0.000 C 
BRANCH  24  25
ATOM     25  C   UNL     1      48.953  -2.655  72.828  1.00  0.00    -0.000 C 
BRANCH  25  26
ATOM     26  C   UNL     1      48.821  -1.561  73.900  1.00  0.00    -0.000 C 
BRANCH  26  27
ATOM     27  C   UNL     1      49.015  -2.105  75.327  1.00  0.00    -0.000 C 
BRANCH  27  28
ATOM     28  C   UNL     1      48.434  -3.525  75.493  1.00  0.00    -0.000 C 
BRANCH  28  29
ATOM     29  C   UNL     1      46.898  -3.558  75.576  1.00  0.00    -0.000 C 
BRANCH  29  30
ATOM     30  C   UNL     1      46.296  -4.858  75.017  1.00  0.00    -0.000 C 
BRANCH  30  31
ATOM     31  C   UNL     1      46.721  -5.129  73.566  1.00  0.00    -0.003 C 
ATOM     32  C   UNL     1      46.017  -6.343  72.960  1.00  0.00     0.004 C 
ENDBRANCH  30  31
ENDBRANCH  29  30
ENDBRANCH  28  29
ENDBRANCH  27  28
ENDBRANCH  26  27
ENDBRANCH  25  26
ENDBRANCH  24  25
ENDBRANCH  23  24
ENDBRANCH  22  23
ENDBRANCH  21  22
ENDBRANCH  20  21
ENDBRANCH  19  20
ENDBRANCH  18  19
ENDBRANCH   1  18
TORSDOF 28
ENDMDL
MODEL 6
REMARK VINA RESULT:    -3.893      3.328      7.937
REMARK INTER + INTRA:         -16.531
REMARK INTER:                 -11.197
REMARK INTRA:                  -5.334
REMARK UNBOUND:                -6.267
REMARK SMILES CCCCCCCCCCCCCCCCCCCCCCCCCCCCCC(=O)[O-]
REMARK SMILES IDX 16 1 17 2 18 3 19 4 20 5 21 6 22 7 23 8 24 9 25 10 26 11
REMARK SMILES IDX 27 12 28 13 29 14 30 15 31 16 32 17 15 18 14 19 13 20 12 21
REMARK SMILES IDX 11 22 10 23 9 24 8 25 7 26 6 27 5 28 4 29 3 30 2 31 1 32
REMARK H PARENT
REMARK Flexibility Score: inf
ROOT
ATOM      1  C   UNL     1      47.502  -4.609  73.986  1.00  0.00     0.000 C 
ENDROOT
BRANCH   1   2
ATOM      2  C   UNL     1      47.888  -3.938  72.656  1.00  0.00     0.000 C 
BRANCH   2   3
ATOM      3  C   UNL     1      49.388  -4.003  72.309  1.00  0.00     0.000 C 
BRANCH   3   4
ATOM      4  C   UNL     1      50.086  -2.625  72.318  1.00  0.00     0.000 C 
BRANCH   4   5
ATOM      5  C   UNL     1      49.235  -1.536  71.641  1.00  0.00     0.000 C 
BRANCH   5   6
ATOM      6  C   UNL     1      49.261  -0.204  72.410  1.00  0.00     0.000 C 
BRANCH   6   7
ATOM      7  C   UNL     1      48.193  -0.142  73.516  1.00  0.00     0.000 C 
BRANCH   7   8
ATOM      8  C   UNL     1      48.802  -0.162  74.927  1.00  0.00     0.000 C 
BRANCH   8   9
ATOM      9  C   UNL     1      48.743  -1.552  75.585  1.00  0.00     0.000 C 
BRANCH   9  10
ATOM     10  C   UNL     1      50.145  -2.059  75.990  1.00  0.00     0.000 C 
BRANCH  10  11
ATOM     11  C   UNL     1      50.302  -2.298  77.501  1.00  0.00     0.000 C 
BRANCH  11  12
ATOM     12  C   UNL     1      51.073  -1.172  78.208  1.00  0.00     0.000 C 
BRANCH  12  13
ATOM     13  C   UNL     1      51.634  -1.613  79.569  1.00  0.00     0.006 C 
BRANCH  13  14
ATOM     14  C   UNL     1      51.278  -3.067  79.909  1.00  0.00     0.053 C 
BRANCH  14  15
ATOM     15  C   UNL     1      52.518  -3.861  80.169  1.00  0.00     0.041 C 
ATOM     16  O   UNL     1      52.671  -4.990  79.632  1.00  0.00    -0.550 OA
ATOM     17  O   UNL     1      53.525  -3.336  80.969  1.00  0.00    -0.550 OA
ENDBRANCH  14  15
ENDBRANCH  13  14
ENDBRANCH  12  13
ENDBRANCH  11  12
ENDBRANCH  10  11
ENDBRANCH   9  10
ENDBRANCH   8   9
ENDBRANCH   7   8
ENDBRANCH   6   7
ENDBRANCH   5   6
ENDBRANCH   4   5
ENDBRANCH   3   4
ENDBRANCH   2   3
ENDBRANCH   1   2
BRANCH   1  18
ATOM     18  C   UNL     1      48.466  -5.714  74.463  1.00  0.00     0.000 C 
BRANCH  18  19
ATOM     19  C   UNL     1      48.930  -5.551  75.926  1.00  0.00     0.000 C 
BRANCH  19  20
ATOM     20  C   UNL     1      47.849  -4.929  76.822  1.00  0.00     0.000 C 
BRANCH  20  21
ATOM     21  C   UNL     1      48.002  -5.395  78.274  1.00  0.00     0.000 C 
BRANCH  21  22
ATOM     22  C   UNL     1      48.384  -6.881  78.339  1.00  0.00     0.000 C 
BRANCH  22  23
ATOM     23  C   UNL     1      47.180  -7.796  78.614  1.00  0.00     0.000 C 
BRANCH  23  24
ATOM     24  C   UNL     1      47.239  -9.116  77.832  1.00  0.00    -0.000 C 
BRANCH  24  25
ATOM     25  C   UNL     1      47.256  -8.857  76.318  1.00  0.00    -0.000 C 
BRANCH  25  26
ATOM     26  C   UNL     1      45.851  -8.888  75.695  1.00  0.00    -0.000 C 
BRANCH  26  27
ATOM     27  C   UNL     1      45.330  -7.484  75.339  1.00  0.00    -0.000 C 
BRANCH  27  28
ATOM     28  C   UNL     1      44.897  -7.380  73.861  1.00  0.00    -0.000 C 
BRANCH  28  29
ATOM     29  C   UNL     1      44.759  -8.743  73.160  1.00  0.00    -0.000 C 
BRANCH  29  30
ATOM     30  C   UNL     1      45.613  -8.850  71.886  1.00  0.00    -0.000 C 
BRANCH  30  31
ATOM     31  C   UNL     1      46.711  -7.777  71.820  1.00  0.00    -0.003 C 
ATOM     32  C   UNL     1      48.115  -8.357  71.988  1.00  0.00     0.004 C 
ENDBRANCH  30  31
ENDBRANCH  29  30
ENDBRANCH  28  29
ENDBRANCH  27  28
ENDBRANCH  26  27
ENDBRANCH  25  26
ENDBRANCH  24  25
ENDBRANCH  23  24
ENDBRANCH  22  23
ENDBRANCH  21  22
ENDBRANCH  20  21
ENDBRANCH  19  20
ENDBRANCH  18  19
ENDBRANCH   1  18
TORSDOF 28
ENDMDL
MODEL 7
REMARK VINA RESULT:    -3.833      2.500      7.132
REMARK INTER + INTRA:         -16.373
REMARK INTER:                 -11.286
REMARK INTRA:                  -5.088
REMARK UNBOUND:                -6.267
REMARK SMILES CCCCCCCCCCCCCCCCCCCCCCCCCCCCCC(=O)[O-]
REMARK SMILES IDX 16 1 17 2 18 3 19 4 20 5 21 6 22 7 23 8 24 9 25 10 26 11
REMARK SMILES IDX 27 12 28 13 29 14 30 15 31 16 32 17 15 18 14 19 13 20 12 21
REMARK SMILES IDX 11 22 10 23 9 24 8 25 7 26 6 27 5 28 4 29 3 30 2 31 1 32
REMARK H PARENT
REMARK Flexibility Score: inf
ROOT
ATOM      1  C   UNL     1      49.556  -3.155  78.599  1.00  0.00     0.000 C 
ENDROOT
BRANCH   1   2
ATOM      2  C   UNL     1      50.091  -2.028  77.697  1.00  0.00     0.000 C 
BRANCH   2   3
ATOM      3  C   UNL     1      49.714  -2.157  76.208  1.00  0.00     0.000 C 
BRANCH   3   4
ATOM      4  C   UNL     1      48.435  -1.382  75.824  1.00  0.00     0.000 C 
BRANCH   4   5
ATOM      5  C   UNL     1      48.686   0.131  75.693  1.00  0.00     0.000 C 
BRANCH   5   6
ATOM      6  C   UNL     1      47.502   0.871  75.047  1.00  0.00     0.000 C 
BRANCH   6   7
ATOM      7  C   UNL     1      47.652   1.005  73.522  1.00  0.00     0.000 C 
BRANCH   7   8
ATOM      8  C   UNL     1      49.119   1.141  73.082  1.00  0.00     0.000 C 
BRANCH   8   9
ATOM      9  C   UNL     1      49.522   0.106  72.017  1.00  0.00     0.000 C 
BRANCH   9  10
ATOM     10  C   UNL     1      48.436  -0.977  71.823  1.00  0.00     0.000 C 
BRANCH  10  11
ATOM     11  C   UNL     1      48.827  -2.351  72.391  1.00  0.00     0.000 C 
BRANCH  11  12
ATOM     12  C   UNL     1      50.195  -2.839  71.888  1.00  0.00     0.000 C 
BRANCH  12  13
ATOM     13  C   UNL     1      51.072  -3.392  73.023  1.00  0.00     0.006 C 
BRANCH  13  14
ATOM     14  C   UNL     1      52.568  -3.155  72.777  1.00  0.00     0.053 C 
BRANCH  14  15
ATOM     15  C   UNL     1      53.387  -4.143  73.545  1.00  0.00     0.041 C 
ATOM     16  O   UNL     1      52.830  -4.936  74.352  1.00  0.00    -0.550 OA
ATOM     17  O   UNL     1      54.759  -4.219  73.340  1.00  0.00    -0.550 OA
ENDBRANCH  14  15
ENDBRANCH  13  14
ENDBRANCH  12  13
ENDBRANCH  11  12
ENDBRANCH  10  11
ENDBRANCH   9  10
ENDBRANCH   8   9
ENDBRANCH   7   8
ENDBRANCH   6   7
ENDBRANCH   5   6
ENDBRANCH   4   5
ENDBRANCH   3   4
ENDBRANCH   2   3
ENDBRANCH   1   2
BRANCH   1  18
ATOM     18  C   UNL     1      48.679  -4.201  77.885  1.00  0.00     0.000 C 
BRANCH  18  19
ATOM     19  C   UNL     1      48.288  -5.402  78.772  1.00  0.00     0.000 C 
BRANCH  19  20
ATOM     20  C   UNL     1      48.335  -6.736  78.013  1.00  0.00     0.000 C 
BRANCH  20  21
ATOM     21  C   UNL     1      47.129  -7.614  78.368  1.00  0.00     0.000 C 
BRANCH  21  22
ATOM     22  C   UNL     1      47.047  -8.837  77.442  1.00  0.00     0.000 C 
BRANCH  22  23
ATOM     23  C   UNL     1      46.803  -8.458  75.973  1.00  0.00     0.000 C 
BRANCH  23  24
ATOM     24  C   UNL     1      45.451  -7.767  75.748  1.00  0.00    -0.000 C 
BRANCH  24  25
ATOM     25  C   UNL     1      45.028  -7.853  74.274  1.00  0.00    -0.000 C 
BRANCH  25  26
ATOM     26  C   UNL     1      45.871  -8.861  73.474  1.00  0.00    -0.000 C 
BRANCH  26  27
ATOM     27  C   UNL     1      46.667  -8.195  72.337  1.00  0.00    -0.000 C 
BRANCH  27  28
ATOM     28  C   UNL     1      46.198  -6.749  72.066  1.00  0.00    -0.000 C 
BRANCH  28  29
ATOM     29  C   UNL     1      47.305  -5.696  72.251  1.00  0.00    -0.000 C 
BRANCH  29  30
ATOM     30  C   UNL     1      48.343  -6.099  73.312  1.00  0.00    -0.000 C 
BRANCH  30  31
ATOM     31  C   UNL     1      48.254  -5.237  74.581  1.00  0.00    -0.003 C 
ATOM     32  C   UNL     1      46.895  -4.555  74.739  1.00  0.00     0.004 C 
ENDBRANCH  30  31
ENDBRANCH  29  30
ENDBRANCH  28  29
ENDBRANCH  27  28
ENDBRANCH  26  27
ENDBRANCH  25  26
ENDBRANCH  24  25
ENDBRANCH  23  24
ENDBRANCH  22  23
ENDBRANCH  21  22
ENDBRANCH  20  21
ENDBRANCH  19  20
ENDBRANCH  18  19
ENDBRANCH   1  18
TORSDOF 28
ENDMDL
MODEL 8
REMARK VINA RESULT:    -3.828      4.140      6.876
REMARK INTER + INTRA:         -16.360
REMARK INTER:                 -10.249
REMARK INTRA:                  -6.111
REMARK UNBOUND:                -6.267
REMARK SMILES CCCCCCCCCCCCCCCCCCCCCCCCCCCCCC(=O)[O-]
REMARK SMILES IDX 16 1 17 2 18 3 19 4 20 5 21 6 22 7 23 8 24 9 25 10 26 11
REMARK SMILES IDX 27 12 28 13 29 14 30 15 31 16 32 17 15 18 14 19 13 20 12 21
REMARK SMILES IDX 11 22 10 23 9 24 8 25 7 26 6 27 5 28 4 29 3 30 2 31 1 32
REMARK H PARENT
REMARK Flexibility Score: inf
ROOT
ATOM      1  C   UNL     1      47.797  -0.084  74.353  1.00  0.00     0.000 C 
ENDROOT
BRANCH   1   2
ATOM      2  C   UNL     1      48.827  -0.685  75.325  1.00  0.00     0.000 C 
BRANCH   2   3
ATOM      3  C   UNL     1      48.313  -0.899  76.763  1.00  0.00     0.000 C 
BRANCH   3   4
ATOM      4  C   UNL     1      46.781  -1.071  76.854  1.00  0.00     0.000 C 
BRANCH   4   5
ATOM      5  C   UNL     1      46.381  -2.334  77.638  1.00  0.00     0.000 C 
BRANCH   5   6
ATOM      6  C   UNL     1      46.945  -2.342  79.069  1.00  0.00     0.000 C 
BRANCH   6   7
ATOM      7  C   UNL     1      47.470  -3.726  79.488  1.00  0.00     0.000 C 
BRANCH   7   8
ATOM      8  C   UNL     1      47.838  -4.608  78.285  1.00  0.00     0.000 C 
BRANCH   8   9
ATOM      9  C   UNL     1      49.337  -4.952  78.232  1.00  0.00     0.000 C 
BRANCH   9  10
ATOM     10  C   UNL     1      50.222  -3.686  78.255  1.00  0.00     0.000 C 
BRANCH  10  11
ATOM     11  C   UNL     1      51.186  -3.629  79.452  1.00  0.00     0.000 C 
BRANCH  11  12
ATOM     12  C   UNL     1      50.880  -2.469  80.412  1.00  0.00     0.000 C 
BRANCH  12  13
ATOM     13  C   UNL     1      50.761  -1.121  79.682  1.00  0.00     0.006 C 
BRANCH  13  14
ATOM     14  C   UNL     1      51.947  -0.190  79.971  1.00  0.00     0.053 C 
BRANCH  14  15
ATOM     15  C   UNL     1      51.975   0.185  81.418  1.00  0.00     0.041 C 
ATOM     16  O   UNL     1      50.970   0.729  81.951  1.00  0.00    -0.550 OA
ATOM     17  O   UNL     1      53.093  -0.104  82.191  1.00  0.00    -0.550 OA
ENDBRANCH  14  15
ENDBRANCH  13  14
ENDBRANCH  12  13
ENDBRANCH  11  12
ENDBRANCH  10  11
ENDBRANCH   9  10
ENDBRANCH   8   9
ENDBRANCH   7   8
ENDBRANCH   6   7
ENDBRANCH   5   6
ENDBRANCH   4   5
ENDBRANCH   3   4
ENDBRANCH   2   3
ENDBRANCH   1   2
BRANCH   1  18
ATOM     18  C   UNL     1      48.351   0.289  72.964  1.00  0.00     0.000 C 
BRANCH  18  19
ATOM     19  C   UNL     1      48.241  -0.842  71.921  1.00  0.00     0.000 C 
BRANCH  19  20
ATOM     20  C   UNL     1      49.591  -1.517  71.638  1.00  0.00     0.000 C 
BRANCH  20  21
ATOM     21  C   UNL     1      50.747  -0.716  72.248  1.00  0.00     0.000 C 
BRANCH  21  22
ATOM     22  C   UNL     1      52.009  -1.583  72.380  1.00  0.00     0.000 C 
BRANCH  22  23
ATOM     23  C   UNL     1      51.697  -3.033  72.780  1.00  0.00     0.000 C 
BRANCH  23  24
ATOM     24  C   UNL     1      51.395  -3.191  74.277  1.00  0.00    -0.000 C 
BRANCH  24  25
ATOM     25  C   UNL     1      50.144  -4.056  74.495  1.00  0.00    -0.000 C 
BRANCH  25  26
ATOM     26  C   UNL     1      49.700  -4.791  73.219  1.00  0.00    -0.000 C 
BRANCH  26  27
ATOM     27  C   UNL     1      48.188  -4.669  72.963  1.00  0.00    -0.000 C 
BRANCH  27  28
ATOM     28  C   UNL     1      47.478  -3.832  74.048  1.00  0.00    -0.000 C 
BRANCH  28  29
ATOM     29  C   UNL     1      46.411  -4.616  74.832  1.00  0.00    -0.000 C 
BRANCH  29  30
ATOM     30  C   UNL     1      46.417  -6.120  74.512  1.00  0.00    -0.000 C 
BRANCH  30  31
ATOM     31  C   UNL     1      46.923  -6.971  75.686  1.00  0.00    -0.003 C 
ATOM     32  C   UNL     1      48.338  -7.505  75.463  1.00  0.00     0.004 C 
ENDBRANCH  30  31
ENDBRANCH  29  30
ENDBRANCH  28  29
ENDBRANCH  27  28
ENDBRANCH  26  27
ENDBRANCH  25  26
ENDBRANCH  24  25
ENDBRANCH  23  24
ENDBRANCH  22  23
ENDBRANCH  21  22
ENDBRANCH  20  21
ENDBRANCH  19  20
ENDBRANCH  18  19
ENDBRANCH   1  18
TORSDOF 28
ENDMDL
MODEL 9
REMARK VINA RESULT:    -3.823      2.702      7.663
REMARK INTER + INTRA:         -16.347
REMARK INTER:                 -10.731
REMARK INTRA:                  -5.615
REMARK UNBOUND:                -6.267
REMARK SMILES CCCCCCCCCCCCCCCCCCCCCCCCCCCCCC(=O)[O-]
REMARK SMILES IDX 16 1 17 2 18 3 19 4 20 5 21 6 22 7 23 8 24 9 25 10 26 11
REMARK SMILES IDX 27 12 28 13 29 14 30 15 31 16 32 17 15 18 14 19 13 20 12 21
REMARK SMILES IDX 11 22 10 23 9 24 8 25 7 26 6 27 5 28 4 29 3 30 2 31 1 32
REMARK H PARENT
REMARK Flexibility Score: inf
ROOT
ATOM      1  C   UNL     1      48.795  -3.175  76.374  1.00  0.00     0.000 C 
ENDROOT
BRANCH   1   2
ATOM      2  C   UNL     1      47.273  -3.390  76.458  1.00  0.00     0.000 C 
BRANCH   2   3
ATOM      3  C   UNL     1      46.678  -4.254  75.329  1.00  0.00     0.000 C 
BRANCH   3   4
ATOM      4  C   UNL     1      47.744  -4.896  74.413  1.00  0.00     0.000 C 
BRANCH   4   5
ATOM      5  C   UNL     1      47.572  -4.484  72.940  1.00  0.00     0.000 C 
BRANCH   5   6
ATOM      6  C   UNL     1      48.756  -3.653  72.418  1.00  0.00     0.000 C 
BRANCH   6   7
ATOM      7  C   UNL     1      48.507  -2.139  72.527  1.00  0.00     0.000 C 
BRANCH   7   8
ATOM      8  C   UNL     1      49.632  -1.407  73.275  1.00  0.00     0.000 C 
BRANCH   8   9
ATOM      9  C   UNL     1      50.706  -0.837  72.331  1.00  0.00     0.000 C 
BRANCH   9  10
ATOM     10  C   UNL     1      51.984  -1.705  72.318  1.00  0.00     0.000 C 
BRANCH  10  11
ATOM     11  C   UNL     1      52.318  -2.332  73.681  1.00  0.00     0.000 C 
BRANCH  11  12
ATOM     12  C   UNL     1      52.464  -3.861  73.617  1.00  0.00     0.000 C 
BRANCH  12  13
ATOM     13  C   UNL     1      51.561  -4.579  74.632  1.00  0.00     0.006 C 
BRANCH  13  14
ATOM     14  C   UNL     1      51.268  -6.032  74.233  1.00  0.00     0.053 C 
BRANCH  14  15
ATOM     15  C   UNL     1      52.390  -6.926  74.654  1.00  0.00     0.041 C 
ATOM     16  O   UNL     1      52.680  -7.047  75.875  1.00  0.00    -0.550 OA
ATOM     17  O   UNL     1      53.088  -7.661  73.704  1.00  0.00    -0.550 OA
ENDBRANCH  14  15
ENDBRANCH  13  14
ENDBRANCH  12  13
ENDBRANCH  11  12
ENDBRANCH  10  11
ENDBRANCH   9  10
ENDBRANCH   8   9
ENDBRANCH   7   8
ENDBRANCH   6   7
ENDBRANCH   5   6
ENDBRANCH   4   5
ENDBRANCH   3   4
ENDBRANCH   2   3
ENDBRANCH   1   2
BRANCH   1  18
ATOM     18  C   UNL     1      49.534  -3.212  77.726  1.00  0.00     0.000 C 
BRANCH  18  19
ATOM     19  C   UNL     1      49.139  -4.404  78.623  1.00  0.00     0.000 C 
BRANCH  19  20
ATOM     20  C   UNL     1      49.955  -5.669  78.318  1.00  0.00     0.000 C 
BRANCH  20  21
ATOM     21  C   UNL     1      49.080  -6.745  77.664  1.00  0.00     0.000 C 
BRANCH  21  22
ATOM     22  C   UNL     1      47.701  -6.818  78.337  1.00  0.00     0.000 C 
BRANCH  22  23
ATOM     23  C   UNL     1      47.116  -8.239  78.345  1.00  0.00     0.000 C 
BRANCH  23  24
ATOM     24  C   UNL     1      46.706  -8.726  76.947  1.00  0.00    -0.000 C 
BRANCH  24  25
ATOM     25  C   UNL     1      45.857  -7.669  76.225  1.00  0.00    -0.000 C 
BRANCH  25  26
ATOM     26  C   UNL     1      44.948  -8.277  75.144  1.00  0.00    -0.000 C 
BRANCH  26  27
ATOM     27  C   UNL     1      44.887  -7.416  73.870  1.00  0.00    -0.000 C 
BRANCH  27  28
ATOM     28  C   UNL     1      45.975  -7.810  72.848  1.00  0.00    -0.000 C 
BRANCH  28  29
ATOM     29  C   UNL     1      45.627  -9.066  72.029  1.00  0.00    -0.000 C 
BRANCH  29  30
ATOM     30  C   UNL     1      46.768 -10.097  72.002  1.00  0.00    -0.000 C 
BRANCH  30  31
ATOM     31  C   UNL     1      47.470 -10.236  73.362  1.00  0.00    -0.003 C 
ATOM     32  C   UNL     1      46.895 -11.371  74.210  1.00  0.00     0.004 C 
ENDBRANCH  30  31
ENDBRANCH  29  30
ENDBRANCH  28  29
ENDBRANCH  27  28
ENDBRANCH  26  27
ENDBRANCH  25  26
ENDBRANCH  24  25
ENDBRANCH  23  24
ENDBRANCH  22  23
ENDBRANCH  21  22
ENDBRANCH  20  21
ENDBRANCH  19  20
ENDBRANCH  18  19
ENDBRANCH   1  18
TORSDOF 28
ENDMDL
