MODEL 1
REMARK VINA RESULT:    -3.095      0.000      0.000
REMARK INTER + INTRA:          -4.709
REMARK INTER:                  -4.271
REMARK INTRA:                  -0.439
REMARK UNBOUND:                -0.439
REMARK SMILES CCCCCCCCO
REMARK SMILES IDX 5 1 4 2 3 3 2 4 1 5 6 6 7 7 8 8 9 9
REMARK H PARENT 9 10
REMARK Flexibility Score: inf
ROOT
ATOM      1  C   UNL     1       1.870 -28.427  46.681  1.00  0.00     0.000 C 
ENDROOT
BRANCH   1   2
ATOM      2  C   UNL     1       0.416 -28.755  47.057  1.00  0.00    -0.000 C 
BRANCH   2   3
ATOM      3  C   UNL     1       0.294 -30.191  47.578  1.00  0.00    -0.000 C 
BRANCH   3   4
ATOM      4  C   UNL     1       1.653 -30.902  47.555  1.00  0.00    -0.003 C 
ATOM      5  C   UNL     1       1.487 -32.405  47.355  1.00  0.00     0.004 C 
ENDBRANCH   3   4
ENDBRANCH   2   3
ENDBRANCH   1   2
BRANCH   1   6
ATOM      6  C   UNL     1       1.989 -27.685  45.338  1.00  0.00     0.002 C 
BRANCH   6   7
ATOM      7  C   UNL     1       2.792 -28.427  44.255  1.00  0.00     0.028 C 
BRANCH   7   8
ATOM      8  C   UNL     1       2.327 -29.874  44.048  1.00  0.00     0.156 C 
BRANCH   8   9
ATOM      9  O   UNL     1       3.366 -30.763  44.356  1.00  0.00    -0.396 OA
ATOM     10  H   UNL     1       2.974 -31.675  44.339  1.00  0.00     0.210 HD
ENDBRANCH   8   9
ENDBRANCH   7   8
ENDBRANCH   6   7
ENDBRANCH   1   6
TORSDOF 7
ENDMDL
MODEL 2
REMARK VINA RESULT:    -3.066     14.479     16.169
REMARK INTER + INTRA:          -4.669
REMARK INTER:                  -4.466
REMARK INTRA:                  -0.203
REMARK UNBOUND:                -0.439
REMARK SMILES CCCCCCCCO
REMARK SMILES IDX 5 1 4 2 3 3 2 4 1 5 6 6 7 7 8 8 9 9
REMARK H PARENT 9 10
REMARK Flexibility Score: inf
ROOT
ATOM      1  C   UNL     1       4.548 -38.201  59.971  1.00  0.00     0.000 C 
ENDROOT
BRANCH   1   2
ATOM      2  C   UNL     1       5.420 -38.199  58.706  1.00  0.00    -0.000 C 
BRANCH   2   3
ATOM      3  C   UNL     1       5.278 -36.877  57.944  1.00  0.00    -0.000 C 
BRANCH   3   4
ATOM      4  C   UNL     1       6.466 -36.655  57.000  1.00  0.00    -0.003 C 
ATOM      5  C   UNL     1       7.725 -37.335  57.529  1.00  0.00     0.004 C 
ENDBRANCH   3   4
ENDBRANCH   2   3
ENDBRANCH   1   2
BRANCH   1   6
ATOM      6  C   UNL     1       3.056 -38.433  59.670  1.00  0.00     0.002 C 
BRANCH   6   7
ATOM      7  C   UNL     1       2.139 -37.235  59.976  1.00  0.00     0.028 C 
BRANCH   7   8
ATOM      8  C   UNL     1       1.932 -37.005  61.478  1.00  0.00     0.156 C 
BRANCH   8   9
ATOM      9  O   UNL     1       1.037 -35.946  61.685  1.00  0.00    -0.396 OA
ATOM     10  H   UNL     1       1.576 -35.177  62.008  1.00  0.00     0.210 HD
ENDBRANCH   8   9
ENDBRANCH   7   8
ENDBRANCH   6   7
ENDBRANCH   1   6
TORSDOF 7
ENDMDL
MODEL 3
REMARK VINA RESULT:    -3.058      9.415     11.442
REMARK INTER + INTRA:          -4.659
REMARK INTER:                  -4.254
REMARK INTRA:                  -0.405
REMARK UNBOUND:                -0.439
REMARK SMILES CCCCCCCCO
REMARK SMILES IDX 5 1 4 2 3 3 2 4 1 5 6 6 7 7 8 8 9 9
REMARK H PARENT 9 10
REMARK Flexibility Score: inf
ROOT
ATOM      1  C   UNL     1       8.684 -40.106  45.602  1.00  0.00     0.000 C 
ENDROOT
BRANCH   1   2
ATOM      2  C   UNL     1       9.994 -39.357  45.891  1.00  0.00    -0.000 C 
BRANCH   2   3
ATOM      3  C   UNL     1       9.869 -37.873  45.527  1.00  0.00    -0.000 C 
BRANCH   3   4
ATOM      4  C   UNL     1      10.415 -36.983  46.650  1.00  0.00    -0.003 C 
ATOM      5  C   UNL     1       9.386 -36.807  47.763  1.00  0.00     0.004 C 
ENDBRANCH   3   4
ENDBRANCH   2   3
ENDBRANCH   1   2
BRANCH   1   6
ATOM      6  C   UNL     1       7.549 -39.722  46.569  1.00  0.00     0.002 C 
BRANCH   6   7
ATOM      7  C   UNL     1       6.246 -39.262  45.890  1.00  0.00     0.028 C 
BRANCH   7   8
ATOM      8  C   UNL     1       6.244 -37.768  45.544  1.00  0.00     0.156 C 
BRANCH   8   9
ATOM      9  O   UNL     1       5.148 -37.464  44.725  1.00  0.00    -0.396 OA
ATOM     10  H   UNL     1       5.152 -38.127  43.986  1.00  0.00     0.210 HD
ENDBRANCH   8   9
ENDBRANCH   7   8
ENDBRANCH   6   7
ENDBRANCH   1   6
TORSDOF 7
ENDMDL
MODEL 4
REMARK VINA RESULT:    -2.990      9.664     11.574
REMARK INTER + INTRA:          -4.565
REMARK INTER:                  -4.127
REMARK INTRA:                  -0.438
REMARK UNBOUND:                -0.439
REMARK SMILES CCCCCCCCO
REMARK SMILES IDX 5 1 4 2 3 3 2 4 1 5 6 6 7 7 8 8 9 9
REMARK H PARENT 9 10
REMARK Flexibility Score: inf
ROOT
ATOM      1  C   UNL     1       8.729 -38.035  47.951  1.00  0.00     0.000 C 
ENDROOT
BRANCH   1   2
ATOM      2  C   UNL     1       9.810 -37.879  46.870  1.00  0.00    -0.000 C 
BRANCH   2   3
ATOM      3  C   UNL     1      10.960 -38.866  47.098  1.00  0.00    -0.000 C 
BRANCH   3   4
ATOM      4  C   UNL     1      10.617 -40.251  46.538  1.00  0.00    -0.003 C 
ATOM      5  C   UNL     1      10.198 -40.165  45.073  1.00  0.00     0.004 C 
ENDBRANCH   3   4
ENDBRANCH   2   3
ENDBRANCH   1   2
BRANCH   1   6
ATOM      6  C   UNL     1       7.375 -38.496  47.383  1.00  0.00     0.002 C 
BRANCH   6   7
ATOM      7  C   UNL     1       7.133 -38.133  45.907  1.00  0.00     0.028 C 
BRANCH   7   8
ATOM      8  C   UNL     1       5.660 -38.247  45.493  1.00  0.00     0.156 C 
BRANCH   8   9
ATOM      9  O   UNL     1       5.292 -37.142  44.713  1.00  0.00    -0.396 OA
ATOM     10  H   UNL     1       4.371 -36.894  44.987  1.00  0.00     0.210 HD
ENDBRANCH   8   9
ENDBRANCH   7   8
ENDBRANCH   6   7
ENDBRANCH   1   6
TORSDOF 7
ENDMDL
MODEL 5
REMARK VINA RESULT:    -2.951      9.602     11.368
REMARK INTER + INTRA:          -4.510
REMARK INTER:                  -4.125
REMARK INTRA:                  -0.386
REMARK UNBOUND:                -0.439
REMARK SMILES CCCCCCCCO
REMARK SMILES IDX 5 1 4 2 3 3 2 4 1 5 6 6 7 7 8 8 9 9
REMARK H PARENT 9 10
REMARK Flexibility Score: inf
ROOT
ATOM      1  C   UNL     1       9.951 -38.713  45.769  1.00  0.00     0.000 C 
ENDROOT
BRANCH   1   2
ATOM      2  C   UNL     1      10.883 -38.542  46.979  1.00  0.00    -0.000 C 
BRANCH   2   3
ATOM      3  C   UNL     1      11.481 -37.131  47.015  1.00  0.00    -0.000 C 
BRANCH   3   4
ATOM      4  C   UNL     1      11.108 -36.409  48.316  1.00  0.00    -0.003 C 
ATOM      5  C   UNL     1       9.823 -35.603  48.151  1.00  0.00     0.004 C 
ENDBRANCH   3   4
ENDBRANCH   2   3
ENDBRANCH   1   2
BRANCH   1   6
ATOM      6  C   UNL     1       8.480 -38.924  46.171  1.00  0.00     0.002 C 
BRANCH   6   7
ATOM      7  C   UNL     1       7.560 -37.715  45.926  1.00  0.00     0.028 C 
BRANCH   7   8
ATOM      8  C   UNL     1       6.101 -38.112  45.670  1.00  0.00     0.156 C 
BRANCH   8   9
ATOM      9  O   UNL     1       5.490 -37.181  44.818  1.00  0.00    -0.396 OA
ATOM     10  H   UNL     1       6.075 -37.098  44.020  1.00  0.00     0.210 HD
ENDBRANCH   8   9
ENDBRANCH   7   8
ENDBRANCH   6   7
ENDBRANCH   1   6
TORSDOF 7
ENDMDL
MODEL 6
REMARK VINA RESULT:    -2.916      1.886      4.070
REMARK INTER + INTRA:          -4.462
REMARK INTER:                  -4.074
REMARK INTRA:                  -0.388
REMARK UNBOUND:                -0.439
REMARK SMILES CCCCCCCCO
REMARK SMILES IDX 5 1 4 2 3 3 2 4 1 5 6 6 7 7 8 8 9 9
REMARK H PARENT 9 10
REMARK Flexibility Score: inf
ROOT
ATOM      1  C   UNL     1       2.189 -30.328  45.478  1.00  0.00     0.000 C 
ENDROOT
BRANCH   1   2
ATOM      2  C   UNL     1       1.928 -29.005  44.742  1.00  0.00    -0.000 C 
BRANCH   2   3
ATOM      3  C   UNL     1       0.983 -28.106  45.547  1.00  0.00    -0.000 C 
BRANCH   3   4
ATOM      4  C   UNL     1       1.455 -26.647  45.520  1.00  0.00    -0.003 C 
ATOM      5  C   UNL     1       2.754 -26.473  46.302  1.00  0.00     0.004 C 
ENDBRANCH   3   4
ENDBRANCH   2   3
ENDBRANCH   1   2
BRANCH   1   6
ATOM      6  C   UNL     1       2.272 -30.158  47.006  1.00  0.00     0.002 C 
BRANCH   6   7
ATOM      7  C   UNL     1       1.507 -31.218  47.820  1.00  0.00     0.028 C 
BRANCH   7   8
ATOM      8  C   UNL     1       0.883 -32.312  46.945  1.00  0.00     0.156 C 
BRANCH   8   9
ATOM      9  O   UNL     1       1.479 -33.550  47.223  1.00  0.00    -0.396 OA
ATOM     10  H   UNL     1       1.845 -33.489  48.144  1.00  0.00     0.210 HD
ENDBRANCH   8   9
ENDBRANCH   7   8
ENDBRANCH   6   7
ENDBRANCH   1   6
TORSDOF 7
ENDMDL
MODEL 7
REMARK VINA RESULT:    -2.883     21.043     21.981
REMARK INTER + INTRA:          -4.417
REMARK INTER:                  -4.055
REMARK INTRA:                  -0.363
REMARK UNBOUND:                -0.439
REMARK SMILES CCCCCCCCO
REMARK SMILES IDX 5 1 4 2 3 3 2 4 1 5 6 6 7 7 8 8 9 9
REMARK H PARENT 9 10
REMARK Flexibility Score: inf
ROOT
ATOM      1  C   UNL     1      16.535 -31.589  62.506  1.00  0.00     0.000 C 
ENDROOT
BRANCH   1   2
ATOM      2  C   UNL     1      15.333 -31.276  61.601  1.00  0.00    -0.000 C 
BRANCH   2   3
ATOM      3  C   UNL     1      14.104 -32.089  62.022  1.00  0.00    -0.000 C 
BRANCH   3   4
ATOM      4  C   UNL     1      14.475 -33.146  63.069  1.00  0.00    -0.003 C 
ATOM      5  C   UNL     1      14.213 -34.556  62.547  1.00  0.00     0.004 C 
ENDBRANCH   3   4
ENDBRANCH   2   3
ENDBRANCH   1   2
BRANCH   1   6
ATOM      6  C   UNL     1      17.850 -31.748  61.722  1.00  0.00     0.002 C 
BRANCH   6   7
ATOM      7  C   UNL     1      18.021 -33.101  61.008  1.00  0.00     0.028 C 
BRANCH   7   8
ATOM      8  C   UNL     1      19.438 -33.319  60.464  1.00  0.00     0.156 C 
BRANCH   8   9
ATOM      9  O   UNL     1      20.102 -34.291  61.226  1.00  0.00    -0.396 OA
ATOM     10  H   UNL     1      20.645 -33.803  61.898  1.00  0.00     0.210 HD
ENDBRANCH   8   9
ENDBRANCH   7   8
ENDBRANCH   6   7
ENDBRANCH   1   6
TORSDOF 7
ENDMDL
MODEL 8
REMARK VINA RESULT:    -2.874      1.616      3.602
REMARK INTER + INTRA:          -4.405
REMARK INTER:                  -3.914
REMARK INTRA:                  -0.491
REMARK UNBOUND:                -0.439
REMARK SMILES CCCCCCCCO
REMARK SMILES IDX 5 1 4 2 3 3 2 4 1 5 6 6 7 7 8 8 9 9
REMARK H PARENT 9 10
REMARK Flexibility Score: inf
ROOT
ATOM      1  C   UNL     1       1.865 -29.703  47.007  1.00  0.00     0.000 C 
ENDROOT
BRANCH   1   2
ATOM      2  C   UNL     1       2.051 -28.324  46.357  1.00  0.00    -0.000 C 
BRANCH   2   3
ATOM      3  C   UNL     1       2.161 -28.445  44.833  1.00  0.00    -0.000 C 
BRANCH   3   4
ATOM      4  C   UNL     1       2.613 -29.852  44.424  1.00  0.00    -0.003 C 
ATOM      5  C   UNL     1       1.607 -30.503  43.480  1.00  0.00     0.004 C 
ENDBRANCH   3   4
ENDBRANCH   2   3
ENDBRANCH   1   2
BRANCH   1   6
ATOM      6  C   UNL     1       0.390 -30.034  47.300  1.00  0.00     0.002 C 
BRANCH   6   7
ATOM      7  C   UNL     1      -0.120 -31.342  46.668  1.00  0.00     0.028 C 
BRANCH   7   8
ATOM      8  C   UNL     1       0.899 -32.485  46.748  1.00  0.00     0.156 C 
BRANCH   8   9
ATOM      9  O   UNL     1       0.658 -33.418  45.730  1.00  0.00    -0.396 OA
ATOM     10  H   UNL     1       1.070 -34.273  46.024  1.00  0.00     0.210 HD
ENDBRANCH   8   9
ENDBRANCH   7   8
ENDBRANCH   6   7
ENDBRANCH   1   6
TORSDOF 7
ENDMDL
MODEL 9
REMARK VINA RESULT:    -2.852      1.952      2.847
REMARK INTER + INTRA:          -4.374
REMARK INTER:                  -3.947
REMARK INTRA:                  -0.427
REMARK UNBOUND:                -0.439
REMARK SMILES CCCCCCCCO
REMARK SMILES IDX 5 1 4 2 3 3 2 4 1 5 6 6 7 7 8 8 9 9
REMARK H PARENT 9 10
REMARK Flexibility Score: inf
ROOT
ATOM      1  C   UNL     1       1.411 -31.254  44.353  1.00  0.00     0.000 C 
ENDROOT
BRANCH   1   2
ATOM      2  C   UNL     1       0.365 -32.269  44.839  1.00  0.00    -0.000 C 
BRANCH   2   3
ATOM      3  C   UNL     1      -0.001 -32.019  46.307  1.00  0.00    -0.000 C 
BRANCH   3   4
ATOM      4  C   UNL     1       1.101 -32.530  47.243  1.00  0.00    -0.003 C 
ATOM      5  C   UNL     1       1.769 -31.379  47.990  1.00  0.00     0.004 C 
ENDBRANCH   3   4
ENDBRANCH   2   3
ENDBRANCH   1   2
BRANCH   1   6
ATOM      6  C   UNL     1       0.816 -29.861  44.083  1.00  0.00     0.002 C 
BRANCH   6   7
ATOM      7  C   UNL     1       1.610 -28.688  44.686  1.00  0.00     0.028 C 
BRANCH   7   8
ATOM      8  C   UNL     1       1.155 -28.321  46.104  1.00  0.00     0.156 C 
BRANCH   8   9
ATOM      9  O   UNL     1       2.269 -28.061  46.915  1.00  0.00    -0.396 OA
ATOM     10  H   UNL     1       2.065 -27.232  47.422  1.00  0.00     0.210 HD
ENDBRANCH   8   9
ENDBRANCH   7   8
ENDBRANCH   6   7
ENDBRANCH   1   6
TORSDOF 7
ENDMDL
