MODEL 1
REMARK VINA RESULT:    -3.466      0.000      0.000
REMARK INTER + INTRA:          -6.504
REMARK INTER:                  -6.101
REMARK INTRA:                  -0.403
REMARK UNBOUND:                -0.403
REMARK SMILES CCCCCCCCCCCCCCC(=O)[O-]
REMARK SMILES IDX 9 1 10 2 11 3 12 4 13 5 14 6 15 7 16 8 17 9 8 10 7 11 6 12
REMARK SMILES IDX 5 13 4 14 3 15 2 16 1 17
REMARK H PARENT
REMARK Flexibility Score: inf
ROOT
ATOM      1  C   UNL     1      42.486  12.705 -36.006  1.00  0.00     0.000 C 
ENDROOT
BRANCH   1   2
ATOM      2  C   UNL     1      43.251  11.712 -35.123  1.00  0.00     0.000 C 
BRANCH   2   3
ATOM      3  C   UNL     1      44.567  12.318 -34.624  1.00  0.00     0.000 C 
BRANCH   3   4
ATOM      4  C   UNL     1      44.565  12.459 -33.097  1.00  0.00     0.000 C 
BRANCH   4   5
ATOM      5  C   UNL     1      45.986  12.665 -32.561  1.00  0.00     0.006 C 
BRANCH   5   6
ATOM      6  C   UNL     1      46.397  11.515 -31.637  1.00  0.00     0.053 C 
BRANCH   6   7
ATOM      7  C   UNL     1      46.253  11.916 -30.204  1.00  0.00     0.041 C 
ATOM      8  O   UNL     1      46.943  11.349 -29.315  1.00  0.00    -0.550 OA
ATOM      9  O   UNL     1      45.323  12.881 -29.842  1.00  0.00    -0.550 OA
ENDBRANCH   6   7
ENDBRANCH   5   6
ENDBRANCH   4   5
ENDBRANCH   3   4
ENDBRANCH   2   3
ENDBRANCH   1   2
BRANCH   1  10
ATOM     10  C   UNL     1      40.973  12.580 -35.794  1.00  0.00     0.000 C 
BRANCH  10  11
ATOM     11  C   UNL     1      40.320  13.960 -35.657  1.00  0.00    -0.000 C 
BRANCH  11  12
ATOM     12  C   UNL     1      38.839  13.911 -36.051  1.00  0.00    -0.000 C 
BRANCH  12  13
ATOM     13  C   UNL     1      37.959  14.537 -34.964  1.00  0.00    -0.000 C 
BRANCH  13  14
ATOM     14  C   UNL     1      37.312  13.455 -34.086  1.00  0.00    -0.000 C 
BRANCH  14  15
ATOM     15  C   UNL     1      36.875  14.002 -32.711  1.00  0.00    -0.000 C 
BRANCH  15  16
ATOM     16  C   UNL     1      36.877  12.940 -31.598  1.00  0.00    -0.003 C 
ATOM     17  C   UNL     1      36.953  13.542 -30.197  1.00  0.00     0.004 C 
ENDBRANCH  15  16
ENDBRANCH  14  15
ENDBRANCH  13  14
ENDBRANCH  12  13
ENDBRANCH  11  12
ENDBRANCH  10  11
ENDBRANCH   1  10
TORSDOF 13
ENDMDL
MODEL 2
REMARK VINA RESULT:    -3.466      3.259      7.625
REMARK INTER + INTRA:          -6.504
REMARK INTER:                  -5.943
REMARK INTRA:                  -0.561
REMARK UNBOUND:                -0.403
REMARK SMILES CCCCCCCCCCCCCCC(=O)[O-]
REMARK SMILES IDX 9 1 10 2 11 3 12 4 13 5 14 6 15 7 16 8 17 9 8 10 7 11 6 12
REMARK SMILES IDX 5 13 4 14 3 15 2 16 1 17
REMARK H PARENT
REMARK Flexibility Score: inf
ROOT
ATOM      1  C   UNL     1      40.721  13.947 -35.478  1.00  0.00     0.000 C 
ENDROOT
BRANCH   1   2
ATOM      2  C   UNL     1      39.329  13.543 -35.979  1.00  0.00     0.000 C 
BRANCH   2   3
ATOM      3  C   UNL     1      38.229  14.252 -35.182  1.00  0.00     0.000 C 
BRANCH   3   4
ATOM      4  C   UNL     1      36.998  13.352 -35.021  1.00  0.00     0.000 C 
BRANCH   4   5
ATOM      5  C   UNL     1      36.875  12.837 -33.583  1.00  0.00     0.006 C 
BRANCH   5   6
ATOM      6  C   UNL     1      37.052  13.976 -32.574  1.00  0.00     0.053 C 
BRANCH   6   7
ATOM      7  C   UNL     1      36.960  13.456 -31.175  1.00  0.00     0.041 C 
ATOM      8  O   UNL     1      36.876  14.258 -30.206  1.00  0.00    -0.550 OA
ATOM      9  O   UNL     1      37.017  12.090 -30.935  1.00  0.00    -0.550 OA
ENDBRANCH   6   7
ENDBRANCH   5   6
ENDBRANCH   4   5
ENDBRANCH   3   4
ENDBRANCH   2   3
ENDBRANCH   1   2
BRANCH   1  10
ATOM     10  C   UNL     1      41.821  13.199 -36.241  1.00  0.00     0.000 C 
BRANCH  10  11
ATOM     11  C   UNL     1      42.263  11.944 -35.479  1.00  0.00    -0.000 C 
BRANCH  11  12
ATOM     12  C   UNL     1      43.766  11.986 -35.175  1.00  0.00    -0.000 C 
BRANCH  12  13
ATOM     13  C   UNL     1      44.020  12.350 -33.708  1.00  0.00    -0.000 C 
BRANCH  13  14
ATOM     14  C   UNL     1      45.493  12.720 -33.479  1.00  0.00    -0.000 C 
BRANCH  14  15
ATOM     15  C   UNL     1      45.835  12.863 -31.981  1.00  0.00    -0.000 C 
BRANCH  15  16
ATOM     16  C   UNL     1      46.309  11.553 -31.329  1.00  0.00    -0.003 C 
ATOM     17  C   UNL     1      46.024  11.493 -29.831  1.00  0.00     0.004 C 
ENDBRANCH  15  16
ENDBRANCH  14  15
ENDBRANCH  13  14
ENDBRANCH  12  13
ENDBRANCH  11  12
ENDBRANCH  10  11
ENDBRANCH   1  10
TORSDOF 13
ENDMDL
MODEL 3
REMARK VINA RESULT:    -3.306      0.764      1.374
REMARK INTER + INTRA:          -6.222
REMARK INTER:                  -5.648
REMARK INTRA:                  -0.573
REMARK UNBOUND:                -0.403
REMARK SMILES CCCCCCCCCCCCCCC(=O)[O-]
REMARK SMILES IDX 9 1 10 2 11 3 12 4 13 5 14 6 15 7 16 8 17 9 8 10 7 11 6 12
REMARK SMILES IDX 5 13 4 14 3 15 2 16 1 17
REMARK H PARENT
REMARK Flexibility Score: inf
ROOT
ATOM      1  C   UNL     1      41.917  13.553 -36.121  1.00  0.00     0.000 C 
ENDROOT
BRANCH   1   2
ATOM      2  C   UNL     1      42.118  12.191 -35.446  1.00  0.00     0.000 C 
BRANCH   2   3
ATOM      3  C   UNL     1      43.579  11.994 -35.027  1.00  0.00     0.000 C 
BRANCH   3   4
ATOM      4  C   UNL     1      43.736  12.101 -33.506  1.00  0.00     0.000 C 
BRANCH   4   5
ATOM      5  C   UNL     1      45.011  12.866 -33.135  1.00  0.00     0.006 C 
BRANCH   5   6
ATOM      6  C   UNL     1      45.981  11.973 -32.356  1.00  0.00     0.053 C 
BRANCH   6   7
ATOM      7  C   UNL     1      45.941  12.302 -30.898  1.00  0.00     0.041 C 
ATOM      8  O   UNL     1      45.113  13.146 -30.461  1.00  0.00    -0.550 OA
ATOM      9  O   UNL     1      46.849  11.715 -30.027  1.00  0.00    -0.550 OA
ENDBRANCH   6   7
ENDBRANCH   5   6
ENDBRANCH   4   5
ENDBRANCH   3   4
ENDBRANCH   2   3
ENDBRANCH   1   2
BRANCH   1  10
ATOM     10  C   UNL     1      40.743  14.312 -35.492  1.00  0.00     0.000 C 
BRANCH  10  11
ATOM     11  C   UNL     1      39.409  13.867 -36.103  1.00  0.00    -0.000 C 
BRANCH  11  12
ATOM     12  C   UNL     1      38.225  14.384 -35.276  1.00  0.00    -0.000 C 
BRANCH  12  13
ATOM     13  C   UNL     1      37.495  13.230 -34.579  1.00  0.00    -0.000 C 
BRANCH  13  14
ATOM     14  C   UNL     1      36.924  13.676 -33.225  1.00  0.00    -0.000 C 
BRANCH  14  15
ATOM     15  C   UNL     1      37.516  12.875 -32.047  1.00  0.00    -0.000 C 
BRANCH  15  16
ATOM     16  C   UNL     1      36.876  13.210 -30.689  1.00  0.00    -0.003 C 
ATOM     17  C   UNL     1      37.269  14.590 -30.167  1.00  0.00     0.004 C 
ENDBRANCH  15  16
ENDBRANCH  14  15
ENDBRANCH  13  14
ENDBRANCH  12  13
ENDBRANCH  11  12
ENDBRANCH  10  11
ENDBRANCH   1  10
TORSDOF 13
ENDMDL
MODEL 4
REMARK VINA RESULT:    -3.238     19.645     21.748
REMARK INTER + INTRA:          -6.102
REMARK INTER:                  -5.255
REMARK INTRA:                  -0.847
REMARK UNBOUND:                -0.403
REMARK SMILES CCCCCCCCCCCCCCC(=O)[O-]
REMARK SMILES IDX 9 1 10 2 11 3 12 4 13 5 14 6 15 7 16 8 17 9 8 10 7 11 6 12
REMARK SMILES IDX 5 13 4 14 3 15 2 16 1 17
REMARK H PARENT
REMARK Flexibility Score: inf
ROOT
ATOM      1  C   UNL     1      55.915  27.192 -33.632  1.00  0.00     0.000 C 
ENDROOT
BRANCH   1   2
ATOM      2  C   UNL     1      57.094  28.149 -33.422  1.00  0.00     0.000 C 
BRANCH   2   3
ATOM      3  C   UNL     1      56.760  29.555 -33.934  1.00  0.00     0.000 C 
BRANCH   3   4
ATOM      4  C   UNL     1      56.109  30.402 -32.835  1.00  0.00     0.000 C 
BRANCH   4   5
ATOM      5  C   UNL     1      57.107  30.715 -31.715  1.00  0.00     0.006 C 
BRANCH   5   6
ATOM      6  C   UNL     1      56.407  30.776 -30.355  1.00  0.00     0.053 C 
BRANCH   6   7
ATOM      7  C   UNL     1      56.484  29.452 -29.665  1.00  0.00     0.041 C 
ATOM      8  O   UNL     1      55.976  28.429 -30.198  1.00  0.00    -0.550 OA
ATOM      9  O   UNL     1      57.072  29.354 -28.411  1.00  0.00    -0.550 OA
ENDBRANCH   6   7
ENDBRANCH   5   6
ENDBRANCH   4   5
ENDBRANCH   3   4
ENDBRANCH   2   3
ENDBRANCH   1   2
BRANCH   1  10
ATOM     10  C   UNL     1      56.232  26.155 -34.716  1.00  0.00     0.000 C 
BRANCH  10  11
ATOM     11  C   UNL     1      55.162  26.159 -35.813  1.00  0.00    -0.000 C 
BRANCH  11  12
ATOM     12  C   UNL     1      55.228  27.448 -36.642  1.00  0.00    -0.000 C 
BRANCH  12  13
ATOM     13  C   UNL     1      54.768  27.200 -38.083  1.00  0.00    -0.000 C 
BRANCH  13  14
ATOM     14  C   UNL     1      54.048  28.432 -38.651  1.00  0.00    -0.000 C 
BRANCH  14  15
ATOM     15  C   UNL     1      54.908  29.710 -38.553  1.00  0.00    -0.000 C 
BRANCH  15  16
ATOM     16  C   UNL     1      54.304  30.790 -37.639  1.00  0.00    -0.003 C 
ATOM     17  C   UNL     1      55.132  31.041 -36.381  1.00  0.00     0.004 C 
ENDBRANCH  15  16
ENDBRANCH  14  15
ENDBRANCH  13  14
ENDBRANCH  12  13
ENDBRANCH  11  12
ENDBRANCH  10  11
ENDBRANCH   1  10
TORSDOF 13
ENDMDL
MODEL 5
REMARK VINA RESULT:    -3.113      3.654      7.864
REMARK INTER + INTRA:          -5.882
REMARK INTER:                  -5.132
REMARK INTRA:                  -0.750
REMARK UNBOUND:                -0.403
REMARK SMILES CCCCCCCCCCCCCCC(=O)[O-]
REMARK SMILES IDX 9 1 10 2 11 3 12 4 13 5 14 6 15 7 16 8 17 9 8 10 7 11 6 12
REMARK SMILES IDX 5 13 4 14 3 15 2 16 1 17
REMARK H PARENT
REMARK Flexibility Score: inf
ROOT
ATOM      1  C   UNL     1      42.297  12.188 -35.488  1.00  0.00     0.000 C 
ENDROOT
BRANCH   1   2
ATOM      2  C   UNL     1      41.751  13.410 -36.235  1.00  0.00     0.000 C 
BRANCH   2   3
ATOM      3  C   UNL     1      40.344  13.771 -35.748  1.00  0.00     0.000 C 
BRANCH   3   4
ATOM      4  C   UNL     1      39.280  13.337 -36.765  1.00  0.00     0.000 C 
BRANCH   4   5
ATOM      5  C   UNL     1      37.896  13.867 -36.375  1.00  0.00     0.006 C 
BRANCH   5   6
ATOM      6  C   UNL     1      37.305  13.061 -35.215  1.00  0.00     0.053 C 
BRANCH   6   7
ATOM      7  C   UNL     1      37.258  13.889 -33.971  1.00  0.00     0.041 C 
ATOM      8  O   UNL     1      37.604  15.100 -34.002  1.00  0.00    -0.550 OA
ATOM      9  O   UNL     1      36.880  13.313 -32.766  1.00  0.00    -0.550 OA
ENDBRANCH   6   7
ENDBRANCH   5   6
ENDBRANCH   4   5
ENDBRANCH   3   4
ENDBRANCH   2   3
ENDBRANCH   1   2
BRANCH   1  10
ATOM     10  C   UNL     1      43.729  11.864 -35.930  1.00  0.00     0.000 C 
BRANCH  10  11
ATOM     11  C   UNL     1      44.715  12.028 -34.768  1.00  0.00    -0.000 C 
BRANCH  11  12
ATOM     12  C   UNL     1      43.982  12.398 -33.472  1.00  0.00    -0.000 C 
BRANCH  12  13
ATOM     13  C   UNL     1      44.926  13.094 -32.485  1.00  0.00    -0.000 C 
BRANCH  13  14
ATOM     14  C   UNL     1      46.329  12.470 -32.531  1.00  0.00    -0.000 C 
BRANCH  14  15
ATOM     15  C   UNL     1      46.485  11.308 -31.527  1.00  0.00    -0.000 C 
BRANCH  15  16
ATOM     16  C   UNL     1      45.936  11.627 -30.126  1.00  0.00    -0.003 C 
ATOM     17  C   UNL     1      46.736  10.967 -29.005  1.00  0.00     0.004 C 
ENDBRANCH  15  16
ENDBRANCH  14  15
ENDBRANCH  13  14
ENDBRANCH  12  13
ENDBRANCH  11  12
ENDBRANCH  10  11
ENDBRANCH   1  10
TORSDOF 13
ENDMDL
MODEL 6
REMARK VINA RESULT:    -2.702      0.858      1.277
REMARK INTER + INTRA:          -5.159
REMARK INTER:                  -4.551
REMARK INTRA:                  -0.608
REMARK UNBOUND:                -0.403
REMARK SMILES CCCCCCCCCCCCCCC(=O)[O-]
REMARK SMILES IDX 9 1 10 2 11 3 12 4 13 5 14 6 15 7 16 8 17 9 8 10 7 11 6 12
REMARK SMILES IDX 5 13 4 14 3 15 2 16 1 17
REMARK H PARENT
REMARK Flexibility Score: inf
ROOT
ATOM      1  C   UNL     1      41.691  13.444 -35.524  1.00  0.00     0.000 C 
ENDROOT
BRANCH   1   2
ATOM      2  C   UNL     1      42.014  11.959 -35.725  1.00  0.00     0.000 C 
BRANCH   2   3
ATOM      3  C   UNL     1      43.465  11.653 -35.337  1.00  0.00     0.000 C 
BRANCH   3   4
ATOM      4  C   UNL     1      44.066  12.793 -34.505  1.00  0.00     0.000 C 
BRANCH   4   5
ATOM      5  C   UNL     1      44.340  12.340 -33.067  1.00  0.00     0.006 C 
BRANCH   5   6
ATOM      6  C   UNL     1      45.764  12.706 -32.638  1.00  0.00     0.053 C 
BRANCH   6   7
ATOM      7  C   UNL     1      46.059  12.156 -31.278  1.00  0.00     0.041 C 
ATOM      8  O   UNL     1      46.753  11.112 -31.153  1.00  0.00    -0.550 OA
ATOM      9  O   UNL     1      45.527  12.768 -30.151  1.00  0.00    -0.550 OA
ENDBRANCH   6   7
ENDBRANCH   5   6
ENDBRANCH   4   5
ENDBRANCH   3   4
ENDBRANCH   2   3
ENDBRANCH   1   2
BRANCH   1  10
ATOM     10  C   UNL     1      40.419  13.840 -36.283  1.00  0.00     0.000 C 
BRANCH  10  11
ATOM     11  C   UNL     1      39.175  13.659 -35.405  1.00  0.00    -0.000 C 
BRANCH  11  12
ATOM     12  C   UNL     1      38.353  14.952 -35.342  1.00  0.00    -0.000 C 
BRANCH  12  13
ATOM     13  C   UNL     1      37.236  14.844 -34.297  1.00  0.00    -0.000 C 
BRANCH  13  14
ATOM     14  C   UNL     1      37.300  13.498 -33.560  1.00  0.00    -0.000 C 
BRANCH  14  15
ATOM     15  C   UNL     1      36.903  13.626 -32.074  1.00  0.00    -0.000 C 
BRANCH  15  16
ATOM     16  C   UNL     1      37.212  12.369 -31.243  1.00  0.00    -0.003 C 
ATOM     17  C   UNL     1      36.875  12.531 -29.763  1.00  0.00     0.004 C 
ENDBRANCH  15  16
ENDBRANCH  14  15
ENDBRANCH  13  14
ENDBRANCH  12  13
ENDBRANCH  11  12
ENDBRANCH  10  11
ENDBRANCH   1  10
TORSDOF 13
ENDMDL
MODEL 7
REMARK VINA RESULT:    -1.974     19.310     21.640
REMARK INTER + INTRA:          -3.877
REMARK INTER:                  -3.475
REMARK INTRA:                  -0.401
REMARK UNBOUND:                -0.403
REMARK SMILES CCCCCCCCCCCCCCC(=O)[O-]
REMARK SMILES IDX 9 1 10 2 11 3 12 4 13 5 14 6 15 7 16 8 17 9 8 10 7 11 6 12
REMARK SMILES IDX 5 13 4 14 3 15 2 16 1 17
REMARK H PARENT
REMARK Flexibility Score: inf
ROOT
ATOM      1  C   UNL     1      56.456  30.126 -35.870  1.00  0.00     0.000 C 
ENDROOT
BRANCH   1   2
ATOM      2  C   UNL     1      56.000  31.101 -34.778  1.00  0.00     0.000 C 
BRANCH   2   3
ATOM      3  C   UNL     1      56.737  30.838 -33.461  1.00  0.00     0.000 C 
BRANCH   3   4
ATOM      4  C   UNL     1      56.876  29.333 -33.197  1.00  0.00     0.000 C 
BRANCH   4   5
ATOM      5  C   UNL     1      56.491  28.988 -31.755  1.00  0.00     0.006 C 
BRANCH   5   6
ATOM      6  C   UNL     1      56.594  30.219 -30.849  1.00  0.00     0.053 C 
BRANCH   6   7
ATOM      7  C   UNL     1      56.601  29.812 -29.410  1.00  0.00     0.041 C 
ATOM      8  O   UNL     1      57.111  30.567 -28.540  1.00  0.00    -0.550 OA
ATOM      9  O   UNL     1      56.089  28.577 -29.034  1.00  0.00    -0.550 OA
ENDBRANCH   6   7
ENDBRANCH   5   6
ENDBRANCH   4   5
ENDBRANCH   3   4
ENDBRANCH   2   3
ENDBRANCH   1   2
BRANCH   1  10
ATOM     10  C   UNL     1      55.359  29.922 -36.921  1.00  0.00     0.000 C 
BRANCH  10  11
ATOM     11  C   UNL     1      55.938  29.337 -38.215  1.00  0.00    -0.000 C 
BRANCH  11  12
ATOM     12  C   UNL     1      54.824  28.804 -39.125  1.00  0.00    -0.000 C 
BRANCH  12  13
ATOM     13  C   UNL     1      54.025  27.699 -38.426  1.00  0.00    -0.000 C 
BRANCH  13  14
ATOM     14  C   UNL     1      54.898  26.942 -37.414  1.00  0.00    -0.000 C 
BRANCH  14  15
ATOM     15  C   UNL     1      54.818  25.412 -37.601  1.00  0.00    -0.000 C 
BRANCH  15  16
ATOM     16  C   UNL     1      55.122  24.618 -36.319  1.00  0.00    -0.003 C 
ATOM     17  C   UNL     1      55.279  25.507 -35.088  1.00  0.00     0.004 C 
ENDBRANCH  15  16
ENDBRANCH  14  15
ENDBRANCH  13  14
ENDBRANCH  12  13
ENDBRANCH  11  12
ENDBRANCH  10  11
ENDBRANCH   1  10
TORSDOF 13
ENDMDL
MODEL 8
REMARK VINA RESULT:    -1.211     19.794     22.029
REMARK INTER + INTRA:          -2.535
REMARK INTER:                  -1.632
REMARK INTRA:                  -0.903
REMARK UNBOUND:                -0.403
REMARK SMILES CCCCCCCCCCCCCCC(=O)[O-]
REMARK SMILES IDX 9 1 10 2 11 3 12 4 13 5 14 6 15 7 16 8 17 9 8 10 7 11 6 12
REMARK SMILES IDX 5 13 4 14 3 15 2 16 1 17
REMARK H PARENT
REMARK Flexibility Score: inf
ROOT
ATOM      1  C   UNL     1      55.846  25.753 -35.059  1.00  0.00     0.000 C 
ENDROOT
BRANCH   1   2
ATOM      2  C   UNL     1      54.853  26.508 -35.951  1.00  0.00     0.000 C 
BRANCH   2   3
ATOM      3  C   UNL     1      54.818  25.913 -37.363  1.00  0.00     0.000 C 
BRANCH   3   4
ATOM      4  C   UNL     1      54.862  27.016 -38.427  1.00  0.00     0.000 C 
BRANCH   4   5
ATOM      5  C   UNL     1      55.388  28.329 -37.838  1.00  0.00     0.006 C 
BRANCH   5   6
ATOM      6  C   UNL     1      54.818  29.536 -38.589  1.00  0.00     0.053 C 
BRANCH   6   7
ATOM      7  C   UNL     1      54.429  30.615 -37.629  1.00  0.00     0.041 C 
ATOM      8  O   UNL     1      55.257  31.034 -36.777  1.00  0.00    -0.550 OA
ATOM      9  O   UNL     1      53.138  31.125 -37.642  1.00  0.00    -0.550 OA
ENDBRANCH   6   7
ENDBRANCH   5   6
ENDBRANCH   4   5
ENDBRANCH   3   4
ENDBRANCH   2   3
ENDBRANCH   1   2
BRANCH   1  10
ATOM     10  C   UNL     1      56.843  26.717 -34.404  1.00  0.00     0.000 C 
BRANCH  10  11
ATOM     11  C   UNL     1      56.113  27.856 -33.681  1.00  0.00    -0.000 C 
BRANCH  11  12
ATOM     12  C   UNL     1      56.443  29.212 -34.317  1.00  0.00    -0.000 C 
BRANCH  12  13
ATOM     13  C   UNL     1      56.851  30.235 -33.250  1.00  0.00    -0.000 C 
BRANCH  13  14
ATOM     14  C   UNL     1      57.125  29.548 -31.904  1.00  0.00    -0.000 C 
BRANCH  14  15
ATOM     15  C   UNL     1      56.150  30.013 -30.801  1.00  0.00    -0.000 C 
BRANCH  15  16
ATOM     16  C   UNL     1      56.375  29.319 -29.447  1.00  0.00    -0.003 C 
ATOM     17  C   UNL     1      56.422  30.296 -28.274  1.00  0.00     0.004 C 
ENDBRANCH  15  16
ENDBRANCH  14  15
ENDBRANCH  13  14
ENDBRANCH  12  13
ENDBRANCH  11  12
ENDBRANCH  10  11
ENDBRANCH   1  10
TORSDOF 13
ENDMDL
