MODEL 1
REMARK VINA RESULT:    -6.000      0.000      0.000
REMARK INTER + INTRA:          -6.584
REMARK INTER:                  -6.351
REMARK INTRA:                  -0.233
REMARK UNBOUND:                -0.233
REMARK SMILES O=c1cc(-c2ccccc2)oc2ccccc12
REMARK SMILES IDX 4 1 3 2 2 3 1 4 17 5 16 6 15 7 14 8 13 9 12 10 11 11 5 12
REMARK SMILES IDX 8 13 7 14 9 15 6 16 10 17
REMARK H PARENT
REMARK Flexibility Score: inf
ROOT
ATOM      1  C   UNL     1      -4.700 -14.500  18.420  1.00  0.00     0.138 A 
ATOM      2  C   UNL     1      -4.999 -13.729  17.276  1.00  0.00     0.100 A 
ATOM      3  C   UNL     1      -6.275 -13.181  17.128  1.00  0.00     0.193 A 
ATOM      4  O   UNL     1      -6.542 -12.493  16.106  1.00  0.00    -0.289 OA
ATOM      5  C   UNL     1      -7.241 -13.404  18.120  1.00  0.00     0.065 A 
ATOM      6  C   UNL     1      -8.544 -12.881  18.033  1.00  0.00     0.016 A 
ATOM      7  C   UNL     1      -9.469 -13.135  19.050  1.00  0.00     0.001 A 
ATOM      8  C   UNL     1      -9.103 -13.907  20.156  1.00  0.00     0.004 A 
ATOM      9  C   UNL     1      -7.811 -14.431  20.251  1.00  0.00     0.048 A 
ATOM     10  C   UNL     1      -6.876 -14.183  19.238  1.00  0.00     0.138 A 
ATOM     11  O   UNL     1      -5.651 -14.685  19.338  1.00  0.00    -0.456 OA
ENDROOT
BRANCH   1  12
ATOM     12  C   UNL     1      -3.361 -15.121  18.655  1.00  0.00     0.017 A 
ATOM     13  C   UNL     1      -0.875 -16.383  19.097  1.00  0.00     0.000 A 
ATOM     14  C   UNL     1      -0.945 -14.994  18.997  1.00  0.00     0.001 A 
ATOM     15  C   UNL     1      -2.035 -17.148  18.980  1.00  0.00     0.001 A 
ATOM     16  C   UNL     1      -2.173 -14.364  18.777  1.00  0.00     0.012 A 
ATOM     17  C   UNL     1      -3.267 -16.525  18.761  1.00  0.00     0.012 A 
ENDBRANCH   1  12
TORSDOF 1
ENDMDL
MODEL 2
REMARK VINA RESULT:    -5.863      2.582      5.191
REMARK INTER + INTRA:          -6.438
REMARK INTER:                  -6.208
REMARK INTRA:                  -0.230
REMARK UNBOUND:                -0.233
REMARK SMILES O=c1cc(-c2ccccc2)oc2ccccc12
REMARK SMILES IDX 4 1 3 2 2 3 1 4 17 5 16 6 15 7 14 8 13 9 12 10 11 11 5 12
REMARK SMILES IDX 8 13 7 14 9 15 6 16 10 17
REMARK H PARENT
REMARK Flexibility Score: inf
ROOT
ATOM      1  C   UNL     1      -7.345 -13.883  17.180  1.00  0.00     0.138 A 
ATOM      2  C   UNL     1      -8.555 -13.636  17.865  1.00  0.00     0.100 A 
ATOM      3  C   UNL     1      -8.554 -13.561  19.259  1.00  0.00     0.193 A 
ATOM      4  O   UNL     1      -9.634 -13.340  19.870  1.00  0.00    -0.289 OA
ATOM      5  C   UNL     1      -7.351 -13.733  19.959  1.00  0.00     0.065 A 
ATOM      6  C   UNL     1      -7.281 -13.670  21.363  1.00  0.00     0.016 A 
ATOM      7  C   UNL     1      -6.055 -13.850  22.010  1.00  0.00     0.001 A 
ATOM      8  C   UNL     1      -4.896 -14.091  21.268  1.00  0.00     0.004 A 
ATOM      9  C   UNL     1      -4.956 -14.155  19.873  1.00  0.00     0.048 A 
ATOM     10  C   UNL     1      -6.178 -13.977  19.213  1.00  0.00     0.138 A 
ATOM     11  O   UNL     1      -6.225 -14.040  17.887  1.00  0.00    -0.456 OA
ENDROOT
BRANCH   1  12
ATOM     12  C   UNL     1      -7.259 -13.978  15.690  1.00  0.00     0.017 A 
ATOM     13  C   UNL     1      -7.036 -14.075  12.878  1.00  0.00     0.000 A 
ATOM     14  C   UNL     1      -7.776 -15.045  13.554  1.00  0.00     0.001 A 
ATOM     15  C   UNL     1      -6.407 -13.057  13.593  1.00  0.00     0.001 A 
ATOM     16  C   UNL     1      -7.889 -15.002  14.947  1.00  0.00     0.012 A 
ATOM     17  C   UNL     1      -6.515 -13.007  14.985  1.00  0.00     0.012 A 
ENDBRANCH   1  12
TORSDOF 1
ENDMDL
MODEL 3
REMARK VINA RESULT:    -5.826      2.590      4.901
REMARK INTER + INTRA:          -6.400
REMARK INTER:                  -6.171
REMARK INTRA:                  -0.228
REMARK UNBOUND:                -0.233
REMARK SMILES O=c1cc(-c2ccccc2)oc2ccccc12
REMARK SMILES IDX 4 1 3 2 2 3 1 4 17 5 16 6 15 7 14 8 13 9 12 10 11 11 5 12
REMARK SMILES IDX 8 13 7 14 9 15 6 16 10 17
REMARK H PARENT
REMARK Flexibility Score: inf
ROOT
ATOM      1  C   UNL     1      -6.689 -13.837  17.224  1.00  0.00     0.138 A 
ATOM      2  C   UNL     1      -5.439 -14.012  17.857  1.00  0.00     0.100 A 
ATOM      3  C   UNL     1      -5.365 -13.997  19.251  1.00  0.00     0.193 A 
ATOM      4  O   UNL     1      -4.249 -14.153  19.817  1.00  0.00    -0.289 OA
ATOM      5  C   UNL     1      -6.534 -13.809  20.003  1.00  0.00     0.065 A 
ATOM      6  C   UNL     1      -6.529 -13.784  21.409  1.00  0.00     0.016 A 
ATOM      7  C   UNL     1      -7.724 -13.592  22.109  1.00  0.00     0.001 A 
ATOM      8  C   UNL     1      -8.926 -13.425  21.417  1.00  0.00     0.004 A 
ATOM      9  C   UNL     1      -8.941 -13.449  20.019  1.00  0.00     0.048 A 
ATOM     10  C   UNL     1      -7.750 -13.641  19.308  1.00  0.00     0.138 A 
ATOM     11  O   UNL     1      -7.775 -13.662  17.980  1.00  0.00    -0.456 OA
ENDROOT
BRANCH   1  12
ATOM     12  C   UNL     1      -6.855 -13.841  15.738  1.00  0.00     0.017 A 
ATOM     13  C   UNL     1      -7.119 -13.762  12.929  1.00  0.00     0.000 A 
ATOM     14  C   UNL     1      -7.661 -14.825  13.652  1.00  0.00     0.001 A 
ATOM     15  C   UNL     1      -6.448 -12.738  13.596  1.00  0.00     0.001 A 
ATOM     16  C   UNL     1      -7.532 -14.869  15.044  1.00  0.00     0.012 A 
ATOM     17  C   UNL     1      -6.315 -12.775  14.987  1.00  0.00     0.012 A 
ENDBRANCH   1  12
TORSDOF 1
ENDMDL
MODEL 4
REMARK VINA RESULT:    -5.805      1.489      6.348
REMARK INTER + INTRA:          -6.377
REMARK INTER:                  -6.149
REMARK INTRA:                  -0.228
REMARK UNBOUND:                -0.233
REMARK SMILES O=c1cc(-c2ccccc2)oc2ccccc12
REMARK SMILES IDX 4 1 3 2 2 3 1 4 17 5 16 6 15 7 14 8 13 9 12 10 11 11 5 12
REMARK SMILES IDX 8 13 7 14 9 15 6 16 10 17
REMARK H PARENT
REMARK Flexibility Score: inf
ROOT
ATOM      1  C   UNL     1      -7.121 -14.456  19.433  1.00  0.00     0.138 A 
ATOM      2  C   UNL     1      -7.160 -15.837  19.723  1.00  0.00     0.100 A 
ATOM      3  C   UNL     1      -5.991 -16.594  19.626  1.00  0.00     0.193 A 
ATOM      4  O   UNL     1      -6.026 -17.828  19.885  1.00  0.00    -0.289 OA
ATOM      5  C   UNL     1      -4.795 -15.972  19.242  1.00  0.00     0.065 A 
ATOM      6  C   UNL     1      -3.583 -16.678  19.124  1.00  0.00     0.016 A 
ATOM      7  C   UNL     1      -2.419 -16.007  18.736  1.00  0.00     0.001 A 
ATOM      8  C   UNL     1      -2.454 -14.637  18.464  1.00  0.00     0.004 A 
ATOM      9  C   UNL     1      -3.653 -13.928  18.578  1.00  0.00     0.048 A 
ATOM     10  C   UNL     1      -4.825 -14.589  18.966  1.00  0.00     0.138 A 
ATOM     11  O   UNL     1      -5.960 -13.906  19.072  1.00  0.00    -0.456 OA
ENDROOT
BRANCH   1  12
ATOM     12  C   UNL     1      -8.325 -13.573  19.514  1.00  0.00     0.017 A 
ATOM     13  C   UNL     1     -10.596 -11.916  19.765  1.00  0.00     0.000 A 
ATOM     14  C   UNL     1     -10.064 -12.185  18.504  1.00  0.00     0.001 A 
ATOM     15  C   UNL     1     -10.005 -12.467  20.901  1.00  0.00     0.001 A 
ATOM     16  C   UNL     1      -8.938 -13.005  18.374  1.00  0.00     0.012 A 
ATOM     17  C   UNL     1      -8.880 -13.287  20.779  1.00  0.00     0.012 A 
ENDBRANCH   1  12
TORSDOF 1
ENDMDL
MODEL 5
REMARK VINA RESULT:    -5.795      1.244      2.374
REMARK INTER + INTRA:          -6.366
REMARK INTER:                  -6.145
REMARK INTRA:                  -0.221
REMARK UNBOUND:                -0.233
REMARK SMILES O=c1cc(-c2ccccc2)oc2ccccc12
REMARK SMILES IDX 4 1 3 2 2 3 1 4 17 5 16 6 15 7 14 8 13 9 12 10 11 11 5 12
REMARK SMILES IDX 8 13 7 14 9 15 6 16 10 17
REMARK H PARENT
REMARK Flexibility Score: inf
ROOT
ATOM      1  C   UNL     1      -4.740 -14.718  19.606  1.00  0.00     0.138 A 
ATOM      2  C   UNL     1      -5.124 -14.412  20.929  1.00  0.00     0.100 A 
ATOM      3  C   UNL     1      -6.404 -13.914  21.176  1.00  0.00     0.193 A 
ATOM      4  O   UNL     1      -6.748 -13.640  22.358  1.00  0.00    -0.289 OA
ATOM      5  C   UNL     1      -7.291 -13.725  20.106  1.00  0.00     0.065 A 
ATOM      6  C   UNL     1      -8.594 -13.226  20.287  1.00  0.00     0.016 A 
ATOM      7  C   UNL     1      -9.436 -13.056  19.184  1.00  0.00     0.001 A 
ATOM      8  C   UNL     1      -8.989 -13.381  17.901  1.00  0.00     0.004 A 
ATOM      9  C   UNL     1      -7.696 -13.877  17.712  1.00  0.00     0.048 A 
ATOM     10  C   UNL     1      -6.843 -14.051  18.809  1.00  0.00     0.138 A 
ATOM     11  O   UNL     1      -5.616 -14.523  18.619  1.00  0.00    -0.456 OA
ENDROOT
BRANCH   1  12
ATOM     12  C   UNL     1      -3.390 -15.256  19.254  1.00  0.00     0.017 A 
ATOM     13  C   UNL     1      -0.880 -16.362  18.586  1.00  0.00     0.000 A 
ATOM     14  C   UNL     1      -1.006 -14.988  18.787  1.00  0.00     0.001 A 
ATOM     15  C   UNL     1      -1.995 -17.189  18.716  1.00  0.00     0.001 A 
ATOM     16  C   UNL     1      -2.247 -14.435  19.118  1.00  0.00     0.012 A 
ATOM     17  C   UNL     1      -3.239 -16.644  19.046  1.00  0.00     0.012 A 
ENDBRANCH   1  12
TORSDOF 1
ENDMDL
MODEL 6
REMARK VINA RESULT:    -5.754      2.671      5.625
REMARK INTER + INTRA:          -6.323
REMARK INTER:                  -6.084
REMARK INTRA:                  -0.240
REMARK UNBOUND:                -0.233
REMARK SMILES O=c1cc(-c2ccccc2)oc2ccccc12
REMARK SMILES IDX 4 1 3 2 2 3 1 4 17 5 16 6 15 7 14 8 13 9 12 10 11 11 5 12
REMARK SMILES IDX 8 13 7 14 9 15 6 16 10 17
REMARK H PARENT
REMARK Flexibility Score: inf
ROOT
ATOM      1  C   UNL     1      -8.414 -15.246  20.495  1.00  0.00     0.138 A 
ATOM      2  C   UNL     1      -9.242 -14.212  20.008  1.00  0.00     0.100 A 
ATOM      3  C   UNL     1      -8.813 -13.438  18.928  1.00  0.00     0.193 A 
ATOM      4  O   UNL     1      -9.553 -12.514  18.493  1.00  0.00    -0.289 OA
ATOM      5  C   UNL     1      -7.566 -13.699  18.343  1.00  0.00     0.065 A 
ATOM      6  C   UNL     1      -7.075 -12.957  17.253  1.00  0.00     0.016 A 
ATOM      7  C   UNL     1      -5.824 -13.260  16.708  1.00  0.00     0.001 A 
ATOM      8  C   UNL     1      -5.057 -14.299  17.242  1.00  0.00     0.004 A 
ATOM      9  C   UNL     1      -5.537 -15.042  18.325  1.00  0.00     0.048 A 
ATOM     10  C   UNL     1      -6.788 -14.748  18.878  1.00  0.00     0.138 A 
ATOM     11  O   UNL     1      -7.235 -15.459  19.907  1.00  0.00    -0.456 OA
ENDROOT
BRANCH   1  12
ATOM     12  C   UNL     1      -8.797 -16.121  21.646  1.00  0.00     0.017 A 
ATOM     13  C   UNL     1      -9.500 -17.853  23.761  1.00  0.00     0.000 A 
ATOM     14  C   UNL     1      -9.557 -16.471  23.941  1.00  0.00     0.001 A 
ATOM     15  C   UNL     1      -9.097 -18.378  22.534  1.00  0.00     0.001 A 
ATOM     16  C   UNL     1      -9.209 -15.609  22.897  1.00  0.00     0.012 A 
ATOM     17  C   UNL     1      -8.747 -17.523  21.486  1.00  0.00     0.012 A 
ENDBRANCH   1  12
TORSDOF 1
ENDMDL
MODEL 7
REMARK VINA RESULT:    -5.753     11.607     12.696
REMARK INTER + INTRA:          -6.322
REMARK INTER:                  -6.079
REMARK INTRA:                  -0.243
REMARK UNBOUND:                -0.233
REMARK SMILES O=c1cc(-c2ccccc2)oc2ccccc12
REMARK SMILES IDX 4 1 3 2 2 3 1 4 17 5 16 6 15 7 14 8 13 9 12 10 11 11 5 12
REMARK SMILES IDX 8 13 7 14 9 15 6 16 10 17
REMARK H PARENT
REMARK Flexibility Score: inf
ROOT
ATOM      1  C   UNL     1      -5.581  -9.763  30.575  1.00  0.00     0.138 A 
ATOM      2  C   UNL     1      -6.287  -8.882  31.422  1.00  0.00     0.100 A 
ATOM      3  C   UNL     1      -7.573  -8.469  31.069  1.00  0.00     0.193 A 
ATOM      4  O   UNL     1      -8.203  -7.682  31.825  1.00  0.00    -0.289 OA
ATOM      5  C   UNL     1      -8.145  -8.937  29.877  1.00  0.00     0.065 A 
ATOM      6  C   UNL     1      -9.436  -8.559  29.463  1.00  0.00     0.016 A 
ATOM      7  C   UNL     1      -9.958  -9.055  28.264  1.00  0.00     0.001 A 
ATOM      8  C   UNL     1      -9.202  -9.925  27.474  1.00  0.00     0.004 A 
ATOM      9  C   UNL     1      -7.919 -10.305  27.878  1.00  0.00     0.048 A 
ATOM     10  C   UNL     1      -7.386  -9.815  29.076  1.00  0.00     0.138 A 
ATOM     11  O   UNL     1      -6.165 -10.183  29.451  1.00  0.00    -0.456 OA
ENDROOT
BRANCH   1  12
ATOM     12  C   UNL     1      -4.202 -10.254  30.879  1.00  0.00     0.017 A 
ATOM     13  C   UNL     1      -1.629 -11.273  31.432  1.00  0.00     0.000 A 
ATOM     14  C   UNL     1      -1.874  -9.904  31.534  1.00  0.00     0.001 A 
ATOM     15  C   UNL     1      -2.656 -12.138  31.057  1.00  0.00     0.001 A 
ATOM     16  C   UNL     1      -3.147  -9.394  31.261  1.00  0.00     0.012 A 
ATOM     17  C   UNL     1      -3.931 -11.636  30.782  1.00  0.00     0.012 A 
ENDBRANCH   1  12
TORSDOF 1
ENDMDL
MODEL 8
REMARK VINA RESULT:    -5.626      3.736      5.452
REMARK INTER + INTRA:          -6.188
REMARK INTER:                  -5.932
REMARK INTRA:                  -0.256
REMARK UNBOUND:                -0.233
REMARK SMILES O=c1cc(-c2ccccc2)oc2ccccc12
REMARK SMILES IDX 4 1 3 2 2 3 1 4 17 5 16 6 15 7 14 8 13 9 12 10 11 11 5 12
REMARK SMILES IDX 8 13 7 14 9 15 6 16 10 17
REMARK H PARENT
REMARK Flexibility Score: inf
ROOT
ATOM      1  C   UNL     1      -8.025 -14.688  19.728  1.00  0.00     0.138 A 
ATOM      2  C   UNL     1      -8.065 -13.714  20.749  1.00  0.00     0.100 A 
ATOM      3  C   UNL     1      -8.458 -14.083  22.037  1.00  0.00     0.193 A 
ATOM      4  O   UNL     1      -8.493 -13.213  22.949  1.00  0.00    -0.289 OA
ATOM      5  C   UNL     1      -8.807 -15.415  22.298  1.00  0.00     0.065 A 
ATOM      6  C   UNL     1      -9.211 -15.852  23.573  1.00  0.00     0.016 A 
ATOM      7  C   UNL     1      -9.549 -17.193  23.778  1.00  0.00     0.001 A 
ATOM      8  C   UNL     1      -9.486 -18.104  22.720  1.00  0.00     0.004 A 
ATOM      9  C   UNL     1      -9.086 -17.679  21.450  1.00  0.00     0.048 A 
ATOM     10  C   UNL     1      -8.745 -16.338  21.233  1.00  0.00     0.138 A 
ATOM     11  O   UNL     1      -8.366 -15.945  20.022  1.00  0.00    -0.456 OA
ENDROOT
BRANCH   1  12
ATOM     12  C   UNL     1      -7.616 -14.379  18.324  1.00  0.00     0.017 A 
ATOM     13  C   UNL     1      -6.784 -13.722  15.708  1.00  0.00     0.000 A 
ATOM     14  C   UNL     1      -7.687 -14.765  15.912  1.00  0.00     0.001 A 
ATOM     15  C   UNL     1      -6.294 -13.003  16.797  1.00  0.00     0.001 A 
ATOM     16  C   UNL     1      -8.102 -15.095  17.206  1.00  0.00     0.012 A 
ATOM     17  C   UNL     1      -6.704 -13.327  18.093  1.00  0.00     0.012 A 
ENDBRANCH   1  12
TORSDOF 1
ENDMDL
