MODEL 1
REMARK VINA RESULT:    -4.930      0.000      0.000
REMARK INTER + INTRA:          -7.834
REMARK INTER:                  -7.524
REMARK INTRA:                  -0.309
REMARK UNBOUND:                -0.309
REMARK SMILES CCCCCCCCCCC(=O)[O-]
REMARK SMILES IDX 7 1 8 2 9 3 10 4 11 5 12 6 13 7 6 8 5 9 4 10 3 11 2 12 1 13
REMARK H PARENT
REMARK Flexibility Score: inf
ROOT
ATOM      1  C   UNL     1       4.164 -36.557  20.075  1.00  0.00     0.000 C 
ENDROOT
BRANCH   1   2
ATOM      2  C   UNL     1       5.389 -36.593  20.996  1.00  0.00     0.000 C 
BRANCH   2   3
ATOM      3  C   UNL     1       4.988 -36.351  22.456  1.00  0.00     0.006 C 
BRANCH   3   4
ATOM      4  C   UNL     1       5.158 -37.623  23.291  1.00  0.00     0.053 C 
BRANCH   4   5
ATOM      5  C   UNL     1       5.278 -37.285  24.744  1.00  0.00     0.041 C 
ATOM      6  O   UNL     1       4.611 -37.922  25.601  1.00  0.00    -0.550 OA
ATOM      7  O   UNL     1       6.091 -36.232  25.147  1.00  0.00    -0.550 OA
ENDBRANCH   4   5
ENDBRANCH   3   4
ENDBRANCH   2   3
ENDBRANCH   1   2
BRANCH   1   8
ATOM      8  C   UNL     1       3.951 -37.916  19.391  1.00  0.00     0.000 C 
BRANCH   8   9
ATOM      9  C   UNL     1       2.772 -37.905  18.405  1.00  0.00    -0.000 C 
BRANCH   9  10
ATOM     10  C   UNL     1       3.115 -37.207  17.079  1.00  0.00    -0.000 C 
BRANCH  10  11
ATOM     11  C   UNL     1       1.939 -37.294  16.096  1.00  0.00    -0.000 C 
BRANCH  11  12
ATOM     12  C   UNL     1       2.384 -37.175  14.629  1.00  0.00    -0.003 C 
ATOM     13  C   UNL     1       3.601 -38.041  14.309  1.00  0.00     0.004 C 
ENDBRANCH  11  12
ENDBRANCH  10  11
ENDBRANCH   9  10
ENDBRANCH   8   9
ENDBRANCH   1   8
TORSDOF 9
ENDMDL
MODEL 2
REMARK VINA RESULT:    -4.755      4.070      7.290
REMARK INTER + INTRA:          -7.565
REMARK INTER:                  -6.888
REMARK INTRA:                  -0.677
REMARK UNBOUND:                -0.309
REMARK SMILES CCCCCCCCCCC(=O)[O-]
REMARK SMILES IDX 7 1 8 2 9 3 10 4 11 5 12 6 13 7 6 8 5 9 4 10 3 11 2 12 1 13
REMARK H PARENT
REMARK Flexibility Score: inf
ROOT
ATOM      1  C   UNL     1       5.427 -36.993  20.610  1.00  0.00     0.000 C 
ENDROOT
BRANCH   1   2
ATOM      2  C   UNL     1       4.535 -37.937  19.795  1.00  0.00     0.000 C 
BRANCH   2   3
ATOM      3  C   UNL     1       3.745 -37.167  18.730  1.00  0.00     0.006 C 
BRANCH   3   4
ATOM      4  C   UNL     1       2.655 -38.047  18.111  1.00  0.00     0.053 C 
BRANCH   4   5
ATOM      5  C   UNL     1       2.491 -37.731  16.657  1.00  0.00     0.041 C 
ATOM      6  O   UNL     1       3.174 -38.343  15.795  1.00  0.00    -0.550 OA
ATOM      7  O   UNL     1       1.617 -36.728  16.258  1.00  0.00    -0.550 OA
ENDBRANCH   4   5
ENDBRANCH   3   4
ENDBRANCH   2   3
ENDBRANCH   1   2
BRANCH   1   8
ATOM      8  C   UNL     1       4.596 -36.194  21.626  1.00  0.00     0.000 C 
BRANCH   8   9
ATOM      9  C   UNL     1       5.436 -35.684  22.808  1.00  0.00    -0.000 C 
BRANCH   9  10
ATOM     10  C   UNL     1       6.052 -36.824  23.633  1.00  0.00    -0.000 C 
BRANCH  10  11
ATOM     11  C   UNL     1       5.015 -37.428  24.591  1.00  0.00    -0.000 C 
BRANCH  11  12
ATOM     12  C   UNL     1       5.015 -38.965  24.570  1.00  0.00    -0.003 C 
ATOM     13  C   UNL     1       4.718 -39.537  23.185  1.00  0.00     0.004 C 
ENDBRANCH  11  12
ENDBRANCH  10  11
ENDBRANCH   9  10
ENDBRANCH   8   9
ENDBRANCH   1   8
TORSDOF 9
ENDMDL
MODEL 3
REMARK VINA RESULT:    -4.742      0.659      1.212
REMARK INTER + INTRA:          -7.546
REMARK INTER:                  -7.142
REMARK INTRA:                  -0.404
REMARK UNBOUND:                -0.309
REMARK SMILES CCCCCCCCCCC(=O)[O-]
REMARK SMILES IDX 7 1 8 2 9 3 10 4 11 5 12 6 13 7 6 8 5 9 4 10 3 11 2 12 1 13
REMARK H PARENT
REMARK Flexibility Score: inf
ROOT
ATOM      1  C   UNL     1       4.877 -37.801  20.541  1.00  0.00     0.000 C 
ENDROOT
BRANCH   1   2
ATOM      2  C   UNL     1       5.440 -36.399  20.806  1.00  0.00     0.000 C 
BRANCH   2   3
ATOM      3  C   UNL     1       5.634 -36.159  22.309  1.00  0.00     0.006 C 
BRANCH   3   4
ATOM      4  C   UNL     1       5.011 -37.291  23.131  1.00  0.00     0.053 C 
BRANCH   4   5
ATOM      5  C   UNL     1       5.284 -37.090  24.589  1.00  0.00     0.041 C 
ATOM      6  O   UNL     1       6.118 -36.225  24.964  1.00  0.00    -0.550 OA
ATOM      7  O   UNL     1       4.651 -37.892  25.531  1.00  0.00    -0.550 OA
ENDBRANCH   4   5
ENDBRANCH   3   4
ENDBRANCH   2   3
ENDBRANCH   1   2
BRANCH   1   8
ATOM      8  C   UNL     1       4.240 -37.881  19.145  1.00  0.00     0.000 C 
BRANCH   8   9
ATOM      9  C   UNL     1       2.714 -38.055  19.200  1.00  0.00    -0.000 C 
BRANCH   9  10
ATOM     10  C   UNL     1       2.052 -37.922  17.820  1.00  0.00    -0.000 C 
BRANCH  10  11
ATOM     11  C   UNL     1       3.095 -37.598  16.741  1.00  0.00    -0.000 C 
BRANCH  11  12
ATOM     12  C   UNL     1       2.481 -37.495  15.336  1.00  0.00    -0.003 C 
ATOM     13  C   UNL     1       3.472 -37.852  14.229  1.00  0.00     0.004 C 
ENDBRANCH  11  12
ENDBRANCH  10  11
ENDBRANCH   9  10
ENDBRANCH   8   9
ENDBRANCH   1   8
TORSDOF 9
ENDMDL
MODEL 4
REMARK VINA RESULT:    -4.709      3.498      6.572
REMARK INTER + INTRA:          -7.496
REMARK INTER:                  -6.563
REMARK INTRA:                  -0.933
REMARK UNBOUND:                -0.309
REMARK SMILES CCCCCCCCCCC(=O)[O-]
REMARK SMILES IDX 7 1 8 2 9 3 10 4 11 5 12 6 13 7 6 8 5 9 4 10 3 11 2 12 1 13
REMARK H PARENT
REMARK Flexibility Score: inf
ROOT
ATOM      1  C   UNL     1       4.657 -35.978  21.998  1.00  0.00     0.000 C 
ENDROOT
BRANCH   1   2
ATOM      2  C   UNL     1       5.639 -36.361  20.884  1.00  0.00     0.000 C 
BRANCH   2   3
ATOM      3  C   UNL     1       4.912 -36.531  19.543  1.00  0.00     0.006 C 
BRANCH   3   4
ATOM      4  C   UNL     1       4.300 -37.930  19.424  1.00  0.00     0.053 C 
BRANCH   4   5
ATOM      5  C   UNL     1       3.061 -37.889  18.584  1.00  0.00     0.041 C 
ATOM      6  O   UNL     1       3.083 -37.346  17.449  1.00  0.00    -0.550 OA
ATOM      7  O   UNL     1       1.871 -38.409  19.078  1.00  0.00    -0.550 OA
ENDBRANCH   4   5
ENDBRANCH   3   4
ENDBRANCH   2   3
ENDBRANCH   1   2
BRANCH   1   8
ATOM      8  C   UNL     1       5.404 -35.657  23.301  1.00  0.00     0.000 C 
BRANCH   8   9
ATOM      9  C   UNL     1       6.026 -36.904  23.950  1.00  0.00    -0.000 C 
BRANCH   9  10
ATOM     10  C   UNL     1       5.021 -37.691  24.805  1.00  0.00    -0.000 C 
BRANCH  10  11
ATOM     11  C   UNL     1       5.046 -39.184  24.445  1.00  0.00    -0.000 C 
BRANCH  11  12
ATOM     12  C   UNL     1       4.452 -39.467  23.057  1.00  0.00    -0.003 C 
ATOM     13  C   UNL     1       5.428 -40.192  22.132  1.00  0.00     0.004 C 
ENDBRANCH  11  12
ENDBRANCH  10  11
ENDBRANCH   9  10
ENDBRANCH   8   9
ENDBRANCH   1   8
TORSDOF 9
ENDMDL
MODEL 5
REMARK VINA RESULT:    -4.685      4.482      7.827
REMARK INTER + INTRA:          -7.458
REMARK INTER:                  -7.084
REMARK INTRA:                  -0.374
REMARK UNBOUND:                -0.309
REMARK SMILES CCCCCCCCCCC(=O)[O-]
REMARK SMILES IDX 7 1 8 2 9 3 10 4 11 5 12 6 13 7 6 8 5 9 4 10 3 11 2 12 1 13
REMARK H PARENT
REMARK Flexibility Score: inf
ROOT
ATOM      1  C   UNL     1       3.924 -36.725  19.350  1.00  0.00     0.000 C 
ENDROOT
BRANCH   1   2
ATOM      2  C   UNL     1       3.526 -38.056  18.701  1.00  0.00     0.000 C 
BRANCH   2   3
ATOM      3  C   UNL     1       2.439 -37.848  17.639  1.00  0.00     0.006 C 
BRANCH   3   4
ATOM      4  C   UNL     1       2.935 -36.933  16.517  1.00  0.00     0.053 C 
BRANCH   4   5
ATOM      5  C   UNL     1       2.855 -37.633  15.196  1.00  0.00     0.041 C 
ATOM      6  O   UNL     1       3.529 -38.676  14.990  1.00  0.00    -0.550 OA
ATOM      7  O   UNL     1       2.075 -37.104  14.176  1.00  0.00    -0.550 OA
ENDBRANCH   4   5
ENDBRANCH   3   4
ENDBRANCH   2   3
ENDBRANCH   1   2
BRANCH   1   8
ATOM      8  C   UNL     1       5.323 -36.817  19.978  1.00  0.00     0.000 C 
BRANCH   8   9
ATOM      9  C   UNL     1       5.281 -37.210  21.463  1.00  0.00    -0.000 C 
BRANCH   9  10
ATOM     10  C   UNL     1       5.758 -36.081  22.389  1.00  0.00    -0.000 C 
BRANCH  10  11
ATOM     11  C   UNL     1       5.370 -36.367  23.847  1.00  0.00    -0.000 C 
BRANCH  11  12
ATOM     12  C   UNL     1       4.951 -37.829  24.070  1.00  0.00    -0.003 C 
ATOM     13  C   UNL     1       4.901 -38.211  25.549  1.00  0.00     0.004 C 
ENDBRANCH  11  12
ENDBRANCH  10  11
ENDBRANCH   9  10
ENDBRANCH   8   9
ENDBRANCH   1   8
TORSDOF 9
ENDMDL
MODEL 6
REMARK VINA RESULT:    -4.648      1.488      2.097
REMARK INTER + INTRA:          -7.402
REMARK INTER:                  -6.877
REMARK INTRA:                  -0.524
REMARK UNBOUND:                -0.309
REMARK SMILES CCCCCCCCCCC(=O)[O-]
REMARK SMILES IDX 7 1 8 2 9 3 10 4 11 5 12 6 13 7 6 8 5 9 4 10 3 11 2 12 1 13
REMARK H PARENT
REMARK Flexibility Score: inf
ROOT
ATOM      1  C   UNL     1       3.773 -37.778  18.613  1.00  0.00     0.000 C 
ENDROOT
BRANCH   1   2
ATOM      2  C   UNL     1       3.889 -36.755  19.749  1.00  0.00     0.000 C 
BRANCH   2   3
ATOM      3  C   UNL     1       5.022 -37.128  20.713  1.00  0.00     0.006 C 
BRANCH   3   4
ATOM      4  C   UNL     1       4.981 -38.619  21.058  1.00  0.00     0.053 C 
BRANCH   4   5
ATOM      5  C   UNL     1       4.754 -38.811  22.525  1.00  0.00     0.041 C 
ATOM      6  O   UNL     1       4.371 -39.926  22.965  1.00  0.00    -0.550 OA
ATOM      7  O   UNL     1       4.920 -37.744  23.399  1.00  0.00    -0.550 OA
ENDBRANCH   4   5
ENDBRANCH   3   4
ENDBRANCH   2   3
ENDBRANCH   1   2
BRANCH   1   8
ATOM      8  C   UNL     1       2.308 -38.178  18.381  1.00  0.00     0.000 C 
BRANCH   8   9
ATOM      9  C   UNL     1       1.688 -37.476  17.162  1.00  0.00    -0.000 C 
BRANCH   9  10
ATOM     10  C   UNL     1       2.747 -36.924  16.194  1.00  0.00    -0.000 C 
BRANCH  10  11
ATOM     11  C   UNL     1       2.527 -37.467  14.775  1.00  0.00    -0.000 C 
BRANCH  11  12
ATOM     12  C   UNL     1       3.846 -37.806  14.062  1.00  0.00    -0.003 C 
ATOM     13  C   UNL     1       4.178 -39.296  14.110  1.00  0.00     0.004 C 
ENDBRANCH  11  12
ENDBRANCH  10  11
ENDBRANCH   9  10
ENDBRANCH   8   9
ENDBRANCH   1   8
TORSDOF 9
ENDMDL
MODEL 7
REMARK VINA RESULT:    -4.460      4.332      7.577
REMARK INTER + INTRA:          -7.116
REMARK INTER:                  -6.670
REMARK INTRA:                  -0.446
REMARK UNBOUND:                -0.309
REMARK SMILES CCCCCCCCCCC(=O)[O-]
REMARK SMILES IDX 7 1 8 2 9 3 10 4 11 5 12 6 13 7 6 8 5 9 4 10 3 11 2 12 1 13
REMARK H PARENT
REMARK Flexibility Score: inf
ROOT
ATOM      1  C   UNL     1       4.295 -37.805  19.418  1.00  0.00     0.000 C 
ENDROOT
BRANCH   1   2
ATOM      2  C   UNL     1       2.854 -38.329  19.463  1.00  0.00     0.000 C 
BRANCH   2   3
ATOM      3  C   UNL     1       2.118 -38.030  18.151  1.00  0.00     0.006 C 
BRANCH   3   4
ATOM      4  C   UNL     1       3.102 -37.907  16.984  1.00  0.00     0.053 C 
BRANCH   4   5
ATOM      5  C   UNL     1       2.489 -37.129  15.862  1.00  0.00     0.041 C 
ATOM      6  O   UNL     1       1.492 -36.391  16.073  1.00  0.00    -0.550 OA
ATOM      7  O   UNL     1       2.990 -37.259  14.573  1.00  0.00    -0.550 OA
ENDBRANCH   4   5
ENDBRANCH   3   4
ENDBRANCH   2   3
ENDBRANCH   1   2
BRANCH   1   8
ATOM      8  C   UNL     1       4.766 -37.374  20.815  1.00  0.00     0.000 C 
BRANCH   8   9
ATOM      9  C   UNL     1       4.660 -38.504  21.851  1.00  0.00    -0.000 C 
BRANCH   9  10
ATOM     10  C   UNL     1       5.329 -38.149  23.188  1.00  0.00    -0.000 C 
BRANCH  10  11
ATOM     11  C   UNL     1       6.062 -36.803  23.092  1.00  0.00    -0.000 C 
BRANCH  11  12
ATOM     12  C   UNL     1       5.721 -35.861  24.258  1.00  0.00    -0.003 C 
ATOM     13  C   UNL     1       6.125 -34.413  23.985  1.00  0.00     0.004 C 
ENDBRANCH  11  12
ENDBRANCH  10  11
ENDBRANCH   9  10
ENDBRANCH   8   9
ENDBRANCH   1   8
TORSDOF 9
ENDMDL
MODEL 8
REMARK VINA RESULT:    -4.323      1.384      2.336
REMARK INTER + INTRA:          -6.906
REMARK INTER:                  -6.510
REMARK INTRA:                  -0.397
REMARK UNBOUND:                -0.309
REMARK SMILES CCCCCCCCCCC(=O)[O-]
REMARK SMILES IDX 7 1 8 2 9 3 10 4 11 5 12 6 13 7 6 8 5 9 4 10 3 11 2 12 1 13
REMARK H PARENT
REMARK Flexibility Score: inf
ROOT
ATOM      1  C   UNL     1       4.867 -35.830  22.067  1.00  0.00     0.000 C 
ENDROOT
BRANCH   1   2
ATOM      2  C   UNL     1       5.860 -35.304  23.111  1.00  0.00     0.000 C 
BRANCH   2   3
ATOM      3  C   UNL     1       5.678 -36.021  24.454  1.00  0.00     0.006 C 
BRANCH   3   4
ATOM      4  C   UNL     1       6.125 -37.483  24.362  1.00  0.00     0.053 C 
BRANCH   4   5
ATOM      5  C   UNL     1       4.991 -38.400  24.700  1.00  0.00     0.041 C 
ATOM      6  O   UNL     1       4.650 -39.307  23.897  1.00  0.00    -0.550 OA
ATOM      7  O   UNL     1       4.281 -38.221  25.881  1.00  0.00    -0.550 OA
ENDBRANCH   4   5
ENDBRANCH   3   4
ENDBRANCH   2   3
ENDBRANCH   1   2
BRANCH   1   8
ATOM      8  C   UNL     1       5.603 -36.514  20.905  1.00  0.00     0.000 C 
BRANCH   8   9
ATOM      9  C   UNL     1       4.736 -37.562  20.190  1.00  0.00    -0.000 C 
BRANCH   9  10
ATOM     10  C   UNL     1       4.014 -36.993  18.958  1.00  0.00    -0.000 C 
BRANCH  10  11
ATOM     11  C   UNL     1       2.827 -37.882  18.560  1.00  0.00    -0.000 C 
BRANCH  11  12
ATOM     12  C   UNL     1       2.733 -38.099  17.041  1.00  0.00    -0.003 C 
ATOM     13  C   UNL     1       2.576 -36.792  16.266  1.00  0.00     0.004 C 
ENDBRANCH  11  12
ENDBRANCH  10  11
ENDBRANCH   9  10
ENDBRANCH   8   9
ENDBRANCH   1   8
TORSDOF 9
ENDMDL
MODEL 9
REMARK VINA RESULT:    -4.289      3.905      7.103
REMARK INTER + INTRA:          -6.855
REMARK INTER:                  -6.260
REMARK INTRA:                  -0.595
REMARK UNBOUND:                -0.309
REMARK SMILES CCCCCCCCCCC(=O)[O-]
REMARK SMILES IDX 7 1 8 2 9 3 10 4 11 5 12 6 13 7 6 8 5 9 4 10 3 11 2 12 1 13
REMARK H PARENT
REMARK Flexibility Score: inf
ROOT
ATOM      1  C   UNL     1       4.173 -38.803  21.383  1.00  0.00     0.000 C 
ENDROOT
BRANCH   1   2
ATOM      2  C   UNL     1       4.939 -38.164  20.219  1.00  0.00     0.000 C 
BRANCH   2   3
ATOM      3  C   UNL     1       4.003 -37.329  19.335  1.00  0.00     0.006 C 
BRANCH   3   4
ATOM      4  C   UNL     1       2.721 -38.101  19.010  1.00  0.00     0.053 C 
BRANCH   4   5
ATOM      5  C   UNL     1       2.339 -37.902  17.577  1.00  0.00     0.041 C 
ATOM      6  O   UNL     1       3.222 -37.903  16.680  1.00  0.00    -0.550 OA
ATOM      7  O   UNL     1       1.013 -37.665  17.238  1.00  0.00    -0.550 OA
ENDBRANCH   4   5
ENDBRANCH   3   4
ENDBRANCH   2   3
ENDBRANCH   1   2
BRANCH   1   8
ATOM      8  C   UNL     1       5.142 -39.389  22.421  1.00  0.00     0.000 C 
BRANCH   8   9
ATOM      9  C   UNL     1       4.657 -39.185  23.865  1.00  0.00    -0.000 C 
BRANCH   9  10
ATOM     10  C   UNL     1       4.869 -37.747  24.365  1.00  0.00    -0.000 C 
BRANCH  10  11
ATOM     11  C   UNL     1       6.125 -37.129  23.734  1.00  0.00    -0.000 C 
BRANCH  11  12
ATOM     12  C   UNL     1       5.845 -35.772  23.069  1.00  0.00    -0.003 C 
ATOM     13  C   UNL     1       6.112 -34.590  24.000  1.00  0.00     0.004 C 
ENDBRANCH  11  12
ENDBRANCH  10  11
ENDBRANCH   9  10
ENDBRANCH   8   9
ENDBRANCH   1   8
TORSDOF 9
ENDMDL
