MODEL 1
REMARK VINA RESULT:    -3.911      0.000      0.000
REMARK INTER + INTRA:          -6.192
REMARK INTER:                  -5.511
REMARK INTRA:                  -0.680
REMARK UNBOUND:                -0.680
REMARK SMILES CCCCCCCCC(=O)[O-]
REMARK SMILES IDX 6 1 7 2 8 3 9 4 10 5 11 6 5 7 4 8 3 9 2 10 1 11
REMARK H PARENT
REMARK Flexibility Score: inf
ROOT
ATOM      1  C   UNL     1     -22.874  19.251 -24.194  1.00  0.00     0.000 C 
ENDROOT
BRANCH   1   2
ATOM      2  C   UNL     1     -21.738  19.854 -25.033  1.00  0.00     0.006 C 
BRANCH   2   3
ATOM      3  C   UNL     1     -20.671  18.814 -25.399  1.00  0.00     0.053 C 
BRANCH   3   4
ATOM      4  C   UNL     1     -21.154  17.875 -26.460  1.00  0.00     0.041 C 
ATOM      5  O   UNL     1     -21.454  16.687 -26.168  1.00  0.00    -0.550 OA
ATOM      6  O   UNL     1     -21.244  18.302 -27.779  1.00  0.00    -0.550 OA
ENDBRANCH   3   4
ENDBRANCH   2   3
ENDBRANCH   1   2
BRANCH   1   7
ATOM      7  C   UNL     1     -22.907  19.864 -22.789  1.00  0.00     0.000 C 
BRANCH   7   8
ATOM      8  C   UNL     1     -22.684  18.789 -21.715  1.00  0.00    -0.000 C 
BRANCH   8   9
ATOM      9  C   UNL     1     -22.563  17.375 -22.308  1.00  0.00    -0.000 C 
BRANCH   9  10
ATOM     10  C   UNL     1     -21.363  16.601 -21.744  1.00  0.00    -0.003 C 
ATOM     11  C   UNL     1     -20.258  16.464 -22.788  1.00  0.00     0.004 C 
ENDBRANCH   9  10
ENDBRANCH   8   9
ENDBRANCH   7   8
ENDBRANCH   1   7
TORSDOF 7
ENDMDL
MODEL 2
REMARK VINA RESULT:    -3.908     10.836     12.760
REMARK INTER + INTRA:          -6.188
REMARK INTER:                  -5.879
REMARK INTRA:                  -0.309
REMARK UNBOUND:                -0.680
REMARK SMILES CCCCCCCCC(=O)[O-]
REMARK SMILES IDX 6 1 7 2 8 3 9 4 10 5 11 6 5 7 4 8 3 9 2 10 1 11
REMARK H PARENT
REMARK Flexibility Score: inf
ROOT
ATOM      1  C   UNL     1     -11.651  15.873 -19.305  1.00  0.00     0.000 C 
ENDROOT
BRANCH   1   2
ATOM      2  C   UNL     1     -11.296  14.539 -18.632  1.00  0.00     0.006 C 
BRANCH   2   3
ATOM      3  C   UNL     1     -10.008  14.632 -17.802  1.00  0.00     0.053 C 
BRANCH   3   4
ATOM      4  C   UNL     1     -10.149  13.941 -16.482  1.00  0.00     0.041 C 
ATOM      5  O   UNL     1     -11.224  13.358 -16.182  1.00  0.00    -0.550 OA
ATOM      6  O   UNL     1      -9.104  13.968 -15.568  1.00  0.00    -0.550 OA
ENDBRANCH   3   4
ENDBRANCH   2   3
ENDBRANCH   1   2
BRANCH   1   7
ATOM      7  C   UNL     1     -12.854  15.713 -20.243  1.00  0.00     0.000 C 
BRANCH   7   8
ATOM      8  C   UNL     1     -13.233  17.056 -20.884  1.00  0.00    -0.000 C 
BRANCH   8   9
ATOM      9  C   UNL     1     -12.755  17.174 -22.340  1.00  0.00    -0.000 C 
BRANCH   9  10
ATOM     10  C   UNL     1     -12.113  18.535 -22.643  1.00  0.00    -0.003 C 
ATOM     11  C   UNL     1     -11.086  18.906 -21.577  1.00  0.00     0.004 C 
ENDBRANCH   9  10
ENDBRANCH   8   9
ENDBRANCH   7   8
ENDBRANCH   1   7
TORSDOF 7
ENDMDL
MODEL 3
REMARK VINA RESULT:    -3.858      2.750      4.363
REMARK INTER + INTRA:          -6.117
REMARK INTER:                  -5.346
REMARK INTRA:                  -0.771
REMARK UNBOUND:                -0.680
REMARK SMILES CCCCCCCCC(=O)[O-]
REMARK SMILES IDX 6 1 7 2 8 3 9 4 10 5 11 6 5 7 4 8 3 9 2 10 1 11
REMARK H PARENT
REMARK Flexibility Score: inf
ROOT
ATOM      1  C   UNL     1     -21.008  17.252 -24.756  1.00  0.00     0.000 C 
ENDROOT
BRANCH   1   2
ATOM      2  C   UNL     1     -20.576  16.092 -23.847  1.00  0.00     0.006 C 
BRANCH   2   3
ATOM      3  C   UNL     1     -20.568  16.487 -22.364  1.00  0.00     0.053 C 
BRANCH   3   4
ATOM      4  C   UNL     1     -21.471  15.611 -21.553  1.00  0.00     0.041 C 
ATOM      5  O   UNL     1     -20.985  14.758 -20.764  1.00  0.00    -0.550 OA
ATOM      6  O   UNL     1     -22.849  15.715 -21.690  1.00  0.00    -0.550 OA
ENDBRANCH   3   4
ENDBRANCH   2   3
ENDBRANCH   1   2
BRANCH   1   7
ATOM      7  C   UNL     1     -22.492  17.139 -25.124  1.00  0.00     0.000 C 
BRANCH   7   8
ATOM      8  C   UNL     1     -23.334  18.146 -24.327  1.00  0.00    -0.000 C 
BRANCH   8   9
ATOM      9  C   UNL     1     -22.623  19.496 -24.139  1.00  0.00    -0.000 C 
BRANCH   9  10
ATOM     10  C   UNL     1     -23.021  20.196 -22.831  1.00  0.00    -0.003 C 
ATOM     11  C   UNL     1     -22.824  19.272 -21.632  1.00  0.00     0.004 C 
ENDBRANCH   9  10
ENDBRANCH   8   9
ENDBRANCH   7   8
ENDBRANCH   1   7
TORSDOF 7
ENDMDL
MODEL 4
REMARK VINA RESULT:    -3.826      1.213      3.004
REMARK INTER + INTRA:          -6.072
REMARK INTER:                  -5.328
REMARK INTRA:                  -0.744
REMARK UNBOUND:                -0.680
REMARK SMILES CCCCCCCCC(=O)[O-]
REMARK SMILES IDX 6 1 7 2 8 3 9 4 10 5 11 6 5 7 4 8 3 9 2 10 1 11
REMARK H PARENT
REMARK Flexibility Score: inf
ROOT
ATOM      1  C   UNL     1     -20.251  16.476 -22.689  1.00  0.00     0.000 C 
ENDROOT
BRANCH   1   2
ATOM      2  C   UNL     1     -20.759  16.682 -24.124  1.00  0.00     0.006 C 
BRANCH   2   3
ATOM      3  C   UNL     1     -20.325  18.035 -24.705  1.00  0.00     0.053 C 
BRANCH   3   4
ATOM      4  C   UNL     1     -21.417  18.668 -25.510  1.00  0.00     0.041 C 
ATOM      5  O   UNL     1     -21.359  19.891 -25.807  1.00  0.00    -0.550 OA
ATOM      6  O   UNL     1     -22.515  17.915 -25.906  1.00  0.00    -0.550 OA
ENDBRANCH   3   4
ENDBRANCH   2   3
ENDBRANCH   1   2
BRANCH   1   7
ATOM      7  C   UNL     1     -21.420  16.358 -21.704  1.00  0.00     0.000 C 
BRANCH   7   8
ATOM      8  C   UNL     1     -22.754  16.680 -22.392  1.00  0.00    -0.000 C 
BRANCH   8   9
ATOM      9  C   UNL     1     -23.517  17.822 -21.701  1.00  0.00    -0.000 C 
BRANCH   9  10
ATOM     10  C   UNL     1     -22.686  19.108 -21.597  1.00  0.00    -0.003 C 
ATOM     11  C   UNL     1     -23.153  20.147 -22.613  1.00  0.00     0.004 C 
ENDBRANCH   9  10
ENDBRANCH   8   9
ENDBRANCH   7   8
ENDBRANCH   1   7
TORSDOF 7
ENDMDL
MODEL 5
REMARK VINA RESULT:    -3.793      2.133      4.454
REMARK INTER + INTRA:          -6.026
REMARK INTER:                  -5.503
REMARK INTRA:                  -0.523
REMARK UNBOUND:                -0.680
REMARK SMILES CCCCCCCCC(=O)[O-]
REMARK SMILES IDX 6 1 7 2 8 3 9 4 10 5 11 6 5 7 4 8 3 9 2 10 1 11
REMARK H PARENT
REMARK Flexibility Score: inf
ROOT
ATOM      1  C   UNL     1     -23.056  17.805 -24.542  1.00  0.00     0.000 C 
ENDROOT
BRANCH   1   2
ATOM      2  C   UNL     1     -23.322  17.449 -23.072  1.00  0.00     0.006 C 
BRANCH   2   3
ATOM      3  C   UNL     1     -22.140  17.815 -22.162  1.00  0.00     0.053 C 
BRANCH   3   4
ATOM      4  C   UNL     1     -21.118  16.723 -22.117  1.00  0.00     0.041 C 
ATOM      5  O   UNL     1     -20.094  16.781 -22.848  1.00  0.00    -0.550 OA
ATOM      6  O   UNL     1     -21.311  15.624 -21.290  1.00  0.00    -0.550 OA
ENDBRANCH   3   4
ENDBRANCH   2   3
ENDBRANCH   1   2
BRANCH   1   7
ATOM      7  C   UNL     1     -22.724  19.294 -24.696  1.00  0.00     0.000 C 
BRANCH   7   8
ATOM      8  C   UNL     1     -21.347  19.485 -25.348  1.00  0.00    -0.000 C 
BRANCH   8   9
ATOM      9  C   UNL     1     -20.887  18.247 -26.136  1.00  0.00    -0.000 C 
BRANCH   9  10
ATOM     10  C   UNL     1     -21.155  18.374 -27.643  1.00  0.00    -0.003 C 
ATOM     11  C   UNL     1     -20.562  17.193 -28.406  1.00  0.00     0.004 C 
ENDBRANCH   9  10
ENDBRANCH   8   9
ENDBRANCH   7   8
ENDBRANCH   1   7
TORSDOF 7
ENDMDL
MODEL 6
REMARK VINA RESULT:    -3.792      1.741      2.864
REMARK INTER + INTRA:          -6.024
REMARK INTER:                  -5.471
REMARK INTRA:                  -0.552
REMARK UNBOUND:                -0.680
REMARK SMILES CCCCCCCCC(=O)[O-]
REMARK SMILES IDX 6 1 7 2 8 3 9 4 10 5 11 6 5 7 4 8 3 9 2 10 1 11
REMARK H PARENT
REMARK Flexibility Score: inf
ROOT
ATOM      1  C   UNL     1     -21.873  21.334 -24.926  1.00  0.00     0.000 C 
ENDROOT
BRANCH   1   2
ATOM      2  C   UNL     1     -22.256  19.853 -25.057  1.00  0.00     0.006 C 
BRANCH   2   3
ATOM      3  C   UNL     1     -21.030  18.951 -25.254  1.00  0.00     0.053 C 
BRANCH   3   4
ATOM      4  C   UNL     1     -21.155  18.108 -26.485  1.00  0.00     0.041 C 
ATOM      5  O   UNL     1     -21.223  16.854 -26.391  1.00  0.00    -0.550 OA
ATOM      6  O   UNL     1     -21.164  18.705 -27.739  1.00  0.00    -0.550 OA
ENDBRANCH   3   4
ENDBRANCH   2   3
ENDBRANCH   1   2
BRANCH   1   7
ATOM      7  C   UNL     1     -23.088  22.184 -24.536  1.00  0.00     0.000 C 
BRANCH   7   8
ATOM      8  C   UNL     1     -23.073  22.508 -23.035  1.00  0.00    -0.000 C 
BRANCH   8   9
ATOM      9  C   UNL     1     -23.979  21.572 -22.218  1.00  0.00    -0.000 C 
BRANCH   9  10
ATOM     10  C   UNL     1     -23.234  20.891 -21.061  1.00  0.00    -0.003 C 
ATOM     11  C   UNL     1     -22.808  19.476 -21.441  1.00  0.00     0.004 C 
ENDBRANCH   9  10
ENDBRANCH   8   9
ENDBRANCH   7   8
ENDBRANCH   1   7
TORSDOF 7
ENDMDL
MODEL 7
REMARK VINA RESULT:    -3.778      2.438      3.426
REMARK INTER + INTRA:          -6.004
REMARK INTER:                  -5.473
REMARK INTRA:                  -0.530
REMARK UNBOUND:                -0.680
REMARK SMILES CCCCCCCCC(=O)[O-]
REMARK SMILES IDX 6 1 7 2 8 3 9 4 10 5 11 6 5 7 4 8 3 9 2 10 1 11
REMARK H PARENT
REMARK Flexibility Score: inf
ROOT
ATOM      1  C   UNL     1     -22.860  19.717 -21.443  1.00  0.00     0.000 C 
ENDROOT
BRANCH   1   2
ATOM      2  C   UNL     1     -23.260  20.811 -22.444  1.00  0.00     0.006 C 
BRANCH   2   3
ATOM      3  C   UNL     1     -22.844  20.464 -23.880  1.00  0.00     0.053 C 
BRANCH   3   4
ATOM      4  C   UNL     1     -22.568  21.693 -24.689  1.00  0.00     0.041 C 
ATOM      5  O   UNL     1     -21.472  21.820 -25.297  1.00  0.00    -0.550 OA
ATOM      6  O   UNL     1     -23.508  22.714 -24.746  1.00  0.00    -0.550 OA
ENDBRANCH   3   4
ENDBRANCH   2   3
ENDBRANCH   1   2
BRANCH   1   7
ATOM      7  C   UNL     1     -23.074  18.321 -22.038  1.00  0.00     0.000 C 
BRANCH   7   8
ATOM      8  C   UNL     1     -21.810  17.461 -21.892  1.00  0.00    -0.000 C 
BRANCH   8   9
ATOM      9  C   UNL     1     -21.435  16.732 -23.192  1.00  0.00    -0.000 C 
BRANCH   9  10
ATOM     10  C   UNL     1     -20.052  17.140 -23.719  1.00  0.00    -0.003 C 
ATOM     11  C   UNL     1     -20.173  18.172 -24.837  1.00  0.00     0.004 C 
ENDBRANCH   9  10
ENDBRANCH   8   9
ENDBRANCH   7   8
ENDBRANCH   1   7
TORSDOF 7
ENDMDL
MODEL 8
REMARK VINA RESULT:    -3.677      1.685      2.693
REMARK INTER + INTRA:          -5.862
REMARK INTER:                  -5.318
REMARK INTRA:                  -0.544
REMARK UNBOUND:                -0.680
REMARK SMILES CCCCCCCCC(=O)[O-]
REMARK SMILES IDX 6 1 7 2 8 3 9 4 10 5 11 6 5 7 4 8 3 9 2 10 1 11
REMARK H PARENT
REMARK Flexibility Score: inf
ROOT
ATOM      1  C   UNL     1     -20.119  17.173 -23.871  1.00  0.00     0.000 C 
ENDROOT
BRANCH   1   2
ATOM      2  C   UNL     1     -21.373  17.860 -24.430  1.00  0.00     0.006 C 
BRANCH   2   3
ATOM      3  C   UNL     1     -21.791  17.289 -25.792  1.00  0.00     0.053 C 
BRANCH   3   4
ATOM      4  C   UNL     1     -21.405  18.198 -26.916  1.00  0.00     0.041 C 
ATOM      5  O   UNL     1     -21.188  17.730 -28.066  1.00  0.00    -0.550 OA
ATOM      6  O   UNL     1     -21.255  19.560 -26.689  1.00  0.00    -0.550 OA
ENDBRANCH   3   4
ENDBRANCH   2   3
ENDBRANCH   1   2
BRANCH   1   7
ATOM      7  C   UNL     1     -20.416  16.494 -22.529  1.00  0.00     0.000 C 
BRANCH   7   8
ATOM      8  C   UNL     1     -21.758  16.974 -21.955  1.00  0.00    -0.000 C 
BRANCH   8   9
ATOM      9  C   UNL     1     -22.693  15.811 -21.585  1.00  0.00    -0.000 C 
BRANCH   9  10
ATOM     10  C   UNL     1     -24.162  16.246 -21.480  1.00  0.00    -0.003 C 
ATOM     11  C   UNL     1     -24.519  17.244 -22.578  1.00  0.00     0.004 C 
ENDBRANCH   9  10
ENDBRANCH   8   9
ENDBRANCH   7   8
ENDBRANCH   1   7
TORSDOF 7
ENDMDL
MODEL 9
REMARK VINA RESULT:    -3.676      3.091      5.003
REMARK INTER + INTRA:          -5.861
REMARK INTER:                  -5.162
REMARK INTRA:                  -0.699
REMARK UNBOUND:                -0.680
REMARK SMILES CCCCCCCCC(=O)[O-]
REMARK SMILES IDX 6 1 7 2 8 3 9 4 10 5 11 6 5 7 4 8 3 9 2 10 1 11
REMARK H PARENT
REMARK Flexibility Score: inf
ROOT
ATOM      1  C   UNL     1     -20.309  16.816 -23.392  1.00  0.00     0.000 C 
ENDROOT
BRANCH   1   2
ATOM      2  C   UNL     1     -21.022  16.693 -22.038  1.00  0.00     0.006 C 
BRANCH   2   3
ATOM      3  C   UNL     1     -22.549  16.636 -22.188  1.00  0.00     0.053 C 
BRANCH   3   4
ATOM      4  C   UNL     1     -23.145  15.534 -21.369  1.00  0.00     0.041 C 
ATOM      5  O   UNL     1     -22.400  14.732 -20.746  1.00  0.00    -0.550 OA
ATOM      6  O   UNL     1     -24.523  15.373 -21.317  1.00  0.00    -0.550 OA
ENDBRANCH   3   4
ENDBRANCH   2   3
ENDBRANCH   1   2
BRANCH   1   7
ATOM      7  C   UNL     1     -21.199  16.306 -24.531  1.00  0.00     0.000 C 
BRANCH   7   8
ATOM      8  C   UNL     1     -21.423  17.400 -25.585  1.00  0.00    -0.000 C 
BRANCH   8   9
ATOM      9  C   UNL     1     -20.593  18.665 -25.311  1.00  0.00    -0.000 C 
BRANCH   9  10
ATOM     10  C   UNL     1     -21.454  19.935 -25.260  1.00  0.00    -0.003 C 
ATOM     11  C   UNL     1     -22.526  19.828 -24.178  1.00  0.00     0.004 C 
ENDBRANCH   9  10
ENDBRANCH   8   9
ENDBRANCH   7   8
ENDBRANCH   1   7
TORSDOF 7
ENDMDL
