MODEL 1
REMARK VINA RESULT:    -8.076      0.000      0.000
REMARK INTER + INTRA:         -13.467
REMARK INTER:                 -12.561
REMARK INTRA:                  -0.906
REMARK UNBOUND:                -0.906
REMARK SMILES COc1cc(CNC(=O)CCCCC=CC(C)C)ccc1O
REMARK SMILES IDX 11 1 12 2 13 3 14 4 15 5 16 6 17 7 18 8 10 9 8 10 9 11 7 12
REMARK SMILES IDX 6 14 5 15 4 16 19 17 3 18 20 19 21 20 2 21 1 22 22 23
REMARK H PARENT 7 13 22 24
REMARK Flexibility Score: inf
ROOT
ATOM      1  C   UNL     1     -27.817 -21.355  -9.194  1.00  0.00     0.010 C 
ENDROOT
BRANCH   1   2
ATOM      2  C   UNL     1     -29.045 -20.661  -8.585  1.00  0.00     0.005 C 
BRANCH   2   3
ATOM      3  C   UNL     1     -28.789 -19.188  -8.247  1.00  0.00     0.027 C 
BRANCH   3   4
ATOM      4  C   UNL     1     -28.681 -18.983  -6.761  1.00  0.00    -0.031 C 
ATOM      5  C   UNL     1     -28.562 -20.032  -5.929  1.00  0.00    -0.028 C 
BRANCH   5   6
ATOM      6  C   UNL     1     -28.469 -19.880  -4.428  1.00  0.00     0.005 C 
ATOM      7  C   UNL     1     -28.376 -18.406  -4.019  1.00  0.00     0.012 C 
ATOM      8  C   UNL     1     -29.637 -20.580  -3.724  1.00  0.00     0.012 C 
ENDBRANCH   5   6
ENDBRANCH   3   4
ENDBRANCH   2   3
ENDBRANCH   1   2
BRANCH   1   9
ATOM      9  C   UNL     1     -27.399 -22.613  -8.420  1.00  0.00     0.100 C 
BRANCH   9  10
ATOM     10  C   UNL     1     -26.479 -23.454  -9.254  1.00  0.00     0.220 C 
ATOM     11  O   UNL     1     -26.841 -24.611  -9.602  1.00  0.00    -0.275 OA
ATOM     12  N   UNL     1     -25.223 -22.922  -9.699  1.00  0.00    -0.352 N 
ATOM     13  H   UNL     1     -24.941 -21.961  -9.397  1.00  0.00     0.163 HD
BRANCH  12  14
ATOM     14  C   UNL     1     -24.330 -23.657 -10.593  1.00  0.00     0.151 C 
BRANCH  14  15
ATOM     15  C   UNL     1     -24.579 -23.267 -12.026  1.00  0.00    -0.025 A 
ATOM     16  C   UNL     1     -24.409 -21.933 -12.434  1.00  0.00     0.056 A 
ATOM     17  C   UNL     1     -24.974 -24.231 -12.965  1.00  0.00     0.009 A 
ATOM     18  C   UNL     1     -24.628 -21.559 -13.776  1.00  0.00     0.160 A 
ATOM     19  C   UNL     1     -25.197 -23.867 -14.293  1.00  0.00     0.050 A 
ATOM     20  C   UNL     1     -25.028 -22.538 -14.704  1.00  0.00     0.157 A 
BRANCH  18  21
ATOM     21  O   UNL     1     -24.459 -20.234 -14.217  1.00  0.00    -0.493 OA
ATOM     22  C   UNL     1     -24.743 -19.077 -13.434  1.00  0.00     0.278 C 
ENDBRANCH  18  21
BRANCH  20  23
ATOM     23  O   UNL     1     -25.260 -22.212 -16.040  1.00  0.00    -0.504 OA
ATOM     24  H   UNL     1     -25.815 -22.801 -16.653  1.00  0.00     0.293 HD
ENDBRANCH  20  23
ENDBRANCH  14  15
ENDBRANCH  12  14
ENDBRANCH   9  10
ENDBRANCH   1   9
TORSDOF 10
ENDMDL
MODEL 2
REMARK VINA RESULT:    -8.033      0.930      2.043
REMARK INTER + INTRA:         -13.401
REMARK INTER:                 -12.586
REMARK INTRA:                  -0.815
REMARK UNBOUND:                -0.906
REMARK SMILES COc1cc(CNC(=O)CCCCC=CC(C)C)ccc1O
REMARK SMILES IDX 11 1 12 2 13 3 14 4 15 5 16 6 17 7 18 8 10 9 8 10 9 11 7 12
REMARK SMILES IDX 6 14 5 15 4 16 19 17 3 18 20 19 21 20 2 21 1 22 22 23
REMARK H PARENT 7 13 22 24
REMARK Flexibility Score: inf
ROOT
ATOM      1  C   UNL     1     -27.788 -21.400  -8.983  1.00  0.00     0.010 C 
ENDROOT
BRANCH   1   2
ATOM      2  C   UNL     1     -29.105 -20.735  -8.554  1.00  0.00     0.005 C 
BRANCH   2   3
ATOM      3  C   UNL     1     -28.948 -19.238  -8.261  1.00  0.00     0.027 C 
BRANCH   3   4
ATOM      4  C   UNL     1     -28.658 -18.999  -6.805  1.00  0.00    -0.031 C 
ATOM      5  C   UNL     1     -28.722 -20.005  -5.916  1.00  0.00    -0.028 C 
BRANCH   5   6
ATOM      6  C   UNL     1     -28.458 -19.811  -4.440  1.00  0.00     0.005 C 
ATOM      7  C   UNL     1     -28.404 -18.324  -4.071  1.00  0.00     0.012 C 
ATOM      8  C   UNL     1     -29.488 -20.559  -3.586  1.00  0.00     0.012 C 
ENDBRANCH   5   6
ENDBRANCH   3   4
ENDBRANCH   2   3
ENDBRANCH   1   2
BRANCH   1   9
ATOM      9  C   UNL     1     -27.573 -22.772  -8.329  1.00  0.00     0.100 C 
BRANCH   9  10
ATOM     10  C   UNL     1     -26.546 -23.555  -9.090  1.00  0.00     0.220 C 
ATOM     11  O   UNL     1     -26.740 -24.781  -9.314  1.00  0.00    -0.275 OA
ATOM     12  N   UNL     1     -25.380 -22.898  -9.610  1.00  0.00    -0.352 N 
ATOM     13  H   UNL     1     -25.237 -21.881  -9.411  1.00  0.00     0.163 HD
BRANCH  12  14
ATOM     14  C   UNL     1     -24.394 -23.587 -10.441  1.00  0.00     0.151 C 
BRANCH  14  15
ATOM     15  C   UNL     1     -24.599 -23.247 -11.894  1.00  0.00    -0.025 A 
ATOM     16  C   UNL     1     -25.576 -23.922 -12.646  1.00  0.00     0.056 A 
ATOM     17  C   UNL     1     -23.822 -22.252 -12.506  1.00  0.00     0.009 A 
ATOM     18  C   UNL     1     -25.784 -23.604 -14.004  1.00  0.00     0.160 A 
ATOM     19  C   UNL     1     -24.019 -21.936 -13.850  1.00  0.00     0.050 A 
ATOM     20  C   UNL     1     -24.993 -22.605 -14.602  1.00  0.00     0.157 A 
BRANCH  18  21
ATOM     21  O   UNL     1     -26.759 -24.255 -14.781  1.00  0.00    -0.493 OA
ATOM     22  C   UNL     1     -26.518 -25.406 -15.586  1.00  0.00     0.278 C 
ENDBRANCH  18  21
BRANCH  20  23
ATOM     23  O   UNL     1     -25.162 -22.262 -15.943  1.00  0.00    -0.504 OA
ATOM     24  H   UNL     1     -25.516 -21.354 -16.230  1.00  0.00     0.293 HD
ENDBRANCH  20  23
ENDBRANCH  14  15
ENDBRANCH  12  14
ENDBRANCH   9  10
ENDBRANCH   1   9
TORSDOF 10
ENDMDL
MODEL 3
REMARK VINA RESULT:    -7.714      1.737      2.600
REMARK INTER + INTRA:         -12.905
REMARK INTER:                 -12.279
REMARK INTRA:                  -0.626
REMARK UNBOUND:                -0.906
REMARK SMILES COc1cc(CNC(=O)CCCCC=CC(C)C)ccc1O
REMARK SMILES IDX 11 1 12 2 13 3 14 4 15 5 16 6 17 7 18 8 10 9 8 10 9 11 7 12
REMARK SMILES IDX 6 14 5 15 4 16 19 17 3 18 20 19 21 20 2 21 1 22 22 23
REMARK H PARENT 7 13 22 24
REMARK Flexibility Score: inf
ROOT
ATOM      1  C   UNL     1     -27.888 -19.211 -10.303  1.00  0.00     0.010 C 
ENDROOT
BRANCH   1   2
ATOM      2  C   UNL     1     -28.622 -18.408  -9.218  1.00  0.00     0.005 C 
BRANCH   2   3
ATOM      3  C   UNL     1     -29.406 -19.299  -8.246  1.00  0.00     0.027 C 
BRANCH   3   4
ATOM      4  C   UNL     1     -29.002 -19.034  -6.822  1.00  0.00    -0.031 C 
ATOM      5  C   UNL     1     -28.832 -20.047  -5.956  1.00  0.00    -0.028 C 
BRANCH   5   6
ATOM      6  C   UNL     1     -28.445 -19.831  -4.510  1.00  0.00     0.005 C 
ATOM      7  C   UNL     1     -28.395 -18.340  -4.161  1.00  0.00     0.012 C 
ATOM      8  C   UNL     1     -29.380 -20.593  -3.563  1.00  0.00     0.012 C 
ENDBRANCH   5   6
ENDBRANCH   3   4
ENDBRANCH   2   3
ENDBRANCH   1   2
BRANCH   1   9
ATOM      9  C   UNL     1     -27.771 -20.703  -9.961  1.00  0.00     0.100 C 
BRANCH   9  10
ATOM     10  C   UNL     1     -26.429 -21.227 -10.379  1.00  0.00     0.220 C 
ATOM     11  O   UNL     1     -26.132 -22.430 -10.144  1.00  0.00    -0.275 OA
ATOM     12  N   UNL     1     -25.516 -20.381 -11.093  1.00  0.00    -0.352 N 
ATOM     13  H   UNL     1     -25.781 -19.385 -11.275  1.00  0.00     0.163 HD
BRANCH  12  14
ATOM     14  C   UNL     1     -24.236 -20.864 -11.610  1.00  0.00     0.151 C 
BRANCH  14  15
ATOM     15  C   UNL     1     -24.418 -21.487 -12.969  1.00  0.00    -0.025 A 
ATOM     16  C   UNL     1     -24.007 -22.812 -13.198  1.00  0.00     0.056 A 
ATOM     17  C   UNL     1     -25.003 -20.755 -14.012  1.00  0.00     0.009 A 
ATOM     18  C   UNL     1     -24.182 -23.409 -14.463  1.00  0.00     0.160 A 
ATOM     19  C   UNL     1     -25.175 -21.339 -15.268  1.00  0.00     0.050 A 
ATOM     20  C   UNL     1     -24.768 -22.659 -15.500  1.00  0.00     0.157 A 
BRANCH  18  21
ATOM     21  O   UNL     1     -23.790 -24.735 -14.722  1.00  0.00    -0.493 OA
ATOM     22  C   UNL     1     -24.688 -25.804 -15.011  1.00  0.00     0.278 C 
ENDBRANCH  18  21
BRANCH  20  23
ATOM     23  O   UNL     1     -24.956 -23.209 -16.768  1.00  0.00    -0.504 OA
ATOM     24  H   UNL     1     -25.558 -24.012 -16.926  1.00  0.00     0.293 HD
ENDBRANCH  20  23
ENDBRANCH  14  15
ENDBRANCH  12  14
ENDBRANCH   9  10
ENDBRANCH   1   9
TORSDOF 10
ENDMDL
MODEL 4
REMARK VINA RESULT:    -7.628      3.365      8.756
REMARK INTER + INTRA:         -12.771
REMARK INTER:                 -12.172
REMARK INTRA:                  -0.599
REMARK UNBOUND:                -0.906
REMARK SMILES COc1cc(CNC(=O)CCCCC=CC(C)C)ccc1O
REMARK SMILES IDX 11 1 12 2 13 3 14 4 15 5 16 6 17 7 18 8 10 9 8 10 9 11 7 12
REMARK SMILES IDX 6 14 5 15 4 16 19 17 3 18 20 19 21 20 2 21 1 22 22 23
REMARK H PARENT 7 13 22 24
REMARK Flexibility Score: inf
ROOT
ATOM      1  C   UNL     1     -24.329 -20.625 -13.045  1.00  0.00     0.010 C 
ENDROOT
BRANCH   1   2
ATOM      2  C   UNL     1     -24.370 -19.468 -14.054  1.00  0.00     0.005 C 
BRANCH   2   3
ATOM      3  C   UNL     1     -24.839 -18.149 -13.428  1.00  0.00     0.027 C 
BRANCH   3   4
ATOM      4  C   UNL     1     -24.148 -16.972 -14.060  1.00  0.00    -0.031 C 
ATOM      5  C   UNL     1     -24.856 -15.938 -14.545  1.00  0.00    -0.028 C 
BRANCH   5   6
ATOM      6  C   UNL     1     -24.208 -14.741 -15.205  1.00  0.00     0.005 C 
ATOM      7  C   UNL     1     -22.684 -14.769 -15.044  1.00  0.00     0.012 C 
ATOM      8  C   UNL     1     -24.610 -14.635 -16.681  1.00  0.00     0.012 C 
ENDBRANCH   5   6
ENDBRANCH   3   4
ENDBRANCH   2   3
ENDBRANCH   1   2
BRANCH   1   9
ATOM      9  C   UNL     1     -24.425 -20.149 -11.589  1.00  0.00     0.100 C 
BRANCH   9  10
ATOM     10  C   UNL     1     -25.470 -20.933 -10.854  1.00  0.00     0.220 C 
ATOM     11  O   UNL     1     -25.166 -22.045 -10.341  1.00  0.00    -0.275 OA
ATOM     12  N   UNL     1     -26.790 -20.394 -10.686  1.00  0.00    -0.352 N 
ATOM     13  H   UNL     1     -27.022 -19.472 -11.121  1.00  0.00     0.163 HD
BRANCH  12  14
ATOM     14  C   UNL     1     -27.820 -21.068  -9.896  1.00  0.00     0.151 C 
BRANCH  14  15
ATOM     15  C   UNL     1     -28.345 -20.152  -8.822  1.00  0.00    -0.025 A 
ATOM     16  C   UNL     1     -28.602 -20.651  -7.533  1.00  0.00     0.056 A 
ATOM     17  C   UNL     1     -28.573 -18.795  -9.096  1.00  0.00     0.009 A 
ATOM     18  C   UNL     1     -29.083 -19.799  -6.517  1.00  0.00     0.160 A 
ATOM     19  C   UNL     1     -29.054 -17.949  -8.096  1.00  0.00     0.050 A 
ATOM     20  C   UNL     1     -29.310 -18.442  -6.811  1.00  0.00     0.157 A 
BRANCH  18  21
ATOM     21  O   UNL     1     -29.342 -20.266  -5.215  1.00  0.00    -0.493 OA
ATOM     22  C   UNL     1     -28.476 -20.074  -4.099  1.00  0.00     0.278 C 
ENDBRANCH  18  21
BRANCH  20  23
ATOM     23  O   UNL     1     -29.789 -17.566  -5.837  1.00  0.00    -0.504 OA
ATOM     24  H   UNL     1     -30.775 -17.334  -5.754  1.00  0.00     0.293 HD
ENDBRANCH  20  23
ENDBRANCH  14  15
ENDBRANCH  12  14
ENDBRANCH   9  10
ENDBRANCH   1   9
TORSDOF 10
ENDMDL
MODEL 5
REMARK VINA RESULT:    -7.597      2.535      7.447
REMARK INTER + INTRA:         -12.721
REMARK INTER:                 -11.572
REMARK INTRA:                  -1.149
REMARK UNBOUND:                -0.906
REMARK SMILES COc1cc(CNC(=O)CCCCC=CC(C)C)ccc1O
REMARK SMILES IDX 11 1 12 2 13 3 14 4 15 5 16 6 17 7 18 8 10 9 8 10 9 11 7 12
REMARK SMILES IDX 6 14 5 15 4 16 19 17 3 18 20 19 21 20 2 21 1 22 22 23
REMARK H PARENT 7 13 22 24
REMARK Flexibility Score: inf
ROOT
ATOM      1  C   UNL     1     -25.060 -24.314 -12.537  1.00  0.00     0.010 C 
ENDROOT
BRANCH   1   2
ATOM      2  C   UNL     1     -24.530 -23.770 -13.872  1.00  0.00     0.005 C 
BRANCH   2   3
ATOM      3  C   UNL     1     -23.272 -22.908 -13.706  1.00  0.00     0.027 C 
BRANCH   3   4
ATOM      4  C   UNL     1     -23.559 -21.684 -12.881  1.00  0.00    -0.031 C 
ATOM      5  C   UNL     1     -24.339 -20.700 -13.359  1.00  0.00    -0.028 C 
BRANCH   5   6
ATOM      6  C   UNL     1     -24.641 -19.442 -12.576  1.00  0.00     0.005 C 
ATOM      7  C   UNL     1     -25.141 -18.319 -13.491  1.00  0.00     0.012 C 
ATOM      8  C   UNL     1     -25.633 -19.718 -11.441  1.00  0.00     0.012 C 
ENDBRANCH   5   6
ENDBRANCH   3   4
ENDBRANCH   2   3
ENDBRANCH   1   2
BRANCH   1   9
ATOM      9  C   UNL     1     -26.397 -23.682 -12.126  1.00  0.00     0.100 C 
BRANCH   9  10
ATOM     10  C   UNL     1     -26.452 -23.505 -10.638  1.00  0.00     0.220 C 
ATOM     11  O   UNL     1     -25.378 -23.380  -9.987  1.00  0.00    -0.275 OA
ATOM     12  N   UNL     1     -27.719 -23.418  -9.969  1.00  0.00    -0.352 N 
ATOM     13  H   UNL     1     -28.597 -23.527 -10.527  1.00  0.00     0.163 HD
BRANCH  12  14
ATOM     14  C   UNL     1     -27.836 -23.148  -8.537  1.00  0.00     0.151 C 
BRANCH  14  15
ATOM     15  C   UNL     1     -28.180 -21.701  -8.299  1.00  0.00    -0.025 A 
ATOM     16  C   UNL     1     -28.363 -21.226  -6.989  1.00  0.00     0.056 A 
ATOM     17  C   UNL     1     -28.312 -20.817  -9.380  1.00  0.00     0.009 A 
ATOM     18  C   UNL     1     -28.674 -19.870  -6.754  1.00  0.00     0.160 A 
ATOM     19  C   UNL     1     -28.625 -19.476  -9.154  1.00  0.00     0.050 A 
ATOM     20  C   UNL     1     -28.807 -18.998  -7.851  1.00  0.00     0.157 A 
BRANCH  18  21
ATOM     21  O   UNL     1     -28.855 -19.362  -5.455  1.00  0.00    -0.493 OA
ATOM     22  C   UNL     1     -28.617 -20.097  -4.257  1.00  0.00     0.278 C 
ENDBRANCH  18  21
BRANCH  20  23
ATOM     23  O   UNL     1     -29.118 -17.651  -7.664  1.00  0.00    -0.504 OA
ATOM     24  H   UNL     1     -29.162 -17.228  -6.742  1.00  0.00     0.293 HD
ENDBRANCH  20  23
ENDBRANCH  14  15
ENDBRANCH  12  14
ENDBRANCH   9  10
ENDBRANCH   1   9
TORSDOF 10
ENDMDL
MODEL 6
REMARK VINA RESULT:    -7.568      1.991      3.088
REMARK INTER + INTRA:         -12.677
REMARK INTER:                 -11.958
REMARK INTRA:                  -0.720
REMARK UNBOUND:                -0.906
REMARK SMILES COc1cc(CNC(=O)CCCCC=CC(C)C)ccc1O
REMARK SMILES IDX 11 1 12 2 13 3 14 4 15 5 16 6 17 7 18 8 10 9 8 10 9 11 7 12
REMARK SMILES IDX 6 14 5 15 4 16 19 17 3 18 20 19 21 20 2 21 1 22 22 23
REMARK H PARENT 7 13 22 24
REMARK Flexibility Score: inf
ROOT
ATOM      1  C   UNL     1     -27.820 -20.694 -10.060  1.00  0.00     0.010 C 
ENDROOT
BRANCH   1   2
ATOM      2  C   UNL     1     -28.304 -20.722  -8.603  1.00  0.00     0.005 C 
BRANCH   2   3
ATOM      3  C   UNL     1     -29.030 -19.434  -8.192  1.00  0.00     0.027 C 
BRANCH   3   4
ATOM      4  C   UNL     1     -28.896 -19.184  -6.716  1.00  0.00    -0.031 C 
ATOM      5  C   UNL     1     -28.598 -20.187  -5.872  1.00  0.00    -0.028 C 
BRANCH   5   6
ATOM      6  C   UNL     1     -28.471 -19.989  -4.378  1.00  0.00     0.005 C 
ATOM      7  C   UNL     1     -28.405 -18.501  -4.014  1.00  0.00     0.012 C 
ATOM      8  C   UNL     1     -29.602 -20.697  -3.625  1.00  0.00     0.012 C 
ENDBRANCH   5   6
ENDBRANCH   3   4
ENDBRANCH   2   3
ENDBRANCH   1   2
BRANCH   1   9
ATOM      9  C   UNL     1     -27.294 -19.316 -10.486  1.00  0.00     0.100 C 
BRANCH   9  10
ATOM     10  C   UNL     1     -26.297 -19.461 -11.597  1.00  0.00     0.220 C 
ATOM     11  O   UNL     1     -26.388 -18.721 -12.614  1.00  0.00    -0.275 OA
ATOM     12  N   UNL     1     -25.213 -20.394 -11.474  1.00  0.00    -0.352 N 
ATOM     13  H   UNL     1     -25.158 -21.001 -10.623  1.00  0.00     0.163 HD
BRANCH  12  14
ATOM     14  C   UNL     1     -24.157 -20.511 -12.478  1.00  0.00     0.151 C 
BRANCH  14  15
ATOM     15  C   UNL     1     -24.182 -21.875 -13.115  1.00  0.00    -0.025 A 
ATOM     16  C   UNL     1     -25.409 -22.504 -13.389  1.00  0.00     0.056 A 
ATOM     17  C   UNL     1     -22.984 -22.525 -13.445  1.00  0.00     0.009 A 
ATOM     18  C   UNL     1     -25.443 -23.777 -13.995  1.00  0.00     0.160 A 
ATOM     19  C   UNL     1     -23.011 -23.787 -14.040  1.00  0.00     0.050 A 
ATOM     20  C   UNL     1     -24.232 -24.416 -14.316  1.00  0.00     0.157 A 
BRANCH  18  21
ATOM     21  O   UNL     1     -26.655 -24.429 -14.290  1.00  0.00    -0.493 OA
ATOM     22  C   UNL     1     -27.259 -24.470 -15.580  1.00  0.00     0.278 C 
ENDBRANCH  18  21
BRANCH  20  23
ATOM     23  O   UNL     1     -24.220 -25.677 -14.912  1.00  0.00    -0.504 OA
ATOM     24  H   UNL     1     -23.688 -26.453 -14.529  1.00  0.00     0.293 HD
ENDBRANCH  20  23
ENDBRANCH  14  15
ENDBRANCH  12  14
ENDBRANCH   9  10
ENDBRANCH   1   9
TORSDOF 10
ENDMDL
MODEL 7
REMARK VINA RESULT:    -7.469      3.654      8.267
REMARK INTER + INTRA:         -12.523
REMARK INTER:                 -11.871
REMARK INTRA:                  -0.652
REMARK UNBOUND:                -0.906
REMARK SMILES COc1cc(CNC(=O)CCCCC=CC(C)C)ccc1O
REMARK SMILES IDX 11 1 12 2 13 3 14 4 15 5 16 6 17 7 18 8 10 9 8 10 9 11 7 12
REMARK SMILES IDX 6 14 5 15 4 16 19 17 3 18 20 19 21 20 2 21 1 22 22 23
REMARK H PARENT 7 13 22 24
REMARK Flexibility Score: inf
ROOT
ATOM      1  C   UNL     1     -24.475 -16.694 -13.554  1.00  0.00     0.010 C 
ENDROOT
BRANCH   1   2
ATOM      2  C   UNL     1     -23.268 -16.441 -14.468  1.00  0.00     0.005 C 
BRANCH   2   3
ATOM      3  C   UNL     1     -23.078 -14.956 -14.805  1.00  0.00     0.027 C 
BRANCH   3   4
ATOM      4  C   UNL     1     -21.713 -14.477 -14.395  1.00  0.00    -0.031 C 
ATOM      5  C   UNL     1     -20.749 -15.352 -14.062  1.00  0.00    -0.028 C 
BRANCH   5   6
ATOM      6  C   UNL     1     -19.367 -14.919 -13.626  1.00  0.00     0.005 C 
ATOM      7  C   UNL     1     -19.427 -14.015 -12.390  1.00  0.00     0.012 C 
ATOM      8  C   UNL     1     -18.454 -16.128 -13.388  1.00  0.00     0.012 C 
ENDBRANCH   5   6
ENDBRANCH   3   4
ENDBRANCH   2   3
ENDBRANCH   1   2
BRANCH   1   9
ATOM      9  C   UNL     1     -25.341 -17.872 -14.024  1.00  0.00     0.100 C 
BRANCH   9  10
ATOM     10  C   UNL     1     -24.646 -19.171 -13.746  1.00  0.00     0.220 C 
ATOM     11  O   UNL     1     -24.069 -19.780 -14.688  1.00  0.00    -0.275 OA
ATOM     12  N   UNL     1     -24.588 -19.685 -12.408  1.00  0.00    -0.352 N 
ATOM     13  H   UNL     1     -25.075 -19.165 -11.641  1.00  0.00     0.163 HD
BRANCH  12  14
ATOM     14  C   UNL     1     -23.843 -20.894 -12.060  1.00  0.00     0.151 C 
BRANCH  14  15
ATOM     15  C   UNL     1     -24.680 -21.800 -11.197  1.00  0.00    -0.025 A 
ATOM     16  C   UNL     1     -25.783 -21.285 -10.494  1.00  0.00     0.056 A 
ATOM     17  C   UNL     1     -24.371 -23.165 -11.093  1.00  0.00     0.009 A 
ATOM     18  C   UNL     1     -26.580 -22.127  -9.691  1.00  0.00     0.160 A 
ATOM     19  C   UNL     1     -25.153 -24.002 -10.297  1.00  0.00     0.050 A 
ATOM     20  C   UNL     1     -26.253 -23.492  -9.596  1.00  0.00     0.157 A 
BRANCH  18  21
ATOM     21  O   UNL     1     -27.694 -21.643  -8.982  1.00  0.00    -0.493 OA
ATOM     22  C   UNL     1     -28.362 -20.415  -9.262  1.00  0.00     0.278 C 
ENDBRANCH  18  21
BRANCH  20  23
ATOM     23  O   UNL     1     -27.012 -24.360  -8.810  1.00  0.00    -0.504 OA
ATOM     24  H   UNL     1     -27.500 -24.049  -7.976  1.00  0.00     0.293 HD
ENDBRANCH  20  23
ENDBRANCH  14  15
ENDBRANCH  12  14
ENDBRANCH   9  10
ENDBRANCH   1   9
TORSDOF 10
ENDMDL
MODEL 8
REMARK VINA RESULT:    -7.465      2.275      4.363
REMARK INTER + INTRA:         -12.517
REMARK INTER:                 -10.851
REMARK INTRA:                  -1.666
REMARK UNBOUND:                -0.906
REMARK SMILES COc1cc(CNC(=O)CCCCC=CC(C)C)ccc1O
REMARK SMILES IDX 11 1 12 2 13 3 14 4 15 5 16 6 17 7 18 8 10 9 8 10 9 11 7 12
REMARK SMILES IDX 6 14 5 15 4 16 19 17 3 18 20 19 21 20 2 21 1 22 22 23
REMARK H PARENT 7 13 22 24
REMARK Flexibility Score: inf
ROOT
ATOM      1  C   UNL     1     -27.832 -21.828  -8.199  1.00  0.00     0.010 C 
ENDROOT
BRANCH   1   2
ATOM      2  C   UNL     1     -28.642 -20.704  -8.863  1.00  0.00     0.005 C 
BRANCH   2   3
ATOM      3  C   UNL     1     -28.384 -20.596 -10.371  1.00  0.00     0.027 C 
BRANCH   3   4
ATOM      4  C   UNL     1     -27.170 -19.755 -10.655  1.00  0.00    -0.031 C 
ATOM      5  C   UNL     1     -26.217 -20.187 -11.499  1.00  0.00    -0.028 C 
BRANCH   5   6
ATOM      6  C   UNL     1     -24.970 -19.387 -11.802  1.00  0.00     0.005 C 
ATOM      7  C   UNL     1     -23.750 -19.950 -11.065  1.00  0.00     0.012 C 
ATOM      8  C   UNL     1     -24.717 -19.301 -13.312  1.00  0.00     0.012 C 
ENDBRANCH   5   6
ENDBRANCH   3   4
ENDBRANCH   2   3
ENDBRANCH   1   2
BRANCH   1   9
ATOM      9  C   UNL     1     -28.197 -23.220  -8.734  1.00  0.00     0.100 C 
BRANCH   9  10
ATOM     10  C   UNL     1     -26.977 -23.905  -9.272  1.00  0.00     0.220 C 
ATOM     11  O   UNL     1     -26.853 -25.153  -9.133  1.00  0.00    -0.275 OA
ATOM     12  N   UNL     1     -25.988 -23.154  -9.992  1.00  0.00    -0.352 N 
ATOM     13  H   UNL     1     -26.109 -22.120 -10.094  1.00  0.00     0.163 HD
BRANCH  12  14
ATOM     14  C   UNL     1     -24.829 -23.783 -10.624  1.00  0.00     0.151 C 
BRANCH  14  15
ATOM     15  C   UNL     1     -24.856 -23.565 -12.114  1.00  0.00    -0.025 A 
ATOM     16  C   UNL     1     -25.974 -23.968 -12.865  1.00  0.00     0.056 A 
ATOM     17  C   UNL     1     -23.773 -22.952 -12.761  1.00  0.00     0.009 A 
ATOM     18  C   UNL     1     -26.015 -23.759 -14.259  1.00  0.00     0.160 A 
ATOM     19  C   UNL     1     -23.806 -22.747 -14.140  1.00  0.00     0.050 A 
ATOM     20  C   UNL     1     -24.918 -23.147 -14.893  1.00  0.00     0.157 A 
BRANCH  18  21
ATOM     21  O   UNL     1     -27.121 -24.143 -15.038  1.00  0.00    -0.493 OA
ATOM     22  C   UNL     1     -27.166 -25.304 -15.865  1.00  0.00     0.278 C 
ENDBRANCH  18  21
BRANCH  20  23
ATOM     23  O   UNL     1     -24.914 -22.924 -16.270  1.00  0.00    -0.504 OA
ATOM     24  H   UNL     1     -25.703 -23.170 -16.860  1.00  0.00     0.293 HD
ENDBRANCH  20  23
ENDBRANCH  14  15
ENDBRANCH  12  14
ENDBRANCH   9  10
ENDBRANCH   1   9
TORSDOF 10
ENDMDL
MODEL 9
REMARK VINA RESULT:    -7.245      2.710      8.546
REMARK INTER + INTRA:         -12.175
REMARK INTER:                 -11.505
REMARK INTRA:                  -0.670
REMARK UNBOUND:                -0.906
REMARK SMILES COc1cc(CNC(=O)CCCCC=CC(C)C)ccc1O
REMARK SMILES IDX 11 1 12 2 13 3 14 4 15 5 16 6 17 7 18 8 10 9 8 10 9 11 7 12
REMARK SMILES IDX 6 14 5 15 4 16 19 17 3 18 20 19 21 20 2 21 1 22 22 23
REMARK H PARENT 7 13 22 24
REMARK Flexibility Score: inf
ROOT
ATOM      1  C   UNL     1     -24.090 -21.060 -11.365  1.00  0.00     0.010 C 
ENDROOT
BRANCH   1   2
ATOM      2  C   UNL     1     -24.089 -21.130 -12.899  1.00  0.00     0.005 C 
BRANCH   2   3
ATOM      3  C   UNL     1     -22.984 -22.038 -13.452  1.00  0.00     0.027 C 
BRANCH   3   4
ATOM      4  C   UNL     1     -23.564 -23.260 -14.109  1.00  0.00    -0.031 C 
ATOM      5  C   UNL     1     -24.621 -23.161 -14.934  1.00  0.00    -0.028 C 
BRANCH   5   6
ATOM      6  C   UNL     1     -25.251 -24.362 -15.603  1.00  0.00     0.005 C 
ATOM      7  C   UNL     1     -24.535 -25.660 -15.214  1.00  0.00     0.012 C 
ATOM      8  C   UNL     1     -26.752 -24.442 -15.303  1.00  0.00     0.012 C 
ENDBRANCH   5   6
ENDBRANCH   3   4
ENDBRANCH   2   3
ENDBRANCH   1   2
BRANCH   1   9
ATOM      9  C   UNL     1     -24.548 -22.370 -10.709  1.00  0.00     0.100 C 
BRANCH   9  10
ATOM     10  C   UNL     1     -26.018 -22.317 -10.415  1.00  0.00     0.220 C 
ATOM     11  O   UNL     1     -26.837 -22.195 -11.365  1.00  0.00    -0.275 OA
ATOM     12  N   UNL     1     -26.487 -22.466  -9.067  1.00  0.00    -0.352 N 
ATOM     13  H   UNL     1     -25.790 -22.565  -8.293  1.00  0.00     0.163 HD
BRANCH  12  14
ATOM     14  C   UNL     1     -27.909 -22.521  -8.731  1.00  0.00     0.151 C 
BRANCH  14  15
ATOM     15  C   UNL     1     -28.369 -21.204  -8.164  1.00  0.00    -0.025 A 
ATOM     16  C   UNL     1     -28.719 -21.104  -6.806  1.00  0.00     0.056 A 
ATOM     17  C   UNL     1     -28.445 -20.068  -8.983  1.00  0.00     0.009 A 
ATOM     18  C   UNL     1     -29.140 -19.872  -6.263  1.00  0.00     0.160 A 
ATOM     19  C   UNL     1     -28.866 -18.848  -8.452  1.00  0.00     0.050 A 
ATOM     20  C   UNL     1     -29.214 -18.744  -7.100  1.00  0.00     0.157 A 
BRANCH  18  21
ATOM     21  O   UNL     1     -29.489 -19.737  -4.906  1.00  0.00    -0.493 OA
ATOM     22  C   UNL     1     -28.639 -19.187  -3.903  1.00  0.00     0.278 C 
ENDBRANCH  18  21
BRANCH  20  23
ATOM     23  O   UNL     1     -29.630 -17.507  -6.605  1.00  0.00    -0.504 OA
ATOM     24  H   UNL     1     -30.176 -16.857  -7.162  1.00  0.00     0.293 HD
ENDBRANCH  20  23
ENDBRANCH  14  15
ENDBRANCH  12  14
ENDBRANCH   9  10
ENDBRANCH   1   9
TORSDOF 10
ENDMDL
