MODEL 1
REMARK VINA RESULT:    -5.805      0.000      0.000
REMARK INTER + INTRA:         -12.229
REMARK INTER:                  -9.538
REMARK INTRA:                  -2.692
REMARK UNBOUND:                -2.692
REMARK SMILES C[C@H]1O[C@@H](OC[C@@H]2O[C@H](Oc3c(-c4ccc(O)c(O)c4)oc4cc(O)cc(O)c4c3=O)[C@H](O)[C@H](O)[C@H]2O)[C@@H](O)[C@@H](O)[C@@H]1O
REMARK SMILES IDX 7 1 36 2 34 3 32 4 9 5 8 6 6 7 5 8 4 9 1 10 2 11 42 12 3 13
REMARK SMILES IDX 40 14 38 15 43 16 41 18 39 20 37 22 35 24 10 26 11 27 12 28
REMARK SMILES IDX 30 29 21 30 29 31 31 32 22 33 27 34 23 35 26 36 24 37 13 38
REMARK SMILES IDX 20 39 14 40 18 41 15 42 16 43 19 44 17 46 28 48 25 50 33 52
REMARK H PARENT 43 17 41 19 39 21 37 23 35 25 19 45 17 47 28 49 25 51 33 53
REMARK Flexibility Score: inf
ROOT
ATOM      1  C   UNL     1      16.048  32.319  51.803  1.00  0.00     0.180 C 
ATOM      2  C   UNL     1      16.920  31.169  51.277  1.00  0.00     0.177 C 
ATOM      3  C   UNL     1      17.847  30.594  52.383  1.00  0.00     0.180 C 
ATOM      4  C   UNL     1      17.791  31.307  53.757  1.00  0.00     0.214 C 
ATOM      5  C   UNL     1      16.330  31.763  54.118  1.00  0.00     0.339 C 
ATOM      6  O   UNL     1      15.433  31.960  53.020  1.00  0.00    -0.332 OA
ENDROOT
BRANCH   1   7
ATOM      7  C   UNL     1      16.718  33.701  51.922  1.00  0.00     0.198 C 
BRANCH   7   8
ATOM      8  O   UNL     1      15.849  34.765  51.601  1.00  0.00    -0.347 OA
BRANCH   8   9
ATOM      9  C   UNL     1      14.978  34.497  50.536  1.00  0.00     0.281 C 
ATOM     10  C   UNL     1      17.214  36.543  49.611  1.00  0.00     0.041 C 
ATOM     11  C   UNL     1      15.905  36.071  48.959  1.00  0.00     0.150 C 
ATOM     12  C   UNL     1      14.701  37.041  49.126  1.00  0.00     0.174 C 
ATOM     13  O   UNL     1      15.596  34.712  49.263  1.00  0.00    -0.344 OA
ATOM     14  C   UNL     1      13.919  36.852  50.428  1.00  0.00     0.179 C 
ATOM     15  C   UNL     1      13.698  35.339  50.716  1.00  0.00     0.202 C 
BRANCH  12  16
ATOM     16  O   UNL     1      13.805  36.861  48.063  1.00  0.00    -0.388 OA
ATOM     17  H   UNL     1      12.888  36.829  48.434  1.00  0.00     0.211 HD
ENDBRANCH  12  16
BRANCH  14  18
ATOM     18  O   UNL     1      14.503  37.583  51.482  1.00  0.00    -0.387 OA
ATOM     19  H   UNL     1      14.527  37.004  52.285  1.00  0.00     0.211 HD
ENDBRANCH  14  18
BRANCH  15  20
ATOM     20  O   UNL     1      13.171  35.201  52.015  1.00  0.00    -0.385 OA
ATOM     21  H   UNL     1      12.956  34.249  52.146  1.00  0.00     0.211 HD
ENDBRANCH  15  20
ENDBRANCH   8   9
ENDBRANCH   7   8
ENDBRANCH   1   7
BRANCH   2  22
ATOM     22  O   UNL     1      16.112  30.126  50.738  1.00  0.00    -0.387 OA
ATOM     23  H   UNL     1      15.304  30.019  51.339  1.00  0.00     0.211 HD
ENDBRANCH   2  22
BRANCH   3  24
ATOM     24  O   UNL     1      19.182  30.446  51.947  1.00  0.00    -0.387 OA
ATOM     25  H   UNL     1      19.396  31.215  51.364  1.00  0.00     0.211 HD
ENDBRANCH   3  24
BRANCH   5  26
ATOM     26  O   UNL     1      16.308  32.898  54.997  1.00  0.00    -0.454 OA
BRANCH  26  27
ATOM     27  C   UNL     1      15.188  33.025  55.838  1.00  0.00     0.214 A 
ATOM     28  C   UNL     1      15.102  32.276  57.019  1.00  0.00     0.180 A 
ATOM     29  C   UNL     1      14.039  33.655  55.372  1.00  0.00     0.239 A 
ATOM     30  O   UNL     1      13.899  31.960  57.490  1.00  0.00    -0.452 OA
ATOM     31  C   UNL     1      12.768  33.272  55.870  1.00  0.00     0.111 A 
ATOM     32  O   UNL     1      14.142  34.518  54.456  1.00  0.00    -0.285 OA
ATOM     33  C   UNL     1      12.751  32.365  56.933  1.00  0.00     0.146 A 
ATOM     34  C   UNL     1      11.542  33.639  55.257  1.00  0.00     0.134 A 
ATOM     35  C   UNL     1      11.553  31.823  57.378  1.00  0.00     0.094 A 
ATOM     36  C   UNL     1      10.341  33.060  55.699  1.00  0.00     0.093 A 
ATOM     37  C   UNL     1      10.344  32.135  56.731  1.00  0.00     0.123 A 
BRANCH  28  38
ATOM     38  C   UNL     1      16.298  31.732  57.735  1.00  0.00     0.025 A 
ATOM     39  C   UNL     1      16.998  32.497  58.675  1.00  0.00     0.062 A 
ATOM     40  C   UNL     1      16.697  30.398  57.527  1.00  0.00     0.016 A 
ATOM     41  C   UNL     1      18.084  31.965  59.378  1.00  0.00     0.158 A 
ATOM     42  C   UNL     1      17.781  29.848  58.223  1.00  0.00     0.051 A 
ATOM     43  C   UNL     1      18.465  30.624  59.155  1.00  0.00     0.157 A 
BRANCH  41  44
ATOM     44  O   UNL     1      18.766  32.759  60.305  1.00  0.00    -0.504 OA
ATOM     45  H   UNL     1      19.549  32.387  60.844  1.00  0.00     0.293 HD
ENDBRANCH  41  44
BRANCH  43  46
ATOM     46  O   UNL     1      19.499  30.060  59.885  1.00  0.00    -0.504 OA
ATOM     47  H   UNL     1      20.449  30.458  59.867  1.00  0.00     0.293 HD
ENDBRANCH  43  46
ENDBRANCH  28  38
BRANCH  34  48
ATOM     48  O   UNL     1      11.532  34.500  54.162  1.00  0.00    -0.507 OA
ATOM     49  H   UNL     1      11.227  34.225  53.238  1.00  0.00     0.293 HD
ENDBRANCH  34  48
BRANCH  37  50
ATOM     50  O   UNL     1       9.159  31.492  57.076  1.00  0.00    -0.508 OA
ATOM     51  H   UNL     1       8.333  32.044  57.286  1.00  0.00     0.293 HD
ENDBRANCH  37  50
ENDBRANCH  26  27
ENDBRANCH   5  26
BRANCH   4  52
ATOM     52  O   UNL     1      18.754  32.345  53.763  1.00  0.00    -0.384 OA
ATOM     53  H   UNL     1      19.027  32.532  54.688  1.00  0.00     0.211 HD
ENDBRANCH   4  52
TORSDOF 16
ENDMDL
MODEL 2
REMARK VINA RESULT:    -5.776      3.295      7.872
REMARK INTER + INTRA:         -12.183
REMARK INTER:                 -10.030
REMARK INTRA:                  -2.152
REMARK UNBOUND:                -2.692
REMARK SMILES C[C@H]1O[C@@H](OC[C@@H]2O[C@H](Oc3c(-c4ccc(O)c(O)c4)oc4cc(O)cc(O)c4c3=O)[C@H](O)[C@H](O)[C@H]2O)[C@@H](O)[C@@H](O)[C@@H]1O
REMARK SMILES IDX 7 1 36 2 34 3 32 4 9 5 8 6 6 7 5 8 4 9 1 10 2 11 42 12 3 13
REMARK SMILES IDX 40 14 38 15 43 16 41 18 39 20 37 22 35 24 10 26 11 27 12 28
REMARK SMILES IDX 30 29 21 30 29 31 31 32 22 33 27 34 23 35 26 36 24 37 13 38
REMARK SMILES IDX 20 39 14 40 18 41 15 42 16 43 19 44 17 46 28 48 25 50 33 52
REMARK H PARENT 43 17 41 19 39 21 37 23 35 25 19 45 17 47 28 49 25 51 33 53
REMARK Flexibility Score: inf
ROOT
ATOM      1  C   UNL     1      13.395  32.111  53.283  1.00  0.00     0.180 C 
ATOM      2  C   UNL     1      12.343  32.151  54.401  1.00  0.00     0.177 C 
ATOM      3  C   UNL     1      11.170  33.111  54.056  1.00  0.00     0.180 C 
ATOM      4  C   UNL     1      11.299  33.894  52.726  1.00  0.00     0.214 C 
ATOM      5  C   UNL     1      11.953  33.018  51.596  1.00  0.00     0.339 C 
ATOM      6  O   UNL     1      12.780  31.932  52.027  1.00  0.00    -0.332 OA
ENDROOT
BRANCH   1   7
ATOM      7  C   UNL     1      14.400  33.277  53.232  1.00  0.00     0.198 C 
BRANCH   7   8
ATOM      8  O   UNL     1      15.696  32.873  52.847  1.00  0.00    -0.347 OA
BRANCH   8   9
ATOM      9  C   UNL     1      16.717  33.734  53.273  1.00  0.00     0.281 C 
ATOM     10  C   UNL     1      16.354  33.962  50.133  1.00  0.00     0.041 C 
ATOM     11  C   UNL     1      17.433  34.485  51.093  1.00  0.00     0.150 C 
ATOM     12  C   UNL     1      18.728  33.626  51.156  1.00  0.00     0.174 C 
ATOM     13  O   UNL     1      16.910  34.832  52.374  1.00  0.00    -0.344 OA
ATOM     14  C   UNL     1      18.661  32.459  52.144  1.00  0.00     0.179 C 
ATOM     15  C   UNL     1      18.007  32.913  53.480  1.00  0.00     0.202 C 
BRANCH  12  16
ATOM     16  O   UNL     1      19.808  34.437  51.531  1.00  0.00    -0.388 OA
ATOM     17  H   UNL     1      20.188  34.844  50.713  1.00  0.00     0.211 HD
ENDBRANCH  12  16
BRANCH  14  18
ATOM     18  O   UNL     1      18.078  31.323  51.546  1.00  0.00    -0.387 OA
ATOM     19  H   UNL     1      18.652  31.043  50.788  1.00  0.00     0.211 HD
ENDBRANCH  14  18
BRANCH  15  20
ATOM     20  O   UNL     1      17.768  31.773  54.273  1.00  0.00    -0.385 OA
ATOM     21  H   UNL     1      16.796  31.612  54.271  1.00  0.00     0.211 HD
ENDBRANCH  15  20
ENDBRANCH   8   9
ENDBRANCH   7   8
ENDBRANCH   1   7
BRANCH   2  22
ATOM     22  O   UNL     1      11.833  30.846  54.665  1.00  0.00    -0.387 OA
ATOM     23  H   UNL     1      12.380  30.448  55.418  1.00  0.00     0.211 HD
ENDBRANCH   2  22
BRANCH   3  24
ATOM     24  O   UNL     1      10.851  33.979  55.123  1.00  0.00    -0.387 OA
ATOM     25  H   UNL     1      11.290  33.632  55.937  1.00  0.00     0.211 HD
ENDBRANCH   3  24
BRANCH   5  26
ATOM     26  O   UNL     1      12.636  33.810  50.610  1.00  0.00    -0.454 OA
BRANCH  26  27
ATOM     27  C   UNL     1      11.834  34.461  49.656  1.00  0.00     0.214 A 
ATOM     28  C   UNL     1      12.072  35.801  49.329  1.00  0.00     0.180 A 
ATOM     29  C   UNL     1      10.632  33.887  49.253  1.00  0.00     0.239 A 
ATOM     30  O   UNL     1      11.054  36.548  48.909  1.00  0.00    -0.452 OA
ATOM     31  C   UNL     1       9.555  34.712  48.842  1.00  0.00     0.111 A 
ATOM     32  O   UNL     1      10.497  32.634  49.325  1.00  0.00    -0.285 OA
ATOM     33  C   UNL     1       9.814  36.080  48.721  1.00  0.00     0.146 A 
ATOM     34  C   UNL     1       8.222  34.248  48.700  1.00  0.00     0.134 A 
ATOM     35  C   UNL     1       8.781  36.974  48.473  1.00  0.00     0.094 A 
ATOM     36  C   UNL     1       7.183  35.168  48.478  1.00  0.00     0.093 A 
ATOM     37  C   UNL     1       7.451  36.524  48.395  1.00  0.00     0.123 A 
BRANCH  28  38
ATOM     38  C   UNL     1      13.398  36.469  49.513  1.00  0.00     0.025 A 
ATOM     39  C   UNL     1      13.871  36.821  50.782  1.00  0.00     0.062 A 
ATOM     40  C   UNL     1      14.235  36.691  48.403  1.00  0.00     0.016 A 
ATOM     41  C   UNL     1      15.133  37.399  50.952  1.00  0.00     0.158 A 
ATOM     42  C   UNL     1      15.503  37.267  48.553  1.00  0.00     0.051 A 
ATOM     43  C   UNL     1      15.956  37.609  49.825  1.00  0.00     0.157 A 
BRANCH  41  44
ATOM     44  O   UNL     1      15.570  37.745  52.234  1.00  0.00    -0.504 OA
ATOM     45  H   UNL     1      16.089  38.609  52.400  1.00  0.00     0.293 HD
ENDBRANCH  41  44
BRANCH  43  46
ATOM     46  O   UNL     1      17.233  38.125  49.979  1.00  0.00    -0.504 OA
ATOM     47  H   UNL     1      17.411  38.957  50.559  1.00  0.00     0.293 HD
ENDBRANCH  43  46
ENDBRANCH  28  38
BRANCH  34  48
ATOM     48  O   UNL     1       7.924  32.897  48.867  1.00  0.00    -0.507 OA
ATOM     49  H   UNL     1       7.091  32.562  49.331  1.00  0.00     0.293 HD
ENDBRANCH  34  48
BRANCH  37  50
ATOM     50  O   UNL     1       6.395  37.424  48.287  1.00  0.00    -0.508 OA
ATOM     51  H   UNL     1       6.316  38.185  48.954  1.00  0.00     0.293 HD
ENDBRANCH  37  50
ENDBRANCH  26  27
ENDBRANCH   5  26
BRANCH   4  52
ATOM     52  O   UNL     1      11.963  35.116  52.988  1.00  0.00    -0.384 OA
ATOM     53  H   UNL     1      11.858  35.349  53.936  1.00  0.00     0.211 HD
ENDBRANCH   4  52
TORSDOF 16
ENDMDL
MODEL 3
REMARK VINA RESULT:    -5.672      3.342      8.362
REMARK INTER + INTRA:         -12.012
REMARK INTER:                  -9.575
REMARK INTRA:                  -2.436
REMARK UNBOUND:                -2.692
REMARK SMILES C[C@H]1O[C@@H](OC[C@@H]2O[C@H](Oc3c(-c4ccc(O)c(O)c4)oc4cc(O)cc(O)c4c3=O)[C@H](O)[C@H](O)[C@H]2O)[C@@H](O)[C@@H](O)[C@@H]1O
REMARK SMILES IDX 7 1 36 2 34 3 32 4 9 5 8 6 6 7 5 8 4 9 1 10 2 11 42 12 3 13
REMARK SMILES IDX 40 14 38 15 43 16 41 18 39 20 37 22 35 24 10 26 11 27 12 28
REMARK SMILES IDX 30 29 21 30 29 31 31 32 22 33 27 34 23 35 26 36 24 37 13 38
REMARK SMILES IDX 20 39 14 40 18 41 15 42 16 43 19 44 17 46 28 48 25 50 33 52
REMARK H PARENT 43 17 41 19 39 21 37 23 35 25 19 45 17 47 28 49 25 51 33 53
REMARK Flexibility Score: inf
ROOT
ATOM      1  C   UNL     1      14.824  33.279  52.325  1.00  0.00     0.180 C 
ATOM      2  C   UNL     1      14.958  31.755  52.457  1.00  0.00     0.177 C 
ATOM      3  C   UNL     1      13.658  31.020  52.028  1.00  0.00     0.180 C 
ATOM      4  C   UNL     1      12.465  31.925  51.630  1.00  0.00     0.214 C 
ATOM      5  C   UNL     1      12.939  33.202  50.845  1.00  0.00     0.339 C 
ATOM      6  O   UNL     1      14.289  33.623  51.067  1.00  0.00    -0.332 OA
ENDROOT
BRANCH   1   7
ATOM      7  C   UNL     1      14.072  34.011  53.451  1.00  0.00     0.198 C 
BRANCH   7   8
ATOM      8  O   UNL     1      13.641  33.148  54.481  1.00  0.00    -0.347 OA
BRANCH   8   9
ATOM      9  C   UNL     1      13.331  33.797  55.684  1.00  0.00     0.281 C 
ATOM     10  C   UNL     1      14.705  31.006  56.287  1.00  0.00     0.041 C 
ATOM     11  C   UNL     1      13.974  32.018  57.183  1.00  0.00     0.150 C 
ATOM     12  C   UNL     1      12.492  31.665  57.498  1.00  0.00     0.174 C 
ATOM     13  O   UNL     1      14.168  33.367  56.763  1.00  0.00    -0.344 OA
ATOM     14  C   UNL     1      11.494  32.143  56.440  1.00  0.00     0.179 C 
ATOM     15  C   UNL     1      11.832  33.592  55.988  1.00  0.00     0.202 C 
BRANCH  12  16
ATOM     16  O   UNL     1      12.124  32.245  58.720  1.00  0.00    -0.388 OA
ATOM     17  H   UNL     1      12.405  33.194  58.708  1.00  0.00     0.211 HD
ENDBRANCH  12  16
BRANCH  14  18
ATOM     18  O   UNL     1      11.373  31.202  55.397  1.00  0.00    -0.387 OA
ATOM     19  H   UNL     1      12.060  30.501  55.531  1.00  0.00     0.211 HD
ENDBRANCH  14  18
BRANCH  15  20
ATOM     20  O   UNL     1      11.033  33.913  54.872  1.00  0.00    -0.385 OA
ATOM     21  H   UNL     1      10.204  34.322  55.211  1.00  0.00     0.211 HD
ENDBRANCH  15  20
ENDBRANCH   8   9
ENDBRANCH   7   8
ENDBRANCH   1   7
BRANCH   2  22
ATOM     22  O   UNL     1      16.057  31.273  51.687  1.00  0.00    -0.387 OA
ATOM     23  H   UNL     1      15.931  30.277  51.558  1.00  0.00     0.211 HD
ENDBRANCH   2  22
BRANCH   3  24
ATOM     24  O   UNL     1      13.256  30.040  52.962  1.00  0.00    -0.387 OA
ATOM     25  H   UNL     1      12.269  30.059  53.014  1.00  0.00     0.211 HD
ENDBRANCH   3  24
BRANCH   5  26
ATOM     26  O   UNL     1      12.036  34.308  50.995  1.00  0.00    -0.454 OA
BRANCH  26  27
ATOM     27  C   UNL     1      11.416  34.782  49.825  1.00  0.00     0.214 A 
ATOM     28  C   UNL     1      11.824  35.990  49.247  1.00  0.00     0.180 A 
ATOM     29  C   UNL     1      10.214  34.222  49.402  1.00  0.00     0.239 A 
ATOM     30  O   UNL     1      10.942  36.694  48.544  1.00  0.00    -0.452 OA
ATOM     31  C   UNL     1       9.279  35.008  48.683  1.00  0.00     0.111 A 
ATOM     32  O   UNL     1       9.944  33.032  49.728  1.00  0.00    -0.285 OA
ATOM     33  C   UNL     1       9.689  36.289  48.301  1.00  0.00     0.146 A 
ATOM     34  C   UNL     1       7.930  34.625  48.471  1.00  0.00     0.134 A 
ATOM     35  C   UNL     1       8.787  37.177  47.730  1.00  0.00     0.094 A 
ATOM     36  C   UNL     1       7.022  35.544  47.919  1.00  0.00     0.093 A 
ATOM     37  C   UNL     1       7.435  36.822  47.578  1.00  0.00     0.123 A 
BRANCH  28  38
ATOM     38  C   UNL     1      13.183  36.581  49.453  1.00  0.00     0.025 A 
ATOM     39  C   UNL     1      13.636  36.948  50.726  1.00  0.00     0.062 A 
ATOM     40  C   UNL     1      14.068  36.711  48.365  1.00  0.00     0.016 A 
ATOM     41  C   UNL     1      14.926  37.453  50.918  1.00  0.00     0.158 A 
ATOM     42  C   UNL     1      15.364  37.214  48.540  1.00  0.00     0.051 A 
ATOM     43  C   UNL     1      15.797  37.572  49.813  1.00  0.00     0.157 A 
BRANCH  41  44
ATOM     44  O   UNL     1      15.344  37.816  52.203  1.00  0.00    -0.504 OA
ATOM     45  H   UNL     1      15.578  38.784  52.428  1.00  0.00     0.293 HD
ENDBRANCH  41  44
BRANCH  43  46
ATOM     46  O   UNL     1      17.098  38.013  49.994  1.00  0.00    -0.504 OA
ATOM     47  H   UNL     1      17.890  37.568  49.509  1.00  0.00     0.293 HD
ENDBRANCH  43  46
ENDBRANCH  28  38
BRANCH  34  48
ATOM     48  O   UNL     1       7.479  33.375  48.889  1.00  0.00    -0.507 OA
ATOM     49  H   UNL     1       6.507  33.097  48.869  1.00  0.00     0.293 HD
ENDBRANCH  34  48
BRANCH  37  50
ATOM     50  O   UNL     1       6.495  37.750  47.138  1.00  0.00    -0.508 OA
ATOM     51  H   UNL     1       6.513  38.060  46.172  1.00  0.00     0.293 HD
ENDBRANCH  37  50
ENDBRANCH  26  27
ENDBRANCH   5  26
BRANCH   4  52
ATOM     52  O   UNL     1      11.698  32.192  52.789  1.00  0.00    -0.384 OA
ATOM     53  H   UNL     1      10.761  32.336  52.536  1.00  0.00     0.211 HD
ENDBRANCH   4  52
TORSDOF 16
ENDMDL
MODEL 4
REMARK VINA RESULT:    -5.581      3.479      8.057
REMARK INTER + INTRA:         -11.862
REMARK INTER:                  -8.998
REMARK INTRA:                  -2.864
REMARK UNBOUND:                -2.692
REMARK SMILES C[C@H]1O[C@@H](OC[C@@H]2O[C@H](Oc3c(-c4ccc(O)c(O)c4)oc4cc(O)cc(O)c4c3=O)[C@H](O)[C@H](O)[C@H]2O)[C@@H](O)[C@@H](O)[C@@H]1O
REMARK SMILES IDX 7 1 36 2 34 3 32 4 9 5 8 6 6 7 5 8 4 9 1 10 2 11 42 12 3 13
REMARK SMILES IDX 40 14 38 15 43 16 41 18 39 20 37 22 35 24 10 26 11 27 12 28
REMARK SMILES IDX 30 29 21 30 29 31 31 32 22 33 27 34 23 35 26 36 24 37 13 38
REMARK SMILES IDX 20 39 14 40 18 41 15 42 16 43 19 44 17 46 28 48 25 50 33 52
REMARK H PARENT 43 17 41 19 39 21 37 23 35 25 19 45 17 47 28 49 25 51 33 53
REMARK Flexibility Score: inf
ROOT
ATOM      1  C   UNL     1      15.216  32.153  50.701  1.00  0.00     0.180 C 
ATOM      2  C   UNL     1      15.833  31.306  49.578  1.00  0.00     0.177 C 
ATOM      3  C   UNL     1      14.945  31.301  48.303  1.00  0.00     0.180 C 
ATOM      4  C   UNL     1      13.599  32.060  48.407  1.00  0.00     0.214 C 
ATOM      5  C   UNL     1      13.736  33.373  49.262  1.00  0.00     0.339 C 
ATOM      6  O   UNL     1      14.809  33.410  50.209  1.00  0.00    -0.332 OA
ENDROOT
BRANCH   1   7
ATOM      7  C   UNL     1      14.088  31.502  51.522  1.00  0.00     0.198 C 
BRANCH   7   8
ATOM      8  O   UNL     1      13.697  32.276  52.635  1.00  0.00    -0.347 OA
BRANCH   8   9
ATOM      9  C   UNL     1      14.700  32.446  53.599  1.00  0.00     0.281 C 
ATOM     10  C   UNL     1      12.147  31.115  54.923  1.00  0.00     0.041 C 
ATOM     11  C   UNL     1      13.427  31.722  55.518  1.00  0.00     0.150 C 
ATOM     12  C   UNL     1      13.280  33.177  56.046  1.00  0.00     0.174 C 
ATOM     13  O   UNL     1      14.569  31.524  54.686  1.00  0.00    -0.344 OA
ATOM     14  C   UNL     1      13.473  34.256  54.977  1.00  0.00     0.179 C 
ATOM     15  C   UNL     1      14.691  33.915  54.073  1.00  0.00     0.202 C 
BRANCH  12  16
ATOM     16  O   UNL     1      14.227  33.405  57.054  1.00  0.00    -0.388 OA
ATOM     17  H   UNL     1      13.890  33.000  57.892  1.00  0.00     0.211 HD
ENDBRANCH  12  16
BRANCH  14  18
ATOM     18  O   UNL     1      12.268  34.509  54.291  1.00  0.00    -0.387 OA
ATOM     19  H   UNL     1      12.491  34.775  53.362  1.00  0.00     0.211 HD
ENDBRANCH  14  18
BRANCH  15  20
ATOM     20  O   UNL     1      14.704  34.806  52.981  1.00  0.00    -0.385 OA
ATOM     21  H   UNL     1      15.084  34.323  52.211  1.00  0.00     0.211 HD
ENDBRANCH  15  20
ENDBRANCH   8   9
ENDBRANCH   7   8
ENDBRANCH   1   7
BRANCH   2  22
ATOM     22  O   UNL     1      17.140  31.772  49.251  1.00  0.00    -0.387 OA
ATOM     23  H   UNL     1      17.316  31.542  48.281  1.00  0.00     0.211 HD
ENDBRANCH   2  22
BRANCH   3  24
ATOM     24  O   UNL     1      14.751  30.002  47.784  1.00  0.00    -0.387 OA
ATOM     25  H   UNL     1      15.180  29.966  46.893  1.00  0.00     0.211 HD
ENDBRANCH   3  24
BRANCH   5  26
ATOM     26  O   UNL     1      12.500  33.755  49.887  1.00  0.00    -0.454 OA
BRANCH  26  27
ATOM     27  C   UNL     1      11.640  34.578  49.138  1.00  0.00     0.214 A 
ATOM     28  C   UNL     1      11.865  35.958  49.069  1.00  0.00     0.180 A 
ATOM     29  C   UNL     1      10.411  34.088  48.710  1.00  0.00     0.239 A 
ATOM     30  O   UNL     1      10.827  36.767  48.875  1.00  0.00    -0.452 OA
ATOM     31  C   UNL     1       9.314  34.971  48.544  1.00  0.00     0.111 A 
ATOM     32  O   UNL     1      10.272  32.844  48.540  1.00  0.00    -0.285 OA
ATOM     33  C   UNL     1       9.574  36.337  48.680  1.00  0.00     0.146 A 
ATOM     34  C   UNL     1       7.971  34.535  48.402  1.00  0.00     0.134 A 
ATOM     35  C   UNL     1       8.533  37.256  48.685  1.00  0.00     0.094 A 
ATOM     36  C   UNL     1       6.926  35.474  48.437  1.00  0.00     0.093 A 
ATOM     37  C   UNL     1       7.197  36.822  48.609  1.00  0.00     0.123 A 
BRANCH  28  38
ATOM     38  C   UNL     1      13.206  36.585  49.293  1.00  0.00     0.025 A 
ATOM     39  C   UNL     1      13.665  36.890  50.579  1.00  0.00     0.062 A 
ATOM     40  C   UNL     1      14.067  36.813  48.203  1.00  0.00     0.016 A 
ATOM     41  C   UNL     1      14.939  37.429  50.785  1.00  0.00     0.158 A 
ATOM     42  C   UNL     1      15.348  37.351  48.390  1.00  0.00     0.051 A 
ATOM     43  C   UNL     1      15.787  37.646  49.677  1.00  0.00     0.157 A 
BRANCH  41  44
ATOM     44  O   UNL     1      15.364  37.728  52.083  1.00  0.00    -0.504 OA
ATOM     45  H   UNL     1      16.269  37.407  52.429  1.00  0.00     0.293 HD
ENDBRANCH  41  44
BRANCH  43  46
ATOM     46  O   UNL     1      17.075  38.123  49.867  1.00  0.00    -0.504 OA
ATOM     47  H   UNL     1      17.840  37.503  50.166  1.00  0.00     0.293 HD
ENDBRANCH  43  46
ENDBRANCH  28  38
BRANCH  34  48
ATOM     48  O   UNL     1       7.677  33.177  48.317  1.00  0.00    -0.507 OA
ATOM     49  H   UNL     1       6.788  32.780  48.590  1.00  0.00     0.293 HD
ENDBRANCH  34  48
BRANCH  37  50
ATOM     50  O   UNL     1       6.143  37.719  48.753  1.00  0.00    -0.508 OA
ATOM     51  H   UNL     1       5.364  37.481  49.359  1.00  0.00     0.293 HD
ENDBRANCH  37  50
ENDBRANCH  26  27
ENDBRANCH   5  26
BRANCH   4  52
ATOM     52  O   UNL     1      12.609  31.157  48.863  1.00  0.00    -0.384 OA
ATOM     53  H   UNL     1      11.933  31.031  48.161  1.00  0.00     0.211 HD
ENDBRANCH   4  52
TORSDOF 16
ENDMDL
MODEL 5
REMARK VINA RESULT:    -5.528      2.527      5.550
REMARK INTER + INTRA:         -11.774
REMARK INTER:                  -9.129
REMARK INTRA:                  -2.645
REMARK UNBOUND:                -2.692
REMARK SMILES C[C@H]1O[C@@H](OC[C@@H]2O[C@H](Oc3c(-c4ccc(O)c(O)c4)oc4cc(O)cc(O)c4c3=O)[C@H](O)[C@H](O)[C@H]2O)[C@@H](O)[C@@H](O)[C@@H]1O
REMARK SMILES IDX 7 1 36 2 34 3 32 4 9 5 8 6 6 7 5 8 4 9 1 10 2 11 42 12 3 13
REMARK SMILES IDX 40 14 38 15 43 16 41 18 39 20 37 22 35 24 10 26 11 27 12 28
REMARK SMILES IDX 30 29 21 30 29 31 31 32 22 33 27 34 23 35 26 36 24 37 13 38
REMARK SMILES IDX 20 39 14 40 18 41 15 42 16 43 19 44 17 46 28 48 25 50 33 52
REMARK H PARENT 43 17 41 19 39 21 37 23 35 25 19 45 17 47 28 49 25 51 33 53
REMARK Flexibility Score: inf
ROOT
ATOM      1  C   UNL     1      12.624  35.441  50.225  1.00  0.00     0.180 C 
ATOM      2  C   UNL     1      11.320  35.419  49.414  1.00  0.00     0.177 C 
ATOM      3  C   UNL     1      10.441  34.186  49.765  1.00  0.00     0.180 C 
ATOM      4  C   UNL     1      11.048  33.185  50.779  1.00  0.00     0.214 C 
ATOM      5  C   UNL     1      11.856  33.919  51.911  1.00  0.00     0.339 C 
ATOM      6  O   UNL     1      12.363  35.220  51.592  1.00  0.00    -0.332 OA
ENDROOT
BRANCH   1   7
ATOM      7  C   UNL     1      13.762  34.526  49.736  1.00  0.00     0.198 C 
BRANCH   7   8
ATOM      8  O   UNL     1      14.820  35.235  49.130  1.00  0.00    -0.347 OA
BRANCH   8   9
ATOM      9  C   UNL     1      14.436  36.009  48.026  1.00  0.00     0.281 C 
ATOM     10  C   UNL     1      16.170  33.538  47.060  1.00  0.00     0.041 C 
ATOM     11  C   UNL     1      15.678  34.805  46.342  1.00  0.00     0.150 C 
ATOM     12  C   UNL     1      16.733  35.941  46.220  1.00  0.00     0.174 C 
ATOM     13  O   UNL     1      14.406  35.247  46.814  1.00  0.00    -0.344 OA
ATOM     14  C   UNL     1      16.802  36.867  47.437  1.00  0.00     0.179 C 
ATOM     15  C   UNL     1      15.371  37.233  47.926  1.00  0.00     0.202 C 
BRANCH  12  16
ATOM     16  O   UNL     1      16.438  36.733  45.102  1.00  0.00    -0.388 OA
ATOM     17  H   UNL     1      15.673  37.318  45.331  1.00  0.00     0.211 HD
ENDBRANCH  12  16
BRANCH  14  18
ATOM     18  O   UNL     1      17.657  36.341  48.426  1.00  0.00    -0.387 OA
ATOM     19  H   UNL     1      17.667  36.969  49.193  1.00  0.00     0.211 HD
ENDBRANCH  14  18
BRANCH  15  20
ATOM     20  O   UNL     1      15.475  37.901  49.162  1.00  0.00    -0.385 OA
ATOM     21  H   UNL     1      14.560  38.108  49.462  1.00  0.00     0.211 HD
ENDBRANCH  15  20
ENDBRANCH   8   9
ENDBRANCH   7   8
ENDBRANCH   1   7
BRANCH   2  22
ATOM     22  O   UNL     1      10.573  36.615  49.623  1.00  0.00    -0.387 OA
ATOM     23  H   UNL     1      10.772  37.242  48.853  1.00  0.00     0.211 HD
ENDBRANCH   2  22
BRANCH   3  24
ATOM     24  O   UNL     1       9.968  33.515  48.617  1.00  0.00    -0.387 OA
ATOM     25  H   UNL     1      10.352  32.603  48.620  1.00  0.00     0.211 HD
ENDBRANCH   3  24
BRANCH   5  26
ATOM     26  O   UNL     1      12.893  33.098  52.470  1.00  0.00    -0.454 OA
BRANCH  26  27
ATOM     27  C   UNL     1      13.271  33.372  53.797  1.00  0.00     0.214 A 
ATOM     28  C   UNL     1      14.625  33.469  54.141  1.00  0.00     0.180 A 
ATOM     29  C   UNL     1      12.337  33.256  54.821  1.00  0.00     0.239 A 
ATOM     30  O   UNL     1      14.993  33.166  55.382  1.00  0.00    -0.452 OA
ATOM     31  C   UNL     1      12.757  32.899  56.127  1.00  0.00     0.111 A 
ATOM     32  O   UNL     1      11.112  33.405  54.553  1.00  0.00    -0.285 OA
ATOM     33  C   UNL     1      14.134  32.826  56.352  1.00  0.00     0.146 A 
ATOM     34  C   UNL     1      11.868  32.474  57.148  1.00  0.00     0.134 A 
ATOM     35  C   UNL     1      14.627  32.337  57.554  1.00  0.00     0.094 A 
ATOM     36  C   UNL     1      12.382  31.955  58.349  1.00  0.00     0.093 A 
ATOM     37  C   UNL     1      13.750  31.856  58.543  1.00  0.00     0.123 A 
BRANCH  28  38
ATOM     38  C   UNL     1      15.700  33.810  53.158  1.00  0.00     0.025 A 
ATOM     39  C   UNL     1      15.783  35.080  52.575  1.00  0.00     0.062 A 
ATOM     40  C   UNL     1      16.702  32.869  52.855  1.00  0.00     0.016 A 
ATOM     41  C   UNL     1      16.820  35.408  51.696  1.00  0.00     0.158 A 
ATOM     42  C   UNL     1      17.749  33.180  51.978  1.00  0.00     0.051 A 
ATOM     43  C   UNL     1      17.816  34.449  51.410  1.00  0.00     0.157 A 
BRANCH  41  44
ATOM     44  O   UNL     1      16.868  36.684  51.126  1.00  0.00    -0.504 OA
ATOM     45  H   UNL     1      17.508  36.896  50.359  1.00  0.00     0.293 HD
ENDBRANCH  41  44
BRANCH  43  46
ATOM     46  O   UNL     1      18.883  34.774  50.588  1.00  0.00    -0.504 OA
ATOM     47  H   UNL     1      19.450  35.619  50.750  1.00  0.00     0.293 HD
ENDBRANCH  43  46
ENDBRANCH  28  38
BRANCH  34  48
ATOM     48  O   UNL     1      10.492  32.486  56.934  1.00  0.00    -0.507 OA
ATOM     49  H   UNL     1       9.996  33.268  56.528  1.00  0.00     0.293 HD
ENDBRANCH  34  48
BRANCH  37  50
ATOM     50  O   UNL     1      14.235  31.236  59.691  1.00  0.00    -0.508 OA
ATOM     51  H   UNL     1      14.733  31.786  60.383  1.00  0.00     0.293 HD
ENDBRANCH  37  50
ENDBRANCH  26  27
ENDBRANCH   5  26
BRANCH   4  52
ATOM     52  O   UNL     1      11.784  32.211  50.062  1.00  0.00    -0.384 OA
ATOM     53  H   UNL     1      11.553  31.316  50.395  1.00  0.00     0.211 HD
ENDBRANCH   4  52
TORSDOF 16
ENDMDL
MODEL 6
REMARK VINA RESULT:    -5.476      2.504      5.478
REMARK INTER + INTRA:         -11.689
REMARK INTER:                  -8.525
REMARK INTRA:                  -3.164
REMARK UNBOUND:                -2.692
REMARK SMILES C[C@H]1O[C@@H](OC[C@@H]2O[C@H](Oc3c(-c4ccc(O)c(O)c4)oc4cc(O)cc(O)c4c3=O)[C@H](O)[C@H](O)[C@H]2O)[C@@H](O)[C@@H](O)[C@@H]1O
REMARK SMILES IDX 7 1 36 2 34 3 32 4 9 5 8 6 6 7 5 8 4 9 1 10 2 11 42 12 3 13
REMARK SMILES IDX 40 14 38 15 43 16 41 18 39 20 37 22 35 24 10 26 11 27 12 28
REMARK SMILES IDX 30 29 21 30 29 31 31 32 22 33 27 34 23 35 26 36 24 37 13 38
REMARK SMILES IDX 20 39 14 40 18 41 15 42 16 43 19 44 17 46 28 48 25 50 33 52
REMARK H PARENT 43 17 41 19 39 21 37 23 35 25 19 45 17 47 28 49 25 51 33 53
REMARK Flexibility Score: inf
ROOT
ATOM      1  C   UNL     1      17.672  31.551  51.387  1.00  0.00     0.180 C 
ATOM      2  C   UNL     1      17.663  30.103  51.900  1.00  0.00     0.177 C 
ATOM      3  C   UNL     1      16.983  29.988  53.292  1.00  0.00     0.180 C 
ATOM      4  C   UNL     1      16.516  31.318  53.935  1.00  0.00     0.214 C 
ATOM      5  C   UNL     1      15.942  32.314  52.862  1.00  0.00     0.339 C 
ATOM      6  O   UNL     1      16.394  32.131  51.516  1.00  0.00    -0.332 OA
ENDROOT
BRANCH   1   7
ATOM      7  C   UNL     1      18.752  32.486  51.962  1.00  0.00     0.198 C 
BRANCH   7   8
ATOM      8  O   UNL     1      19.138  33.503  51.064  1.00  0.00    -0.347 OA
BRANCH   8   9
ATOM      9  C   UNL     1      19.424  33.049  49.769  1.00  0.00     0.281 C 
ATOM     10  C   UNL     1      21.796  34.867  50.823  1.00  0.00     0.041 C 
ATOM     11  C   UNL     1      21.465  34.293  49.436  1.00  0.00     0.150 C 
ATOM     12  C   UNL     1      20.771  35.289  48.463  1.00  0.00     0.174 C 
ATOM     13  O   UNL     1      20.831  33.018  49.504  1.00  0.00    -0.344 OA
ATOM     14  C   UNL     1      19.249  35.352  48.609  1.00  0.00     0.179 C 
ATOM     15  C   UNL     1      18.656  33.921  48.754  1.00  0.00     0.202 C 
BRANCH  12  16
ATOM     16  O   UNL     1      21.055  34.922  47.140  1.00  0.00    -0.388 OA
ATOM     17  H   UNL     1      20.285  34.409  46.790  1.00  0.00     0.211 HD
ENDBRANCH  12  16
BRANCH  14  18
ATOM     18  O   UNL     1      18.874  36.261  49.618  1.00  0.00    -0.387 OA
ATOM     19  H   UNL     1      18.602  37.110  49.185  1.00  0.00     0.211 HD
ENDBRANCH  14  18
BRANCH  15  20
ATOM     20  O   UNL     1      17.294  34.032  49.100  1.00  0.00    -0.385 OA
ATOM     21  H   UNL     1      17.123  33.391  49.828  1.00  0.00     0.211 HD
ENDBRANCH  15  20
ENDBRANCH   8   9
ENDBRANCH   7   8
ENDBRANCH   1   7
BRANCH   2  22
ATOM     22  O   UNL     1      17.009  29.240  50.973  1.00  0.00    -0.387 OA
ATOM     23  H   UNL     1      17.712  28.638  50.564  1.00  0.00     0.211 HD
ENDBRANCH   2  22
BRANCH   3  24
ATOM     24  O   UNL     1      17.745  29.227  54.206  1.00  0.00    -0.387 OA
ATOM     25  H   UNL     1      18.069  28.423  53.732  1.00  0.00     0.211 HD
ENDBRANCH   3  24
BRANCH   5  26
ATOM     26  O   UNL     1      16.078  33.688  53.257  1.00  0.00    -0.454 OA
BRANCH  26  27
ATOM     27  C   UNL     1      15.119  34.587  52.757  1.00  0.00     0.214 A 
ATOM     28  C   UNL     1      13.775  34.469  53.133  1.00  0.00     0.180 A 
ATOM     29  C   UNL     1      15.431  35.402  51.674  1.00  0.00     0.239 A 
ATOM     30  O   UNL     1      12.835  34.894  52.293  1.00  0.00    -0.452 OA
ATOM     31  C   UNL     1      14.412  35.811  50.777  1.00  0.00     0.111 A 
ATOM     32  O   UNL     1      16.638  35.710  51.466  1.00  0.00    -0.285 OA
ATOM     33  C   UNL     1      13.097  35.489  51.122  1.00  0.00     0.146 A 
ATOM     34  C   UNL     1      14.670  36.384  49.505  1.00  0.00     0.134 A 
ATOM     35  C   UNL     1      12.058  35.716  50.230  1.00  0.00     0.094 A 
ATOM     36  C   UNL     1      13.612  36.582  48.601  1.00  0.00     0.093 A 
ATOM     37  C   UNL     1      12.319  36.224  48.945  1.00  0.00     0.123 A 
BRANCH  28  38
ATOM     38  C   UNL     1      13.331  33.803  54.398  1.00  0.00     0.025 A 
ATOM     39  C   UNL     1      14.165  33.735  55.520  1.00  0.00     0.062 A 
ATOM     40  C   UNL     1      12.023  33.294  54.504  1.00  0.00     0.016 A 
ATOM     41  C   UNL     1      13.725  33.155  56.715  1.00  0.00     0.158 A 
ATOM     42  C   UNL     1      11.565  32.712  55.693  1.00  0.00     0.051 A 
ATOM     43  C   UNL     1      12.408  32.654  56.799  1.00  0.00     0.157 A 
BRANCH  41  44
ATOM     44  O   UNL     1      14.587  33.097  57.815  1.00  0.00    -0.504 OA
ATOM     45  H   UNL     1      14.717  32.230  58.338  1.00  0.00     0.293 HD
ENDBRANCH  41  44
BRANCH  43  46
ATOM     46  O   UNL     1      11.935  32.131  57.992  1.00  0.00    -0.504 OA
ATOM     47  H   UNL     1      11.709  32.737  58.794  1.00  0.00     0.293 HD
ENDBRANCH  43  46
ENDBRANCH  28  38
BRANCH  34  48
ATOM     48  O   UNL     1      15.976  36.668  49.112  1.00  0.00    -0.507 OA
ATOM     49  H   UNL     1      16.290  37.591  48.843  1.00  0.00     0.293 HD
ENDBRANCH  34  48
BRANCH  37  50
ATOM     50  O   UNL     1      11.306  36.325  47.995  1.00  0.00    -0.508 OA
ATOM     51  H   UNL     1      10.371  36.008  48.226  1.00  0.00     0.293 HD
ENDBRANCH  37  50
ENDBRANCH  26  27
ENDBRANCH   5  26
BRANCH   4  52
ATOM     52  O   UNL     1      17.579  31.835  54.715  1.00  0.00    -0.384 OA
ATOM     53  H   UNL     1      18.436  31.594  54.301  1.00  0.00     0.211 HD
ENDBRANCH   4  52
TORSDOF 16
ENDMDL
MODEL 7
REMARK VINA RESULT:    -5.453      2.719      7.433
REMARK INTER + INTRA:         -11.652
REMARK INTER:                  -8.183
REMARK INTRA:                  -3.469
REMARK UNBOUND:                -2.692
REMARK SMILES C[C@H]1O[C@@H](OC[C@@H]2O[C@H](Oc3c(-c4ccc(O)c(O)c4)oc4cc(O)cc(O)c4c3=O)[C@H](O)[C@H](O)[C@H]2O)[C@@H](O)[C@@H](O)[C@@H]1O
REMARK SMILES IDX 7 1 36 2 34 3 32 4 9 5 8 6 6 7 5 8 4 9 1 10 2 11 42 12 3 13
REMARK SMILES IDX 40 14 38 15 43 16 41 18 39 20 37 22 35 24 10 26 11 27 12 28
REMARK SMILES IDX 30 29 21 30 29 31 31 32 22 33 27 34 23 35 26 36 24 37 13 38
REMARK SMILES IDX 20 39 14 40 18 41 15 42 16 43 19 44 17 46 28 48 25 50 33 52
REMARK H PARENT 43 17 41 19 39 21 37 23 35 25 19 45 17 47 28 49 25 51 33 53
REMARK Flexibility Score: inf
ROOT
ATOM      1  C   UNL     1      10.703  31.361  52.004  1.00  0.00     0.180 C 
ATOM      2  C   UNL     1      10.933  31.033  50.522  1.00  0.00     0.177 C 
ATOM      3  C   UNL     1      11.831  32.095  49.828  1.00  0.00     0.180 C 
ATOM      4  C   UNL     1      12.258  33.301  50.702  1.00  0.00     0.214 C 
ATOM      5  C   UNL     1      12.557  32.869  52.184  1.00  0.00     0.339 C 
ATOM      6  O   UNL     1      11.922  31.670  52.640  1.00  0.00    -0.332 OA
ENDROOT
BRANCH   1   7
ATOM      7  C   UNL     1       9.639  32.427  52.323  1.00  0.00     0.198 C 
BRANCH   7   8
ATOM      8  O   UNL     1       9.061  32.267  53.600  1.00  0.00    -0.347 OA
BRANCH   8   9
ATOM      9  C   UNL     1       8.675  30.953  53.896  1.00  0.00     0.281 C 
ATOM     10  C   UNL     1       6.242  32.925  54.379  1.00  0.00     0.041 C 
ATOM     11  C   UNL     1       6.467  31.448  54.737  1.00  0.00     0.150 C 
ATOM     12  C   UNL     1       6.903  31.188  56.208  1.00  0.00     0.174 C 
ATOM     13  O   UNL     1       7.262  30.761  53.771  1.00  0.00    -0.344 OA
ATOM     14  C   UNL     1       8.411  31.296  56.444  1.00  0.00     0.179 C 
ATOM     15  C   UNL     1       9.194  30.586  55.303  1.00  0.00     0.202 C 
BRANCH  12  16
ATOM     16  O   UNL     1       6.504  29.900  56.591  1.00  0.00    -0.388 OA
ATOM     17  H   UNL     1       6.933  29.689  57.458  1.00  0.00     0.211 HD
ENDBRANCH  12  16
BRANCH  14  18
ATOM     18  O   UNL     1       8.791  32.630  56.692  1.00  0.00    -0.387 OA
ATOM     19  H   UNL     1       8.916  32.740  57.669  1.00  0.00     0.211 HD
ENDBRANCH  14  18
BRANCH  15  20
ATOM     20  O   UNL     1      10.563  30.891  55.440  1.00  0.00    -0.385 OA
ATOM     21  H   UNL     1      11.013  30.079  55.770  1.00  0.00     0.211 HD
ENDBRANCH  15  20
ENDBRANCH   8   9
ENDBRANCH   7   8
ENDBRANCH   1   7
BRANCH   2  22
ATOM     22  O   UNL     1      11.517  29.741  50.373  1.00  0.00    -0.387 OA
ATOM     23  H   UNL     1      12.012  29.525  51.229  1.00  0.00     0.211 HD
ENDBRANCH   2  22
BRANCH   3  24
ATOM     24  O   UNL     1      11.299  32.530  48.595  1.00  0.00    -0.387 OA
ATOM     25  H   UNL     1      11.997  32.410  47.905  1.00  0.00     0.211 HD
ENDBRANCH   3  24
BRANCH   5  26
ATOM     26  O   UNL     1      12.350  33.937  53.121  1.00  0.00    -0.454 OA
BRANCH  26  27
ATOM     27  C   UNL     1      13.146  33.923  54.281  1.00  0.00     0.214 A 
ATOM     28  C   UNL     1      14.541  33.969  54.182  1.00  0.00     0.180 A 
ATOM     29  C   UNL     1      12.582  33.570  55.503  1.00  0.00     0.239 A 
ATOM     30  O   UNL     1      15.270  33.410  55.145  1.00  0.00    -0.452 OA
ATOM     31  C   UNL     1      13.378  32.945  56.496  1.00  0.00     0.111 A 
ATOM     32  O   UNL     1      11.346  33.750  55.683  1.00  0.00    -0.285 OA
ATOM     33  C   UNL     1      14.749  32.851  56.244  1.00  0.00     0.146 A 
ATOM     34  C   UNL     1      12.840  32.292  57.636  1.00  0.00     0.134 A 
ATOM     35  C   UNL     1      15.573  32.122  57.090  1.00  0.00     0.094 A 
ATOM     36  C   UNL     1      13.682  31.533  58.467  1.00  0.00     0.093 A 
ATOM     37  C   UNL     1      15.034  31.421  58.184  1.00  0.00     0.123 A 
BRANCH  28  38
ATOM     38  C   UNL     1      15.263  34.536  53.001  1.00  0.00     0.025 A 
ATOM     39  C   UNL     1      15.071  35.861  52.593  1.00  0.00     0.062 A 
ATOM     40  C   UNL     1      16.216  33.757  52.316  1.00  0.00     0.016 A 
ATOM     41  C   UNL     1      15.787  36.400  51.518  1.00  0.00     0.158 A 
ATOM     42  C   UNL     1      16.943  34.280  51.239  1.00  0.00     0.051 A 
ATOM     43  C   UNL     1      16.739  35.601  50.849  1.00  0.00     0.157 A 
BRANCH  41  44
ATOM     44  O   UNL     1      15.564  37.726  51.133  1.00  0.00    -0.504 OA
ATOM     45  H   UNL     1      16.015  38.500  51.623  1.00  0.00     0.293 HD
ENDBRANCH  41  44
BRANCH  43  46
ATOM     46  O   UNL     1      17.500  36.135  49.822  1.00  0.00    -0.504 OA
ATOM     47  H   UNL     1      17.515  37.147  49.632  1.00  0.00     0.293 HD
ENDBRANCH  43  46
ENDBRANCH  28  38
BRANCH  34  48
ATOM     48  O   UNL     1      11.470  32.323  57.885  1.00  0.00    -0.507 OA
ATOM     49  H   UNL     1      10.811  32.838  57.317  1.00  0.00     0.293 HD
ENDBRANCH  34  48
BRANCH  37  50
ATOM     50  O   UNL     1      15.826  30.576  58.955  1.00  0.00    -0.508 OA
ATOM     51  H   UNL     1      15.710  29.571  58.875  1.00  0.00     0.293 HD
ENDBRANCH  37  50
ENDBRANCH  26  27
ENDBRANCH   5  26
BRANCH   4  52
ATOM     52  O   UNL     1      11.285  34.320  50.566  1.00  0.00    -0.384 OA
ATOM     53  H   UNL     1      11.309  34.903  51.355  1.00  0.00     0.211 HD
ENDBRANCH   4  52
TORSDOF 16
ENDMDL
MODEL 8
REMARK VINA RESULT:    -5.431      2.090      8.078
REMARK INTER + INTRA:         -11.616
REMARK INTER:                  -8.424
REMARK INTRA:                  -3.192
REMARK UNBOUND:                -2.692
REMARK SMILES C[C@H]1O[C@@H](OC[C@@H]2O[C@H](Oc3c(-c4ccc(O)c(O)c4)oc4cc(O)cc(O)c4c3=O)[C@H](O)[C@H](O)[C@H]2O)[C@@H](O)[C@@H](O)[C@@H]1O
REMARK SMILES IDX 7 1 36 2 34 3 32 4 9 5 8 6 6 7 5 8 4 9 1 10 2 11 42 12 3 13
REMARK SMILES IDX 40 14 38 15 43 16 41 18 39 20 37 22 35 24 10 26 11 27 12 28
REMARK SMILES IDX 30 29 21 30 29 31 31 32 22 33 27 34 23 35 26 36 24 37 13 38
REMARK SMILES IDX 20 39 14 40 18 41 15 42 16 43 19 44 17 46 28 48 25 50 33 52
REMARK H PARENT 43 17 41 19 39 21 37 23 35 25 19 45 17 47 28 49 25 51 33 53
REMARK Flexibility Score: inf
ROOT
ATOM      1  C   UNL     1      17.361  32.532  54.143  1.00  0.00     0.180 C 
ATOM      2  C   UNL     1      17.297  31.080  53.645  1.00  0.00     0.177 C 
ATOM      3  C   UNL     1      16.046  30.828  52.759  1.00  0.00     0.180 C 
ATOM      4  C   UNL     1      15.071  32.021  52.601  1.00  0.00     0.214 C 
ATOM      5  C   UNL     1      15.838  33.391  52.502  1.00  0.00     0.339 C 
ATOM      6  O   UNL     1      17.147  33.432  53.079  1.00  0.00    -0.332 OA
ENDROOT
BRANCH   1   7
ATOM      7  C   UNL     1      16.470  32.894  55.345  1.00  0.00     0.198 C 
BRANCH   7   8
ATOM      8  O   UNL     1      15.796  31.781  55.890  1.00  0.00    -0.347 OA
BRANCH   8   9
ATOM      9  C   UNL     1      15.286  31.991  57.179  1.00  0.00     0.281 C 
ATOM     10  C   UNL     1      16.310  29.005  56.898  1.00  0.00     0.041 C 
ATOM     11  C   UNL     1      15.478  29.720  57.974  1.00  0.00     0.150 C 
ATOM     12  C   UNL     1      13.943  29.491  57.876  1.00  0.00     0.174 C 
ATOM     13  O   UNL     1      15.848  31.088  58.137  1.00  0.00    -0.344 OA
ATOM     14  C   UNL     1      13.224  30.453  56.927  1.00  0.00     0.179 C 
ATOM     15  C   UNL     1      13.746  31.905  57.125  1.00  0.00     0.202 C 
BRANCH  12  16
ATOM     16  O   UNL     1      13.368  29.639  59.146  1.00  0.00    -0.388 OA
ATOM     17  H   UNL     1      12.422  29.907  59.027  1.00  0.00     0.211 HD
ENDBRANCH  12  16
BRANCH  14  18
ATOM     18  O   UNL     1      13.260  29.977  55.601  1.00  0.00    -0.387 OA
ATOM     19  H   UNL     1      13.369  30.755  54.996  1.00  0.00     0.211 HD
ENDBRANCH  14  18
BRANCH  15  20
ATOM     20  O   UNL     1      13.223  32.714  56.096  1.00  0.00    -0.385 OA
ATOM     21  H   UNL     1      13.646  32.430  55.254  1.00  0.00     0.211 HD
ENDBRANCH  15  20
ENDBRANCH   8   9
ENDBRANCH   7   8
ENDBRANCH   1   7
BRANCH   2  22
ATOM     22  O   UNL     1      18.476  30.741  52.918  1.00  0.00    -0.387 OA
ATOM     23  H   UNL     1      18.211  30.595  51.952  1.00  0.00     0.211 HD
ENDBRANCH   2  22
BRANCH   3  24
ATOM     24  O   UNL     1      15.350  29.655  53.126  1.00  0.00    -0.387 OA
ATOM     25  H   UNL     1      14.898  29.830  53.988  1.00  0.00     0.211 HD
ENDBRANCH   3  24
BRANCH   5  26
ATOM     26  O   UNL     1      15.049  34.499  52.963  1.00  0.00    -0.454 OA
BRANCH  26  27
ATOM     27  C   UNL     1      14.601  35.406  51.986  1.00  0.00     0.214 A 
ATOM     28  C   UNL     1      13.391  35.183  51.318  1.00  0.00     0.180 A 
ATOM     29  C   UNL     1      15.476  36.355  51.468  1.00  0.00     0.239 A 
ATOM     30  O   UNL     1      13.243  35.661  50.085  1.00  0.00    -0.452 OA
ATOM     31  C   UNL     1      15.312  36.819  50.139  1.00  0.00     0.111 A 
ATOM     32  O   UNL     1      16.450  36.739  52.173  1.00  0.00    -0.285 OA
ATOM     33  C   UNL     1      14.167  36.399  49.457  1.00  0.00     0.146 A 
ATOM     34  C   UNL     1      16.305  37.548  49.434  1.00  0.00     0.134 A 
ATOM     35  C   UNL     1      14.006  36.682  48.107  1.00  0.00     0.094 A 
ATOM     36  C   UNL     1      16.142  37.802  48.062  1.00  0.00     0.093 A 
ATOM     37  C   UNL     1      15.018  37.348  47.392  1.00  0.00     0.123 A 
BRANCH  28  38
ATOM     38  C   UNL     1      12.280  34.355  51.883  1.00  0.00     0.025 A 
ATOM     39  C   UNL     1      11.897  34.461  53.225  1.00  0.00     0.062 A 
ATOM     40  C   UNL     1      11.543  33.498  51.043  1.00  0.00     0.016 A 
ATOM     41  C   UNL     1      10.826  33.720  53.734  1.00  0.00     0.158 A 
ATOM     42  C   UNL     1      10.465  32.750  51.535  1.00  0.00     0.051 A 
ATOM     43  C   UNL     1      10.099  32.870  52.872  1.00  0.00     0.157 A 
BRANCH  41  44
ATOM     44  O   UNL     1      10.475  33.845  55.082  1.00  0.00    -0.504 OA
ATOM     45  H   UNL     1       9.968  33.103  55.566  1.00  0.00     0.293 HD
ENDBRANCH  41  44
BRANCH  43  46
ATOM     46  O   UNL     1       8.997  32.175  53.344  1.00  0.00    -0.504 OA
ATOM     47  H   UNL     1       8.755  32.164  54.345  1.00  0.00     0.293 HD
ENDBRANCH  43  46
ENDBRANCH  28  38
BRANCH  34  48
ATOM     48  O   UNL     1      17.481  37.935  50.073  1.00  0.00    -0.507 OA
ATOM     49  H   UNL     1      18.399  37.831  49.664  1.00  0.00     0.293 HD
ENDBRANCH  34  48
BRANCH  37  50
ATOM     50  O   UNL     1      14.930  37.513  46.013  1.00  0.00    -0.508 OA
ATOM     51  H   UNL     1      14.146  37.111  45.510  1.00  0.00     0.293 HD
ENDBRANCH  37  50
ENDBRANCH  26  27
ENDBRANCH   5  26
BRANCH   4  52
ATOM     52  O   UNL     1      14.109  31.954  53.636  1.00  0.00    -0.384 OA
ATOM     53  H   UNL     1      13.406  31.315  53.389  1.00  0.00     0.211 HD
ENDBRANCH   4  52
TORSDOF 16
ENDMDL
MODEL 9
REMARK VINA RESULT:    -5.293      2.830      6.946
REMARK INTER + INTRA:         -11.389
REMARK INTER:                  -8.414
REMARK INTRA:                  -2.975
REMARK UNBOUND:                -2.692
REMARK SMILES C[C@H]1O[C@@H](OC[C@@H]2O[C@H](Oc3c(-c4ccc(O)c(O)c4)oc4cc(O)cc(O)c4c3=O)[C@H](O)[C@H](O)[C@H]2O)[C@@H](O)[C@@H](O)[C@@H]1O
REMARK SMILES IDX 7 1 36 2 34 3 32 4 9 5 8 6 6 7 5 8 4 9 1 10 2 11 42 12 3 13
REMARK SMILES IDX 40 14 38 15 43 16 41 18 39 20 37 22 35 24 10 26 11 27 12 28
REMARK SMILES IDX 30 29 21 30 29 31 31 32 22 33 27 34 23 35 26 36 24 37 13 38
REMARK SMILES IDX 20 39 14 40 18 41 15 42 16 43 19 44 17 46 28 48 25 50 33 52
REMARK H PARENT 43 17 41 19 39 21 37 23 35 25 19 45 17 47 28 49 25 51 33 53
REMARK Flexibility Score: inf
ROOT
ATOM      1  C   UNL     1      11.755  36.504  49.687  1.00  0.00     0.180 C 
ATOM      2  C   UNL     1      10.583  36.249  48.728  1.00  0.00     0.177 C 
ATOM      3  C   UNL     1      10.381  34.733  48.454  1.00  0.00     0.180 C 
ATOM      4  C   UNL     1      11.409  33.779  49.110  1.00  0.00     0.214 C 
ATOM      5  C   UNL     1      11.823  34.267  50.546  1.00  0.00     0.339 C 
ATOM      6  O   UNL     1      11.666  35.664  50.815  1.00  0.00    -0.332 OA
ENDROOT
BRANCH   1   7
ATOM      7  C   UNL     1      13.171  36.452  49.084  1.00  0.00     0.198 C 
BRANCH   7   8
ATOM      8  O   UNL     1      13.170  36.291  47.683  1.00  0.00    -0.347 OA
BRANCH   8   9
ATOM      9  C   UNL     1      14.376  36.644  47.061  1.00  0.00     0.281 C 
ATOM     10  C   UNL     1      11.938  37.365  45.170  1.00  0.00     0.041 C 
ATOM     11  C   UNL     1      13.456  37.322  44.935  1.00  0.00     0.150 C 
ATOM     12  C   UNL     1      13.975  36.035  44.232  1.00  0.00     0.174 C 
ATOM     13  O   UNL     1      14.203  37.686  46.095  1.00  0.00    -0.344 OA
ATOM     14  C   UNL     1      14.264  34.872  45.184  1.00  0.00     0.179 C 
ATOM     15  C   UNL     1      15.011  35.377  46.451  1.00  0.00     0.202 C 
BRANCH  12  16
ATOM     16  O   UNL     1      15.163  36.326  43.546  1.00  0.00    -0.388 OA
ATOM     17  H   UNL     1      15.501  35.487  43.144  1.00  0.00     0.211 HD
ENDBRANCH  12  16
BRANCH  14  18
ATOM     18  O   UNL     1      13.098  34.121  45.434  1.00  0.00    -0.387 OA
ATOM     19  H   UNL     1      13.146  33.774  46.361  1.00  0.00     0.211 HD
ENDBRANCH  14  18
BRANCH  15  20
ATOM     20  O   UNL     1      15.065  34.327  47.389  1.00  0.00    -0.385 OA
ATOM     21  H   UNL     1      15.076  33.481  46.884  1.00  0.00     0.211 HD
ENDBRANCH  15  20
ENDBRANCH   8   9
ENDBRANCH   7   8
ENDBRANCH   1   7
BRANCH   2  22
ATOM     22  O   UNL     1       9.377  36.809  49.241  1.00  0.00    -0.387 OA
ATOM     23  H   UNL     1       9.629  37.508  49.929  1.00  0.00     0.211 HD
ENDBRANCH   2  22
BRANCH   3  24
ATOM     24  O   UNL     1      10.234  34.447  47.079  1.00  0.00    -0.387 OA
ATOM     25  H   UNL     1      10.473  35.262  46.573  1.00  0.00     0.211 HD
ENDBRANCH   3  24
BRANCH   5  26
ATOM     26  O   UNL     1      13.138  33.827  50.921  1.00  0.00    -0.454 OA
BRANCH  26  27
ATOM     27  C   UNL     1      13.493  33.974  52.274  1.00  0.00     0.214 A 
ATOM     28  C   UNL     1      14.725  34.541  52.624  1.00  0.00     0.180 A 
ATOM     29  C   UNL     1      12.773  33.302  53.256  1.00  0.00     0.239 A 
ATOM     30  O   UNL     1      15.290  34.183  53.773  1.00  0.00    -0.452 OA
ATOM     31  C   UNL     1      13.413  32.905  54.457  1.00  0.00     0.111 A 
ATOM     32  O   UNL     1      11.570  32.994  53.031  1.00  0.00    -0.285 OA
ATOM     33  C   UNL     1      14.723  33.351  54.655  1.00  0.00     0.146 A 
ATOM     34  C   UNL     1      12.856  31.974  55.372  1.00  0.00     0.134 A 
ATOM     35  C   UNL     1      15.472  32.885  55.727  1.00  0.00     0.094 A 
ATOM     36  C   UNL     1      13.636  31.490  56.436  1.00  0.00     0.093 A 
ATOM     37  C   UNL     1      14.944  31.915  56.599  1.00  0.00     0.123 A 
BRANCH  28  38
ATOM     38  C   UNL     1      15.489  35.464  51.728  1.00  0.00     0.025 A 
ATOM     39  C   UNL     1      16.267  34.980  50.670  1.00  0.00     0.062 A 
ATOM     40  C   UNL     1      15.377  36.858  51.893  1.00  0.00     0.016 A 
ATOM     41  C   UNL     1      16.938  35.851  49.806  1.00  0.00     0.158 A 
ATOM     42  C   UNL     1      16.041  37.746  51.036  1.00  0.00     0.051 A 
ATOM     43  C   UNL     1      16.808  37.245  49.988  1.00  0.00     0.157 A 
BRANCH  41  44
ATOM     44  O   UNL     1      17.713  35.333  48.763  1.00  0.00    -0.504 OA
ATOM     45  H   UNL     1      17.319  35.196  47.831  1.00  0.00     0.293 HD
ENDBRANCH  41  44
BRANCH  43  46
ATOM     46  O   UNL     1      17.417  38.125  49.107  1.00  0.00    -0.504 OA
ATOM     47  H   UNL     1      17.717  39.064  49.404  1.00  0.00     0.293 HD
ENDBRANCH  43  46
ENDBRANCH  28  38
BRANCH  34  48
ATOM     48  O   UNL     1      11.572  31.472  55.171  1.00  0.00    -0.507 OA
ATOM     49  H   UNL     1      10.913  31.869  54.516  1.00  0.00     0.293 HD
ENDBRANCH  34  48
BRANCH  37  50
ATOM     50  O   UNL     1      15.732  31.338  57.591  1.00  0.00    -0.508 OA
ATOM     51  H   UNL     1      15.961  30.351  57.536  1.00  0.00     0.293 HD
ENDBRANCH  37  50
ENDBRANCH  26  27
ENDBRANCH   5  26
BRANCH   4  52
ATOM     52  O   UNL     1      12.488  33.597  48.212  1.00  0.00    -0.384 OA
ATOM     53  H   UNL     1      12.734  32.647  48.183  1.00  0.00     0.211 HD
ENDBRANCH   4  52
TORSDOF 16
ENDMDL
