MODEL 1
REMARK VINA RESULT:    -4.609      0.000      0.000
REMARK INTER + INTRA:          -6.032
REMARK INTER:                  -5.687
REMARK INTRA:                  -0.345
REMARK UNBOUND:                -0.345
REMARK SMILES COc1cc(-c2oc3cc(O)cc(O)c3c(=O)c2O)ccc1O
REMARK SMILES IDX 6 1 18 2 16 3 17 4 15 5 13 6 12 7 10 8 9 9 8 10 7 11 5 12
REMARK SMILES IDX 3 13 22 14 4 15 21 16 20 17 2 18 1 19 23 20 19 22 14 24
REMARK SMILES IDX 11 26
REMARK H PARENT 23 21 19 23 14 25 11 27
REMARK Flexibility Score: inf
ROOT
ATOM      1  C   UNL     1      -2.932  50.334  24.077  1.00  0.00     0.180 A 
ATOM      2  C   UNL     1      -3.037  51.719  23.861  1.00  0.00     0.208 A 
ATOM      3  C   UNL     1      -3.303  52.560  24.954  1.00  0.00     0.238 A 
ATOM      4  O   UNL     1      -3.343  53.803  24.763  1.00  0.00    -0.285 OA
ATOM      5  C   UNL     1      -3.477  52.005  26.244  1.00  0.00     0.111 A 
ATOM      6  C   UNL     1      -3.789  52.758  27.415  1.00  0.00     0.134 A 
ATOM      7  C   UNL     1      -3.810  52.121  28.662  1.00  0.00     0.093 A 
ATOM      8  C   UNL     1      -3.593  50.745  28.771  1.00  0.00     0.123 A 
ATOM      9  C   UNL     1      -3.347  49.991  27.627  1.00  0.00     0.094 A 
ATOM     10  C   UNL     1      -3.283  50.603  26.373  1.00  0.00     0.146 A 
ATOM     11  O   UNL     1      -3.034  49.850  25.309  1.00  0.00    -0.452 OA
ENDROOT
BRANCH   1  12
ATOM     12  C   UNL     1      -2.677  49.381  22.972  1.00  0.00     0.025 A 
ATOM     13  C   UNL     1      -1.095  48.315  21.441  1.00  0.00     0.161 A 
ATOM     14  C   UNL     1      -2.143  47.537  20.915  1.00  0.00     0.157 A 
ATOM     15  C   UNL     1      -1.372  49.230  22.476  1.00  0.00     0.062 A 
ATOM     16  C   UNL     1      -3.438  47.673  21.422  1.00  0.00     0.051 A 
ATOM     17  C   UNL     1      -3.705  48.582  22.447  1.00  0.00     0.016 A 
BRANCH  13  18
ATOM     18  O   UNL     1       0.198  48.152  20.917  1.00  0.00    -0.493 OA
ATOM     19  C   UNL     1       0.754  48.947  19.875  1.00  0.00     0.278 C 
ENDBRANCH  13  18
BRANCH  14  20
ATOM     20  O   UNL     1      -1.914  46.620  19.889  1.00  0.00    -0.504 OA
ATOM     21  H   UNL     1      -2.669  46.213  19.350  1.00  0.00     0.293 HD
ENDBRANCH  14  20
ENDBRANCH   1  12
BRANCH   2  22
ATOM     22  O   UNL     1      -2.840  52.248  22.583  1.00  0.00    -0.502 OA
ATOM     23  H   UNL     1      -3.603  52.414  21.940  1.00  0.00     0.293 HD
ENDBRANCH   2  22
BRANCH   6  24
ATOM     24  O   UNL     1      -4.114  54.118  27.405  1.00  0.00    -0.507 OA
ATOM     25  H   UNL     1      -3.842  54.769  26.683  1.00  0.00     0.293 HD
ENDBRANCH   6  24
BRANCH   8  26
ATOM     26  O   UNL     1      -3.631  50.115  30.013  1.00  0.00    -0.508 OA
ATOM     27  H   UNL     1      -4.005  50.582  30.832  1.00  0.00     0.293 HD
ENDBRANCH   8  26
TORSDOF 6
ENDMDL
MODEL 2
REMARK VINA RESULT:    -4.590      1.957      7.397
REMARK INTER + INTRA:          -6.009
REMARK INTER:                  -5.821
REMARK INTRA:                  -0.187
REMARK UNBOUND:                -0.345
REMARK SMILES COc1cc(-c2oc3cc(O)cc(O)c3c(=O)c2O)ccc1O
REMARK SMILES IDX 6 1 18 2 16 3 17 4 15 5 13 6 12 7 10 8 9 9 8 10 7 11 5 12
REMARK SMILES IDX 3 13 22 14 4 15 21 16 20 17 2 18 1 19 23 20 19 22 14 24
REMARK SMILES IDX 11 26
REMARK H PARENT 23 21 19 23 14 25 11 27
REMARK Flexibility Score: inf
ROOT
ATOM      1  C   UNL     1      -2.426  50.188  25.465  1.00  0.00     0.180 A 
ATOM      2  C   UNL     1      -1.704  49.013  25.195  1.00  0.00     0.208 A 
ATOM      3  C   UNL     1      -1.303  48.749  23.875  1.00  0.00     0.238 A 
ATOM      4  O   UNL     1      -0.611  47.721  23.649  1.00  0.00    -0.285 OA
ATOM      5  C   UNL     1      -1.641  49.653  22.841  1.00  0.00     0.111 A 
ATOM      6  C   UNL     1      -1.321  49.466  21.463  1.00  0.00     0.134 A 
ATOM      7  C   UNL     1      -1.590  50.489  20.546  1.00  0.00     0.093 A 
ATOM      8  C   UNL     1      -2.228  51.666  20.947  1.00  0.00     0.123 A 
ATOM      9  C   UNL     1      -2.599  51.833  22.278  1.00  0.00     0.094 A 
ATOM     10  C   UNL     1      -2.310  50.846  23.224  1.00  0.00     0.146 A 
ATOM     11  O   UNL     1      -2.670  51.050  24.485  1.00  0.00    -0.452 OA
ENDROOT
BRANCH   1  12
ATOM     12  C   UNL     1      -2.904  50.525  26.826  1.00  0.00     0.025 A 
ATOM     13  C   UNL     1      -4.237  49.932  28.790  1.00  0.00     0.161 A 
ATOM     14  C   UNL     1      -3.788  51.099  29.435  1.00  0.00     0.157 A 
ATOM     15  C   UNL     1      -3.783  49.650  27.486  1.00  0.00     0.062 A 
ATOM     16  C   UNL     1      -2.898  51.959  28.786  1.00  0.00     0.051 A 
ATOM     17  C   UNL     1      -2.452  51.674  27.494  1.00  0.00     0.016 A 
BRANCH  13  18
ATOM     18  O   UNL     1      -5.125  49.082  29.469  1.00  0.00    -0.493 OA
ATOM     19  C   UNL     1      -4.733  47.933  30.214  1.00  0.00     0.278 C 
ENDBRANCH  13  18
BRANCH  14  20
ATOM     20  O   UNL     1      -4.213  51.418  30.725  1.00  0.00    -0.504 OA
ATOM     21  H   UNL     1      -3.646  51.967  31.360  1.00  0.00     0.293 HD
ENDBRANCH  14  20
ENDBRANCH   1  12
BRANCH   2  22
ATOM     22  O   UNL     1      -1.362  48.144  26.235  1.00  0.00    -0.502 OA
ATOM     23  H   UNL     1      -0.522  47.578  26.216  1.00  0.00     0.293 HD
ENDBRANCH   2  22
BRANCH   6  24
ATOM     24  O   UNL     1      -0.768  48.292  20.943  1.00  0.00    -0.507 OA
ATOM     25  H   UNL     1      -0.096  47.711  21.422  1.00  0.00     0.293 HD
ENDBRANCH   6  24
BRANCH   8  26
ATOM     26  O   UNL     1      -2.508  52.672  20.025  1.00  0.00    -0.508 OA
ATOM     27  H   UNL     1      -1.793  53.037  19.406  1.00  0.00     0.293 HD
ENDBRANCH   8  26
TORSDOF 6
ENDMDL
MODEL 3
REMARK VINA RESULT:    -4.470      1.640      7.009
REMARK INTER + INTRA:          -5.861
REMARK INTER:                  -5.891
REMARK INTRA:                   0.031
REMARK UNBOUND:                -0.345
REMARK SMILES COc1cc(-c2oc3cc(O)cc(O)c3c(=O)c2O)ccc1O
REMARK SMILES IDX 6 1 18 2 16 3 17 4 15 5 13 6 12 7 10 8 9 9 8 10 7 11 5 12
REMARK SMILES IDX 3 13 22 14 4 15 21 16 20 17 2 18 1 19 23 20 19 22 14 24
REMARK SMILES IDX 11 26
REMARK H PARENT 23 21 19 23 14 25 11 27
REMARK Flexibility Score: inf
ROOT
ATOM      1  C   UNL     1      -2.330  50.491  24.750  1.00  0.00     0.180 A 
ATOM      2  C   UNL     1      -2.137  51.455  23.745  1.00  0.00     0.208 A 
ATOM      3  C   UNL     1      -1.750  51.033  22.463  1.00  0.00     0.238 A 
ATOM      4  O   UNL     1      -1.630  51.896  21.554  1.00  0.00    -0.285 OA
ATOM      5  C   UNL     1      -1.545  49.656  22.206  1.00  0.00     0.111 A 
ATOM      6  C   UNL     1      -1.114  49.121  20.955  1.00  0.00     0.134 A 
ATOM      7  C   UNL     1      -1.071  47.732  20.776  1.00  0.00     0.093 A 
ATOM      8  C   UNL     1      -1.381  46.861  21.823  1.00  0.00     0.123 A 
ATOM      9  C   UNL     1      -1.745  47.375  23.065  1.00  0.00     0.094 A 
ATOM     10  C   UNL     1      -1.833  48.755  23.264  1.00  0.00     0.146 A 
ATOM     11  O   UNL     1      -2.195  49.202  24.460  1.00  0.00    -0.452 OA
ENDROOT
BRANCH   1  12
ATOM     12  C   UNL     1      -2.715  50.859  26.132  1.00  0.00     0.025 A 
ATOM     13  C   UNL     1      -3.992  50.366  28.159  1.00  0.00     0.161 A 
ATOM     14  C   UNL     1      -3.425  51.493  28.780  1.00  0.00     0.157 A 
ATOM     15  C   UNL     1      -3.625  50.053  26.835  1.00  0.00     0.062 A 
ATOM     16  C   UNL     1      -2.504  52.284  28.088  1.00  0.00     0.051 A 
ATOM     17  C   UNL     1      -2.145  51.969  26.776  1.00  0.00     0.016 A 
BRANCH  13  18
ATOM     18  O   UNL     1      -4.908  49.584  28.881  1.00  0.00    -0.493 OA
ATOM     19  C   UNL     1      -4.570  48.408  29.608  1.00  0.00     0.278 C 
ENDBRANCH  13  18
BRANCH  14  20
ATOM     20  O   UNL     1      -3.761  51.841  30.088  1.00  0.00    -0.504 OA
ATOM     21  H   UNL     1      -3.079  52.202  30.744  1.00  0.00     0.293 HD
ENDBRANCH  14  20
ENDBRANCH   1  12
BRANCH   2  22
ATOM     22  O   UNL     1      -2.365  52.807  24.015  1.00  0.00    -0.502 OA
ATOM     23  H   UNL     1      -3.297  53.197  24.084  1.00  0.00     0.293 HD
ENDBRANCH   2  22
BRANCH   6  24
ATOM     24  O   UNL     1      -0.692  49.902  19.875  1.00  0.00    -0.507 OA
ATOM     25  H   UNL     1      -1.293  50.502  19.330  1.00  0.00     0.293 HD
ENDBRANCH   6  24
BRANCH   8  26
ATOM     26  O   UNL     1      -1.320  45.482  21.642  1.00  0.00    -0.508 OA
ATOM     27  H   UNL     1      -0.719  44.898  22.213  1.00  0.00     0.293 HD
ENDBRANCH   8  26
TORSDOF 6
ENDMDL
MODEL 4
REMARK VINA RESULT:    -4.308      0.861      2.043
REMARK INTER + INTRA:          -5.661
REMARK INTER:                  -5.278
REMARK INTRA:                  -0.383
REMARK UNBOUND:                -0.345
REMARK SMILES COc1cc(-c2oc3cc(O)cc(O)c3c(=O)c2O)ccc1O
REMARK SMILES IDX 6 1 18 2 16 3 17 4 15 5 13 6 12 7 10 8 9 9 8 10 7 11 5 12
REMARK SMILES IDX 3 13 22 14 4 15 21 16 20 17 2 18 1 19 23 20 19 22 14 24
REMARK SMILES IDX 11 26
REMARK H PARENT 23 21 19 23 14 25 11 27
REMARK Flexibility Score: inf
ROOT
ATOM      1  C   UNL     1      -3.038  50.320  24.390  1.00  0.00     0.180 A 
ATOM      2  C   UNL     1      -3.213  51.693  24.143  1.00  0.00     0.208 A 
ATOM      3  C   UNL     1      -3.539  52.541  25.214  1.00  0.00     0.238 A 
ATOM      4  O   UNL     1      -3.643  53.777  24.996  1.00  0.00    -0.285 OA
ATOM      5  C   UNL     1      -3.702  52.005  26.514  1.00  0.00     0.111 A 
ATOM      6  C   UNL     1      -4.070  52.765  27.664  1.00  0.00     0.134 A 
ATOM      7  C   UNL     1      -4.075  52.154  28.924  1.00  0.00     0.093 A 
ATOM      8  C   UNL     1      -3.786  50.794  29.065  1.00  0.00     0.123 A 
ATOM      9  C   UNL     1      -3.484  50.030  27.941  1.00  0.00     0.094 A 
ATOM     10  C   UNL     1      -3.435  50.619  26.676  1.00  0.00     0.146 A 
ATOM     11  O   UNL     1      -3.132  49.858  25.632  1.00  0.00    -0.452 OA
ENDROOT
BRANCH   1  12
ATOM     12  C   UNL     1      -2.717  49.360  23.310  1.00  0.00     0.025 A 
ATOM     13  C   UNL     1      -3.481  47.745  21.639  1.00  0.00     0.161 A 
ATOM     14  C   UNL     1      -2.153  47.570  21.213  1.00  0.00     0.157 A 
ATOM     15  C   UNL     1      -3.754  48.649  22.686  1.00  0.00     0.062 A 
ATOM     16  C   UNL     1      -1.122  48.293  21.820  1.00  0.00     0.051 A 
ATOM     17  C   UNL     1      -1.399  49.186  22.857  1.00  0.00     0.016 A 
BRANCH  13  18
ATOM     18  O   UNL     1      -4.498  47.012  21.006  1.00  0.00    -0.493 OA
ATOM     19  C   UNL     1      -5.094  45.832  21.535  1.00  0.00     0.278 C 
ENDBRANCH  13  18
BRANCH  14  20
ATOM     20  O   UNL     1      -1.837  46.685  20.182  1.00  0.00    -0.504 OA
ATOM     21  H   UNL     1      -0.979  46.146  20.176  1.00  0.00     0.293 HD
ENDBRANCH  14  20
ENDBRANCH   1  12
BRANCH   2  22
ATOM     22  O   UNL     1      -3.026  52.205  22.856  1.00  0.00    -0.502 OA
ATOM     23  H   UNL     1      -3.598  51.921  22.070  1.00  0.00     0.293 HD
ENDBRANCH   2  22
BRANCH   6  24
ATOM     24  O   UNL     1      -4.467  54.105  27.619  1.00  0.00    -0.507 OA
ATOM     25  H   UNL     1      -5.395  54.438  27.834  1.00  0.00     0.293 HD
ENDBRANCH   6  24
BRANCH   8  26
ATOM     26  O   UNL     1      -3.808  50.190  30.320  1.00  0.00    -0.508 OA
ATOM     27  H   UNL     1      -3.463  49.247  30.460  1.00  0.00     0.293 HD
ENDBRANCH   8  26
TORSDOF 6
ENDMDL
MODEL 5
REMARK VINA RESULT:    -4.263      2.812      4.052
REMARK INTER + INTRA:          -5.605
REMARK INTER:                  -5.368
REMARK INTRA:                  -0.237
REMARK UNBOUND:                -0.345
REMARK SMILES COc1cc(-c2oc3cc(O)cc(O)c3c(=O)c2O)ccc1O
REMARK SMILES IDX 6 1 18 2 16 3 17 4 15 5 13 6 12 7 10 8 9 9 8 10 7 11 5 12
REMARK SMILES IDX 3 13 22 14 4 15 21 16 20 17 2 18 1 19 23 20 19 22 14 24
REMARK SMILES IDX 11 26
REMARK H PARENT 23 21 19 23 14 25 11 27
REMARK Flexibility Score: inf
ROOT
ATOM      1  C   UNL     1      -2.850  48.077  24.430  1.00  0.00     0.180 A 
ATOM      2  C   UNL     1      -1.589  48.123  25.049  1.00  0.00     0.208 A 
ATOM      3  C   UNL     1      -1.118  49.351  25.543  1.00  0.00     0.238 A 
ATOM      4  O   UNL     1      -0.012  49.376  26.143  1.00  0.00    -0.285 OA
ATOM      5  C   UNL     1      -1.905  50.518  25.396  1.00  0.00     0.111 A 
ATOM      6  C   UNL     1      -1.509  51.821  25.822  1.00  0.00     0.134 A 
ATOM      7  C   UNL     1      -2.421  52.881  25.745  1.00  0.00     0.093 A 
ATOM      8  C   UNL     1      -3.693  52.697  25.196  1.00  0.00     0.123 A 
ATOM      9  C   UNL     1      -4.067  51.442  24.722  1.00  0.00     0.094 A 
ATOM     10  C   UNL     1      -3.193  50.358  24.819  1.00  0.00     0.146 A 
ATOM     11  O   UNL     1      -3.593  49.176  24.366  1.00  0.00    -0.452 OA
ENDROOT
BRANCH   1  12
ATOM     12  C   UNL     1      -3.405  46.826  23.864  1.00  0.00     0.025 A 
ATOM     13  C   UNL     1      -3.261  45.018  22.222  1.00  0.00     0.161 A 
ATOM     14  C   UNL     1      -4.394  44.417  22.799  1.00  0.00     0.157 A 
ATOM     15  C   UNL     1      -2.769  46.221  22.767  1.00  0.00     0.062 A 
ATOM     16  C   UNL     1      -5.015  45.007  23.902  1.00  0.00     0.051 A 
ATOM     17  C   UNL     1      -4.523  46.199  24.437  1.00  0.00     0.016 A 
BRANCH  13  18
ATOM     18  O   UNL     1      -2.653  44.398  21.118  1.00  0.00    -0.493 OA
ATOM     19  C   UNL     1      -1.252  44.395  20.864  1.00  0.00     0.278 C 
ENDBRANCH  13  18
BRANCH  14  20
ATOM     20  O   UNL     1      -4.916  43.227  22.290  1.00  0.00    -0.504 OA
ATOM     21  H   UNL     1      -4.380  42.617  21.685  1.00  0.00     0.293 HD
ENDBRANCH  14  20
ENDBRANCH   1  12
BRANCH   2  22
ATOM     22  O   UNL     1      -0.839  46.955  25.203  1.00  0.00    -0.502 OA
ATOM     23  H   UNL     1      -1.094  46.083  24.757  1.00  0.00     0.293 HD
ENDBRANCH   2  22
BRANCH   6  24
ATOM     24  O   UNL     1      -0.231  52.132  26.298  1.00  0.00    -0.507 OA
ATOM     25  H   UNL     1       0.297  52.950  26.035  1.00  0.00     0.293 HD
ENDBRANCH   6  24
BRANCH   8  26
ATOM     26  O   UNL     1      -4.589  53.760  25.108  1.00  0.00    -0.508 OA
ATOM     27  H   UNL     1      -5.027  54.153  25.933  1.00  0.00     0.293 HD
ENDBRANCH   8  26
TORSDOF 6
ENDMDL
MODEL 6
REMARK VINA RESULT:    -4.247      2.244      4.231
REMARK INTER + INTRA:          -5.585
REMARK INTER:                  -5.654
REMARK INTRA:                   0.068
REMARK UNBOUND:                -0.345
REMARK SMILES COc1cc(-c2oc3cc(O)cc(O)c3c(=O)c2O)ccc1O
REMARK SMILES IDX 6 1 18 2 16 3 17 4 15 5 13 6 12 7 10 8 9 9 8 10 7 11 5 12
REMARK SMILES IDX 3 13 22 14 4 15 21 16 20 17 2 18 1 19 23 20 19 22 14 24
REMARK SMILES IDX 11 26
REMARK H PARENT 23 21 19 23 14 25 11 27
REMARK Flexibility Score: inf
ROOT
ATOM      1  C   UNL     1      -3.280  50.370  26.342  1.00  0.00     0.180 A 
ATOM      2  C   UNL     1      -3.411  51.261  27.421  1.00  0.00     0.208 A 
ATOM      3  C   UNL     1      -3.835  50.766  28.666  1.00  0.00     0.238 A 
ATOM      4  O   UNL     1      -3.899  51.560  29.641  1.00  0.00    -0.285 OA
ATOM      5  C   UNL     1      -4.140  49.392  28.810  1.00  0.00     0.111 A 
ATOM      6  C   UNL     1      -4.616  48.790  30.013  1.00  0.00     0.134 A 
ATOM      7  C   UNL     1      -4.760  47.398  30.080  1.00  0.00     0.093 A 
ATOM      8  C   UNL     1      -4.507  46.595  28.965  1.00  0.00     0.123 A 
ATOM      9  C   UNL     1      -4.098  47.179  27.769  1.00  0.00     0.094 A 
ATOM     10  C   UNL     1      -3.910  48.560  27.682  1.00  0.00     0.146 A 
ATOM     11  O   UNL     1      -3.509  49.076  26.527  1.00  0.00    -0.452 OA
ENDROOT
BRANCH   1  12
ATOM     12  C   UNL     1      -2.861  50.820  24.995  1.00  0.00     0.025 A 
ATOM     13  C   UNL     1      -3.184  50.776  22.571  1.00  0.00     0.161 A 
ATOM     14  C   UNL     1      -2.132  51.698  22.423  1.00  0.00     0.157 A 
ATOM     15  C   UNL     1      -3.546  50.347  23.864  1.00  0.00     0.062 A 
ATOM     16  C   UNL     1      -1.464  52.184  23.550  1.00  0.00     0.051 A 
ATOM     17  C   UNL     1      -1.827  51.755  24.828  1.00  0.00     0.016 A 
BRANCH  13  18
ATOM     18  O   UNL     1      -3.843  50.310  21.421  1.00  0.00    -0.493 OA
ATOM     19  C   UNL     1      -3.471  49.145  20.692  1.00  0.00     0.278 C 
ENDBRANCH  13  18
BRANCH  14  20
ATOM     20  O   UNL     1      -1.740  52.147  21.162  1.00  0.00    -0.504 OA
ATOM     21  H   UNL     1      -2.028  51.683  20.309  1.00  0.00     0.293 HD
ENDBRANCH  14  20
ENDBRANCH   1  12
BRANCH   2  22
ATOM     22  O   UNL     1      -3.083  52.611  27.262  1.00  0.00    -0.502 OA
ATOM     23  H   UNL     1      -2.845  53.009  26.363  1.00  0.00     0.293 HD
ENDBRANCH   2  22
BRANCH   6  24
ATOM     24  O   UNL     1      -4.988  49.510  31.153  1.00  0.00    -0.507 OA
ATOM     25  H   UNL     1      -5.934  49.609  31.487  1.00  0.00     0.293 HD
ENDBRANCH   6  24
BRANCH   8  26
ATOM     26  O   UNL     1      -4.667  45.213  29.035  1.00  0.00    -0.508 OA
ATOM     27  H   UNL     1      -5.535  44.766  28.760  1.00  0.00     0.293 HD
ENDBRANCH   8  26
TORSDOF 6
ENDMDL
MODEL 7
REMARK VINA RESULT:    -4.172      2.122      3.201
REMARK INTER + INTRA:          -5.492
REMARK INTER:                  -5.122
REMARK INTRA:                  -0.370
REMARK UNBOUND:                -0.345
REMARK SMILES COc1cc(-c2oc3cc(O)cc(O)c3c(=O)c2O)ccc1O
REMARK SMILES IDX 6 1 18 2 16 3 17 4 15 5 13 6 12 7 10 8 9 9 8 10 7 11 5 12
REMARK SMILES IDX 3 13 22 14 4 15 21 16 20 17 2 18 1 19 23 20 19 22 14 24
REMARK SMILES IDX 11 26
REMARK H PARENT 23 21 19 23 14 25 11 27
REMARK Flexibility Score: inf
ROOT
ATOM      1  C   UNL     1      -2.375  48.375  22.545  1.00  0.00     0.180 A 
ATOM      2  C   UNL     1      -1.957  49.493  21.802  1.00  0.00     0.208 A 
ATOM      3  C   UNL     1      -1.761  50.716  22.466  1.00  0.00     0.238 A 
ATOM      4  O   UNL     1      -1.335  51.699  21.805  1.00  0.00    -0.285 OA
ATOM      5  C   UNL     1      -2.002  50.809  23.857  1.00  0.00     0.111 A 
ATOM      6  C   UNL     1      -1.874  52.007  24.623  1.00  0.00     0.134 A 
ATOM      7  C   UNL     1      -2.011  51.954  26.016  1.00  0.00     0.093 A 
ATOM      8  C   UNL     1      -2.335  50.759  26.663  1.00  0.00     0.123 A 
ATOM      9  C   UNL     1      -2.520  49.597  25.917  1.00  0.00     0.094 A 
ATOM     10  C   UNL     1      -2.354  49.610  24.531  1.00  0.00     0.146 A 
ATOM     11  O   UNL     1      -2.529  48.478  23.859  1.00  0.00    -0.452 OA
ENDROOT
BRANCH   1  12
ATOM     12  C   UNL     1      -2.626  47.059  21.913  1.00  0.00     0.025 A 
ATOM     13  C   UNL     1      -1.756  44.932  21.076  1.00  0.00     0.161 A 
ATOM     14  C   UNL     1      -3.068  44.526  20.770  1.00  0.00     0.157 A 
ATOM     15  C   UNL     1      -1.546  46.199  21.654  1.00  0.00     0.062 A 
ATOM     16  C   UNL     1      -4.145  45.373  21.046  1.00  0.00     0.051 A 
ATOM     17  C   UNL     1      -3.929  46.628  21.619  1.00  0.00     0.016 A 
BRANCH  13  18
ATOM     18  O   UNL     1      -0.694  44.057  20.795  1.00  0.00    -0.493 OA
ATOM     19  C   UNL     1       0.357  44.331  19.875  1.00  0.00     0.278 C 
ENDBRANCH  13  18
BRANCH  14  20
ATOM     20  O   UNL     1      -3.322  43.281  20.195  1.00  0.00    -0.504 OA
ATOM     21  H   UNL     1      -4.147  43.102  19.636  1.00  0.00     0.293 HD
ENDBRANCH  14  20
ENDBRANCH   1  12
BRANCH   2  22
ATOM     22  O   UNL     1      -1.704  49.374  20.433  1.00  0.00    -0.502 OA
ATOM     23  H   UNL     1      -1.940  50.102  19.771  1.00  0.00     0.293 HD
ENDBRANCH   2  22
BRANCH   6  24
ATOM     24  O   UNL     1      -1.645  53.269  24.066  1.00  0.00    -0.507 OA
ATOM     25  H   UNL     1      -2.363  53.951  23.874  1.00  0.00     0.293 HD
ENDBRANCH   6  24
BRANCH   8  26
ATOM     26  O   UNL     1      -2.485  50.718  28.047  1.00  0.00    -0.508 OA
ATOM     27  H   UNL     1      -3.242  51.205  28.512  1.00  0.00     0.293 HD
ENDBRANCH   8  26
TORSDOF 6
ENDMDL
MODEL 8
REMARK VINA RESULT:    -4.111      2.375      6.930
REMARK INTER + INTRA:          -5.418
REMARK INTER:                  -5.512
REMARK INTRA:                   0.094
REMARK UNBOUND:                -0.345
REMARK SMILES COc1cc(-c2oc3cc(O)cc(O)c3c(=O)c2O)ccc1O
REMARK SMILES IDX 6 1 18 2 16 3 17 4 15 5 13 6 12 7 10 8 9 9 8 10 7 11 5 12
REMARK SMILES IDX 3 13 22 14 4 15 21 16 20 17 2 18 1 19 23 20 19 22 14 24
REMARK SMILES IDX 11 26
REMARK H PARENT 23 21 19 23 14 25 11 27
REMARK Flexibility Score: inf
ROOT
ATOM      1  C   UNL     1      -3.379  50.999  26.346  1.00  0.00     0.180 A 
ATOM      2  C   UNL     1      -2.376  51.922  26.001  1.00  0.00     0.208 A 
ATOM      3  C   UNL     1      -2.059  52.107  24.645  1.00  0.00     0.238 A 
ATOM      4  O   UNL     1      -1.198  52.973  24.339  1.00  0.00    -0.285 OA
ATOM      5  C   UNL     1      -2.735  51.355  23.654  1.00  0.00     0.111 A 
ATOM      6  C   UNL     1      -2.467  51.432  22.255  1.00  0.00     0.134 A 
ATOM      7  C   UNL     1      -3.287  50.740  21.355  1.00  0.00     0.093 A 
ATOM      8  C   UNL     1      -4.324  49.922  21.809  1.00  0.00     0.123 A 
ATOM      9  C   UNL     1      -4.556  49.793  23.176  1.00  0.00     0.094 A 
ATOM     10  C   UNL     1      -3.779  50.500  24.097  1.00  0.00     0.146 A 
ATOM     11  O   UNL     1      -4.041  50.358  25.390  1.00  0.00    -0.452 OA
ENDROOT
BRANCH   1  12
ATOM     12  C   UNL     1      -3.753  50.732  27.754  1.00  0.00     0.025 A 
ATOM     13  C   UNL     1      -4.311  49.123  29.510  1.00  0.00     0.161 A 
ATOM     14  C   UNL     1      -4.406  50.179  30.435  1.00  0.00     0.157 A 
ATOM     15  C   UNL     1      -3.977  49.410  28.171  1.00  0.00     0.062 A 
ATOM     16  C   UNL     1      -4.163  51.492  30.024  1.00  0.00     0.051 A 
ATOM     17  C   UNL     1      -3.832  51.769  28.697  1.00  0.00     0.016 A 
BRANCH  13  18
ATOM     18  O   UNL     1      -4.552  47.812  29.952  1.00  0.00    -0.493 OA
ATOM     19  C   UNL     1      -3.940  46.649  29.404  1.00  0.00     0.278 C 
ENDBRANCH  13  18
BRANCH  14  20
ATOM     20  O   UNL     1      -4.736  49.941  31.769  1.00  0.00    -0.504 OA
ATOM     21  H   UNL     1      -5.610  49.506  32.040  1.00  0.00     0.293 HD
ENDBRANCH  14  20
ENDBRANCH   1  12
BRANCH   2  22
ATOM     22  O   UNL     1      -1.737  52.669  26.993  1.00  0.00    -0.502 OA
ATOM     23  H   UNL     1      -1.419  53.618  26.839  1.00  0.00     0.293 HD
ENDBRANCH   2  22
BRANCH   6  24
ATOM     24  O   UNL     1      -1.398  52.146  21.703  1.00  0.00    -0.507 OA
ATOM     25  H   UNL     1      -0.425  51.906  21.821  1.00  0.00     0.293 HD
ENDBRANCH   6  24
BRANCH   8  26
ATOM     26  O   UNL     1      -5.125  49.223  20.908  1.00  0.00    -0.508 OA
ATOM     27  H   UNL     1      -4.859  49.116  19.936  1.00  0.00     0.293 HD
ENDBRANCH   8  26
TORSDOF 6
ENDMDL
MODEL 9
REMARK VINA RESULT:    -4.092      2.209      4.413
REMARK INTER + INTRA:          -5.394
REMARK INTER:                  -5.721
REMARK INTRA:                   0.327
REMARK UNBOUND:                -0.345
REMARK SMILES COc1cc(-c2oc3cc(O)cc(O)c3c(=O)c2O)ccc1O
REMARK SMILES IDX 6 1 18 2 16 3 17 4 15 5 13 6 12 7 10 8 9 9 8 10 7 11 5 12
REMARK SMILES IDX 3 13 22 14 4 15 21 16 20 17 2 18 1 19 23 20 19 22 14 24
REMARK SMILES IDX 11 26
REMARK H PARENT 23 21 19 23 14 25 11 27
REMARK Flexibility Score: inf
ROOT
ATOM      1  C   UNL     1      -3.428  49.707  26.520  1.00  0.00     0.180 A 
ATOM      2  C   UNL     1      -3.881  48.376  26.506  1.00  0.00     0.208 A 
ATOM      3  C   UNL     1      -4.365  47.810  27.697  1.00  0.00     0.238 A 
ATOM      4  O   UNL     1      -4.818  46.636  27.667  1.00  0.00    -0.285 OA
ATOM      5  C   UNL     1      -4.374  48.574  28.888  1.00  0.00     0.111 A 
ATOM      6  C   UNL     1      -4.804  48.089  30.159  1.00  0.00     0.134 A 
ATOM      7  C   UNL     1      -4.894  48.972  31.243  1.00  0.00     0.093 A 
ATOM      8  C   UNL     1      -4.506  50.308  31.115  1.00  0.00     0.123 A 
ATOM      9  C   UNL     1      -4.028  50.777  29.894  1.00  0.00     0.094 A 
ATOM     10  C   UNL     1      -3.962  49.929  28.786  1.00  0.00     0.146 A 
ATOM     11  O   UNL     1      -3.511  50.419  27.637  1.00  0.00    -0.452 OA
ENDROOT
BRANCH   1  12
ATOM     12  C   UNL     1      -2.882  50.366  25.311  1.00  0.00     0.025 A 
ATOM     13  C   UNL     1      -1.838  50.178  23.106  1.00  0.00     0.161 A 
ATOM     14  C   UNL     1      -1.891  51.577  22.973  1.00  0.00     0.157 A 
ATOM     15  C   UNL     1      -2.344  49.580  24.278  1.00  0.00     0.062 A 
ATOM     16  C   UNL     1      -2.445  52.358  23.991  1.00  0.00     0.051 A 
ATOM     17  C   UNL     1      -2.944  51.759  25.150  1.00  0.00     0.016 A 
BRANCH  13  18
ATOM     18  O   UNL     1      -1.283  49.419  22.064  1.00  0.00    -0.493 OA
ATOM     19  C   UNL     1      -0.990  48.028  22.145  1.00  0.00     0.278 C 
ENDBRANCH  13  18
BRANCH  14  20
ATOM     20  O   UNL     1      -1.400  52.211  21.831  1.00  0.00    -0.504 OA
ATOM     21  H   UNL     1      -1.542  53.199  21.658  1.00  0.00     0.293 HD
ENDBRANCH  14  20
ENDBRANCH   1  12
BRANCH   2  22
ATOM     22  O   UNL     1      -3.884  47.646  25.315  1.00  0.00    -0.502 OA
ATOM     23  H   UNL     1      -3.066  47.155  24.976  1.00  0.00     0.293 HD
ENDBRANCH   2  22
BRANCH   6  24
ATOM     24  O   UNL     1      -5.125  46.752  30.417  1.00  0.00    -0.507 OA
ATOM     25  H   UNL     1      -5.538  46.121  29.747  1.00  0.00     0.293 HD
ENDBRANCH   6  24
BRANCH   8  26
ATOM     26  O   UNL     1      -4.582  51.177  32.201  1.00  0.00    -0.508 OA
ATOM     27  H   UNL     1      -3.921  51.936  32.320  1.00  0.00     0.293 HD
ENDBRANCH   8  26
TORSDOF 6
ENDMDL
