MODEL 1
REMARK VINA RESULT:    -5.333      0.000      0.000
REMARK INTER + INTRA:          -8.194
REMARK INTER:                  -7.203
REMARK INTRA:                  -0.991
REMARK UNBOUND:                -0.991
REMARK SMILES CC(=O)CCC=C(C)CCC=C(C)C
REMARK SMILES IDX 7 1 6 2 8 3 9 4 10 5 11 6 13 7 12 8 14 9 5 10 4 11 2 12 3 13
REMARK SMILES IDX 1 14
REMARK H PARENT
REMARK Flexibility Score: inf
ROOT
ATOM      1  C   UNL     1     -12.211 -16.982  27.955  1.00  0.00    -0.077 C 
ATOM      2  C   UNL     1     -12.145 -15.826  28.655  1.00  0.00    -0.028 C 
ATOM      3  C   UNL     1     -11.159 -17.248  26.909  1.00  0.00     0.039 C 
ENDROOT
BRANCH   1   4
ATOM      4  C   UNL     1     -13.251 -18.053  28.225  1.00  0.00     0.034 C 
BRANCH   4   5
ATOM      5  C   UNL     1     -12.594 -19.435  28.296  1.00  0.00     0.032 C 
BRANCH   5   6
ATOM      6  C   UNL     1     -12.743 -20.028  29.674  1.00  0.00    -0.028 C 
ATOM      7  C   UNL     1     -12.054 -20.582  31.987  1.00  0.00     0.039 C 
ATOM      8  C   UNL     1     -11.814 -19.925  30.652  1.00  0.00    -0.080 C 
ATOM      9  C   UNL     1     -10.544 -19.131  30.472  1.00  0.00     0.039 C 
ENDBRANCH   5   6
ENDBRANCH   4   5
ENDBRANCH   1   4
BRANCH   2  10
ATOM     10  C   UNL     1     -13.121 -15.410  29.725  1.00  0.00     0.035 C 
BRANCH  10  11
ATOM     11  C   UNL     1     -12.867 -16.184  31.024  1.00  0.00     0.079 C 
BRANCH  11  12
ATOM     12  C   UNL     1     -13.948 -15.899  32.033  1.00  0.00     0.130 C 
ATOM     13  O   UNL     1     -14.206 -16.731  32.889  1.00  0.00    -0.300 OA
ATOM     14  C   UNL     1     -14.727 -14.616  32.004  1.00  0.00     0.087 C 
ENDBRANCH  11  12
ENDBRANCH  10  11
ENDBRANCH   2  10
TORSDOF 6
ENDMDL
MODEL 2
REMARK VINA RESULT:    -5.313      1.771      4.818
REMARK INTER + INTRA:          -8.168
REMARK INTER:                  -7.765
REMARK INTRA:                  -0.403
REMARK UNBOUND:                -0.991
REMARK SMILES CC(=O)CCC=C(C)CCC=C(C)C
REMARK SMILES IDX 7 1 6 2 8 3 9 4 10 5 11 6 13 7 12 8 14 9 5 10 4 11 2 12 3 13
REMARK SMILES IDX 1 14
REMARK H PARENT
REMARK Flexibility Score: inf
ROOT
ATOM      1  C   UNL     1     -11.446 -17.160  27.390  1.00  0.00    -0.077 C 
ATOM      2  C   UNL     1     -10.622 -17.709  28.310  1.00  0.00    -0.028 C 
ATOM      3  C   UNL     1     -11.019 -17.177  25.945  1.00  0.00     0.039 C 
ENDROOT
BRANCH   1   4
ATOM      4  C   UNL     1     -12.810 -16.593  27.735  1.00  0.00     0.034 C 
BRANCH   4   5
ATOM      5  C   UNL     1     -12.670 -15.387  28.672  1.00  0.00     0.032 C 
BRANCH   5   6
ATOM      6  C   UNL     1     -13.756 -14.375  28.405  1.00  0.00    -0.028 C 
ATOM      7  C   UNL     1     -15.699 -12.942  28.950  1.00  0.00     0.039 C 
ATOM      8  C   UNL     1     -14.633 -13.936  29.335  1.00  0.00    -0.080 C 
ATOM      9  C   UNL     1     -14.562 -14.375  30.776  1.00  0.00     0.039 C 
ENDBRANCH   5   6
ENDBRANCH   4   5
ENDBRANCH   1   4
BRANCH   2  10
ATOM     10  C   UNL     1     -10.899 -17.766  29.791  1.00  0.00     0.035 C 
BRANCH  10  11
ATOM     11  C   UNL     1     -10.966 -19.218  30.278  1.00  0.00     0.079 C 
BRANCH  11  12
ATOM     12  C   UNL     1     -12.392 -19.700  30.318  1.00  0.00     0.130 C 
ATOM     13  O   UNL     1     -12.975 -19.762  31.389  1.00  0.00    -0.300 OA
ATOM     14  C   UNL     1     -13.111 -20.119  29.069  1.00  0.00     0.087 C 
ENDBRANCH  11  12
ENDBRANCH  10  11
ENDBRANCH   2  10
TORSDOF 6
ENDMDL
MODEL 3
REMARK VINA RESULT:    -5.258      1.249      1.891
REMARK INTER + INTRA:          -8.093
REMARK INTER:                  -6.799
REMARK INTRA:                  -1.294
REMARK UNBOUND:                -0.991
REMARK SMILES CC(=O)CCC=C(C)CCC=C(C)C
REMARK SMILES IDX 7 1 6 2 8 3 9 4 10 5 11 6 13 7 12 8 14 9 5 10 4 11 2 12 3 13
REMARK SMILES IDX 1 14
REMARK H PARENT
REMARK Flexibility Score: inf
ROOT
ATOM      1  C   UNL     1     -12.509 -16.145  28.203  1.00  0.00    -0.077 C 
ATOM      2  C   UNL     1     -13.202 -15.737  29.291  1.00  0.00    -0.028 C 
ATOM      3  C   UNL     1     -13.202 -16.133  26.865  1.00  0.00     0.039 C 
ENDROOT
BRANCH   1   4
ATOM      4  C   UNL     1     -11.047 -16.546  28.257  1.00  0.00     0.034 C 
BRANCH   4   5
ATOM      5  C   UNL     1     -10.902 -18.068  28.155  1.00  0.00     0.032 C 
BRANCH   5   6
ATOM      6  C   UNL     1     -11.181 -18.722  29.484  1.00  0.00    -0.028 C 
ATOM      7  C   UNL     1     -12.460 -20.068  31.121  1.00  0.00     0.039 C 
ATOM      8  C   UNL     1     -12.266 -19.486  29.745  1.00  0.00    -0.080 C 
ATOM      9  C   UNL     1     -13.286 -19.820  28.685  1.00  0.00     0.039 C 
ENDBRANCH   5   6
ENDBRANCH   4   5
ENDBRANCH   1   4
BRANCH   2  10
ATOM     10  C   UNL     1     -12.657 -15.697  30.695  1.00  0.00     0.035 C 
BRANCH  10  11
ATOM     11  C   UNL     1     -13.616 -16.386  31.672  1.00  0.00     0.079 C 
BRANCH  11  12
ATOM     12  C   UNL     1     -14.239 -15.381  32.604  1.00  0.00     0.130 C 
ATOM     13  O   UNL     1     -15.348 -14.936  32.353  1.00  0.00    -0.300 OA
ATOM     14  C   UNL     1     -13.521 -14.903  33.832  1.00  0.00     0.087 C 
ENDBRANCH  11  12
ENDBRANCH  10  11
ENDBRANCH   2  10
TORSDOF 6
ENDMDL
MODEL 4
REMARK VINA RESULT:    -5.196      1.498      4.462
REMARK INTER + INTRA:          -8.010
REMARK INTER:                  -7.371
REMARK INTRA:                  -0.639
REMARK UNBOUND:                -0.991
REMARK SMILES CC(=O)CCC=C(C)CCC=C(C)C
REMARK SMILES IDX 7 1 6 2 8 3 9 4 10 5 11 6 13 7 12 8 14 9 5 10 4 11 2 12 3 13
REMARK SMILES IDX 1 14
REMARK H PARENT
REMARK Flexibility Score: inf
ROOT
ATOM      1  C   UNL     1     -11.435 -17.163  27.388  1.00  0.00    -0.077 C 
ATOM      2  C   UNL     1     -10.568 -17.635  28.313  1.00  0.00    -0.028 C 
ATOM      3  C   UNL     1     -10.998 -17.136  25.945  1.00  0.00     0.039 C 
ENDROOT
BRANCH   1   4
ATOM      4  C   UNL     1     -12.848 -16.728  27.724  1.00  0.00     0.034 C 
BRANCH   4   5
ATOM      5  C   UNL     1     -12.849 -15.316  28.322  1.00  0.00     0.032 C 
BRANCH   5   6
ATOM      6  C   UNL     1     -13.284 -15.348  29.765  1.00  0.00    -0.028 C 
ATOM      7  C   UNL     1     -14.581 -14.648  31.755  1.00  0.00     0.039 C 
ATOM      8  C   UNL     1     -14.245 -14.552  30.288  1.00  0.00    -0.080 C 
ATOM      9  C   UNL     1     -15.036 -13.586  29.442  1.00  0.00     0.039 C 
ENDBRANCH   5   6
ENDBRANCH   4   5
ENDBRANCH   1   4
BRANCH   2  10
ATOM     10  C   UNL     1     -10.849 -17.721  29.791  1.00  0.00     0.035 C 
BRANCH  10  11
ATOM     11  C   UNL     1     -10.873 -19.181  30.257  1.00  0.00     0.079 C 
BRANCH  11  12
ATOM     12  C   UNL     1     -12.283 -19.710  30.277  1.00  0.00     0.130 C 
ATOM     13  O   UNL     1     -12.899 -19.739  31.331  1.00  0.00    -0.300 OA
ATOM     14  C   UNL     1     -12.946 -20.216  29.029  1.00  0.00     0.087 C 
ENDBRANCH  11  12
ENDBRANCH  10  11
ENDBRANCH   2  10
TORSDOF 6
ENDMDL
MODEL 5
REMARK VINA RESULT:    -5.027      1.880      2.523
REMARK INTER + INTRA:          -7.781
REMARK INTER:                  -6.794
REMARK INTRA:                  -0.986
REMARK UNBOUND:                -0.991
REMARK SMILES CC(=O)CCC=C(C)CCC=C(C)C
REMARK SMILES IDX 7 1 6 2 8 3 9 4 10 5 11 6 13 7 12 8 14 9 5 10 4 11 2 12 3 13
REMARK SMILES IDX 1 14
REMARK H PARENT
REMARK Flexibility Score: inf
ROOT
ATOM      1  C   UNL     1     -11.404 -16.710  27.487  1.00  0.00    -0.077 C 
ATOM      2  C   UNL     1     -12.614 -16.109  27.565  1.00  0.00    -0.028 C 
ATOM      3  C   UNL     1     -11.032 -17.405  26.203  1.00  0.00     0.039 C 
ENDROOT
BRANCH   1   4
ATOM      4  C   UNL     1     -10.380 -16.655  28.604  1.00  0.00     0.034 C 
BRANCH   4   5
ATOM      5  C   UNL     1     -10.014 -18.069  29.070  1.00  0.00     0.032 C 
BRANCH   5   6
ATOM      6  C   UNL     1     -10.867 -18.482  30.243  1.00  0.00    -0.028 C 
ATOM      7  C   UNL     1     -12.771 -19.578  31.383  1.00  0.00     0.039 C 
ATOM      8  C   UNL     1     -11.976 -19.250  30.145  1.00  0.00    -0.080 C 
ATOM      9  C   UNL     1     -12.434 -19.835  28.833  1.00  0.00     0.039 C 
ENDBRANCH   5   6
ENDBRANCH   4   5
ENDBRANCH   1   4
BRANCH   2  10
ATOM     10  C   UNL     1     -13.137 -15.381  28.777  1.00  0.00     0.035 C 
BRANCH  10  11
ATOM     11  C   UNL     1     -13.939 -14.142  28.364  1.00  0.00     0.079 C 
BRANCH  11  12
ATOM     12  C   UNL     1     -14.917 -13.758  29.442  1.00  0.00     0.130 C 
ATOM     13  O   UNL     1     -14.685 -14.066  30.601  1.00  0.00    -0.300 OA
ATOM     14  C   UNL     1     -16.181 -13.014  29.123  1.00  0.00     0.087 C 
ENDBRANCH  11  12
ENDBRANCH  10  11
ENDBRANCH   2  10
TORSDOF 6
ENDMDL
MODEL 6
REMARK VINA RESULT:    -4.953      1.316      3.874
REMARK INTER + INTRA:          -7.681
REMARK INTER:                  -6.498
REMARK INTRA:                  -1.183
REMARK UNBOUND:                -0.991
REMARK SMILES CC(=O)CCC=C(C)CCC=C(C)C
REMARK SMILES IDX 7 1 6 2 8 3 9 4 10 5 11 6 13 7 12 8 14 9 5 10 4 11 2 12 3 13
REMARK SMILES IDX 1 14
REMARK H PARENT
REMARK Flexibility Score: inf
ROOT
ATOM      1  C   UNL     1     -12.140 -17.235  27.021  1.00  0.00    -0.077 C 
ATOM      2  C   UNL     1     -12.175 -18.425  27.663  1.00  0.00    -0.028 C 
ATOM      3  C   UNL     1     -11.002 -16.969  26.069  1.00  0.00     0.039 C 
ENDROOT
BRANCH   1   4
ATOM      4  C   UNL     1     -13.227 -16.187  27.161  1.00  0.00     0.034 C 
BRANCH   4   5
ATOM      5  C   UNL     1     -12.807 -15.105  28.161  1.00  0.00     0.032 C 
BRANCH   5   6
ATOM      6  C   UNL     1     -13.455 -15.337  29.503  1.00  0.00    -0.028 C 
ATOM      7  C   UNL     1     -13.577 -16.093  31.857  1.00  0.00     0.039 C 
ATOM      8  C   UNL     1     -12.823 -15.878  30.570  1.00  0.00    -0.080 C 
ATOM      9  C   UNL     1     -11.360 -16.242  30.537  1.00  0.00     0.039 C 
ENDBRANCH   5   6
ENDBRANCH   4   5
ENDBRANCH   1   4
BRANCH   2  10
ATOM     10  C   UNL     1     -13.237 -18.841  28.648  1.00  0.00     0.035 C 
BRANCH  10  11
ATOM     11  C   UNL     1     -12.832 -20.129  29.374  1.00  0.00     0.079 C 
BRANCH  11  12
ATOM     12  C   UNL     1     -12.173 -19.813  30.691  1.00  0.00     0.130 C 
ATOM     13  O   UNL     1     -12.845 -19.792  31.710  1.00  0.00    -0.300 OA
ATOM     14  C   UNL     1     -10.705 -19.510  30.777  1.00  0.00     0.087 C 
ENDBRANCH  11  12
ENDBRANCH  10  11
ENDBRANCH   2  10
TORSDOF 6
ENDMDL
MODEL 7
REMARK VINA RESULT:    -4.915      1.639      4.348
REMARK INTER + INTRA:          -7.629
REMARK INTER:                  -6.778
REMARK INTRA:                  -0.850
REMARK UNBOUND:                -0.991
REMARK SMILES CC(=O)CCC=C(C)CCC=C(C)C
REMARK SMILES IDX 7 1 6 2 8 3 9 4 10 5 11 6 13 7 12 8 14 9 5 10 4 11 2 12 3 13
REMARK SMILES IDX 1 14
REMARK H PARENT
REMARK Flexibility Score: inf
ROOT
ATOM      1  C   UNL     1     -12.824 -16.431  27.585  1.00  0.00    -0.077 C 
ATOM      2  C   UNL     1     -12.621 -17.767  27.528  1.00  0.00    -0.028 C 
ATOM      3  C   UNL     1     -13.806 -15.814  26.622  1.00  0.00     0.039 C 
ENDROOT
BRANCH   1   4
ATOM      4  C   UNL     1     -12.166 -15.538  28.619  1.00  0.00     0.034 C 
BRANCH   4   5
ATOM      5  C   UNL     1     -13.201 -15.033  29.631  1.00  0.00     0.032 C 
BRANCH   5   6
ATOM      6  C   UNL     1     -13.329 -15.992  30.787  1.00  0.00    -0.028 C 
ATOM      7  C   UNL     1     -14.104 -16.775  33.005  1.00  0.00     0.039 C 
ATOM      8  C   UNL     1     -14.070 -15.757  31.894  1.00  0.00    -0.080 C 
ATOM      9  C   UNL     1     -14.911 -14.514  32.048  1.00  0.00     0.039 C 
ENDBRANCH   5   6
ENDBRANCH   4   5
ENDBRANCH   1   4
BRANCH   2  10
ATOM     10  C   UNL     1     -11.671 -18.532  28.414  1.00  0.00     0.035 C 
BRANCH  10  11
ATOM     11  C   UNL     1     -12.440 -19.380  29.434  1.00  0.00     0.079 C 
BRANCH  11  12
ATOM     12  C   UNL     1     -11.578 -19.684  30.630  1.00  0.00     0.130 C 
ATOM     13  O   UNL     1     -10.441 -19.242  30.679  1.00  0.00    -0.300 OA
ATOM     14  C   UNL     1     -12.081 -20.532  31.761  1.00  0.00     0.087 C 
ENDBRANCH  11  12
ENDBRANCH  10  11
ENDBRANCH   2  10
TORSDOF 6
ENDMDL
MODEL 8
REMARK VINA RESULT:    -4.687      3.040      5.821
REMARK INTER + INTRA:          -7.322
REMARK INTER:                  -6.745
REMARK INTRA:                  -0.577
REMARK UNBOUND:                -0.991
REMARK SMILES CC(=O)CCC=C(C)CCC=C(C)C
REMARK SMILES IDX 7 1 6 2 8 3 9 4 10 5 11 6 13 7 12 8 14 9 5 10 4 11 2 12 3 13
REMARK SMILES IDX 1 14
REMARK H PARENT
REMARK Flexibility Score: inf
ROOT
ATOM      1  C   UNL     1     -13.888 -15.313  31.408  1.00  0.00    -0.077 C 
ATOM      2  C   UNL     1     -13.152 -15.860  30.413  1.00  0.00    -0.028 C 
ATOM      3  C   UNL     1     -14.823 -14.181  31.069  1.00  0.00     0.039 C 
ENDROOT
BRANCH   1   4
ATOM      4  C   UNL     1     -13.868 -15.834  32.832  1.00  0.00     0.034 C 
BRANCH   4   5
ATOM      5  C   UNL     1     -13.621 -14.689  33.821  1.00  0.00     0.032 C 
BRANCH   5   6
ATOM      6  C   UNL     1     -12.414 -14.975  34.679  1.00  0.00    -0.028 C 
ATOM      7  C   UNL     1     -10.824 -14.616  36.542  1.00  0.00     0.039 C 
ATOM      8  C   UNL     1     -12.070 -14.259  35.773  1.00  0.00    -0.080 C 
ATOM      9  C   UNL     1     -12.919 -13.123  36.289  1.00  0.00     0.039 C 
ENDBRANCH   5   6
ENDBRANCH   4   5
ENDBRANCH   1   4
BRANCH   2  10
ATOM     10  C   UNL     1     -12.170 -16.990  30.589  1.00  0.00     0.035 C 
BRANCH  10  11
ATOM     11  C   UNL     1     -12.200 -17.930  29.379  1.00  0.00     0.079 C 
BRANCH  11  12
ATOM     12  C   UNL     1     -12.515 -19.339  29.808  1.00  0.00     0.130 C 
ATOM     13  O   UNL     1     -12.578 -20.223  28.967  1.00  0.00    -0.300 OA
ATOM     14  C   UNL     1     -12.766 -19.680  31.247  1.00  0.00     0.087 C 
ENDBRANCH  11  12
ENDBRANCH  10  11
ENDBRANCH   2  10
TORSDOF 6
ENDMDL
MODEL 9
REMARK VINA RESULT:    -3.466      1.220      3.193
REMARK INTER + INTRA:          -5.673
REMARK INTER:                  -4.817
REMARK INTRA:                  -0.856
REMARK UNBOUND:                -0.991
REMARK SMILES CC(=O)CCC=C(C)CCC=C(C)C
REMARK SMILES IDX 7 1 6 2 8 3 9 4 10 5 11 6 13 7 12 8 14 9 5 10 4 11 2 12 3 13
REMARK SMILES IDX 1 14
REMARK H PARENT
REMARK Flexibility Score: inf
ROOT
ATOM      1  C   UNL     1     -11.244 -18.128  30.343  1.00  0.00    -0.077 C 
ATOM      2  C   UNL     1     -11.373 -16.794  30.529  1.00  0.00    -0.028 C 
ATOM      3  C   UNL     1      -9.875 -18.742  30.490  1.00  0.00     0.039 C 
ENDROOT
BRANCH   1   4
ATOM      4  C   UNL     1     -12.421 -19.042  30.065  1.00  0.00     0.034 C 
BRANCH   4   5
ATOM      5  C   UNL     1     -12.582 -19.270  28.558  1.00  0.00     0.032 C 
BRANCH   5   6
ATOM      6  C   UNL     1     -13.292 -18.107  27.914  1.00  0.00    -0.028 C 
ATOM      7  C   UNL     1     -13.494 -16.055  26.543  1.00  0.00     0.039 C 
ATOM      8  C   UNL     1     -12.693 -17.198  27.111  1.00  0.00    -0.080 C 
ATOM      9  C   UNL     1     -11.240 -17.307  26.720  1.00  0.00     0.039 C 
ENDBRANCH   5   6
ENDBRANCH   4   5
ENDBRANCH   1   4
BRANCH   2  10
ATOM     10  C   UNL     1     -12.667 -16.030  30.412  1.00  0.00     0.035 C 
BRANCH  10  11
ATOM     11  C   UNL     1     -13.441 -16.063  31.735  1.00  0.00     0.079 C 
BRANCH  11  12
ATOM     12  C   UNL     1     -14.497 -14.991  31.761  1.00  0.00     0.130 C 
ATOM     13  O   UNL     1     -15.169 -14.833  32.769  1.00  0.00    -0.300 OA
ATOM     14  C   UNL     1     -14.753 -14.116  30.568  1.00  0.00     0.087 C 
ENDBRANCH  11  12
ENDBRANCH  10  11
ENDBRANCH   2  10
TORSDOF 6
ENDMDL
