MODEL 1
REMARK VINA RESULT:    -3.503      0.000      0.000
REMARK INTER + INTRA:          -6.575
REMARK INTER:                  -4.937
REMARK INTRA:                  -1.638
REMARK UNBOUND:                -1.638
REMARK SMILES COc1c(O[C@@H]2O[C@@H](C(=O)[O-])[C@@H](O)[C@H](O)[C@H]2O)cc(O)c2c(=O)cc(-c3ccccc3)oc12
REMARK SMILES IDX 5 1 6 2 8 3 12 4 7 5 14 6 16 7 9 8 10 9 11 10 13 11 15 13
REMARK SMILES IDX 17 15 4 17 3 18 18 19 33 20 19 21 21 22 32 23 22 24 25 25
REMARK SMILES IDX 24 26 23 27 2 28 1 29 20 30 26 32 27 33 31 34 28 35 30 36
REMARK SMILES IDX 29 37
REMARK H PARENT 13 12 15 14 17 16 20 31
REMARK Flexibility Score: inf
ROOT
ATOM      1  O   UNL     1      -0.431  53.322  58.554  1.00  0.00    -0.458 OA
ENDROOT
BRANCH   1   2
ATOM      2  C   UNL     1       0.049  54.416  59.353  1.00  0.00     0.339 C 
ATOM      3  C   UNL     1       0.239  55.892  57.539  1.00  0.00     0.199 C 
ATOM      4  C   UNL     1       1.762  56.074  57.669  1.00  0.00     0.180 C 
ATOM      5  O   UNL     1      -0.355  55.659  58.802  1.00  0.00    -0.328 OA
ATOM      6  C   UNL     1       2.396  54.835  58.340  1.00  0.00     0.181 C 
ATOM      7  C   UNL     1       1.587  54.350  59.569  1.00  0.00     0.214 C 
BRANCH   3   8
ATOM      8  C   UNL     1      -0.385  57.113  56.926  1.00  0.00     0.073 C 
ATOM      9  O   UNL     1       0.288  57.839  56.146  1.00  0.00    -0.547 OA
ATOM     10  O   UNL     1      -1.687  57.476  57.247  1.00  0.00    -0.547 OA
ENDBRANCH   3   8
BRANCH   4  11
ATOM     11  O   UNL     1       2.042  57.227  58.425  1.00  0.00    -0.387 OA
ATOM     12  H   UNL     1       2.191  56.930  59.360  1.00  0.00     0.211 HD
ENDBRANCH   4  11
BRANCH   6  13
ATOM     13  O   UNL     1       2.581  53.797  57.408  1.00  0.00    -0.387 OA
ATOM     14  H   UNL     1       3.162  53.109  57.818  1.00  0.00     0.211 HD
ENDBRANCH   6  13
BRANCH   7  15
ATOM     15  O   UNL     1       1.953  55.073  60.718  1.00  0.00    -0.384 OA
ATOM     16  H   UNL     1       2.932  55.227  60.685  1.00  0.00     0.211 HD
ENDBRANCH   7  15
ENDBRANCH   1   2
BRANCH   1  17
ATOM     17  C   UNL     1      -0.301  51.950  58.860  1.00  0.00     0.172 A 
ATOM     18  C   UNL     1       0.469  51.103  58.027  1.00  0.00     0.205 A 
ATOM     19  C   UNL     1      -0.924  51.396  59.993  1.00  0.00     0.097 A 
ATOM     20  C   UNL     1       0.626  49.749  58.363  1.00  0.00     0.188 A 
ATOM     21  C   UNL     1      -0.755  50.058  60.351  1.00  0.00     0.134 A 
ATOM     22  C   UNL     1       0.018  49.200  59.522  1.00  0.00     0.111 A 
ATOM     23  O   UNL     1       1.356  48.984  57.556  1.00  0.00    -0.452 OA
ATOM     24  C   UNL     1       0.213  47.816  59.751  1.00  0.00     0.197 A 
ATOM     25  C   UNL     1       1.568  47.687  57.755  1.00  0.00     0.138 A 
ATOM     26  C   UNL     1       1.004  47.069  58.878  1.00  0.00     0.100 A 
ATOM     27  O   UNL     1      -0.317  47.218  60.720  1.00  0.00    -0.289 OA
BRANCH  18  28
ATOM     28  O   UNL     1       1.101  51.526  56.842  1.00  0.00    -0.490 OA
ATOM     29  C   UNL     1       0.511  51.629  55.552  1.00  0.00     0.278 C 
ENDBRANCH  18  28
BRANCH  21  30
ATOM     30  O   UNL     1      -1.368  49.658  61.546  1.00  0.00    -0.507 OA
ATOM     31  H   UNL     1      -0.995  49.807  62.471  1.00  0.00     0.293 HD
ENDBRANCH  21  30
BRANCH  25  32
ATOM     32  C   UNL     1       2.404  46.942  56.775  1.00  0.00     0.017 A 
ATOM     33  C   UNL     1       2.294  45.546  56.610  1.00  0.00     0.012 A 
ATOM     34  C   UNL     1       3.305  47.649  55.956  1.00  0.00     0.012 A 
ATOM     35  C   UNL     1       3.083  44.877  55.668  1.00  0.00     0.001 A 
ATOM     36  C   UNL     1       4.091  46.975  55.017  1.00  0.00     0.001 A 
ATOM     37  C   UNL     1       3.982  45.590  54.875  1.00  0.00     0.000 A 
ENDBRANCH  25  32
ENDBRANCH   1  17
TORSDOF 9
ENDMDL
MODEL 2
REMARK VINA RESULT:    -3.413      2.765      8.980
REMARK INTER + INTRA:          -6.447
REMARK INTER:                  -5.080
REMARK INTRA:                  -1.367
REMARK UNBOUND:                -1.638
REMARK SMILES COc1c(O[C@@H]2O[C@@H](C(=O)[O-])[C@@H](O)[C@H](O)[C@H]2O)cc(O)c2c(=O)cc(-c3ccccc3)oc12
REMARK SMILES IDX 5 1 6 2 8 3 12 4 7 5 14 6 16 7 9 8 10 9 11 10 13 11 15 13
REMARK SMILES IDX 17 15 4 17 3 18 18 19 33 20 19 21 21 22 32 23 22 24 25 25
REMARK SMILES IDX 24 26 23 27 2 28 1 29 20 30 26 32 27 33 31 34 28 35 30 36
REMARK SMILES IDX 29 37
REMARK H PARENT 13 12 15 14 17 16 20 31
REMARK Flexibility Score: inf
ROOT
ATOM      1  O   UNL     1       1.861  51.451  57.811  1.00  0.00    -0.458 OA
ENDROOT
BRANCH   1   2
ATOM      2  C   UNL     1       1.199  50.672  56.801  1.00  0.00     0.339 C 
ATOM      3  C   UNL     1       0.333  49.109  58.321  1.00  0.00     0.199 C 
ATOM      4  C   UNL     1       1.090  47.907  57.728  1.00  0.00     0.180 C 
ATOM      5  O   UNL     1       0.028  50.062  57.320  1.00  0.00    -0.328 OA
ATOM      6  C   UNL     1       2.383  48.378  57.026  1.00  0.00     0.181 C 
ATOM      7  C   UNL     1       2.154  49.633  56.147  1.00  0.00     0.214 C 
BRANCH   3   8
ATOM      8  C   UNL     1      -0.946  48.656  58.967  1.00  0.00     0.073 C 
ATOM      9  O   UNL     1      -1.005  47.528  59.524  1.00  0.00    -0.547 OA
ATOM     10  O   UNL     1      -2.082  49.455  58.916  1.00  0.00    -0.547 OA
ENDBRANCH   3   8
BRANCH   4  11
ATOM     11  O   UNL     1       0.266  47.227  56.812  1.00  0.00    -0.387 OA
ATOM     12  H   UNL     1       0.802  46.478  56.443  1.00  0.00     0.211 HD
ENDBRANCH   4  11
BRANCH   6  13
ATOM     13  O   UNL     1       3.414  48.592  57.961  1.00  0.00    -0.387 OA
ATOM     14  H   UNL     1       3.185  48.107  58.793  1.00  0.00     0.211 HD
ENDBRANCH   6  13
BRANCH   7  15
ATOM     15  O   UNL     1       1.680  49.265  54.875  1.00  0.00    -0.384 OA
ATOM     16  H   UNL     1       1.873  50.008  54.248  1.00  0.00     0.211 HD
ENDBRANCH   7  15
ENDBRANCH   1   2
BRANCH   1  17
ATOM     17  C   UNL     1       1.772  52.850  57.972  1.00  0.00     0.172 A 
ATOM     18  C   UNL     1       1.396  53.402  59.220  1.00  0.00     0.205 A 
ATOM     19  C   UNL     1       2.055  53.725  56.907  1.00  0.00     0.097 A 
ATOM     20  C   UNL     1       1.350  54.796  59.383  1.00  0.00     0.188 A 
ATOM     21  C   UNL     1       2.038  55.112  57.063  1.00  0.00     0.134 A 
ATOM     22  C   UNL     1       1.664  55.674  58.314  1.00  0.00     0.111 A 
ATOM     23  O   UNL     1       0.992  55.277  60.570  1.00  0.00    -0.452 OA
ATOM     24  C   UNL     1       1.556  57.062  58.574  1.00  0.00     0.197 A 
ATOM     25  C   UNL     1       0.898  56.573  60.846  1.00  0.00     0.138 A 
ATOM     26  C   UNL     1       1.192  57.507  59.845  1.00  0.00     0.100 A 
ATOM     27  O   UNL     1       1.765  57.927  57.687  1.00  0.00    -0.289 OA
BRANCH  18  28
ATOM     28  O   UNL     1       1.042  52.634  60.346  1.00  0.00    -0.490 OA
ATOM     29  C   UNL     1      -0.209  52.001  60.587  1.00  0.00     0.278 C 
ENDBRANCH  18  28
BRANCH  21  30
ATOM     30  O   UNL     1       2.418  55.861  55.942  1.00  0.00    -0.507 OA
ATOM     31  H   UNL     1       2.433  56.869  55.892  1.00  0.00     0.293 HD
ENDBRANCH  21  30
BRANCH  25  32
ATOM     32  C   UNL     1       0.484  56.983  62.216  1.00  0.00     0.017 A 
ATOM     33  C   UNL     1       0.550  58.324  62.646  1.00  0.00     0.012 A 
ATOM     34  C   UNL     1      -0.027  56.015  63.102  1.00  0.00     0.012 A 
ATOM     35  C   UNL     1       0.139  58.678  63.935  1.00  0.00     0.001 A 
ATOM     36  C   UNL     1      -0.437  56.375  64.389  1.00  0.00     0.001 A 
ATOM     37  C   UNL     1      -0.351  57.705  64.806  1.00  0.00     0.000 A 
ENDBRANCH  25  32
ENDBRANCH   1  17
TORSDOF 9
ENDMDL
MODEL 3
REMARK VINA RESULT:    -3.372      2.922      5.785
REMARK INTER + INTRA:          -6.389
REMARK INTER:                  -4.959
REMARK INTRA:                  -1.430
REMARK UNBOUND:                -1.638
REMARK SMILES COc1c(O[C@@H]2O[C@@H](C(=O)[O-])[C@@H](O)[C@H](O)[C@H]2O)cc(O)c2c(=O)cc(-c3ccccc3)oc12
REMARK SMILES IDX 5 1 6 2 8 3 12 4 7 5 14 6 16 7 9 8 10 9 11 10 13 11 15 13
REMARK SMILES IDX 17 15 4 17 3 18 18 19 33 20 19 21 21 22 32 23 22 24 25 25
REMARK SMILES IDX 24 26 23 27 2 28 1 29 20 30 26 32 27 33 31 34 28 35 30 36
REMARK SMILES IDX 29 37
REMARK H PARENT 13 12 15 14 17 16 20 31
REMARK Flexibility Score: inf
ROOT
ATOM      1  O   UNL     1       0.888  55.138  61.030  1.00  0.00    -0.458 OA
ENDROOT
BRANCH   1   2
ATOM      2  C   UNL     1       1.762  55.483  62.117  1.00  0.00     0.339 C 
ATOM      3  C   UNL     1       0.689  54.082  63.663  1.00  0.00     0.199 C 
ATOM      4  C   UNL     1       0.255  55.221  64.602  1.00  0.00     0.180 C 
ATOM      5  O   UNL     1       1.908  54.394  63.014  1.00  0.00    -0.328 OA
ATOM      6  C   UNL     1       0.120  56.544  63.816  1.00  0.00     0.181 C 
ATOM      7  C   UNL     1       1.304  56.778  62.845  1.00  0.00     0.214 C 
BRANCH   3   8
ATOM      8  C   UNL     1       0.862  52.804  64.433  1.00  0.00     0.073 C 
ATOM      9  O   UNL     1      -0.047  51.933  64.420  1.00  0.00    -0.547 OA
ATOM     10  O   UNL     1       2.002  52.592  65.200  1.00  0.00    -0.547 OA
ENDBRANCH   3   8
BRANCH   4  11
ATOM     11  O   UNL     1       1.195  55.371  65.639  1.00  0.00    -0.387 OA
ATOM     12  H   UNL     1       0.708  55.228  66.492  1.00  0.00     0.211 HD
ENDBRANCH   4  11
BRANCH   6  13
ATOM     13  O   UNL     1      -1.113  56.605  63.141  1.00  0.00    -0.387 OA
ATOM     14  H   UNL     1      -0.957  56.979  62.237  1.00  0.00     0.211 HD
ENDBRANCH   6  13
BRANCH   7  15
ATOM     15  O   UNL     1       2.387  57.370  63.520  1.00  0.00    -0.384 OA
ATOM     16  H   UNL     1       3.151  57.421  62.890  1.00  0.00     0.211 HD
ENDBRANCH   7  15
ENDBRANCH   1   2
BRANCH   1  17
ATOM     17  C   UNL     1       1.286  54.752  59.733  1.00  0.00     0.172 A 
ATOM     18  C   UNL     1       1.390  53.382  59.395  1.00  0.00     0.205 A 
ATOM     19  C   UNL     1       1.584  55.713  58.748  1.00  0.00     0.097 A 
ATOM     20  C   UNL     1       1.747  53.008  58.090  1.00  0.00     0.188 A 
ATOM     21  C   UNL     1       1.915  55.355  57.440  1.00  0.00     0.134 A 
ATOM     22  C   UNL     1       2.019  53.980  57.092  1.00  0.00     0.111 A 
ATOM     23  O   UNL     1       1.835  51.711  57.811  1.00  0.00    -0.452 OA
ATOM     24  C   UNL     1       2.402  53.498  55.817  1.00  0.00     0.197 A 
ATOM     25  C   UNL     1       2.176  51.230  56.620  1.00  0.00     0.138 A 
ATOM     26  C   UNL     1       2.460  52.125  55.580  1.00  0.00     0.100 A 
ATOM     27  O   UNL     1       2.711  54.270  54.875  1.00  0.00    -0.289 OA
BRANCH  18  28
ATOM     28  O   UNL     1       1.166  52.328  60.303  1.00  0.00    -0.490 OA
ATOM     29  C   UNL     1      -0.094  51.856  60.764  1.00  0.00     0.278 C 
ENDBRANCH  18  28
BRANCH  21  30
ATOM     30  O   UNL     1       2.109  56.413  56.543  1.00  0.00    -0.507 OA
ATOM     31  H   UNL     1       2.759  56.412  55.772  1.00  0.00     0.293 HD
ENDBRANCH  21  30
BRANCH  25  32
ATOM     32  C   UNL     1       2.240  49.755  56.437  1.00  0.00     0.017 A 
ATOM     33  C   UNL     1       1.842  48.859  57.451  1.00  0.00     0.012 A 
ATOM     34  C   UNL     1       2.672  49.229  55.204  1.00  0.00     0.012 A 
ATOM     35  C   UNL     1       1.900  47.478  57.242  1.00  0.00     0.001 A 
ATOM     36  C   UNL     1       2.728  47.847  55.001  1.00  0.00     0.001 A 
ATOM     37  C   UNL     1       2.345  46.972  56.020  1.00  0.00     0.000 A 
ENDBRANCH  25  32
ENDBRANCH   1  17
TORSDOF 9
ENDMDL
MODEL 4
REMARK VINA RESULT:    -3.366      2.436      8.879
REMARK INTER + INTRA:          -6.381
REMARK INTER:                  -5.110
REMARK INTRA:                  -1.271
REMARK UNBOUND:                -1.638
REMARK SMILES COc1c(O[C@@H]2O[C@@H](C(=O)[O-])[C@@H](O)[C@H](O)[C@H]2O)cc(O)c2c(=O)cc(-c3ccccc3)oc12
REMARK SMILES IDX 5 1 6 2 8 3 12 4 7 5 14 6 16 7 9 8 10 9 11 10 13 11 15 13
REMARK SMILES IDX 17 15 4 17 3 18 18 19 33 20 19 21 21 22 32 23 22 24 25 25
REMARK SMILES IDX 24 26 23 27 2 28 1 29 20 30 26 32 27 33 31 34 28 35 30 36
REMARK SMILES IDX 29 37
REMARK H PARENT 13 12 15 14 17 16 20 31
REMARK Flexibility Score: inf
ROOT
ATOM      1  O   UNL     1       0.995  49.263  57.729  1.00  0.00    -0.458 OA
ENDROOT
BRANCH   1   2
ATOM      2  C   UNL     1       1.861  48.322  58.383  1.00  0.00     0.339 C 
ATOM      3  C   UNL     1       2.096  46.951  56.493  1.00  0.00     0.199 C 
ATOM      4  C   UNL     1       1.454  45.712  57.142  1.00  0.00     0.180 C 
ATOM      5  O   UNL     1       2.767  47.740  57.458  1.00  0.00    -0.328 OA
ATOM      6  C   UNL     1       0.476  46.136  58.261  1.00  0.00     0.181 C 
ATOM      7  C   UNL     1       1.064  47.244  59.170  1.00  0.00     0.214 C 
BRANCH   3   8
ATOM      8  C   UNL     1       3.079  46.539  55.435  1.00  0.00     0.073 C 
ATOM      9  O   UNL     1       3.938  47.360  55.019  1.00  0.00    -0.547 OA
ATOM     10  O   UNL     1       3.020  45.268  54.875  1.00  0.00    -0.547 OA
ENDBRANCH   3   8
BRANCH   4  11
ATOM     11  O   UNL     1       2.455  44.875  57.670  1.00  0.00    -0.387 OA
ATOM     12  H   UNL     1       2.111  44.524  58.532  1.00  0.00     0.211 HD
ENDBRANCH   4  11
BRANCH   6  13
ATOM     13  O   UNL     1      -0.766  46.523  57.723  1.00  0.00    -0.387 OA
ATOM     14  H   UNL     1      -0.841  47.508  57.787  1.00  0.00     0.211 HD
ENDBRANCH   6  13
BRANCH   7  15
ATOM     15  O   UNL     1       1.865  46.681  60.180  1.00  0.00    -0.384 OA
ATOM     16  H   UNL     1       2.765  47.094  60.124  1.00  0.00     0.211 HD
ENDBRANCH   7  15
ENDBRANCH   1   2
BRANCH   1  17
ATOM     17  C   UNL     1       1.228  50.647  57.587  1.00  0.00     0.172 A 
ATOM     18  C   UNL     1       1.073  51.515  58.695  1.00  0.00     0.205 A 
ATOM     19  C   UNL     1       1.621  51.196  56.352  1.00  0.00     0.097 A 
ATOM     20  C   UNL     1       1.348  52.884  58.554  1.00  0.00     0.188 A 
ATOM     21  C   UNL     1       1.921  52.551  56.206  1.00  0.00     0.134 A 
ATOM     22  C   UNL     1       1.770  53.429  57.314  1.00  0.00     0.111 A 
ATOM     23  O   UNL     1       1.190  53.668  59.618  1.00  0.00    -0.452 OA
ATOM     24  C   UNL     1       1.989  54.827  57.271  1.00  0.00     0.197 A 
ATOM     25  C   UNL     1       1.403  54.979  59.610  1.00  0.00     0.138 A 
ATOM     26  C   UNL     1       1.824  55.594  58.424  1.00  0.00     0.100 A 
ATOM     27  O   UNL     1       2.320  55.420  56.214  1.00  0.00    -0.289 OA
BRANCH  18  28
ATOM     28  O   UNL     1       0.640  51.096  59.968  1.00  0.00    -0.490 OA
ATOM     29  C   UNL     1      -0.693  50.779  60.352  1.00  0.00     0.278 C 
ENDBRANCH  18  28
BRANCH  21  30
ATOM     30  O   UNL     1       2.376  52.948  54.942  1.00  0.00    -0.507 OA
ATOM     31  H   UNL     1       3.175  53.538  54.768  1.00  0.00     0.293 HD
ENDBRANCH  21  30
BRANCH  25  32
ATOM     32  C   UNL     1       1.189  55.745  60.868  1.00  0.00     0.017 A 
ATOM     33  C   UNL     1       0.141  56.679  61.004  1.00  0.00     0.012 A 
ATOM     34  C   UNL     1       2.027  55.506  61.974  1.00  0.00     0.012 A 
ATOM     35  C   UNL     1      -0.043  57.370  62.206  1.00  0.00     0.001 A 
ATOM     36  C   UNL     1       1.838  56.200  63.172  1.00  0.00     0.001 A 
ATOM     37  C   UNL     1       0.806  57.133  63.287  1.00  0.00     0.000 A 
ENDBRANCH  25  32
ENDBRANCH   1  17
TORSDOF 9
ENDMDL
MODEL 5
REMARK VINA RESULT:    -3.328      1.465      2.645
REMARK INTER + INTRA:          -6.328
REMARK INTER:                  -5.079
REMARK INTRA:                  -1.249
REMARK UNBOUND:                -1.638
REMARK SMILES COc1c(O[C@@H]2O[C@@H](C(=O)[O-])[C@@H](O)[C@H](O)[C@H]2O)cc(O)c2c(=O)cc(-c3ccccc3)oc12
REMARK SMILES IDX 5 1 6 2 8 3 12 4 7 5 14 6 16 7 9 8 10 9 11 10 13 11 15 13
REMARK SMILES IDX 17 15 4 17 3 18 18 19 33 20 19 21 21 22 32 23 22 24 25 25
REMARK SMILES IDX 24 26 23 27 2 28 1 29 20 30 26 32 27 33 31 34 28 35 30 36
REMARK SMILES IDX 29 37
REMARK H PARENT 13 12 15 14 17 16 20 31
REMARK Flexibility Score: inf
ROOT
ATOM      1  O   UNL     1       0.211  53.185  59.332  1.00  0.00    -0.458 OA
ENDROOT
BRANCH   1   2
ATOM      2  C   UNL     1       1.368  53.947  59.711  1.00  0.00     0.339 C 
ATOM      3  C   UNL     1       0.228  55.216  61.322  1.00  0.00     0.199 C 
ATOM      4  C   UNL     1       0.461  56.567  60.621  1.00  0.00     0.180 C 
ATOM      5  O   UNL     1       1.300  54.325  61.076  1.00  0.00    -0.328 OA
ATOM      6  C   UNL     1       0.650  56.361  59.102  1.00  0.00     0.181 C 
ATOM      7  C   UNL     1       1.590  55.172  58.780  1.00  0.00     0.214 C 
BRANCH   3   8
ATOM      8  C   UNL     1       0.087  55.411  62.804  1.00  0.00     0.073 C 
ATOM      9  O   UNL     1      -1.059  55.477  63.324  1.00  0.00    -0.547 OA
ATOM     10  O   UNL     1       1.212  55.566  63.605  1.00  0.00    -0.547 OA
ENDBRANCH   3   8
BRANCH   4  11
ATOM     11  O   UNL     1       1.595  57.198  61.166  1.00  0.00    -0.387 OA
ATOM     12  H   UNL     1       1.293  57.680  61.980  1.00  0.00     0.211 HD
ENDBRANCH   4  11
BRANCH   6  13
ATOM     13  O   UNL     1      -0.593  56.218  58.456  1.00  0.00    -0.387 OA
ATOM     14  H   UNL     1      -1.080  57.077  58.522  1.00  0.00     0.211 HD
ENDBRANCH   6  13
BRANCH   7  15
ATOM     15  O   UNL     1       2.935  55.583  58.821  1.00  0.00    -0.384 OA
ATOM     16  H   UNL     1       3.225  55.589  59.769  1.00  0.00     0.211 HD
ENDBRANCH   7  15
ENDBRANCH   1   2
BRANCH   1  17
ATOM     17  C   UNL     1       0.100  51.778  59.347  1.00  0.00     0.172 A 
ATOM     18  C   UNL     1       0.915  50.989  58.500  1.00  0.00     0.205 A 
ATOM     19  C   UNL     1      -0.811  51.129  60.200  1.00  0.00     0.097 A 
ATOM     20  C   UNL     1       0.827  49.589  58.552  1.00  0.00     0.188 A 
ATOM     21  C   UNL     1      -0.890  49.738  60.280  1.00  0.00     0.134 A 
ATOM     22  C   UNL     1      -0.074  48.938  59.434  1.00  0.00     0.111 A 
ATOM     23  O   UNL     1       1.609  48.881  57.741  1.00  0.00    -0.452 OA
ATOM     24  C   UNL     1      -0.106  47.523  59.385  1.00  0.00     0.197 A 
ATOM     25  C   UNL     1       1.610  47.554  57.685  1.00  0.00     0.138 A 
ATOM     26  C   UNL     1       0.749  46.836  58.525  1.00  0.00     0.100 A 
ATOM     27  O   UNL     1      -0.899  46.848  60.088  1.00  0.00    -0.289 OA
BRANCH  18  28
ATOM     28  O   UNL     1       1.830  51.519  57.570  1.00  0.00    -0.490 OA
ATOM     29  C   UNL     1       1.527  52.049  56.285  1.00  0.00     0.278 C 
ENDBRANCH  18  28
BRANCH  21  30
ATOM     30  O   UNL     1      -1.785  49.226  61.227  1.00  0.00    -0.507 OA
ATOM     31  H   UNL     1      -1.648  48.382  61.763  1.00  0.00     0.293 HD
ENDBRANCH  21  30
BRANCH  25  32
ATOM     32  C   UNL     1       2.532  46.880  56.731  1.00  0.00     0.017 A 
ATOM     33  C   UNL     1       2.672  45.477  56.692  1.00  0.00     0.012 A 
ATOM     34  C   UNL     1       3.261  47.657  55.810  1.00  0.00     0.012 A 
ATOM     35  C   UNL     1       3.536  44.875  55.772  1.00  0.00     0.001 A 
ATOM     36  C   UNL     1       4.123  47.048  54.893  1.00  0.00     0.001 A 
ATOM     37  C   UNL     1       4.263  45.659  54.876  1.00  0.00     0.000 A 
ENDBRANCH  25  32
ENDBRANCH   1  17
TORSDOF 9
ENDMDL
MODEL 6
REMARK VINA RESULT:    -3.318      3.228      8.756
REMARK INTER + INTRA:          -6.313
REMARK INTER:                  -5.214
REMARK INTRA:                  -1.099
REMARK UNBOUND:                -1.638
REMARK SMILES COc1c(O[C@@H]2O[C@@H](C(=O)[O-])[C@@H](O)[C@H](O)[C@H]2O)cc(O)c2c(=O)cc(-c3ccccc3)oc12
REMARK SMILES IDX 5 1 6 2 8 3 12 4 7 5 14 6 16 7 9 8 10 9 11 10 13 11 15 13
REMARK SMILES IDX 17 15 4 17 3 18 18 19 33 20 19 21 21 22 32 23 22 24 25 25
REMARK SMILES IDX 24 26 23 27 2 28 1 29 20 30 26 32 27 33 31 34 28 35 30 36
REMARK SMILES IDX 29 37
REMARK H PARENT 13 12 15 14 17 16 20 31
REMARK Flexibility Score: inf
ROOT
ATOM      1  O   UNL     1       0.856  50.633  58.268  1.00  0.00    -0.458 OA
ENDROOT
BRANCH   1   2
ATOM      2  C   UNL     1       0.812  50.375  56.855  1.00  0.00     0.339 C 
ATOM      3  C   UNL     1       0.283  48.103  57.104  1.00  0.00     0.199 C 
ATOM      4  C   UNL     1       1.566  47.588  56.426  1.00  0.00     0.180 C 
ATOM      5  O   UNL     1      -0.118  49.346  56.557  1.00  0.00    -0.328 OA
ATOM      6  C   UNL     1       2.701  48.627  56.566  1.00  0.00     0.181 C 
ATOM      7  C   UNL     1       2.221  50.070  56.274  1.00  0.00     0.214 C 
BRANCH   3   8
ATOM      8  C   UNL     1      -0.834  47.113  56.932  1.00  0.00     0.073 C 
ATOM      9  O   UNL     1      -2.032  47.498  56.995  1.00  0.00    -0.547 OA
ATOM     10  O   UNL     1      -0.558  45.764  56.748  1.00  0.00    -0.547 OA
ENDBRANCH   3   8
BRANCH   4  11
ATOM     11  O   UNL     1       1.316  47.328  55.066  1.00  0.00    -0.387 OA
ATOM     12  H   UNL     1       0.383  47.615  54.885  1.00  0.00     0.211 HD
ENDBRANCH   4  11
BRANCH   6  13
ATOM     13  O   UNL     1       3.311  48.538  57.831  1.00  0.00    -0.387 OA
ATOM     14  H   UNL     1       3.563  47.594  57.991  1.00  0.00     0.211 HD
ENDBRANCH   6  13
BRANCH   7  15
ATOM     15  O   UNL     1       2.249  50.329  54.891  1.00  0.00    -0.384 OA
ATOM     16  H   UNL     1       3.052  50.877  54.697  1.00  0.00     0.211 HD
ENDBRANCH   7  15
ENDBRANCH   1   2
BRANCH   1  17
ATOM     17  C   UNL     1       1.034  51.893  58.877  1.00  0.00     0.172 A 
ATOM     18  C   UNL     1       0.409  52.183  60.114  1.00  0.00     0.205 A 
ATOM     19  C   UNL     1       1.833  52.884  58.278  1.00  0.00     0.097 A 
ATOM     20  C   UNL     1       0.627  53.424  60.733  1.00  0.00     0.188 A 
ATOM     21  C   UNL     1       2.077  54.112  58.895  1.00  0.00     0.134 A 
ATOM     22  C   UNL     1       1.456  54.410  60.138  1.00  0.00     0.111 A 
ATOM     23  O   UNL     1       0.023  53.660  61.894  1.00  0.00    -0.452 OA
ATOM     24  C   UNL     1       1.583  55.640  60.829  1.00  0.00     0.197 A 
ATOM     25  C   UNL     1       0.136  54.798  62.571  1.00  0.00     0.138 A 
ATOM     26  C   UNL     1       0.938  55.822  62.052  1.00  0.00     0.100 A 
ATOM     27  O   UNL     1       2.254  56.598  60.371  1.00  0.00    -0.289 OA
BRANCH  18  28
ATOM     28  O   UNL     1      -0.450  51.295  60.789  1.00  0.00    -0.490 OA
ATOM     29  C   UNL     1      -0.068  50.175  61.578  1.00  0.00     0.278 C 
ENDBRANCH  18  28
BRANCH  21  30
ATOM     30  O   UNL     1       2.955  54.974  58.224  1.00  0.00    -0.507 OA
ATOM     31  H   UNL     1       3.311  55.843  58.590  1.00  0.00     0.293 HD
ENDBRANCH  21  30
BRANCH  25  32
ATOM     32  C   UNL     1      -0.594  54.937  63.861  1.00  0.00     0.017 A 
ATOM     33  C   UNL     1      -1.378  53.892  64.391  1.00  0.00     0.012 A 
ATOM     34  C   UNL     1      -0.472  56.130  64.598  1.00  0.00     0.012 A 
ATOM     35  C   UNL     1      -2.039  54.050  65.613  1.00  0.00     0.001 A 
ATOM     36  C   UNL     1      -1.135  56.282  65.820  1.00  0.00     0.001 A 
ATOM     37  C   UNL     1      -1.920  55.243  66.325  1.00  0.00     0.000 A 
ENDBRANCH  25  32
ENDBRANCH   1  17
TORSDOF 9
ENDMDL
MODEL 7
REMARK VINA RESULT:    -3.318      2.839      8.544
REMARK INTER + INTRA:          -6.313
REMARK INTER:                  -4.756
REMARK INTRA:                  -1.558
REMARK UNBOUND:                -1.638
REMARK SMILES COc1c(O[C@@H]2O[C@@H](C(=O)[O-])[C@@H](O)[C@H](O)[C@H]2O)cc(O)c2c(=O)cc(-c3ccccc3)oc12
REMARK SMILES IDX 5 1 6 2 8 3 12 4 7 5 14 6 16 7 9 8 10 9 11 10 13 11 15 13
REMARK SMILES IDX 17 15 4 17 3 18 18 19 33 20 19 21 21 22 32 23 22 24 25 25
REMARK SMILES IDX 24 26 23 27 2 28 1 29 20 30 26 32 27 33 31 34 28 35 30 36
REMARK SMILES IDX 29 37
REMARK H PARENT 13 12 15 14 17 16 20 31
REMARK Flexibility Score: inf
ROOT
ATOM      1  O   UNL     1       0.568  50.766  56.803  1.00  0.00    -0.458 OA
ENDROOT
BRANCH   1   2
ATOM      2  C   UNL     1       1.500  49.686  56.633  1.00  0.00     0.339 C 
ATOM      3  C   UNL     1      -0.162  48.042  56.442  1.00  0.00     0.199 C 
ATOM      4  C   UNL     1       0.272  47.262  57.696  1.00  0.00     0.180 C 
ATOM      5  O   UNL     1       0.947  48.663  55.820  1.00  0.00    -0.328 OA
ATOM      6  C   UNL     1       0.989  48.200  58.692  1.00  0.00     0.181 C 
ATOM      7  C   UNL     1       2.009  49.135  57.994  1.00  0.00     0.214 C 
BRANCH   3   8
ATOM      8  C   UNL     1      -0.821  47.122  55.454  1.00  0.00     0.073 C 
ATOM      9  O   UNL     1      -0.144  46.231  54.875  1.00  0.00    -0.547 OA
ATOM     10  O   UNL     1      -2.166  47.273  55.138  1.00  0.00    -0.547 OA
ENDBRANCH   3   8
BRANCH   4  11
ATOM     11  O   UNL     1       1.127  46.206  57.330  1.00  0.00    -0.387 OA
ATOM     12  H   UNL     1       2.018  46.408  57.720  1.00  0.00     0.211 HD
ENDBRANCH   4  11
BRANCH   6  13
ATOM     13  O   UNL     1       0.057  48.936  59.449  1.00  0.00    -0.387 OA
ATOM     14  H   UNL     1      -0.116  48.447  60.292  1.00  0.00     0.211 HD
ENDBRANCH   6  13
BRANCH   7  15
ATOM     15  O   UNL     1       3.243  48.481  57.829  1.00  0.00    -0.384 OA
ATOM     16  H   UNL     1       3.071  47.604  57.400  1.00  0.00     0.211 HD
ENDBRANCH   7  15
ENDBRANCH   1   2
BRANCH   1  17
ATOM     17  C   UNL     1       0.766  51.918  57.593  1.00  0.00     0.172 A 
ATOM     18  C   UNL     1      -0.138  52.232  58.637  1.00  0.00     0.205 A 
ATOM     19  C   UNL     1       1.859  52.775  57.369  1.00  0.00     0.097 A 
ATOM     20  C   UNL     1       0.091  53.357  59.444  1.00  0.00     0.188 A 
ATOM     21  C   UNL     1       2.112  53.882  58.180  1.00  0.00     0.134 A 
ATOM     22  C   UNL     1       1.210  54.203  59.232  1.00  0.00     0.111 A 
ATOM     23  O   UNL     1      -0.780  53.620  60.415  1.00  0.00    -0.452 OA
ATOM     24  C   UNL     1       1.331  55.330  60.082  1.00  0.00     0.197 A 
ATOM     25  C   UNL     1      -0.683  54.660  61.236  1.00  0.00     0.138 A 
ATOM     26  C   UNL     1       0.394  55.543  61.093  1.00  0.00     0.100 A 
ATOM     27  O   UNL     1       2.256  56.169  59.952  1.00  0.00    -0.289 OA
BRANCH  18  28
ATOM     28  O   UNL     1      -1.293  51.482  58.930  1.00  0.00    -0.490 OA
ATOM     29  C   UNL     1      -2.490  51.428  58.164  1.00  0.00     0.278 C 
ENDBRANCH  18  28
BRANCH  21  30
ATOM     30  O   UNL     1       3.278  54.603  57.893  1.00  0.00    -0.507 OA
ATOM     31  H   UNL     1       3.934  54.947  58.577  1.00  0.00     0.293 HD
ENDBRANCH  21  30
BRANCH  25  32
ATOM     32  C   UNL     1      -1.727  54.844  62.281  1.00  0.00     0.017 A 
ATOM     33  C   UNL     1      -2.001  53.851  63.245  1.00  0.00     0.012 A 
ATOM     34  C   UNL     1      -2.438  56.057  62.341  1.00  0.00     0.012 A 
ATOM     35  C   UNL     1      -2.977  54.061  64.223  1.00  0.00     0.001 A 
ATOM     36  C   UNL     1      -3.414  56.261  63.322  1.00  0.00     0.001 A 
ATOM     37  C   UNL     1      -3.684  55.263  64.260  1.00  0.00     0.000 A 
ENDBRANCH  25  32
ENDBRANCH   1  17
TORSDOF 9
ENDMDL
MODEL 8
REMARK VINA RESULT:    -3.232      1.309      2.648
REMARK INTER + INTRA:          -6.192
REMARK INTER:                  -5.127
REMARK INTRA:                  -1.065
REMARK UNBOUND:                -1.638
REMARK SMILES COc1c(O[C@@H]2O[C@@H](C(=O)[O-])[C@@H](O)[C@H](O)[C@H]2O)cc(O)c2c(=O)cc(-c3ccccc3)oc12
REMARK SMILES IDX 5 1 6 2 8 3 12 4 7 5 14 6 16 7 9 8 10 9 11 10 13 11 15 13
REMARK SMILES IDX 17 15 4 17 3 18 18 19 33 20 19 21 21 22 32 23 22 24 25 25
REMARK SMILES IDX 24 26 23 27 2 28 1 29 20 30 26 32 27 33 31 34 28 35 30 36
REMARK SMILES IDX 29 37
REMARK H PARENT 13 12 15 14 17 16 20 31
REMARK Flexibility Score: inf
ROOT
ATOM      1  O   UNL     1       0.450  54.229  57.659  1.00  0.00    -0.458 OA
ENDROOT
BRANCH   1   2
ATOM      2  C   UNL     1       1.627  55.006  57.382  1.00  0.00     0.339 C 
ATOM      3  C   UNL     1       1.371  56.394  59.256  1.00  0.00     0.199 C 
ATOM      4  C   UNL     1       1.203  57.691  58.443  1.00  0.00     0.180 C 
ATOM      5  O   UNL     1       2.216  55.479  58.583  1.00  0.00    -0.328 OA
ATOM      6  C   UNL     1       0.641  57.376  57.039  1.00  0.00     0.181 C 
ATOM      7  C   UNL     1       1.341  56.161  56.381  1.00  0.00     0.214 C 
BRANCH   3   8
ATOM      8  C   UNL     1       1.957  56.694  60.606  1.00  0.00     0.073 C 
ATOM      9  O   UNL     1       1.382  56.281  61.648  1.00  0.00    -0.547 OA
ATOM     10  O   UNL     1       3.108  57.464  60.719  1.00  0.00    -0.547 OA
ENDBRANCH   3   8
BRANCH   4  11
ATOM     11  O   UNL     1       2.442  58.348  58.330  1.00  0.00    -0.387 OA
ATOM     12  H   UNL     1       2.252  59.323  58.338  1.00  0.00     0.211 HD
ENDBRANCH   4  11
BRANCH   6  13
ATOM     13  O   UNL     1      -0.755  57.200  57.083  1.00  0.00    -0.387 OA
ATOM     14  H   UNL     1      -1.039  56.750  56.248  1.00  0.00     0.211 HD
ENDBRANCH   6  13
BRANCH   7  15
ATOM     15  O   UNL     1       2.527  56.561  55.741  1.00  0.00    -0.384 OA
ATOM     16  H   UNL     1       2.439  57.519  55.502  1.00  0.00     0.211 HD
ENDBRANCH   7  15
ENDBRANCH   1   2
BRANCH   1  17
ATOM     17  C   UNL     1       0.424  52.902  58.139  1.00  0.00     0.172 A 
ATOM     18  C   UNL     1       1.060  51.867  57.412  1.00  0.00     0.205 A 
ATOM     19  C   UNL     1      -0.225  52.577  59.345  1.00  0.00     0.097 A 
ATOM     20  C   UNL     1       1.064  50.558  57.919  1.00  0.00     0.188 A 
ATOM     21  C   UNL     1      -0.206  51.285  59.871  1.00  0.00     0.134 A 
ATOM     22  C   UNL     1       0.432  50.240  59.149  1.00  0.00     0.111 A 
ATOM     23  O   UNL     1       1.671  49.613  57.207  1.00  0.00    -0.452 OA
ATOM     24  C   UNL     1       0.467  48.884  59.553  1.00  0.00     0.197 A 
ATOM     25  C   UNL     1       1.733  48.336  57.570  1.00  0.00     0.138 A 
ATOM     26  C   UNL     1       1.134  47.940  58.772  1.00  0.00     0.100 A 
ATOM     27  O   UNL     1      -0.100  48.483  60.601  1.00  0.00    -0.289 OA
BRANCH  18  28
ATOM     28  O   UNL     1       1.700  52.055  56.172  1.00  0.00    -0.490 OA
ATOM     29  C   UNL     1       1.077  52.154  54.897  1.00  0.00     0.278 C 
ENDBRANCH  18  28
BRANCH  21  30
ATOM     30  O   UNL     1      -0.824  51.119  61.117  1.00  0.00    -0.507 OA
ATOM     31  H   UNL     1      -0.855  50.259  61.643  1.00  0.00     0.293 HD
ENDBRANCH  21  30
BRANCH  25  32
ATOM     32  C   UNL     1       2.441  47.374  56.682  1.00  0.00     0.017 A 
ATOM     33  C   UNL     1       3.345  47.803  55.688  1.00  0.00     0.012 A 
ATOM     34  C   UNL     1       2.239  45.992  56.859  1.00  0.00     0.012 A 
ATOM     35  C   UNL     1       4.006  46.873  54.880  1.00  0.00     0.001 A 
ATOM     36  C   UNL     1       2.904  45.067  56.048  1.00  0.00     0.001 A 
ATOM     37  C   UNL     1       3.784  45.507  55.058  1.00  0.00     0.000 A 
ENDBRANCH  25  32
ENDBRANCH   1  17
TORSDOF 9
ENDMDL
MODEL 9
REMARK VINA RESULT:    -3.185      2.537      8.534
REMARK INTER + INTRA:          -6.126
REMARK INTER:                  -4.834
REMARK INTRA:                  -1.292
REMARK UNBOUND:                -1.638
REMARK SMILES COc1c(O[C@@H]2O[C@@H](C(=O)[O-])[C@@H](O)[C@H](O)[C@H]2O)cc(O)c2c(=O)cc(-c3ccccc3)oc12
REMARK SMILES IDX 5 1 6 2 8 3 12 4 7 5 14 6 16 7 9 8 10 9 11 10 13 11 15 13
REMARK SMILES IDX 17 15 4 17 3 18 18 19 33 20 19 21 21 22 32 23 22 24 25 25
REMARK SMILES IDX 24 26 23 27 2 28 1 29 20 30 26 32 27 33 31 34 28 35 30 36
REMARK SMILES IDX 29 37
REMARK H PARENT 13 12 15 14 17 16 20 31
REMARK Flexibility Score: inf
ROOT
ATOM      1  O   UNL     1       1.768  51.483  58.293  1.00  0.00    -0.458 OA
ENDROOT
BRANCH   1   2
ATOM      2  C   UNL     1       1.203  50.979  57.071  1.00  0.00     0.339 C 
ATOM      3  C   UNL     1       0.207  49.115  58.090  1.00  0.00     0.199 C 
ATOM      4  C   UNL     1       1.019  48.075  57.297  1.00  0.00     0.180 C 
ATOM      5  O   UNL     1      -0.009  50.285  57.323  1.00  0.00    -0.328 OA
ATOM      6  C   UNL     1       2.368  48.677  56.846  1.00  0.00     0.181 C 
ATOM      7  C   UNL     1       2.216  50.109  56.276  1.00  0.00     0.214 C 
BRANCH   3   8
ATOM      8  C   UNL     1      -1.123  48.546  58.492  1.00  0.00     0.073 C 
ATOM      9  O   UNL     1      -1.249  47.305  58.671  1.00  0.00    -0.547 OA
ATOM     10  O   UNL     1      -2.233  49.372  58.625  1.00  0.00    -0.547 OA
ENDBRANCH   3   8
BRANCH   4  11
ATOM     11  O   UNL     1       0.283  47.649  56.175  1.00  0.00    -0.387 OA
ATOM     12  H   UNL     1       0.290  48.399  55.524  1.00  0.00     0.211 HD
ENDBRANCH   4  11
BRANCH   6  13
ATOM     13  O   UNL     1       3.309  48.642  57.893  1.00  0.00    -0.387 OA
ATOM     14  H   UNL     1       4.208  48.806  57.510  1.00  0.00     0.211 HD
ENDBRANCH   6  13
BRANCH   7  15
ATOM     15  O   UNL     1       1.861  50.063  54.915  1.00  0.00    -0.384 OA
ATOM     16  H   UNL     1       2.460  49.414  54.464  1.00  0.00     0.211 HD
ENDBRANCH   7  15
ENDBRANCH   1   2
BRANCH   1  17
ATOM     17  C   UNL     1       1.345  52.635  58.991  1.00  0.00     0.172 A 
ATOM     18  C   UNL     1       1.833  53.912  58.622  1.00  0.00     0.205 A 
ATOM     19  C   UNL     1       0.434  52.544  60.059  1.00  0.00     0.097 A 
ATOM     20  C   UNL     1       1.374  55.055  59.296  1.00  0.00     0.188 A 
ATOM     21  C   UNL     1      -0.049  53.675  60.719  1.00  0.00     0.134 A 
ATOM     22  C   UNL     1       0.434  54.962  60.354  1.00  0.00     0.111 A 
ATOM     23  O   UNL     1       1.855  56.238  58.922  1.00  0.00    -0.452 OA
ATOM     24  C   UNL     1       0.062  56.173  60.987  1.00  0.00     0.197 A 
ATOM     25  C   UNL     1       1.513  57.390  59.488  1.00  0.00     0.138 A 
ATOM     26  C   UNL     1       0.588  57.384  60.539  1.00  0.00     0.100 A 
ATOM     27  O   UNL     1      -0.727  56.201  61.965  1.00  0.00    -0.289 OA
BRANCH  18  28
ATOM     28  O   UNL     1       2.782  54.129  57.605  1.00  0.00    -0.490 OA
ATOM     29  C   UNL     1       2.524  54.244  56.211  1.00  0.00     0.278 C 
ENDBRANCH  18  28
BRANCH  21  30
ATOM     30  O   UNL     1      -1.011  53.446  61.710  1.00  0.00    -0.507 OA
ATOM     31  H   UNL     1      -1.527  52.588  61.835  1.00  0.00     0.293 HD
ENDBRANCH  21  30
BRANCH  25  32
ATOM     32  C   UNL     1       2.126  58.646  58.977  1.00  0.00     0.017 A 
ATOM     33  C   UNL     1       3.125  59.335  59.695  1.00  0.00     0.012 A 
ATOM     34  C   UNL     1       1.730  59.147  57.722  1.00  0.00     0.012 A 
ATOM     35  C   UNL     1       3.692  60.505  59.179  1.00  0.00     0.001 A 
ATOM     36  C   UNL     1       2.301  60.318  57.212  1.00  0.00     0.001 A 
ATOM     37  C   UNL     1       3.278  60.997  57.941  1.00  0.00     0.000 A 
ENDBRANCH  25  32
ENDBRANCH   1  17
TORSDOF 9
ENDMDL
