MODEL 1
REMARK VINA RESULT:    -3.811      0.000      0.000
REMARK INTER + INTRA:          -4.595
REMARK INTER:                  -4.479
REMARK INTRA:                  -0.116
REMARK UNBOUND:                -0.116
REMARK SMILES O=C([O-])CCC(=O)[O-]
REMARK SMILES IDX 4 1 2 2 1 3 3 4 5 5 6 6 7 7 8 8
REMARK H PARENT
REMARK Flexibility Score: inf
ROOT
ATOM      1  C   UNL     1     185.038 206.338  93.818  1.00  0.00     0.059 C 
ENDROOT
BRANCH   1   2
ATOM      2  C   UNL     1     185.414 206.197  95.261  1.00  0.00     0.042 C 
ATOM      3  O   UNL     1     184.556 205.834  96.108  1.00  0.00    -0.550 OA
ATOM      4  O   UNL     1     186.703 206.504  95.677  1.00  0.00    -0.550 OA
ENDBRANCH   1   2
BRANCH   1   5
ATOM      5  C   UNL     1     184.423 207.712  93.527  1.00  0.00     0.059 C 
BRANCH   5   6
ATOM      6  C   UNL     1     185.386 208.606  92.808  1.00  0.00     0.042 C 
ATOM      7  O   UNL     1     185.055 209.785  92.513  1.00  0.00    -0.550 OA
ATOM      8  O   UNL     1     186.662 208.152  92.500  1.00  0.00    -0.550 OA
ENDBRANCH   5   6
ENDBRANCH   1   5
TORSDOF 3
ENDMDL
MODEL 2
REMARK VINA RESULT:    -3.648      1.165      3.571
REMARK INTER + INTRA:          -4.404
REMARK INTER:                  -4.263
REMARK INTRA:                  -0.141
REMARK UNBOUND:                -0.116
REMARK SMILES O=C([O-])CCC(=O)[O-]
REMARK SMILES IDX 4 1 2 2 1 3 3 4 5 5 6 6 7 7 8 8
REMARK H PARENT
REMARK Flexibility Score: inf
ROOT
ATOM      1  C   UNL     1     184.782 208.625  92.803  1.00  0.00     0.059 C 
ENDROOT
BRANCH   1   2
ATOM      2  C   UNL     1     186.237 208.970  92.710  1.00  0.00     0.042 C 
ATOM      3  O   UNL     1     187.002 208.296  91.972  1.00  0.00    -0.550 OA
ATOM      4  O   UNL     1     186.753 210.012  93.470  1.00  0.00    -0.550 OA
ENDBRANCH   1   2
BRANCH   1   5
ATOM      5  C   UNL     1     184.573 207.137  93.109  1.00  0.00     0.059 C 
BRANCH   5   6
ATOM      6  C   UNL     1     184.780 206.838  94.562  1.00  0.00     0.042 C 
ATOM      7  O   UNL     1     183.855 207.050  95.389  1.00  0.00    -0.550 OA
ATOM      8  O   UNL     1     185.978 206.285  94.995  1.00  0.00    -0.550 OA
ENDBRANCH   5   6
ENDBRANCH   1   5
TORSDOF 3
ENDMDL
MODEL 3
REMARK VINA RESULT:    -3.590      1.320      3.599
REMARK INTER + INTRA:          -4.335
REMARK INTER:                  -4.216
REMARK INTRA:                  -0.120
REMARK UNBOUND:                -0.116
REMARK SMILES O=C([O-])CCC(=O)[O-]
REMARK SMILES IDX 4 1 2 2 1 3 3 4 5 5 6 6 7 7 8 8
REMARK H PARENT
REMARK Flexibility Score: inf
ROOT
ATOM      1  C   UNL     1     184.769 207.168  93.356  1.00  0.00     0.059 C 
ENDROOT
BRANCH   1   2
ATOM      2  C   UNL     1     184.443 208.506  92.767  1.00  0.00     0.042 C 
ATOM      3  O   UNL     1     183.306 208.720  92.269  1.00  0.00    -0.550 OA
ATOM      4  O   UNL     1     185.409 209.503  92.731  1.00  0.00    -0.550 OA
ENDBRANCH   1   2
BRANCH   1   5
ATOM      5  C   UNL     1     184.857 207.230  94.885  1.00  0.00     0.059 C 
BRANCH   5   6
ATOM      6  C   UNL     1     186.279 207.287  95.354  1.00  0.00     0.042 C 
ATOM      7  O   UNL     1     186.943 206.226  95.489  1.00  0.00    -0.550 OA
ATOM      8  O   UNL     1     186.882 208.513  95.601  1.00  0.00    -0.550 OA
ENDBRANCH   5   6
ENDBRANCH   1   5
TORSDOF 3
ENDMDL
MODEL 4
REMARK VINA RESULT:    -3.531      1.409      1.901
REMARK INTER + INTRA:          -4.267
REMARK INTER:                  -4.152
REMARK INTRA:                  -0.114
REMARK UNBOUND:                -0.116
REMARK SMILES O=C([O-])CCC(=O)[O-]
REMARK SMILES IDX 4 1 2 2 1 3 3 4 5 5 6 6 7 7 8 8
REMARK H PARENT
REMARK Flexibility Score: inf
ROOT
ATOM      1  C   UNL     1     185.095 207.457  94.984  1.00  0.00     0.059 C 
ENDROOT
BRANCH   1   2
ATOM      2  C   UNL     1     186.550 207.464  95.340  1.00  0.00     0.042 C 
ATOM      3  O   UNL     1     187.149 208.552  95.541  1.00  0.00    -0.550 OA
ATOM      4  O   UNL     1     187.253 206.268  95.410  1.00  0.00    -0.550 OA
ENDBRANCH   1   2
BRANCH   1   5
ATOM      5  C   UNL     1     184.882 207.235  93.483  1.00  0.00     0.059 C 
BRANCH   5   6
ATOM      6  C   UNL     1     184.542 208.513  92.778  1.00  0.00     0.042 C 
ATOM      7  O   UNL     1     183.393 208.680  92.291  1.00  0.00    -0.550 OA
ATOM      8  O   UNL     1     185.480 209.533  92.696  1.00  0.00    -0.550 OA
ENDBRANCH   5   6
ENDBRANCH   1   5
TORSDOF 3
ENDMDL
MODEL 5
REMARK VINA RESULT:    -3.526      1.389      4.113
REMARK INTER + INTRA:          -4.261
REMARK INTER:                  -4.140
REMARK INTRA:                  -0.122
REMARK UNBOUND:                -0.116
REMARK SMILES O=C([O-])CCC(=O)[O-]
REMARK SMILES IDX 4 1 2 2 1 3 3 4 5 5 6 6 7 7 8 8
REMARK H PARENT
REMARK Flexibility Score: inf
ROOT
ATOM      1  C   UNL     1     185.721 207.798  93.328  1.00  0.00     0.059 C 
ENDROOT
BRANCH   1   2
ATOM      2  C   UNL     1     184.872 208.857  92.693  1.00  0.00     0.042 C 
ATOM      3  O   UNL     1     185.353 209.994  92.449  1.00  0.00    -0.550 OA
ATOM      4  O   UNL     1     183.537 208.599  92.409  1.00  0.00    -0.550 OA
ENDBRANCH   1   2
BRANCH   1   5
ATOM      5  C   UNL     1     185.586 207.805  94.855  1.00  0.00     0.059 C 
BRANCH   5   6
ATOM      6  C   UNL     1     184.613 206.768  95.328  1.00  0.00     0.042 C 
ATOM      7  O   UNL     1     184.985 205.575  95.478  1.00  0.00    -0.550 OA
ATOM      8  O   UNL     1     183.309 207.129  95.642  1.00  0.00    -0.550 OA
ENDBRANCH   5   6
ENDBRANCH   1   5
TORSDOF 3
ENDMDL
MODEL 6
REMARK VINA RESULT:    -3.438     17.171     17.806
REMARK INTER + INTRA:          -4.157
REMARK INTER:                  -4.094
REMARK INTRA:                  -0.063
REMARK UNBOUND:                -0.116
REMARK SMILES O=C([O-])CCC(=O)[O-]
REMARK SMILES IDX 4 1 2 2 1 3 3 4 5 5 6 6 7 7 8 8
REMARK H PARENT
REMARK Flexibility Score: inf
ROOT
ATOM      1  C   UNL     1     191.320 193.205  84.402  1.00  0.00     0.059 C 
ENDROOT
BRANCH   1   2
ATOM      2  C   UNL     1     189.931 192.643  84.437  1.00  0.00     0.042 C 
ATOM      3  O   UNL     1     189.638 191.634  83.746  1.00  0.00    -0.550 OA
ATOM      4  O   UNL     1     188.951 193.261  85.204  1.00  0.00    -0.550 OA
ENDBRANCH   1   2
BRANCH   1   5
ATOM      5  C   UNL     1     191.644 193.822  83.037  1.00  0.00     0.059 C 
BRANCH   5   6
ATOM      6  C   UNL     1     191.331 195.287  83.005  1.00  0.00     0.042 C 
ATOM      7  O   UNL     1     190.138 195.680  83.077  1.00  0.00    -0.550 OA
ATOM      8  O   UNL     1     192.360 196.217  82.937  1.00  0.00    -0.550 OA
ENDBRANCH   5   6
ENDBRANCH   1   5
TORSDOF 3
ENDMDL
MODEL 7
REMARK VINA RESULT:    -3.433     17.210     18.113
REMARK INTER + INTRA:          -4.152
REMARK INTER:                  -4.092
REMARK INTRA:                  -0.060
REMARK UNBOUND:                -0.116
REMARK SMILES O=C([O-])CCC(=O)[O-]
REMARK SMILES IDX 4 1 2 2 1 3 3 4 5 5 6 6 7 7 8 8
REMARK H PARENT
REMARK Flexibility Score: inf
ROOT
ATOM      1  C   UNL     1     191.657 193.789  83.054  1.00  0.00     0.059 C 
ENDROOT
BRANCH   1   2
ATOM      2  C   UNL     1     191.338 195.253  83.024  1.00  0.00     0.042 C 
ATOM      3  O   UNL     1     190.141 195.641  83.046  1.00  0.00    -0.550 OA
ATOM      4  O   UNL     1     192.363 196.186  82.932  1.00  0.00    -0.550 OA
ENDBRANCH   1   2
BRANCH   1   5
ATOM      5  C   UNL     1     191.323 193.166  84.414  1.00  0.00     0.059 C 
BRANCH   5   6
ATOM      6  C   UNL     1     189.925 192.628  84.446  1.00  0.00     0.042 C 
ATOM      7  O   UNL     1     189.049 193.186  85.156  1.00  0.00    -0.550 OA
ATOM      8  O   UNL     1     189.582 191.536  83.659  1.00  0.00    -0.550 OA
ENDBRANCH   5   6
ENDBRANCH   1   5
TORSDOF 3
ENDMDL
MODEL 8
REMARK VINA RESULT:    -3.389      2.217      2.719
REMARK INTER + INTRA:          -4.099
REMARK INTER:                  -4.020
REMARK INTRA:                  -0.079
REMARK UNBOUND:                -0.116
REMARK SMILES O=C([O-])CCC(=O)[O-]
REMARK SMILES IDX 4 1 2 2 1 3 3 4 5 5 6 6 7 7 8 8
REMARK H PARENT
REMARK Flexibility Score: inf
ROOT
ATOM      1  C   UNL     1     187.060 208.263  92.922  1.00  0.00     0.059 C 
ENDROOT
BRANCH   1   2
ATOM      2  C   UNL     1     187.629 208.240  94.308  1.00  0.00     0.042 C 
ATOM      3  O   UNL     1     187.585 209.272  95.028  1.00  0.00    -0.550 OA
ATOM      4  O   UNL     1     188.244 207.091  94.788  1.00  0.00    -0.550 OA
ENDBRANCH   1   2
BRANCH   1   5
ATOM      5  C   UNL     1     185.761 209.075  92.858  1.00  0.00     0.059 C 
BRANCH   5   6
ATOM      6  C   UNL     1     184.557 208.186  92.791  1.00  0.00     0.042 C 
ATOM      7  O   UNL     1     183.449 208.650  92.415  1.00  0.00    -0.550 OA
ATOM      8  O   UNL     1     184.669 206.837  93.103  1.00  0.00    -0.550 OA
ENDBRANCH   5   6
ENDBRANCH   1   5
TORSDOF 3
ENDMDL
MODEL 9
REMARK VINA RESULT:    -3.385      1.604      2.118
REMARK INTER + INTRA:          -4.095
REMARK INTER:                  -3.978
REMARK INTRA:                  -0.117
REMARK UNBOUND:                -0.116
REMARK SMILES O=C([O-])CCC(=O)[O-]
REMARK SMILES IDX 4 1 2 2 1 3 3 4 5 5 6 6 7 7 8 8
REMARK H PARENT
REMARK Flexibility Score: inf
ROOT
ATOM      1  C   UNL     1     184.976 207.434  93.951  1.00  0.00     0.059 C 
ENDROOT
BRANCH   1   2
ATOM      2  C   UNL     1     184.470 206.738  95.177  1.00  0.00     0.042 C 
ATOM      3  O   UNL     1     183.382 207.089  95.702  1.00  0.00    -0.550 OA
ATOM      4  O   UNL     1     185.223 205.728  95.763  1.00  0.00    -0.550 OA
ENDBRANCH   1   2
BRANCH   1   5
ATOM      5  C   UNL     1     186.055 208.467  94.292  1.00  0.00     0.059 C 
BRANCH   5   6
ATOM      6  C   UNL     1     187.415 208.009  93.861  1.00  0.00     0.042 C 
ATOM      7  O   UNL     1     187.865 208.340  92.733  1.00  0.00    -0.550 OA
ATOM      8  O   UNL     1     188.200 207.252  94.721  1.00  0.00    -0.550 OA
ENDBRANCH   5   6
ENDBRANCH   1   5
TORSDOF 3
ENDMDL
