MODEL 1
REMARK VINA RESULT:    -4.852      0.000      0.000
REMARK INTER + INTRA:          -5.287
REMARK INTER:                  -5.136
REMARK INTRA:                  -0.151
REMARK UNBOUND:                -0.151
REMARK SMILES C=C1CC=C(C(C)C)CC1
REMARK SMILES IDX 5 1 4 2 3 3 2 4 1 5 10 6 9 7 6 8 7 9 8 10
REMARK H PARENT
REMARK Flexibility Score: inf
ROOT
ATOM      1  C   UNL     1       9.810   6.017  29.122  1.00  0.00    -0.071 C 
ATOM      2  C   UNL     1      10.188   7.039  28.328  1.00  0.00    -0.023 C 
ATOM      3  C   UNL     1       9.766   8.456  28.626  1.00  0.00     0.057 C 
ATOM      4  C   UNL     1       9.735   8.706  30.119  1.00  0.00    -0.073 C 
ATOM      5  C   UNL     1       9.921   9.943  30.599  1.00  0.00     0.008 C 
ATOM      6  C   UNL     1       9.457   7.563  31.074  1.00  0.00     0.035 C 
ATOM      7  C   UNL     1       8.945   6.322  30.330  1.00  0.00     0.035 C 
ENDROOT
BRANCH   1   8
ATOM      8  C   UNL     1      10.306   4.606  28.844  1.00  0.00     0.008 C 
ATOM      9  C   UNL     1      10.353   3.781  30.135  1.00  0.00     0.012 C 
ATOM     10  C   UNL     1       9.447   3.917  27.777  1.00  0.00     0.012 C 
ENDBRANCH   1   8
TORSDOF 1
ENDMDL
MODEL 2
REMARK VINA RESULT:    -4.650      1.793      3.542
REMARK INTER + INTRA:          -5.073
REMARK INTER:                  -4.880
REMARK INTRA:                  -0.193
REMARK UNBOUND:                -0.151
REMARK SMILES C=C1CC=C(C(C)C)CC1
REMARK SMILES IDX 5 1 4 2 3 3 2 4 1 5 10 6 9 7 6 8 7 9 8 10
REMARK H PARENT
REMARK Flexibility Score: inf
ROOT
ATOM      1  C   UNL     1      10.102   5.974  28.797  1.00  0.00    -0.071 C 
ATOM      2  C   UNL     1      11.191   5.223  28.537  1.00  0.00    -0.023 C 
ATOM      3  C   UNL     1      11.992   5.421  27.275  1.00  0.00     0.057 C 
ATOM      4  C   UNL     1      12.048   6.886  26.897  1.00  0.00    -0.073 C 
ATOM      5  C   UNL     1      13.082   7.359  26.187  1.00  0.00     0.008 C 
ATOM      6  C   UNL     1      10.917   7.815  27.289  1.00  0.00     0.035 C 
ATOM      7  C   UNL     1       9.695   7.030  27.788  1.00  0.00     0.035 C 
ENDROOT
BRANCH   1   8
ATOM      8  C   UNL     1       9.351   5.807  30.109  1.00  0.00     0.008 C 
ATOM      9  C   UNL     1      10.169   4.972  31.102  1.00  0.00     0.012 C 
ATOM     10  C   UNL     1       8.973   7.166  30.709  1.00  0.00     0.012 C 
ENDBRANCH   1   8
TORSDOF 1
ENDMDL
MODEL 3
REMARK VINA RESULT:    -4.593     14.742     16.153
REMARK INTER + INTRA:          -5.013
REMARK INTER:                  -4.826
REMARK INTRA:                  -0.187
REMARK UNBOUND:                -0.151
REMARK SMILES C=C1CC=C(C(C)C)CC1
REMARK SMILES IDX 5 1 4 2 3 3 2 4 1 5 10 6 9 7 6 8 7 9 8 10
REMARK H PARENT
REMARK Flexibility Score: inf
ROOT
ATOM      1  C   UNL     1       6.580   7.041  13.950  1.00  0.00    -0.071 C 
ATOM      2  C   UNL     1       5.429   6.698  13.337  1.00  0.00    -0.023 C 
ATOM      3  C   UNL     1       4.119   6.692  14.084  1.00  0.00     0.057 C 
ATOM      4  C   UNL     1       4.065   7.826  15.086  1.00  0.00    -0.073 C 
ATOM      5  C   UNL     1       2.885   8.344  15.454  1.00  0.00     0.008 C 
ATOM      6  C   UNL     1       5.344   8.354  15.703  1.00  0.00     0.035 C 
ATOM      7  C   UNL     1       6.531   7.424  15.416  1.00  0.00     0.035 C 
ENDROOT
BRANCH   1   8
ATOM      8  C   UNL     1       7.878   7.110  13.160  1.00  0.00     0.008 C 
ATOM      9  C   UNL     1       7.751   6.345  11.837  1.00  0.00     0.012 C 
ATOM     10  C   UNL     1       8.304   8.563  12.920  1.00  0.00     0.012 C 
ENDBRANCH   1   8
TORSDOF 1
ENDMDL
MODEL 4
REMARK VINA RESULT:    -4.562     14.503     16.303
REMARK INTER + INTRA:          -4.979
REMARK INTER:                  -4.817
REMARK INTRA:                  -0.163
REMARK UNBOUND:                -0.151
REMARK SMILES C=C1CC=C(C(C)C)CC1
REMARK SMILES IDX 5 1 4 2 3 3 2 4 1 5 10 6 9 7 6 8 7 9 8 10
REMARK H PARENT
REMARK Flexibility Score: inf
ROOT
ATOM      1  C   UNL     1       6.738   7.066  14.763  1.00  0.00    -0.071 C 
ATOM      2  C   UNL     1       7.879   6.714  14.136  1.00  0.00    -0.023 C 
ATOM      3  C   UNL     1       7.873   5.708  13.012  1.00  0.00     0.057 C 
ATOM      4  C   UNL     1       6.627   5.855  12.164  1.00  0.00    -0.073 C 
ATOM      5  C   UNL     1       6.643   5.488  10.875  1.00  0.00     0.008 C 
ATOM      6  C   UNL     1       5.348   6.384  12.780  1.00  0.00     0.035 C 
ATOM      7  C   UNL     1       5.439   6.425  14.312  1.00  0.00     0.035 C 
ENDROOT
BRANCH   1   8
ATOM      8  C   UNL     1       6.756   8.134  15.844  1.00  0.00     0.008 C 
ATOM      9  C   UNL     1       5.958   9.368  15.405  1.00  0.00     0.012 C 
ATOM     10  C   UNL     1       6.234   7.584  17.176  1.00  0.00     0.012 C 
ENDBRANCH   1   8
TORSDOF 1
ENDMDL
MODEL 5
REMARK VINA RESULT:    -4.533      2.141      3.475
REMARK INTER + INTRA:          -4.949
REMARK INTER:                  -4.789
REMARK INTRA:                  -0.161
REMARK UNBOUND:                -0.151
REMARK SMILES C=C1CC=C(C(C)C)CC1
REMARK SMILES IDX 5 1 4 2 3 3 2 4 1 5 10 6 9 7 6 8 7 9 8 10
REMARK H PARENT
REMARK Flexibility Score: inf
ROOT
ATOM      1  C   UNL     1      10.561   5.815  28.022  1.00  0.00    -0.071 C 
ATOM      2  C   UNL     1      10.028   7.041  27.837  1.00  0.00    -0.023 C 
ATOM      3  C   UNL     1      10.877   8.199  27.376  1.00  0.00     0.057 C 
ATOM      4  C   UNL     1      11.926   7.737  26.386  1.00  0.00    -0.073 C 
ATOM      5  C   UNL     1      12.409   8.588  25.470  1.00  0.00     0.008 C 
ATOM      6  C   UNL     1      12.460   6.321  26.452  1.00  0.00     0.035 C 
ATOM      7  C   UNL     1      12.041   5.624  27.754  1.00  0.00     0.035 C 
ENDROOT
BRANCH   1   8
ATOM      8  C   UNL     1       9.673   4.646  28.418  1.00  0.00     0.008 C 
ATOM      9  C   UNL     1       9.755   3.523  27.377  1.00  0.00     0.012 C 
ATOM     10  C   UNL     1      10.027   4.131  29.817  1.00  0.00     0.012 C 
ENDBRANCH   1   8
TORSDOF 1
ENDMDL
MODEL 6
REMARK VINA RESULT:    -4.488      2.057      3.123
REMARK INTER + INTRA:          -4.902
REMARK INTER:                  -4.712
REMARK INTRA:                  -0.190
REMARK UNBOUND:                -0.151
REMARK SMILES C=C1CC=C(C(C)C)CC1
REMARK SMILES IDX 5 1 4 2 3 3 2 4 1 5 10 6 9 7 6 8 7 9 8 10
REMARK H PARENT
REMARK Flexibility Score: inf
ROOT
ATOM      1  C   UNL     1      11.068   5.831  27.576  1.00  0.00    -0.071 C 
ATOM      2  C   UNL     1      10.274   6.908  27.408  1.00  0.00    -0.023 C 
ATOM      3  C   UNL     1       9.065   7.129  28.282  1.00  0.00     0.057 C 
ATOM      4  C   UNL     1       9.335   6.675  29.701  1.00  0.00    -0.073 C 
ATOM      5  C   UNL     1       8.673   7.233  30.724  1.00  0.00     0.008 C 
ATOM      6  C   UNL     1      10.329   5.562  29.965  1.00  0.00     0.035 C 
ATOM      7  C   UNL     1      10.719   4.839  28.669  1.00  0.00     0.035 C 
ENDROOT
BRANCH   1   8
ATOM      8  C   UNL     1      12.322   5.665  26.732  1.00  0.00     0.008 C 
ATOM      9  C   UNL     1      12.410   6.762  25.665  1.00  0.00     0.012 C 
ATOM     10  C   UNL     1      13.580   5.643  27.607  1.00  0.00     0.012 C 
ENDBRANCH   1   8
TORSDOF 1
ENDMDL
MODEL 7
REMARK VINA RESULT:    -4.454     14.928     16.435
REMARK INTER + INTRA:          -4.866
REMARK INTER:                  -4.710
REMARK INTRA:                  -0.156
REMARK UNBOUND:                -0.151
REMARK SMILES C=C1CC=C(C(C)C)CC1
REMARK SMILES IDX 5 1 4 2 3 3 2 4 1 5 10 6 9 7 6 8 7 9 8 10
REMARK H PARENT
REMARK Flexibility Score: inf
ROOT
ATOM      1  C   UNL     1       5.372   6.869  14.213  1.00  0.00    -0.071 C 
ATOM      2  C   UNL     1       6.187   7.766  14.805  1.00  0.00    -0.023 C 
ATOM      3  C   UNL     1       7.578   8.021  14.280  1.00  0.00     0.057 C 
ATOM      4  C   UNL     1       7.606   7.943  12.768  1.00  0.00    -0.073 C 
ATOM      5  C   UNL     1       8.525   8.628  12.076  1.00  0.00     0.008 C 
ATOM      6  C   UNL     1       6.616   7.060  12.036  1.00  0.00     0.035 C 
ATOM      7  C   UNL     1       5.885   6.116  13.001  1.00  0.00     0.035 C 
ENDROOT
BRANCH   1   8
ATOM      8  C   UNL     1       3.949   6.679  14.715  1.00  0.00     0.008 C 
ATOM      9  C   UNL     1       3.943   6.079  16.126  1.00  0.00     0.012 C 
ATOM     10  C   UNL     1       3.166   7.997  14.671  1.00  0.00     0.012 C 
ENDBRANCH   1   8
TORSDOF 1
ENDMDL
MODEL 8
REMARK VINA RESULT:    -4.357     14.538     15.918
REMARK INTER + INTRA:          -4.763
REMARK INTER:                  -4.609
REMARK INTRA:                  -0.154
REMARK UNBOUND:                -0.151
REMARK SMILES C=C1CC=C(C(C)C)CC1
REMARK SMILES IDX 5 1 4 2 3 3 2 4 1 5 10 6 9 7 6 8 7 9 8 10
REMARK H PARENT
REMARK Flexibility Score: inf
ROOT
ATOM      1  C   UNL     1       5.999   6.837  13.622  1.00  0.00    -0.071 C 
ATOM      2  C   UNL     1       6.563   7.802  14.377  1.00  0.00    -0.023 C 
ATOM      3  C   UNL     1       5.717   8.767  15.169  1.00  0.00     0.057 C 
ATOM      4  C   UNL     1       4.488   8.079  15.721  1.00  0.00    -0.073 C 
ATOM      5  C   UNL     1       3.905   8.534  16.839  1.00  0.00     0.008 C 
ATOM      6  C   UNL     1       3.890   6.893  14.992  1.00  0.00     0.035 C 
ATOM      7  C   UNL     1       4.486   6.742  13.585  1.00  0.00     0.035 C 
ENDROOT
BRANCH   1   8
ATOM      8  C   UNL     1       6.871   5.830  12.889  1.00  0.00     0.008 C 
ATOM      9  C   UNL     1       7.625   6.500  11.735  1.00  0.00     0.012 C 
ATOM     10  C   UNL     1       7.839   5.132  13.851  1.00  0.00     0.012 C 
ENDBRANCH   1   8
TORSDOF 1
ENDMDL
MODEL 9
REMARK VINA RESULT:    -4.356      7.856      9.142
REMARK INTER + INTRA:          -4.761
REMARK INTER:                  -4.619
REMARK INTRA:                  -0.143
REMARK UNBOUND:                -0.151
REMARK SMILES C=C1CC=C(C(C)C)CC1
REMARK SMILES IDX 5 1 4 2 3 3 2 4 1 5 10 6 9 7 6 8 7 9 8 10
REMARK H PARENT
REMARK Flexibility Score: inf
ROOT
ATOM      1  C   UNL     1      15.276   8.716  23.625  1.00  0.00    -0.071 C 
ATOM      2  C   UNL     1      15.740   9.943  23.937  1.00  0.00    -0.023 C 
ATOM      3  C   UNL     1      16.845  10.125  24.948  1.00  0.00     0.057 C 
ATOM      4  C   UNL     1      17.854   9.000  24.852  1.00  0.00    -0.073 C 
ATOM      5  C   UNL     1      19.125   9.202  25.225  1.00  0.00     0.008 C 
ATOM      6  C   UNL     1      17.420   7.631  24.367  1.00  0.00     0.035 C 
ATOM      7  C   UNL     1      15.890   7.514  24.315  1.00  0.00     0.035 C 
ENDROOT
BRANCH   1   8
ATOM      8  C   UNL     1      14.212   8.550  22.551  1.00  0.00     0.008 C 
ATOM      9  C   UNL     1      12.824   8.383  23.180  1.00  0.00     0.012 C 
ATOM     10  C   UNL     1      14.234   9.723  21.564  1.00  0.00     0.012 C 
ENDBRANCH   1   8
TORSDOF 1
ENDMDL
