MODEL 1
REMARK VINA RESULT:    13.145      0.000      0.000
REMARK INTER + INTRA:          22.539
REMARK INTER:                  23.135
REMARK INTRA:                  -0.596
REMARK UNBOUND:                -0.596
REMARK SMILES CCCCCCCCCCCCCCC(=O)[O-]
REMARK SMILES IDX 9 1 10 2 11 3 12 4 13 5 14 6 15 7 16 8 17 9 8 10 7 11 6 12
REMARK SMILES IDX 5 13 4 14 3 15 2 16 1 17
REMARK H PARENT
REMARK Flexibility Score: inf
ROOT
ATOM      1  C   UNL     1      -6.095 -10.350  25.023  1.00  0.00     0.000 C 
ENDROOT
BRANCH   1   2
ATOM      2  C   UNL     1      -5.444  -8.984  24.750  1.00  0.00     0.000 C 
BRANCH   2   3
ATOM      3  C   UNL     1      -3.973  -8.897  25.209  1.00  0.00     0.000 C 
BRANCH   3   4
ATOM      4  C   UNL     1      -3.010  -8.672  24.029  1.00  0.00     0.000 C 
BRANCH   4   5
ATOM      5  C   UNL     1      -1.633  -8.157  24.477  1.00  0.00     0.006 C 
BRANCH   5   6
ATOM      6  C   UNL     1      -0.926  -9.122  25.437  1.00  0.00     0.053 C 
BRANCH   6   7
ATOM      7  C   UNL     1       0.142  -8.406  26.203  1.00  0.00     0.041 C 
ATOM      8  O   UNL     1       0.841  -9.027  27.047  1.00  0.00    -0.550 OA
ATOM      9  O   UNL     1       0.400  -7.066  25.949  1.00  0.00    -0.550 OA
ENDBRANCH   6   7
ENDBRANCH   5   6
ENDBRANCH   4   5
ENDBRANCH   3   4
ENDBRANCH   2   3
ENDBRANCH   1   2
BRANCH   1  10
ATOM     10  C   UNL     1      -6.050 -11.287  23.805  1.00  0.00     0.000 C 
BRANCH  10  11
ATOM     11  C   UNL     1      -6.426 -12.734  24.160  1.00  0.00    -0.000 C 
BRANCH  11  12
ATOM     12  C   UNL     1      -6.113 -13.087  25.625  1.00  0.00    -0.000 C 
BRANCH  12  13
ATOM     13  C   UNL     1      -4.859 -13.964  25.765  1.00  0.00    -0.000 C 
BRANCH  13  14
ATOM     14  C   UNL     1      -5.174 -15.356  26.342  1.00  0.00    -0.000 C 
BRANCH  14  15
ATOM     15  C   UNL     1      -4.499 -16.489  25.553  1.00  0.00    -0.000 C 
BRANCH  15  16
ATOM     16  C   UNL     1      -5.322 -17.786  25.565  1.00  0.00    -0.003 C 
ATOM     17  C   UNL     1      -5.572 -18.290  24.145  1.00  0.00     0.004 C 
ENDBRANCH  15  16
ENDBRANCH  14  15
ENDBRANCH  13  14
ENDBRANCH  12  13
ENDBRANCH  11  12
ENDBRANCH  10  11
ENDBRANCH   1  10
TORSDOF 13
ENDMDL
MODEL 2
REMARK VINA RESULT:    13.189      4.074      8.157
REMARK INTER + INTRA:          22.616
REMARK INTER:                  23.127
REMARK INTRA:                  -0.511
REMARK UNBOUND:                -0.596
REMARK SMILES CCCCCCCCCCCCCCC(=O)[O-]
REMARK SMILES IDX 9 1 10 2 11 3 12 4 13 5 14 6 15 7 16 8 17 9 8 10 7 11 6 12
REMARK SMILES IDX 5 13 4 14 3 15 2 16 1 17
REMARK H PARENT
REMARK Flexibility Score: inf
ROOT
ATOM      1  C   UNL     1      -6.166 -11.436  24.178  1.00  0.00     0.000 C 
ENDROOT
BRANCH   1   2
ATOM      2  C   UNL     1      -6.524 -12.656  25.044  1.00  0.00     0.000 C 
BRANCH   2   3
ATOM      3  C   UNL     1      -5.511 -13.815  24.930  1.00  0.00     0.000 C 
BRANCH   3   4
ATOM      4  C   UNL     1      -5.136 -14.394  26.307  1.00  0.00     0.000 C 
BRANCH   4   5
ATOM      5  C   UNL     1      -5.173 -15.930  26.334  1.00  0.00     0.006 C 
BRANCH   5   6
ATOM      6  C   UNL     1      -4.243 -16.562  25.291  1.00  0.00     0.053 C 
BRANCH   6   7
ATOM      7  C   UNL     1      -4.918 -17.720  24.624  1.00  0.00     0.041 C 
ATOM      8  O   UNL     1      -5.338 -18.689  25.309  1.00  0.00    -0.550 OA
ATOM      9  O   UNL     1      -5.128 -17.705  23.251  1.00  0.00    -0.550 OA
ENDBRANCH   6   7
ENDBRANCH   5   6
ENDBRANCH   4   5
ENDBRANCH   3   4
ENDBRANCH   2   3
ENDBRANCH   1   2
BRANCH   1  10
ATOM     10  C   UNL     1      -5.979 -10.152  25.003  1.00  0.00     0.000 C 
BRANCH  10  11
ATOM     11  C   UNL     1      -5.180  -9.078  24.248  1.00  0.00    -0.000 C 
BRANCH  11  12
ATOM     12  C   UNL     1      -3.873  -8.696  24.965  1.00  0.00    -0.000 C 
BRANCH  12  13
ATOM     13  C   UNL     1      -2.644  -8.812  24.050  1.00  0.00    -0.000 C 
BRANCH  13  14
ATOM     14  C   UNL     1      -1.379  -8.203  24.682  1.00  0.00    -0.000 C 
BRANCH  14  15
ATOM     15  C   UNL     1      -0.693  -9.159  25.671  1.00  0.00    -0.000 C 
BRANCH  15  16
ATOM     16  C   UNL     1       0.307  -8.439  26.588  1.00  0.00    -0.003 C 
ATOM     17  C   UNL     1       0.563  -7.012  26.107  1.00  0.00     0.004 C 
ENDBRANCH  15  16
ENDBRANCH  14  15
ENDBRANCH  13  14
ENDBRANCH  12  13
ENDBRANCH  11  12
ENDBRANCH  10  11
ENDBRANCH   1  10
TORSDOF 13
ENDMDL
MODEL 3
REMARK VINA RESULT:    14.570      4.307      8.095
REMARK INTER + INTRA:          25.046
REMARK INTER:                  25.686
REMARK INTRA:                  -0.640
REMARK UNBOUND:                -0.596
REMARK SMILES CCCCCCCCCCCCCCC(=O)[O-]
REMARK SMILES IDX 9 1 10 2 11 3 12 4 13 5 14 6 15 7 16 8 17 9 8 10 7 11 6 12
REMARK SMILES IDX 5 13 4 14 3 15 2 16 1 17
REMARK H PARENT
REMARK Flexibility Score: inf
ROOT
ATOM      1  C   UNL     1      -6.654 -12.341  23.931  1.00  0.00     0.000 C 
ENDROOT
BRANCH   1   2
ATOM      2  C   UNL     1      -6.203 -12.859  25.308  1.00  0.00     0.000 C 
BRANCH   2   3
ATOM      3  C   UNL     1      -5.339 -14.136  25.236  1.00  0.00     0.000 C 
BRANCH   3   4
ATOM      4  C   UNL     1      -4.983 -14.674  26.634  1.00  0.00     0.000 C 
BRANCH   4   5
ATOM      5  C   UNL     1      -4.803 -16.200  26.655  1.00  0.00     0.006 C 
BRANCH   5   6
ATOM      6  C   UNL     1      -4.540 -16.782  25.260  1.00  0.00     0.053 C 
BRANCH   6   7
ATOM      7  C   UNL     1      -5.373 -18.005  25.039  1.00  0.00     0.041 C 
ATOM      8  O   UNL     1      -6.244 -18.340  25.885  1.00  0.00    -0.550 OA
ATOM      9  O   UNL     1      -5.224 -18.747  23.875  1.00  0.00    -0.550 OA
ENDBRANCH   6   7
ENDBRANCH   5   6
ENDBRANCH   4   5
ENDBRANCH   3   4
ENDBRANCH   2   3
ENDBRANCH   1   2
BRANCH   1  10
ATOM     10  C   UNL     1      -6.077 -10.955  23.597  1.00  0.00     0.000 C 
BRANCH  10  11
ATOM     11  C   UNL     1      -6.058 -10.016  24.814  1.00  0.00    -0.000 C 
BRANCH  11  12
ATOM     12  C   UNL     1      -5.110  -8.819  24.627  1.00  0.00    -0.000 C 
BRANCH  12  13
ATOM     13  C   UNL     1      -3.689  -9.108  25.136  1.00  0.00    -0.000 C 
BRANCH  13  14
ATOM     14  C   UNL     1      -2.604  -8.468  24.251  1.00  0.00    -0.000 C 
BRANCH  14  15
ATOM     15  C   UNL     1      -1.188  -8.937  24.621  1.00  0.00    -0.000 C 
BRANCH  15  16
ATOM     16  C   UNL     1      -0.512  -8.014  25.647  1.00  0.00    -0.003 C 
ATOM     17  C   UNL     1       0.365  -8.813  26.608  1.00  0.00     0.004 C 
ENDBRANCH  15  16
ENDBRANCH  14  15
ENDBRANCH  13  14
ENDBRANCH  12  13
ENDBRANCH  11  12
ENDBRANCH  10  11
ENDBRANCH   1  10
TORSDOF 13
ENDMDL
MODEL 4
REMARK VINA RESULT:    14.719      4.257      8.250
REMARK INTER + INTRA:          25.309
REMARK INTER:                  26.018
REMARK INTRA:                  -0.709
REMARK UNBOUND:                -0.596
REMARK SMILES CCCCCCCCCCCCCCC(=O)[O-]
REMARK SMILES IDX 9 1 10 2 11 3 12 4 13 5 14 6 15 7 16 8 17 9 8 10 7 11 6 12
REMARK SMILES IDX 5 13 4 14 3 15 2 16 1 17
REMARK H PARENT
REMARK Flexibility Score: inf
ROOT
ATOM      1  C   UNL     1      -6.495 -12.222  24.018  1.00  0.00     0.000 C 
ENDROOT
BRANCH   1   2
ATOM      2  C   UNL     1      -6.137 -12.793  25.401  1.00  0.00     0.000 C 
BRANCH   2   3
ATOM      3  C   UNL     1      -5.280 -14.075  25.339  1.00  0.00     0.000 C 
BRANCH   3   4
ATOM      4  C   UNL     1      -5.292 -14.845  26.672  1.00  0.00     0.000 C 
BRANCH   4   5
ATOM      5  C   UNL     1      -4.982 -16.340  26.496  1.00  0.00     0.006 C 
BRANCH   5   6
ATOM      6  C   UNL     1      -4.301 -16.648  25.157  1.00  0.00     0.053 C 
BRANCH   6   7
ATOM      7  C   UNL     1      -4.976 -17.800  24.481  1.00  0.00     0.041 C 
ATOM      8  O   UNL     1      -5.437 -18.753  25.162  1.00  0.00    -0.550 OA
ATOM      9  O   UNL     1      -5.142 -17.796  23.102  1.00  0.00    -0.550 OA
ENDBRANCH   6   7
ENDBRANCH   5   6
ENDBRANCH   4   5
ENDBRANCH   3   4
ENDBRANCH   2   3
ENDBRANCH   1   2
BRANCH   1  10
ATOM     10  C   UNL     1      -5.861 -10.845  23.759  1.00  0.00     0.000 C 
BRANCH  10  11
ATOM     11  C   UNL     1      -5.899  -9.936  24.998  1.00  0.00    -0.000 C 
BRANCH  11  12
ATOM     12  C   UNL     1      -4.931  -8.745  24.891  1.00  0.00    -0.000 C 
BRANCH  12  13
ATOM     13  C   UNL     1      -3.491  -9.182  24.583  1.00  0.00    -0.000 C 
BRANCH  13  14
ATOM     14  C   UNL     1      -2.646  -8.045  23.981  1.00  0.00    -0.000 C 
BRANCH  14  15
ATOM     15  C   UNL     1      -3.404  -7.250  22.907  1.00  0.00    -0.000 C 
BRANCH  15  16
ATOM     16  C   UNL     1      -2.583  -7.068  21.620  1.00  0.00    -0.003 C 
ATOM     17  C   UNL     1      -3.492  -6.999  20.396  1.00  0.00     0.004 C 
ENDBRANCH  15  16
ENDBRANCH  14  15
ENDBRANCH  13  14
ENDBRANCH  12  13
ENDBRANCH  11  12
ENDBRANCH  10  11
ENDBRANCH   1  10
TORSDOF 13
ENDMDL
MODEL 5
REMARK VINA RESULT:    14.951      1.316      2.250
REMARK INTER + INTRA:          25.717
REMARK INTER:                  26.529
REMARK INTRA:                  -0.812
REMARK UNBOUND:                -0.596
REMARK SMILES CCCCCCCCCCCCCCC(=O)[O-]
REMARK SMILES IDX 9 1 10 2 11 3 12 4 13 5 14 6 15 7 16 8 17 9 8 10 7 11 6 12
REMARK SMILES IDX 5 13 4 14 3 15 2 16 1 17
REMARK H PARENT
REMARK Flexibility Score: inf
ROOT
ATOM      1  C   UNL     1      -6.552 -12.132  23.818  1.00  0.00     0.000 C 
ENDROOT
BRANCH   1   2
ATOM      2  C   UNL     1      -5.755 -10.817  23.785  1.00  0.00     0.000 C 
BRANCH   2   3
ATOM      3  C   UNL     1      -6.025  -9.899  24.995  1.00  0.00     0.000 C 
BRANCH   3   4
ATOM      4  C   UNL     1      -4.832  -8.974  25.298  1.00  0.00     0.000 C 
BRANCH   4   5
ATOM      5  C   UNL     1      -3.929  -8.749  24.075  1.00  0.00     0.006 C 
BRANCH   5   6
ATOM      6  C   UNL     1      -2.634  -8.006  24.425  1.00  0.00     0.053 C 
BRANCH   6   7
ATOM      7  C   UNL     1      -1.515  -8.978  24.634  1.00  0.00     0.041 C 
ATOM      8  O   UNL     1      -0.713  -8.826  25.593  1.00  0.00    -0.550 OA
ATOM      9  O   UNL     1      -1.388 -10.081  23.799  1.00  0.00    -0.550 OA
ENDBRANCH   6   7
ENDBRANCH   5   6
ENDBRANCH   4   5
ENDBRANCH   3   4
ENDBRANCH   2   3
ENDBRANCH   1   2
BRANCH   1  10
ATOM     10  C   UNL     1      -6.377 -12.903  25.137  1.00  0.00     0.000 C 
BRANCH  10  11
ATOM     11  C   UNL     1      -5.320 -14.015  25.032  1.00  0.00    -0.000 C 
BRANCH  11  12
ATOM     12  C   UNL     1      -4.824 -14.495  26.407  1.00  0.00    -0.000 C 
BRANCH  12  13
ATOM     13  C   UNL     1      -5.234 -15.945  26.707  1.00  0.00    -0.000 C 
BRANCH  13  14
ATOM     14  C   UNL     1      -4.564 -16.955  25.758  1.00  0.00    -0.000 C 
BRANCH  14  15
ATOM     15  C   UNL     1      -5.337 -18.280  25.665  1.00  0.00    -0.000 C 
BRANCH  15  16
ATOM     16  C   UNL     1      -5.838 -18.571  24.242  1.00  0.00    -0.003 C 
ATOM     17  C   UNL     1      -5.098 -17.717  23.215  1.00  0.00     0.004 C 
ENDBRANCH  15  16
ENDBRANCH  14  15
ENDBRANCH  13  14
ENDBRANCH  12  13
ENDBRANCH  11  12
ENDBRANCH  10  11
ENDBRANCH   1  10
TORSDOF 13
ENDMDL
