MODEL 1
REMARK VINA RESULT:    -4.397      0.000      0.000
REMARK INTER + INTRA:          -7.645
REMARK INTER:                  -6.968
REMARK INTRA:                  -0.677
REMARK UNBOUND:                -0.677
REMARK SMILES CCCCCCCCCCCC(=O)[O-]
REMARK SMILES IDX 7 1 8 2 9 3 10 4 11 5 12 6 13 7 14 8 6 9 5 10 4 11 3 12 2 13
REMARK SMILES IDX 1 14
REMARK H PARENT
REMARK Flexibility Score: inf
ROOT
ATOM      1  C   UNL     1     -44.788  26.455  -1.036  1.00  0.00     0.000 C 
ENDROOT
BRANCH   1   2
ATOM      2  C   UNL     1     -44.834  27.990  -0.994  1.00  0.00     0.000 C 
BRANCH   2   3
ATOM      3  C   UNL     1     -43.590  28.598  -0.321  1.00  0.00     0.000 C 
BRANCH   3   4
ATOM      4  C   UNL     1     -42.960  27.659   0.723  1.00  0.00     0.006 C 
BRANCH   4   5
ATOM      5  C   UNL     1     -43.282  28.028   2.180  1.00  0.00     0.053 C 
BRANCH   5   6
ATOM      6  C   UNL     1     -44.448  27.248   2.709  1.00  0.00     0.041 C 
ATOM      7  O   UNL     1     -45.625  27.632   2.477  1.00  0.00    -0.550 OA
ATOM      8  O   UNL     1     -44.233  26.081   3.430  1.00  0.00    -0.550 OA
ENDBRANCH   5   6
ENDBRANCH   4   5
ENDBRANCH   3   4
ENDBRANCH   2   3
ENDBRANCH   1   2
BRANCH   1   9
ATOM      9  C   UNL     1     -45.447  25.880  -2.301  1.00  0.00     0.000 C 
BRANCH   9  10
ATOM     10  C   UNL     1     -46.361  26.897  -3.005  1.00  0.00    -0.000 C 
BRANCH  10  11
ATOM     11  C   UNL     1     -46.377  26.718  -4.530  1.00  0.00    -0.000 C 
BRANCH  11  12
ATOM     12  C   UNL     1     -46.339  28.077  -5.241  1.00  0.00    -0.000 C 
BRANCH  12  13
ATOM     13  C   UNL     1     -45.621  27.971  -6.591  1.00  0.00    -0.003 C 
ATOM     14  C   UNL     1     -45.604  26.531  -7.094  1.00  0.00     0.004 C 
ENDBRANCH  12  13
ENDBRANCH  11  12
ENDBRANCH  10  11
ENDBRANCH   9  10
ENDBRANCH   1   9
TORSDOF 10
ENDMDL
MODEL 2
REMARK VINA RESULT:    -4.150      0.816      1.218
REMARK INTER + INTRA:          -7.254
REMARK INTER:                  -6.683
REMARK INTRA:                  -0.571
REMARK UNBOUND:                -0.677
REMARK SMILES CCCCCCCCCCCC(=O)[O-]
REMARK SMILES IDX 7 1 8 2 9 3 10 4 11 5 12 6 13 7 14 8 6 9 5 10 4 11 3 12 2 13
REMARK SMILES IDX 1 14
REMARK H PARENT
REMARK Flexibility Score: inf
ROOT
ATOM      1  C   UNL     1     -44.567  27.001  -0.413  1.00  0.00     0.000 C 
ENDROOT
BRANCH   1   2
ATOM      2  C   UNL     1     -43.280  27.832  -0.285  1.00  0.00     0.000 C 
BRANCH   2   3
ATOM      3  C   UNL     1     -42.641  27.716   1.110  1.00  0.00     0.000 C 
BRANCH   3   4
ATOM      4  C   UNL     1     -43.030  28.880   2.040  1.00  0.00     0.006 C 
BRANCH   4   5
ATOM      5  C   UNL     1     -43.593  28.440   3.401  1.00  0.00     0.053 C 
BRANCH   5   6
ATOM      6  C   UNL     1     -44.603  27.341   3.260  1.00  0.00     0.041 C 
ATOM      7  O   UNL     1     -45.779  27.604   2.895  1.00  0.00    -0.550 OA
ATOM      8  O   UNL     1     -44.233  26.024   3.498  1.00  0.00    -0.550 OA
ENDBRANCH   5   6
ENDBRANCH   4   5
ENDBRANCH   3   4
ENDBRANCH   2   3
ENDBRANCH   1   2
BRANCH   1   9
ATOM      9  C   UNL     1     -45.345  27.316  -1.702  1.00  0.00     0.000 C 
BRANCH   9  10
ATOM     10  C   UNL     1     -45.726  26.050  -2.486  1.00  0.00    -0.000 C 
BRANCH  10  11
ATOM     11  C   UNL     1     -46.611  26.354  -3.704  1.00  0.00    -0.000 C 
BRANCH  11  12
ATOM     12  C   UNL     1     -46.417  27.801  -4.175  1.00  0.00    -0.000 C 
BRANCH  12  13
ATOM     13  C   UNL     1     -46.120  27.855  -5.677  1.00  0.00    -0.003 C 
ATOM     14  C   UNL     1     -45.931  26.454  -6.252  1.00  0.00     0.004 C 
ENDBRANCH  12  13
ENDBRANCH  11  12
ENDBRANCH  10  11
ENDBRANCH   9  10
ENDBRANCH   1   9
TORSDOF 10
ENDMDL
MODEL 3
REMARK VINA RESULT:    -3.960      1.814      3.501
REMARK INTER + INTRA:          -6.952
REMARK INTER:                  -6.166
REMARK INTRA:                  -0.786
REMARK UNBOUND:                -0.677
REMARK SMILES CCCCCCCCCCCC(=O)[O-]
REMARK SMILES IDX 7 1 8 2 9 3 10 4 11 5 12 6 13 7 14 8 6 9 5 10 4 11 3 12 2 13
REMARK SMILES IDX 1 14
REMARK H PARENT
REMARK Flexibility Score: inf
ROOT
ATOM      1  C   UNL     1     -42.623  28.238   1.303  1.00  0.00     0.000 C 
ENDROOT
BRANCH   1   2
ATOM      2  C   UNL     1     -42.913  29.690   1.713  1.00  0.00     0.000 C 
BRANCH   2   3
ATOM      3  C   UNL     1     -43.631  29.787   3.070  1.00  0.00     0.000 C 
BRANCH   3   4
ATOM      4  C   UNL     1     -42.990  28.893   4.147  1.00  0.00     0.006 C 
BRANCH   4   5
ATOM      5  C   UNL     1     -43.998  28.086   4.980  1.00  0.00     0.053 C 
BRANCH   5   6
ATOM      6  C   UNL     1     -44.833  27.181   4.125  1.00  0.00     0.041 C 
ATOM      7  O   UNL     1     -46.056  27.425   3.950  1.00  0.00    -0.550 OA
ATOM      8  O   UNL     1     -44.251  26.088   3.495  1.00  0.00    -0.550 OA
ENDBRANCH   5   6
ENDBRANCH   4   5
ENDBRANCH   3   4
ENDBRANCH   2   3
ENDBRANCH   1   2
BRANCH   1   9
ATOM      9  C   UNL     1     -42.962  27.963  -0.172  1.00  0.00     0.000 C 
BRANCH   9  10
ATOM     10  C   UNL     1     -44.211  28.727  -0.643  1.00  0.00    -0.000 C 
BRANCH  10  11
ATOM     11  C   UNL     1     -45.313  27.792  -1.164  1.00  0.00    -0.000 C 
BRANCH  11  12
ATOM     12  C   UNL     1     -44.843  26.331  -1.154  1.00  0.00    -0.000 C 
BRANCH  12  13
ATOM     13  C   UNL     1     -45.634  25.493  -2.163  1.00  0.00    -0.003 C 
ATOM     14  C   UNL     1     -46.253  26.372  -3.245  1.00  0.00     0.004 C 
ENDBRANCH  12  13
ENDBRANCH  11  12
ENDBRANCH  10  11
ENDBRANCH   9  10
ENDBRANCH   1   9
TORSDOF 10
ENDMDL
MODEL 4
REMARK VINA RESULT:    -3.945      4.019      7.500
REMARK INTER + INTRA:          -6.929
REMARK INTER:                  -6.415
REMARK INTRA:                  -0.514
REMARK UNBOUND:                -0.677
REMARK SMILES CCCCCCCCCCCC(=O)[O-]
REMARK SMILES IDX 7 1 8 2 9 3 10 4 11 5 12 6 13 7 14 8 6 9 5 10 4 11 3 12 2 13
REMARK SMILES IDX 1 14
REMARK H PARENT
REMARK Flexibility Score: inf
ROOT
ATOM      1  C   UNL     1     -45.204  25.927  -1.631  1.00  0.00     0.000 C 
ENDROOT
BRANCH   1   2
ATOM      2  C   UNL     1     -46.258  26.100  -2.735  1.00  0.00     0.000 C 
BRANCH   2   3
ATOM      3  C   UNL     1     -46.421  27.568  -3.170  1.00  0.00     0.000 C 
BRANCH   3   4
ATOM      4  C   UNL     1     -46.270  27.758  -4.690  1.00  0.00     0.006 C 
BRANCH   4   5
ATOM      5  C   UNL     1     -46.137  26.446  -5.480  1.00  0.00     0.053 C 
BRANCH   5   6
ATOM      6  C   UNL     1     -45.849  26.693  -6.930  1.00  0.00     0.041 C 
ATOM      7  O   UNL     1     -45.305  27.769  -7.294  1.00  0.00    -0.550 OA
ATOM      8  O   UNL     1     -46.151  25.720  -7.874  1.00  0.00    -0.550 OA
ENDBRANCH   5   6
ENDBRANCH   4   5
ENDBRANCH   3   4
ENDBRANCH   2   3
ENDBRANCH   1   2
BRANCH   1   9
ATOM      9  C   UNL     1     -44.779  27.268  -1.007  1.00  0.00     0.000 C 
BRANCH   9  10
ATOM     10  C   UNL     1     -43.827  27.088   0.187  1.00  0.00    -0.000 C 
BRANCH  10  11
ATOM     11  C   UNL     1     -42.598  28.005   0.104  1.00  0.00    -0.000 C 
BRANCH  11  12
ATOM     12  C   UNL     1     -42.711  29.167   1.100  1.00  0.00    -0.000 C 
BRANCH  12  13
ATOM     13  C   UNL     1     -43.434  28.726   2.378  1.00  0.00    -0.003 C 
ATOM     14  C   UNL     1     -42.793  29.346   3.616  1.00  0.00     0.004 C 
ENDBRANCH  12  13
ENDBRANCH  11  12
ENDBRANCH  10  11
ENDBRANCH   9  10
ENDBRANCH   1   9
TORSDOF 10
ENDMDL
MODEL 5
REMARK VINA RESULT:    -3.889      2.273      4.122
REMARK INTER + INTRA:          -6.839
REMARK INTER:                  -6.190
REMARK INTRA:                  -0.649
REMARK UNBOUND:                -0.677
REMARK SMILES CCCCCCCCCCCC(=O)[O-]
REMARK SMILES IDX 7 1 8 2 9 3 10 4 11 5 12 6 13 7 14 8 6 9 5 10 4 11 3 12 2 13
REMARK SMILES IDX 1 14
REMARK H PARENT
REMARK Flexibility Score: inf
ROOT
ATOM      1  C   UNL     1     -42.611  27.477   1.258  1.00  0.00     0.000 C 
ENDROOT
BRANCH   1   2
ATOM      2  C   UNL     1     -43.336  28.357   2.288  1.00  0.00     0.000 C 
BRANCH   2   3
ATOM      3  C   UNL     1     -44.205  27.535   3.257  1.00  0.00     0.000 C 
BRANCH   3   4
ATOM      4  C   UNL     1     -44.507  28.286   4.567  1.00  0.00     0.006 C 
BRANCH   4   5
ATOM      5  C   UNL     1     -43.260  28.813   5.294  1.00  0.00     0.053 C 
BRANCH   5   6
ATOM      6  C   UNL     1     -42.893  27.957   6.468  1.00  0.00     0.041 C 
ATOM      7  O   UNL     1     -41.977  28.317   7.254  1.00  0.00    -0.550 OA
ATOM      8  O   UNL     1     -43.587  26.779   6.713  1.00  0.00    -0.550 OA
ENDBRANCH   5   6
ENDBRANCH   4   5
ENDBRANCH   3   4
ENDBRANCH   2   3
ENDBRANCH   1   2
BRANCH   1   9
ATOM      9  C   UNL     1     -42.919  27.891  -0.191  1.00  0.00     0.000 C 
BRANCH   9  10
ATOM     10  C   UNL     1     -44.291  28.568  -0.333  1.00  0.00    -0.000 C 
BRANCH  10  11
ATOM     11  C   UNL     1     -45.417  27.566  -0.628  1.00  0.00    -0.000 C 
BRANCH  11  12
ATOM     12  C   UNL     1     -44.868  26.315  -1.327  1.00  0.00    -0.000 C 
BRANCH  12  13
ATOM     13  C   UNL     1     -45.967  25.602  -2.121  1.00  0.00    -0.003 C 
ATOM     14  C   UNL     1     -46.258  26.325  -3.432  1.00  0.00     0.004 C 
ENDBRANCH  12  13
ENDBRANCH  11  12
ENDBRANCH  10  11
ENDBRANCH   9  10
ENDBRANCH   1   9
TORSDOF 10
ENDMDL
MODEL 6
REMARK VINA RESULT:    -3.580      3.260      8.161
REMARK INTER + INTRA:          -6.351
REMARK INTER:                  -5.738
REMARK INTRA:                  -0.613
REMARK UNBOUND:                -0.677
REMARK SMILES CCCCCCCCCCCC(=O)[O-]
REMARK SMILES IDX 7 1 8 2 9 3 10 4 11 5 12 6 13 7 14 8 6 9 5 10 4 11 3 12 2 13
REMARK SMILES IDX 1 14
REMARK H PARENT
REMARK Flexibility Score: inf
ROOT
ATOM      1  C   UNL     1     -43.720  27.104   2.227  1.00  0.00     0.000 C 
ENDROOT
BRANCH   1   2
ATOM      2  C   UNL     1     -42.925  28.091   1.358  1.00  0.00     0.000 C 
BRANCH   2   3
ATOM      3  C   UNL     1     -43.363  28.063  -0.117  1.00  0.00     0.000 C 
BRANCH   3   4
ATOM      4  C   UNL     1     -44.369  26.936  -0.417  1.00  0.00     0.006 C 
BRANCH   4   5
ATOM      5  C   UNL     1     -45.357  27.257  -1.549  1.00  0.00     0.053 C 
BRANCH   5   6
ATOM      6  C   UNL     1     -45.816  26.019  -2.259  1.00  0.00     0.041 C 
ATOM      7  O   UNL     1     -45.638  24.887  -1.738  1.00  0.00    -0.550 OA
ATOM      8  O   UNL     1     -46.470  26.121  -3.480  1.00  0.00    -0.550 OA
ENDBRANCH   5   6
ENDBRANCH   4   5
ENDBRANCH   3   4
ENDBRANCH   2   3
ENDBRANCH   1   2
BRANCH   1   9
ATOM      9  C   UNL     1     -44.144  27.713   3.574  1.00  0.00     0.000 C 
BRANCH   9  10
ATOM     10  C   UNL     1     -43.172  28.799   4.063  1.00  0.00    -0.000 C 
BRANCH  10  11
ATOM     11  C   UNL     1     -43.356  29.128   5.552  1.00  0.00    -0.000 C 
BRANCH  11  12
ATOM     12  C   UNL     1     -42.678  28.072   6.435  1.00  0.00    -0.000 C 
BRANCH  12  13
ATOM     13  C   UNL     1     -43.669  27.482   7.445  1.00  0.00    -0.003 C 
ATOM     14  C   UNL     1     -45.032  28.160   7.340  1.00  0.00     0.004 C 
ENDBRANCH  12  13
ENDBRANCH  11  12
ENDBRANCH  10  11
ENDBRANCH   9  10
ENDBRANCH   1   9
TORSDOF 10
ENDMDL
MODEL 7
REMARK VINA RESULT:    -3.576      3.299      7.648
REMARK INTER + INTRA:          -6.344
REMARK INTER:                  -5.437
REMARK INTRA:                  -0.907
REMARK UNBOUND:                -0.677
REMARK SMILES CCCCCCCCCCCC(=O)[O-]
REMARK SMILES IDX 7 1 8 2 9 3 10 4 11 5 12 6 13 7 14 8 6 9 5 10 4 11 3 12 2 13
REMARK SMILES IDX 1 14
REMARK H PARENT
REMARK Flexibility Score: inf
ROOT
ATOM      1  C   UNL     1     -43.568  29.127   2.784  1.00  0.00     0.000 C 
ENDROOT
BRANCH   1   2
ATOM      2  C   UNL     1     -43.429  27.681   2.284  1.00  0.00     0.000 C 
BRANCH   2   3
ATOM      3  C   UNL     1     -42.610  27.583   0.985  1.00  0.00     0.000 C 
BRANCH   3   4
ATOM      4  C   UNL     1     -43.425  27.971  -0.263  1.00  0.00     0.006 C 
BRANCH   4   5
ATOM      5  C   UNL     1     -44.400  26.885  -0.742  1.00  0.00     0.053 C 
BRANCH   5   6
ATOM      6  C   UNL     1     -45.830  27.285  -0.537  1.00  0.00     0.041 C 
ATOM      7  O   UNL     1     -46.424  26.988   0.533  1.00  0.00    -0.550 OA
ATOM      8  O   UNL     1     -46.494  28.016  -1.514  1.00  0.00    -0.550 OA
ENDBRANCH   5   6
ENDBRANCH   4   5
ENDBRANCH   3   4
ENDBRANCH   2   3
ENDBRANCH   1   2
BRANCH   1   9
ATOM      9  C   UNL     1     -42.664  29.422   3.993  1.00  0.00     0.000 C 
BRANCH   9  10
ATOM     10  C   UNL     1     -43.430  29.392   5.325  1.00  0.00    -0.000 C 
BRANCH  10  11
ATOM     11  C   UNL     1     -43.071  28.171   6.185  1.00  0.00    -0.000 C 
BRANCH  11  12
ATOM     12  C   UNL     1     -44.025  27.002   5.904  1.00  0.00    -0.000 C 
BRANCH  12  13
ATOM     13  C   UNL     1     -45.468  27.373   6.260  1.00  0.00    -0.003 C 
ATOM     14  C   UNL     1     -46.358  27.381   5.020  1.00  0.00     0.004 C 
ENDBRANCH  12  13
ENDBRANCH  11  12
ENDBRANCH  10  11
ENDBRANCH   9  10
ENDBRANCH   1   9
TORSDOF 10
ENDMDL
MODEL 8
REMARK VINA RESULT:    -3.572      3.514      7.310
REMARK INTER + INTRA:          -6.337
REMARK INTER:                  -5.710
REMARK INTRA:                  -0.627
REMARK UNBOUND:                -0.677
REMARK SMILES CCCCCCCCCCCC(=O)[O-]
REMARK SMILES IDX 7 1 8 2 9 3 10 4 11 5 12 6 13 7 14 8 6 9 5 10 4 11 3 12 2 13
REMARK SMILES IDX 1 14
REMARK H PARENT
REMARK Flexibility Score: inf
ROOT
ATOM      1  C   UNL     1     -43.870  27.143   0.139  1.00  0.00     0.000 C 
ENDROOT
BRANCH   1   2
ATOM      2  C   UNL     1     -44.826  27.271  -1.057  1.00  0.00     0.000 C 
BRANCH   2   3
ATOM      3  C   UNL     1     -45.401  25.914  -1.500  1.00  0.00     0.000 C 
BRANCH   3   4
ATOM      4  C   UNL     1     -45.878  25.920  -2.964  1.00  0.00     0.006 C 
BRANCH   4   5
ATOM      5  C   UNL     1     -46.289  27.304  -3.489  1.00  0.00     0.053 C 
BRANCH   5   6
ATOM      6  C   UNL     1     -46.271  27.363  -4.986  1.00  0.00     0.041 C 
ATOM      7  O   UNL     1     -46.791  26.437  -5.663  1.00  0.00    -0.550 OA
ATOM      8  O   UNL     1     -45.710  28.458  -5.632  1.00  0.00    -0.550 OA
ENDBRANCH   5   6
ENDBRANCH   4   5
ENDBRANCH   3   4
ENDBRANCH   2   3
ENDBRANCH   1   2
BRANCH   1   9
ATOM      9  C   UNL     1     -42.625  28.034  -0.004  1.00  0.00     0.000 C 
BRANCH   9  10
ATOM     10  C   UNL     1     -42.648  29.239   0.951  1.00  0.00    -0.000 C 
BRANCH  10  11
ATOM     11  C   UNL     1     -43.679  29.079   2.077  1.00  0.00    -0.000 C 
BRANCH  11  12
ATOM     12  C   UNL     1     -43.007  29.164   3.453  1.00  0.00    -0.000 C 
BRANCH  12  13
ATOM     13  C   UNL     1     -43.756  28.314   4.485  1.00  0.00    -0.003 C 
ATOM     14  C   UNL     1     -44.407  27.100   3.830  1.00  0.00     0.004 C 
ENDBRANCH  12  13
ENDBRANCH  11  12
ENDBRANCH  10  11
ENDBRANCH   9  10
ENDBRANCH   1   9
TORSDOF 10
ENDMDL
MODEL 9
REMARK VINA RESULT:    -3.560      2.869      4.726
REMARK INTER + INTRA:          -6.318
REMARK INTER:                  -5.662
REMARK INTRA:                  -0.656
REMARK UNBOUND:                -0.677
REMARK SMILES CCCCCCCCCCCC(=O)[O-]
REMARK SMILES IDX 7 1 8 2 9 3 10 4 11 5 12 6 13 7 14 8 6 9 5 10 4 11 3 12 2 13
REMARK SMILES IDX 1 14
REMARK H PARENT
REMARK Flexibility Score: inf
ROOT
ATOM      1  C   UNL     1     -43.619  27.920   2.405  1.00  0.00     0.000 C 
ENDROOT
BRANCH   1   2
ATOM      2  C   UNL     1     -43.013  28.953   3.368  1.00  0.00     0.000 C 
BRANCH   2   3
ATOM      3  C   UNL     1     -43.813  29.078   4.677  1.00  0.00     0.000 C 
BRANCH   3   4
ATOM      4  C   UNL     1     -43.221  28.231   5.819  1.00  0.00     0.006 C 
BRANCH   4   5
ATOM      5  C   UNL     1     -44.012  26.951   6.131  1.00  0.00     0.053 C 
BRANCH   5   6
ATOM      6  C   UNL     1     -45.375  27.254   6.675  1.00  0.00     0.041 C 
ATOM      7  O   UNL     1     -45.506  27.708   7.842  1.00  0.00    -0.550 OA
ATOM      8  O   UNL     1     -46.498  27.066   5.879  1.00  0.00    -0.550 OA
ENDBRANCH   5   6
ENDBRANCH   4   5
ENDBRANCH   3   4
ENDBRANCH   2   3
ENDBRANCH   1   2
BRANCH   1   9
ATOM      9  C   UNL     1     -42.624  27.470   1.322  1.00  0.00     0.000 C 
BRANCH   9  10
ATOM     10  C   UNL     1     -43.046  27.912  -0.089  1.00  0.00    -0.000 C 
BRANCH  10  11
ATOM     11  C   UNL     1     -44.467  28.494  -0.124  1.00  0.00    -0.000 C 
BRANCH  11  12
ATOM     12  C   UNL     1     -45.334  27.762  -1.157  1.00  0.00    -0.000 C 
BRANCH  12  13
ATOM     13  C   UNL     1     -44.899  26.300  -1.303  1.00  0.00    -0.003 C 
ATOM     14  C   UNL     1     -46.015  25.450  -1.904  1.00  0.00     0.004 C 
ENDBRANCH  12  13
ENDBRANCH  11  12
ENDBRANCH  10  11
ENDBRANCH   9  10
ENDBRANCH   1   9
TORSDOF 10
ENDMDL
