MODEL 1
REMARK VINA RESULT:    -5.012      0.000      0.000
REMARK INTER + INTRA:          -5.616
REMARK INTER:                  -5.305
REMARK INTRA:                  -0.311
REMARK UNBOUND:                -0.311
REMARK SMILES C=C1CC[C@H](C(C)C)[C@H]2C=C(C)CC[C@@H]12
REMARK SMILES IDX 12 1 11 2 10 3 9 4 15 5 14 6 13 7 2 8 1 9 3 10 4 11 5 12
REMARK SMILES IDX 6 13 7 14 8 15
REMARK H PARENT
REMARK Flexibility Score: inf
ROOT
ATOM      1  C   UNL     1      16.465   8.345  17.728  1.00  0.00     0.039 C 
ATOM      2  C   UNL     1      15.597   7.219  17.236  1.00  0.00    -0.077 C 
ATOM      3  C   UNL     1      14.258   7.323  17.355  1.00  0.00    -0.024 C 
ATOM      4  C   UNL     1      13.278   6.267  16.868  1.00  0.00     0.022 C 
ATOM      5  C   UNL     1      13.954   4.889  16.586  1.00  0.00     0.022 C 
ATOM      6  C   UNL     1      15.305   5.112  15.876  1.00  0.00     0.013 C 
ATOM      7  C   UNL     1      16.257   5.960  16.724  1.00  0.00     0.031 C 
ATOM      8  C   UNL     1      13.980   4.002  17.837  1.00  0.00    -0.074 C 
ATOM      9  C   UNL     1      15.000   3.180  18.144  1.00  0.00     0.008 C 
ATOM     10  C   UNL     1      12.730   3.913  18.683  1.00  0.00     0.031 C 
ATOM     11  C   UNL     1      11.586   4.744  18.098  1.00  0.00     0.009 C 
ATOM     12  C   UNL     1      12.052   6.194  17.849  1.00  0.00    -0.001 C 
ENDROOT
BRANCH  12  13
ATOM     13  C   UNL     1      10.894   7.145  17.402  1.00  0.00    -0.014 C 
ATOM     14  C   UNL     1      10.906   8.507  18.116  1.00  0.00     0.007 C 
ATOM     15  C   UNL     1      10.877   7.350  15.879  1.00  0.00     0.007 C 
ENDBRANCH  12  13
TORSDOF 1
ENDMDL
MODEL 2
REMARK VINA RESULT:    -4.638      2.043      4.839
REMARK INTER + INTRA:          -5.220
REMARK INTER:                  -4.978
REMARK INTRA:                  -0.242
REMARK UNBOUND:                -0.311
REMARK SMILES C=C1CC[C@H](C(C)C)[C@H]2C=C(C)CC[C@@H]12
REMARK SMILES IDX 12 1 11 2 10 3 9 4 15 5 14 6 13 7 2 8 1 9 3 10 4 11 5 12
REMARK SMILES IDX 6 13 7 14 8 15
REMARK H PARENT
REMARK Flexibility Score: inf
ROOT
ATOM      1  C   UNL     1      11.628   7.943  20.176  1.00  0.00     0.039 C 
ATOM      2  C   UNL     1      11.846   6.599  19.538  1.00  0.00    -0.077 C 
ATOM      3  C   UNL     1      12.548   5.662  20.207  1.00  0.00    -0.024 C 
ATOM      4  C   UNL     1      12.808   4.258  19.681  1.00  0.00     0.022 C 
ATOM      5  C   UNL     1      12.542   4.121  18.150  1.00  0.00     0.022 C 
ATOM      6  C   UNL     1      11.257   4.888  17.776  1.00  0.00     0.013 C 
ATOM      7  C   UNL     1      11.365   6.376  18.124  1.00  0.00     0.031 C 
ATOM      8  C   UNL     1      13.793   4.446  17.324  1.00  0.00    -0.074 C 
ATOM      9  C   UNL     1      13.758   5.084  16.140  1.00  0.00     0.008 C 
ATOM     10  C   UNL     1      15.120   3.877  17.773  1.00  0.00     0.031 C 
ATOM     11  C   UNL     1      14.973   3.005  19.022  1.00  0.00     0.009 C 
ATOM     12  C   UNL     1      14.236   3.783  20.132  1.00  0.00    -0.001 C 
ENDROOT
BRANCH  12  13
ATOM     13  C   UNL     1      14.188   3.015  21.493  1.00  0.00    -0.014 C 
ATOM     14  C   UNL     1      12.765   2.638  21.938  1.00  0.00     0.007 C 
ATOM     15  C   UNL     1      15.082   1.765  21.478  1.00  0.00     0.007 C 
ENDBRANCH  12  13
TORSDOF 1
ENDMDL
MODEL 3
REMARK VINA RESULT:    -4.628      2.304      3.954
REMARK INTER + INTRA:          -5.209
REMARK INTER:                  -4.973
REMARK INTRA:                  -0.236
REMARK UNBOUND:                -0.311
REMARK SMILES C=C1CC[C@H](C(C)C)[C@H]2C=C(C)CC[C@@H]12
REMARK SMILES IDX 12 1 11 2 10 3 9 4 15 5 14 6 13 7 2 8 1 9 3 10 4 11 5 12
REMARK SMILES IDX 6 13 7 14 8 15
REMARK H PARENT
REMARK Flexibility Score: inf
ROOT
ATOM      1  C   UNL     1      11.665   9.385  17.107  1.00  0.00     0.039 C 
ATOM      2  C   UNL     1      11.542   7.924  17.445  1.00  0.00    -0.077 C 
ATOM      3  C   UNL     1      11.620   7.542  18.736  1.00  0.00    -0.024 C 
ATOM      4  C   UNL     1      11.479   6.102  19.205  1.00  0.00     0.022 C 
ATOM      5  C   UNL     1      11.639   5.065  18.050  1.00  0.00     0.022 C 
ATOM      6  C   UNL     1      10.898   5.571  16.795  1.00  0.00     0.013 C 
ATOM      7  C   UNL     1      11.445   6.921  16.321  1.00  0.00     0.031 C 
ATOM      8  C   UNL     1      13.102   4.650  17.856  1.00  0.00    -0.074 C 
ATOM      9  C   UNL     1      13.651   4.400  16.653  1.00  0.00     0.008 C 
ATOM     10  C   UNL     1      13.931   4.338  19.082  1.00  0.00     0.031 C 
ATOM     11  C   UNL     1      13.115   4.470  20.370  1.00  0.00     0.009 C 
ATOM     12  C   UNL     1      12.432   5.852  20.430  1.00  0.00    -0.001 C 
ENDROOT
BRANCH  12  13
ATOM     13  C   UNL     1      11.710   6.123  21.790  1.00  0.00    -0.014 C 
ATOM     14  C   UNL     1      11.954   5.030  22.845  1.00  0.00     0.007 C 
ATOM     15  C   UNL     1      12.072   7.500  22.367  1.00  0.00     0.007 C 
ENDBRANCH  12  13
TORSDOF 1
ENDMDL
MODEL 4
REMARK VINA RESULT:    -4.430      1.648      4.902
REMARK INTER + INTRA:          -4.999
REMARK INTER:                  -4.681
REMARK INTRA:                  -0.318
REMARK UNBOUND:                -0.311
REMARK SMILES C=C1CC[C@H](C(C)C)[C@H]2C=C(C)CC[C@@H]12
REMARK SMILES IDX 12 1 11 2 10 3 9 4 15 5 14 6 13 7 2 8 1 9 3 10 4 11 5 12
REMARK SMILES IDX 6 13 7 14 8 15
REMARK H PARENT
REMARK Flexibility Score: inf
ROOT
ATOM      1  C   UNL     1      12.001   6.569  21.230  1.00  0.00     0.039 C 
ATOM      2  C   UNL     1      12.208   5.948  19.876  1.00  0.00    -0.077 C 
ATOM      3  C   UNL     1      13.423   5.458  19.559  1.00  0.00    -0.024 C 
ATOM      4  C   UNL     1      13.747   4.780  18.235  1.00  0.00     0.022 C 
ATOM      5  C   UNL     1      12.678   5.053  17.132  1.00  0.00     0.022 C 
ATOM      6  C   UNL     1      11.266   4.969  17.747  1.00  0.00     0.013 C 
ATOM      7  C   UNL     1      11.079   5.989  18.874  1.00  0.00     0.031 C 
ATOM      8  C   UNL     1      12.997   6.322  16.332  1.00  0.00    -0.074 C 
ATOM      9  C   UNL     1      12.058   7.173  15.879  1.00  0.00     0.008 C 
ATOM     10  C   UNL     1      14.422   6.548  15.878  1.00  0.00     0.031 C 
ATOM     11  C   UNL     1      15.341   5.397  16.293  1.00  0.00     0.009 C 
ATOM     12  C   UNL     1      15.218   5.134  17.809  1.00  0.00    -0.001 C 
ENDROOT
BRANCH  12  13
ATOM     13  C   UNL     1      16.244   4.079  18.336  1.00  0.00    -0.014 C 
ATOM     14  C   UNL     1      15.661   2.660  18.457  1.00  0.00     0.007 C 
ATOM     15  C   UNL     1      17.523   4.050  17.486  1.00  0.00     0.007 C 
ENDBRANCH  12  13
TORSDOF 1
ENDMDL
MODEL 5
REMARK VINA RESULT:    -4.354      1.730      4.950
REMARK INTER + INTRA:          -4.920
REMARK INTER:                  -5.015
REMARK INTRA:                   0.096
REMARK UNBOUND:                -0.311
REMARK SMILES C=C1CC[C@H](C(C)C)[C@H]2C=C(C)CC[C@@H]12
REMARK SMILES IDX 12 1 11 2 10 3 9 4 15 5 14 6 13 7 2 8 1 9 3 10 4 11 5 12
REMARK SMILES IDX 6 13 7 14 8 15
REMARK H PARENT
REMARK Flexibility Score: inf
ROOT
ATOM      1  C   UNL     1      11.986   6.841  21.220  1.00  0.00     0.039 C 
ATOM      2  C   UNL     1      12.007   6.091  19.916  1.00  0.00    -0.077 C 
ATOM      3  C   UNL     1      12.934   5.130  19.729  1.00  0.00    -0.024 C 
ATOM      4  C   UNL     1      13.037   4.284  18.468  1.00  0.00     0.022 C 
ATOM      5  C   UNL     1      12.247   4.883  17.264  1.00  0.00     0.022 C 
ATOM      6  C   UNL     1      10.887   5.423  17.754  1.00  0.00     0.013 C 
ATOM      7  C   UNL     1      11.060   6.511  18.817  1.00  0.00     0.031 C 
ATOM      8  C   UNL     1      13.107   5.852  16.444  1.00  0.00    -0.074 C 
ATOM      9  C   UNL     1      12.629   6.974  15.875  1.00  0.00     0.008 C 
ATOM     10  C   UNL     1      14.526   5.449  16.110  1.00  0.00     0.031 C 
ATOM     11  C   UNL     1      14.865   4.058  16.652  1.00  0.00     0.009 C 
ATOM     12  C   UNL     1      14.548   3.980  18.160  1.00  0.00    -0.001 C 
ENDROOT
BRANCH  12  13
ATOM     13  C   UNL     1      15.017   2.643  18.819  1.00  0.00    -0.014 C 
ATOM     14  C   UNL     1      16.477   2.278  18.499  1.00  0.00     0.007 C 
ATOM     15  C   UNL     1      14.798   2.646  20.340  1.00  0.00     0.007 C 
ENDBRANCH  12  13
TORSDOF 1
ENDMDL
MODEL 6
REMARK VINA RESULT:    -4.290      2.148      4.054
REMARK INTER + INTRA:          -4.851
REMARK INTER:                  -4.533
REMARK INTRA:                  -0.318
REMARK UNBOUND:                -0.311
REMARK SMILES C=C1CC[C@H](C(C)C)[C@H]2C=C(C)CC[C@@H]12
REMARK SMILES IDX 12 1 11 2 10 3 9 4 15 5 14 6 13 7 2 8 1 9 3 10 4 11 5 12
REMARK SMILES IDX 6 13 7 14 8 15
REMARK H PARENT
REMARK Flexibility Score: inf
ROOT
ATOM      1  C   UNL     1      12.781   2.178  22.577  1.00  0.00     0.039 C 
ATOM      2  C   UNL     1      13.467   3.079  21.588  1.00  0.00    -0.077 C 
ATOM      3  C   UNL     1      12.723   3.741  20.680  1.00  0.00    -0.024 C 
ATOM      4  C   UNL     1      13.298   4.703  19.650  1.00  0.00     0.022 C 
ATOM      5  C   UNL     1      14.841   4.555  19.470  1.00  0.00     0.022 C 
ATOM      6  C   UNL     1      15.508   4.370  20.849  1.00  0.00     0.013 C 
ATOM      7  C   UNL     1      14.976   3.129  21.572  1.00  0.00     0.031 C 
ATOM      8  C   UNL     1      15.191   3.513  18.400  1.00  0.00    -0.074 C 
ATOM      9  C   UNL     1      16.246   2.683  18.487  1.00  0.00     0.008 C 
ATOM     10  C   UNL     1      14.418   3.528  17.100  1.00  0.00     0.031 C 
ATOM     11  C   UNL     1      13.386   4.657  17.065  1.00  0.00     0.009 C 
ATOM     12  C   UNL     1      12.480   4.593  18.313  1.00  0.00    -0.001 C 
ENDROOT
BRANCH  12  13
ATOM     13  C   UNL     1      11.299   5.616  18.269  1.00  0.00    -0.014 C 
ATOM     14  C   UNL     1      11.582   6.916  19.042  1.00  0.00     0.007 C 
ATOM     15  C   UNL     1      10.876   5.943  16.829  1.00  0.00     0.007 C 
ENDBRANCH  12  13
TORSDOF 1
ENDMDL
MODEL 7
REMARK VINA RESULT:    -4.081      2.264      5.960
REMARK INTER + INTRA:          -4.630
REMARK INTER:                  -4.374
REMARK INTRA:                  -0.256
REMARK UNBOUND:                -0.311
REMARK SMILES C=C1CC[C@H](C(C)C)[C@H]2C=C(C)CC[C@@H]12
REMARK SMILES IDX 12 1 11 2 10 3 9 4 15 5 14 6 13 7 2 8 1 9 3 10 4 11 5 12
REMARK SMILES IDX 6 13 7 14 8 15
REMARK H PARENT
REMARK Flexibility Score: inf
ROOT
ATOM      1  C   UNL     1      13.433   3.446  20.243  1.00  0.00     0.039 C 
ATOM      2  C   UNL     1      14.081   3.693  18.908  1.00  0.00    -0.077 C 
ATOM      3  C   UNL     1      15.402   3.462  18.768  1.00  0.00    -0.024 C 
ATOM      4  C   UNL     1      16.162   3.644  17.463  1.00  0.00     0.022 C 
ATOM      5  C   UNL     1      15.381   4.495  16.415  1.00  0.00     0.022 C 
ATOM      6  C   UNL     1      13.893   4.086  16.421  1.00  0.00     0.013 C 
ATOM      7  C   UNL     1      13.255   4.296  17.797  1.00  0.00     0.031 C 
ATOM      8  C   UNL     1      15.675   5.993  16.564  1.00  0.00    -0.074 C 
ATOM      9  C   UNL     1      14.752   6.955  16.377  1.00  0.00     0.008 C 
ATOM     10  C   UNL     1      17.109   6.429  16.765  1.00  0.00     0.031 C 
ATOM     11  C   UNL     1      18.072   5.239  16.755  1.00  0.00     0.009 C 
ATOM     12  C   UNL     1      17.612   4.170  17.768  1.00  0.00    -0.001 C 
ENDROOT
BRANCH  12  13
ATOM     13  C   UNL     1      18.632   2.997  17.931  1.00  0.00    -0.014 C 
ATOM     14  C   UNL     1      19.543   2.799  16.706  1.00  0.00     0.007 C 
ATOM     15  C   UNL     1      19.484   3.151  19.200  1.00  0.00     0.007 C 
ENDBRANCH  12  13
TORSDOF 1
ENDMDL
MODEL 8
REMARK VINA RESULT:    -4.038      2.255      4.860
REMARK INTER + INTRA:          -4.584
REMARK INTER:                  -4.268
REMARK INTRA:                  -0.317
REMARK UNBOUND:                -0.311
REMARK SMILES C=C1CC[C@H](C(C)C)[C@H]2C=C(C)CC[C@@H]12
REMARK SMILES IDX 12 1 11 2 10 3 9 4 15 5 14 6 13 7 2 8 1 9 3 10 4 11 5 12
REMARK SMILES IDX 6 13 7 14 8 15
REMARK H PARENT
REMARK Flexibility Score: inf
ROOT
ATOM      1  C   UNL     1      17.534  -0.088  18.503  1.00  0.00     0.039 C 
ATOM      2  C   UNL     1      17.370   1.405  18.588  1.00  0.00    -0.077 C 
ATOM      3  C   UNL     1      16.128   1.927  18.612  1.00  0.00    -0.024 C 
ATOM      4  C   UNL     1      15.834   3.416  18.727  1.00  0.00     0.022 C 
ATOM      5  C   UNL     1      17.075   4.309  18.416  1.00  0.00     0.022 C 
ATOM      6  C   UNL     1      18.333   3.691  19.061  1.00  0.00     0.013 C 
ATOM      7  C   UNL     1      18.602   2.278  18.536  1.00  0.00     0.031 C 
ATOM      8  C   UNL     1      17.173   4.647  16.923  1.00  0.00    -0.074 C 
ATOM      9  C   UNL     1      18.337   4.739  16.255  1.00  0.00     0.008 C 
ATOM     10  C   UNL     1      15.915   5.066  16.196  1.00  0.00     0.031 C 
ATOM     11  C   UNL     1      14.704   5.110  17.131  1.00  0.00     0.009 C 
ATOM     12  C   UNL     1      14.558   3.768  17.880  1.00  0.00    -0.001 C 
ENDROOT
BRANCH  12  13
ATOM     13  C   UNL     1      13.252   3.680  18.735  1.00  0.00    -0.014 C 
ATOM     14  C   UNL     1      13.441   4.125  20.196  1.00  0.00     0.007 C 
ATOM     15  C   UNL     1      12.094   4.459  18.094  1.00  0.00     0.007 C 
ENDBRANCH  12  13
TORSDOF 1
ENDMDL
