MODEL 1
REMARK VINA RESULT:    -3.852      0.000      0.000
REMARK INTER + INTRA:          -5.684
REMARK INTER:                  -5.203
REMARK INTRA:                  -0.480
REMARK UNBOUND:                -0.480
REMARK SMILES O=C[C@@H](O)[C@@H](O)[C@@H](O)CO
REMARK SMILES IDX 7 1 9 2 10 3 5 5 3 6 2 7 1 8 4 9 6 11 8 13
REMARK H PARENT 10 4 4 10 6 12 8 14
REMARK Flexibility Score: inf
ROOT
ATOM      1  C   UNL     1      65.339  49.358  38.374  1.00  0.00     0.171 C 
ENDROOT
BRANCH   1   2
ATOM      2  C   UNL     1      64.623  50.530  37.673  1.00  0.00     0.190 C 
BRANCH   2   3
ATOM      3  O   UNL     1      63.398  50.119  37.129  1.00  0.00    -0.394 OA
ATOM      4  H   UNL     1      62.731  50.199  37.859  1.00  0.00     0.210 HD
ENDBRANCH   2   3
ENDBRANCH   1   2
BRANCH   1   5
ATOM      5  C   UNL     1      66.130  49.751  39.652  1.00  0.00     0.181 C 
BRANCH   5   6
ATOM      6  C   UNL     1      65.448  49.266  40.959  1.00  0.00     0.209 C 
BRANCH   6   7
ATOM      7  C   UNL     1      66.163  49.785  42.181  1.00  0.00     0.258 C 
ATOM      8  O   UNL     1      67.211  49.281  42.553  1.00  0.00    -0.300 OA
ENDBRANCH   6   7
BRANCH   6   9
ATOM      9  O   UNL     1      64.092  49.633  41.004  1.00  0.00    -0.383 OA
ATOM     10  H   UNL     1      64.050  50.619  41.128  1.00  0.00     0.211 HD
ENDBRANCH   6   9
ENDBRANCH   5   6
BRANCH   5  11
ATOM     11  O   UNL     1      67.439  49.241  39.579  1.00  0.00    -0.387 OA
ATOM     12  H   UNL     1      68.032  49.988  39.303  1.00  0.00     0.211 HD
ENDBRANCH   5  11
ENDBRANCH   1   5
BRANCH   1  13
ATOM     13  O   UNL     1      64.430  48.322  38.655  1.00  0.00    -0.388 OA
ATOM     14  H   UNL     1      63.556  48.737  38.876  1.00  0.00     0.211 HD
ENDBRANCH   1  13
TORSDOF 8
ENDMDL
MODEL 2
REMARK VINA RESULT:    -3.787      1.404      3.891
REMARK INTER + INTRA:          -5.596
REMARK INTER:                  -5.071
REMARK INTRA:                  -0.525
REMARK UNBOUND:                -0.480
REMARK SMILES O=C[C@@H](O)[C@@H](O)[C@@H](O)CO
REMARK SMILES IDX 7 1 9 2 10 3 5 5 3 6 2 7 1 8 4 9 6 11 8 13
REMARK H PARENT 10 4 4 10 6 12 8 14
REMARK Flexibility Score: inf
ROOT
ATOM      1  C   UNL     1      66.247  50.404  40.801  1.00  0.00     0.171 C 
ENDROOT
BRANCH   1   2
ATOM      2  C   UNL     1      66.973  49.567  41.874  1.00  0.00     0.190 C 
BRANCH   2   3
ATOM      3  O   UNL     1      67.396  48.338  41.351  1.00  0.00    -0.394 OA
ATOM      4  H   UNL     1      67.440  47.712  42.120  1.00  0.00     0.210 HD
ENDBRANCH   2   3
ENDBRANCH   1   2
BRANCH   1   5
ATOM      5  C   UNL     1      64.961  49.749  40.225  1.00  0.00     0.181 C 
BRANCH   5   6
ATOM      6  C   UNL     1      65.052  49.477  38.700  1.00  0.00     0.209 C 
BRANCH   6   7
ATOM      7  C   UNL     1      66.481  49.501  38.218  1.00  0.00     0.258 C 
ATOM      8  O   UNL     1      67.133  48.470  38.147  1.00  0.00    -0.300 OA
ENDBRANCH   6   7
BRANCH   6   9
ATOM      9  O   UNL     1      64.449  48.256  38.353  1.00  0.00    -0.383 OA
ATOM     10  H   UNL     1      65.097  47.531  38.558  1.00  0.00     0.211 HD
ENDBRANCH   6   9
ENDBRANCH   5   6
BRANCH   5  11
ATOM     11  O   UNL     1      64.690  48.549  40.908  1.00  0.00    -0.387 OA
ATOM     12  H   UNL     1      63.933  48.727  41.525  1.00  0.00     0.211 HD
ENDBRANCH   5  11
ENDBRANCH   1   5
BRANCH   1  13
ATOM     13  O   UNL     1      65.967  51.694  41.290  1.00  0.00    -0.388 OA
ATOM     14  H   UNL     1      65.445  51.595  42.128  1.00  0.00     0.211 HD
ENDBRANCH   1  13
TORSDOF 8
ENDMDL
MODEL 3
REMARK VINA RESULT:    -3.748      1.373      4.184
REMARK INTER + INTRA:          -5.543
REMARK INTER:                  -4.823
REMARK INTRA:                  -0.720
REMARK UNBOUND:                -0.480
REMARK SMILES O=C[C@@H](O)[C@@H](O)[C@@H](O)CO
REMARK SMILES IDX 7 1 9 2 10 3 5 5 3 6 2 7 1 8 4 9 6 11 8 13
REMARK H PARENT 10 4 4 10 6 12 8 14
REMARK Flexibility Score: inf
ROOT
ATOM      1  C   UNL     1      64.943  49.690  40.852  1.00  0.00     0.171 C 
ENDROOT
BRANCH   1   2
ATOM      2  C   UNL     1      66.155  49.574  41.798  1.00  0.00     0.190 C 
BRANCH   2   3
ATOM      3  O   UNL     1      66.950  48.469  41.466  1.00  0.00    -0.394 OA
ATOM      4  H   UNL     1      67.527  48.761  40.713  1.00  0.00     0.210 HD
ENDBRANCH   2   3
ENDBRANCH   1   2
BRANCH   1   5
ATOM      5  C   UNL     1      65.200  50.523  39.566  1.00  0.00     0.181 C 
BRANCH   5   6
ATOM      6  C   UNL     1      65.338  49.645  38.294  1.00  0.00     0.209 C 
BRANCH   6   7
ATOM      7  C   UNL     1      65.600  50.485  37.069  1.00  0.00     0.258 C 
ATOM      8  O   UNL     1      64.675  50.954  36.424  1.00  0.00    -0.300 OA
ENDBRANCH   6   7
BRANCH   6   9
ATOM      9  O   UNL     1      66.348  48.678  38.437  1.00  0.00    -0.383 OA
ATOM     10  H   UNL     1      66.695  48.741  39.367  1.00  0.00     0.211 HD
ENDBRANCH   6   9
ENDBRANCH   5   6
BRANCH   5  11
ATOM     11  O   UNL     1      64.164  51.459  39.389  1.00  0.00    -0.387 OA
ATOM     12  H   UNL     1      64.082  51.971  40.236  1.00  0.00     0.211 HD
ENDBRANCH   5  11
ENDBRANCH   1   5
BRANCH   1  13
ATOM     13  O   UNL     1      64.451  48.413  40.523  1.00  0.00    -0.388 OA
ATOM     14  H   UNL     1      64.118  47.992  41.357  1.00  0.00     0.211 HD
ENDBRANCH   1  13
TORSDOF 8
ENDMDL
MODEL 4
REMARK VINA RESULT:    -3.697      1.436      1.740
REMARK INTER + INTRA:          -5.474
REMARK INTER:                  -4.967
REMARK INTRA:                  -0.507
REMARK UNBOUND:                -0.480
REMARK SMILES O=C[C@@H](O)[C@@H](O)[C@@H](O)CO
REMARK SMILES IDX 7 1 9 2 10 3 5 5 3 6 2 7 1 8 4 9 6 11 8 13
REMARK H PARENT 10 4 4 10 6 12 8 14
REMARK Flexibility Score: inf
ROOT
ATOM      1  C   UNL     1      65.114  49.470  38.565  1.00  0.00     0.171 C 
ENDROOT
BRANCH   1   2
ATOM      2  C   UNL     1      64.710  50.324  37.346  1.00  0.00     0.190 C 
BRANCH   2   3
ATOM      3  O   UNL     1      63.327  50.270  37.128  1.00  0.00    -0.394 OA
ATOM      4  H   UNL     1      62.903  50.579  37.970  1.00  0.00     0.210 HD
ENDBRANCH   2   3
ENDBRANCH   1   2
BRANCH   1   5
ATOM      5  C   UNL     1      64.937  50.173  39.939  1.00  0.00     0.181 C 
BRANCH   5   6
ATOM      6  C   UNL     1      66.135  49.940  40.896  1.00  0.00     0.209 C 
BRANCH   6   7
ATOM      7  C   UNL     1      66.060  50.839  42.105  1.00  0.00     0.258 C 
ATOM      8  O   UNL     1      66.539  51.962  42.079  1.00  0.00    -0.300 OA
ENDBRANCH   6   7
BRANCH   6   9
ATOM      9  O   UNL     1      66.223  48.597  41.302  1.00  0.00    -0.383 OA
ATOM     10  H   UNL     1      67.187  48.358  41.346  1.00  0.00     0.211 HD
ENDBRANCH   6   9
ENDBRANCH   5   6
BRANCH   5  11
ATOM     11  O   UNL     1      64.740  51.553  39.747  1.00  0.00    -0.387 OA
ATOM     12  H   UNL     1      64.442  51.931  40.615  1.00  0.00     0.211 HD
ENDBRANCH   5  11
ENDBRANCH   1   5
BRANCH   1  13
ATOM     13  O   UNL     1      64.434  48.238  38.549  1.00  0.00    -0.388 OA
ATOM     14  H   UNL     1      65.029  47.557  38.956  1.00  0.00     0.211 HD
ENDBRANCH   1  13
TORSDOF 8
ENDMDL
MODEL 5
REMARK VINA RESULT:    -3.648      1.390      3.924
REMARK INTER + INTRA:          -5.409
REMARK INTER:                  -4.869
REMARK INTRA:                  -0.540
REMARK UNBOUND:                -0.480
REMARK SMILES O=C[C@@H](O)[C@@H](O)[C@@H](O)CO
REMARK SMILES IDX 7 1 9 2 10 3 5 5 3 6 2 7 1 8 4 9 6 11 8 13
REMARK H PARENT 10 4 4 10 6 12 8 14
REMARK Flexibility Score: inf
ROOT
ATOM      1  C   UNL     1      65.096  49.947  40.284  1.00  0.00     0.171 C 
ENDROOT
BRANCH   1   2
ATOM      2  C   UNL     1      66.543  49.841  40.809  1.00  0.00     0.190 C 
BRANCH   2   3
ATOM      3  O   UNL     1      66.749  48.625  41.473  1.00  0.00    -0.394 OA
ATOM      4  H   UNL     1      67.077  47.987  40.787  1.00  0.00     0.210 HD
ENDBRANCH   2   3
ENDBRANCH   1   2
BRANCH   1   5
ATOM      5  C   UNL     1      64.875  49.357  38.864  1.00  0.00     0.181 C 
BRANCH   5   6
ATOM      6  C   UNL     1      64.543  50.440  37.803  1.00  0.00     0.209 C 
BRANCH   6   7
ATOM      7  C   UNL     1      65.691  50.649  36.849  1.00  0.00     0.258 C 
ATOM      8  O   UNL     1      66.722  51.190  37.220  1.00  0.00    -0.300 OA
ENDBRANCH   6   7
BRANCH   6   9
ATOM      9  O   UNL     1      63.375  50.125  37.087  1.00  0.00    -0.383 OA
ATOM     10  H   UNL     1      62.815  50.945  37.049  1.00  0.00     0.211 HD
ENDBRANCH   6   9
ENDBRANCH   5   6
BRANCH   5  11
ATOM     11  O   UNL     1      66.013  48.632  38.466  1.00  0.00    -0.387 OA
ATOM     12  H   UNL     1      66.085  48.716  37.479  1.00  0.00     0.211 HD
ENDBRANCH   5  11
ENDBRANCH   1   5
BRANCH   1  13
ATOM     13  O   UNL     1      64.196  49.375  41.202  1.00  0.00    -0.388 OA
ATOM     14  H   UNL     1      63.351  49.183  40.720  1.00  0.00     0.211 HD
ENDBRANCH   1  13
TORSDOF 8
ENDMDL
MODEL 6
REMARK VINA RESULT:    -3.616      1.387      3.837
REMARK INTER + INTRA:          -5.365
REMARK INTER:                  -4.810
REMARK INTRA:                  -0.555
REMARK UNBOUND:                -0.480
REMARK SMILES O=C[C@@H](O)[C@@H](O)[C@@H](O)CO
REMARK SMILES IDX 7 1 9 2 10 3 5 5 3 6 2 7 1 8 4 9 6 11 8 13
REMARK H PARENT 10 4 4 10 6 12 8 14
REMARK Flexibility Score: inf
ROOT
ATOM      1  C   UNL     1      66.442  49.599  40.691  1.00  0.00     0.171 C 
ENDROOT
BRANCH   1   2
ATOM      2  C   UNL     1      67.655  49.541  39.740  1.00  0.00     0.190 C 
BRANCH   2   3
ATOM      3  O   UNL     1      67.636  48.370  38.970  1.00  0.00    -0.394 OA
ATOM      4  H   UNL     1      67.058  47.728  39.458  1.00  0.00     0.210 HD
ENDBRANCH   2   3
ENDBRANCH   1   2
BRANCH   1   5
ATOM      5  C   UNL     1      65.071  49.784  39.984  1.00  0.00     0.181 C 
BRANCH   5   6
ATOM      6  C   UNL     1      65.052  50.988  39.004  1.00  0.00     0.209 C 
BRANCH   6   7
ATOM      7  C   UNL     1      64.875  50.536  37.577  1.00  0.00     0.258 C 
ATOM      8  O   UNL     1      63.768  50.260  37.142  1.00  0.00    -0.300 OA
ENDBRANCH   6   7
BRANCH   6   9
ATOM      9  O   UNL     1      64.052  51.916  39.341  1.00  0.00    -0.383 OA
ATOM     10  H   UNL     1      63.380  51.445  39.902  1.00  0.00     0.211 HD
ENDBRANCH   6   9
ENDBRANCH   5   6
BRANCH   5  11
ATOM     11  O   UNL     1      64.725  48.605  39.298  1.00  0.00    -0.387 OA
ATOM     12  H   UNL     1      63.742  48.625  39.156  1.00  0.00     0.211 HD
ENDBRANCH   5  11
ENDBRANCH   1   5
BRANCH   1  13
ATOM     13  O   UNL     1      66.417  48.469  41.528  1.00  0.00    -0.388 OA
ATOM     14  H   UNL     1      65.857  47.777  41.089  1.00  0.00     0.211 HD
ENDBRANCH   1  13
TORSDOF 8
ENDMDL
MODEL 7
REMARK VINA RESULT:    -3.616      1.825      3.883
REMARK INTER + INTRA:          -5.365
REMARK INTER:                  -4.737
REMARK INTRA:                  -0.627
REMARK UNBOUND:                -0.480
REMARK SMILES O=C[C@@H](O)[C@@H](O)[C@@H](O)CO
REMARK SMILES IDX 7 1 9 2 10 3 5 5 3 6 2 7 1 8 4 9 6 11 8 13
REMARK H PARENT 10 4 4 10 6 12 8 14
REMARK Flexibility Score: inf
ROOT
ATOM      1  C   UNL     1      65.100  50.413  39.623  1.00  0.00     0.171 C 
ENDROOT
BRANCH   1   2
ATOM      2  C   UNL     1      64.869  49.654  40.946  1.00  0.00     0.190 C 
BRANCH   2   3
ATOM      3  O   UNL     1      65.904  48.741  41.190  1.00  0.00    -0.394 OA
ATOM      4  H   UNL     1      65.565  48.118  41.884  1.00  0.00     0.210 HD
ENDBRANCH   2   3
ENDBRANCH   1   2
BRANCH   1   5
ATOM      5  C   UNL     1      65.117  49.517  38.354  1.00  0.00     0.181 C 
BRANCH   5   6
ATOM      6  C   UNL     1      66.548  49.271  37.806  1.00  0.00     0.209 C 
BRANCH   6   7
ATOM      7  C   UNL     1      67.322  50.559  37.682  1.00  0.00     0.258 C 
ATOM      8  O   UNL     1      67.043  51.374  36.817  1.00  0.00    -0.300 OA
ENDBRANCH   6   7
BRANCH   6   9
ATOM      9  O   UNL     1      67.259  48.358  38.605  1.00  0.00    -0.383 OA
ATOM     10  H   UNL     1      68.204  48.361  38.296  1.00  0.00     0.211 HD
ENDBRANCH   6   9
ENDBRANCH   5   6
BRANCH   5  11
ATOM     11  O   UNL     1      64.493  48.286  38.630  1.00  0.00    -0.387 OA
ATOM     12  H   UNL     1      64.123  47.946  37.774  1.00  0.00     0.211 HD
ENDBRANCH   5  11
ENDBRANCH   1   5
BRANCH   1  13
ATOM     13  O   UNL     1      64.161  51.451  39.482  1.00  0.00    -0.388 OA
ATOM     14  H   UNL     1      64.057  51.637  38.513  1.00  0.00     0.211 HD
ENDBRANCH   1  13
TORSDOF 8
ENDMDL
MODEL 8
REMARK VINA RESULT:    -3.444      1.037      2.264
REMARK INTER + INTRA:          -5.132
REMARK INTER:                  -4.402
REMARK INTRA:                  -0.730
REMARK UNBOUND:                -0.480
REMARK SMILES O=C[C@@H](O)[C@@H](O)[C@@H](O)CO
REMARK SMILES IDX 7 1 9 2 10 3 5 5 3 6 2 7 1 8 4 9 6 11 8 13
REMARK H PARENT 10 4 4 10 6 12 8 14
REMARK Flexibility Score: inf
ROOT
ATOM      1  C   UNL     1      65.781  50.015  39.494  1.00  0.00     0.171 C 
ENDROOT
BRANCH   1   2
ATOM      2  C   UNL     1      64.780  49.589  38.401  1.00  0.00     0.190 C 
BRANCH   2   3
ATOM      3  O   UNL     1      64.401  48.250  38.559  1.00  0.00    -0.394 OA
ATOM      4  H   UNL     1      64.887  47.918  39.358  1.00  0.00     0.210 HD
ENDBRANCH   2   3
ENDBRANCH   1   2
BRANCH   1   5
ATOM      5  C   UNL     1      65.454  49.486  40.917  1.00  0.00     0.181 C 
BRANCH   5   6
ATOM      6  C   UNL     1      66.195  50.264  42.037  1.00  0.00     0.209 C 
BRANCH   6   7
ATOM      7  C   UNL     1      67.315  49.446  42.630  1.00  0.00     0.258 C 
ATOM      8  O   UNL     1      68.001  48.722  41.925  1.00  0.00    -0.300 OA
ENDBRANCH   6   7
BRANCH   6   9
ATOM      9  O   UNL     1      66.693  51.494  41.573  1.00  0.00    -0.383 OA
ATOM     10  H   UNL     1      66.064  51.832  40.882  1.00  0.00     0.211 HD
ENDBRANCH   6   9
ENDBRANCH   5   6
BRANCH   5  11
ATOM     11  O   UNL     1      64.065  49.539  41.138  1.00  0.00    -0.387 OA
ATOM     12  H   UNL     1      63.903  50.240  41.822  1.00  0.00     0.211 HD
ENDBRANCH   5  11
ENDBRANCH   1   5
BRANCH   1  13
ATOM     13  O   UNL     1      67.092  49.662  39.125  1.00  0.00    -0.388 OA
ATOM     14  H   UNL     1      67.099  48.693  38.916  1.00  0.00     0.211 HD
ENDBRANCH   1  13
TORSDOF 8
ENDMDL
MODEL 9
REMARK VINA RESULT:    -3.331      1.367      2.594
REMARK INTER + INTRA:          -4.980
REMARK INTER:                  -4.191
REMARK INTRA:                  -0.788
REMARK UNBOUND:                -0.480
REMARK SMILES O=C[C@@H](O)[C@@H](O)[C@@H](O)CO
REMARK SMILES IDX 7 1 9 2 10 3 5 5 3 6 2 7 1 8 4 9 6 11 8 13
REMARK H PARENT 10 4 4 10 6 12 8 14
REMARK Flexibility Score: inf
ROOT
ATOM      1  C   UNL     1      64.791  50.363  37.508  1.00  0.00     0.171 C 
ENDROOT
BRANCH   1   2
ATOM      2  C   UNL     1      64.921  51.697  38.272  1.00  0.00     0.190 C 
BRANCH   2   3
ATOM      3  O   UNL     1      64.179  51.672  39.460  1.00  0.00    -0.394 OA
ATOM      4  H   UNL     1      64.675  52.239  40.106  1.00  0.00     0.210 HD
ENDBRANCH   2   3
ENDBRANCH   1   2
BRANCH   1   5
ATOM      5  C   UNL     1      65.411  49.136  38.232  1.00  0.00     0.181 C 
BRANCH   5   6
ATOM      6  C   UNL     1      66.819  49.426  38.817  1.00  0.00     0.209 C 
BRANCH   6   7
ATOM      7  C   UNL     1      66.821  49.340  40.322  1.00  0.00     0.258 C 
ATOM      8  O   UNL     1      66.286  50.205  40.998  1.00  0.00    -0.300 OA
ENDBRANCH   6   7
BRANCH   6   9
ATOM      9  O   UNL     1      67.790  48.560  38.285  1.00  0.00    -0.383 OA
ATOM     10  H   UNL     1      68.400  49.102  37.718  1.00  0.00     0.211 HD
ENDBRANCH   6   9
ENDBRANCH   5   6
BRANCH   5  11
ATOM     11  O   UNL     1      64.549  48.701  39.256  1.00  0.00    -0.387 OA
ATOM     12  H   UNL     1      65.095  48.609  40.080  1.00  0.00     0.211 HD
ENDBRANCH   5  11
ENDBRANCH   1   5
BRANCH   1  13
ATOM     13  O   UNL     1      63.446  50.114  37.179  1.00  0.00    -0.388 OA
ATOM     14  H   UNL     1      63.339  50.265  36.204  1.00  0.00     0.211 HD
ENDBRANCH   1  13
TORSDOF 8
ENDMDL
