MODEL 1
REMARK VINA RESULT:    -4.131      0.000      0.000
REMARK INTER + INTRA:          -9.796
REMARK INTER:                  -7.513
REMARK INTRA:                  -2.283
REMARK UNBOUND:                -2.283
REMARK SMILES CCCCCCCCCCCCCC[C@H](C)C(=O)[O-]
REMARK SMILES IDX 9 1 10 2 11 3 12 4 13 5 14 6 15 7 16 8 17 9 18 10 19 11 8 12
REMARK SMILES IDX 7 13 6 14 5 15 4 16 3 17 2 18 1 19
REMARK H PARENT
REMARK Flexibility Score: inf
ROOT
ATOM      1  C   UNL     1     129.502 142.407 106.553  1.00  0.00     0.000 C 
ENDROOT
BRANCH   1   2
ATOM      2  C   UNL     1     130.376 143.548 107.096  1.00  0.00     0.000 C 
BRANCH   2   3
ATOM      3  C   UNL     1     130.955 144.433 105.982  1.00  0.00     0.000 C 
BRANCH   3   4
ATOM      4  C   UNL     1     130.743 145.931 106.245  1.00  0.00     0.000 C 
BRANCH   4   5
ATOM      5  C   UNL     1     131.999 146.735 105.887  1.00  0.00     0.001 C 
BRANCH   5   6
ATOM      6  C   UNL     1     133.242 146.153 106.578  1.00  0.00     0.009 C 
BRANCH   6   7
ATOM      7  C   UNL     1     134.451 146.068 105.625  1.00  0.00     0.032 C 
ATOM      8  C   UNL     1     134.462 144.725 104.887  1.00  0.00     0.014 C 
BRANCH   7   9
ATOM      9  C   UNL     1     135.749 146.248 106.368  1.00  0.00     0.044 C 
ATOM     10  O   UNL     1     136.843 145.990 105.801  1.00  0.00    -0.550 OA
ATOM     11  O   UNL     1     135.747 146.698 107.684  1.00  0.00    -0.550 OA
ENDBRANCH   7   9
ENDBRANCH   6   7
ENDBRANCH   5   6
ENDBRANCH   4   5
ENDBRANCH   3   4
ENDBRANCH   2   3
ENDBRANCH   1   2
BRANCH   1  12
ATOM     12  C   UNL     1     128.617 142.894 105.399  1.00  0.00     0.000 C 
BRANCH  12  13
ATOM     13  C   UNL     1     127.393 143.657 105.929  1.00  0.00    -0.000 C 
BRANCH  13  14
ATOM     14  C   UNL     1     127.236 145.045 105.288  1.00  0.00    -0.000 C 
BRANCH  14  15
ATOM     15  C   UNL     1     126.899 146.136 106.314  1.00  0.00    -0.000 C 
BRANCH  15  16
ATOM     16  C   UNL     1     126.900 145.567 107.742  1.00  0.00    -0.000 C 
BRANCH  16  17
ATOM     17  C   UNL     1     127.943 146.237 108.654  1.00  0.00    -0.000 C 
BRANCH  17  18
ATOM     18  C   UNL     1     128.550 145.317 109.727  1.00  0.00    -0.003 C 
ATOM     19  C   UNL     1     127.906 143.931 109.760  1.00  0.00     0.004 C 
ENDBRANCH  17  18
ENDBRANCH  16  17
ENDBRANCH  15  16
ENDBRANCH  14  15
ENDBRANCH  13  14
ENDBRANCH  12  13
ENDBRANCH   1  12
TORSDOF 14
ENDMDL
MODEL 2
REMARK VINA RESULT:    -4.129      1.314      2.447
REMARK INTER + INTRA:          -9.792
REMARK INTER:                  -7.212
REMARK INTRA:                  -2.580
REMARK UNBOUND:                -2.283
REMARK SMILES CCCCCCCCCCCCCC[C@H](C)C(=O)[O-]
REMARK SMILES IDX 9 1 10 2 11 3 12 4 13 5 14 6 15 7 16 8 17 9 18 10 19 11 8 12
REMARK SMILES IDX 7 13 6 14 5 15 4 16 3 17 2 18 1 19
REMARK H PARENT
REMARK Flexibility Score: inf
ROOT
ATOM      1  C   UNL     1     127.809 143.087 105.766  1.00  0.00     0.000 C 
ENDROOT
BRANCH   1   2
ATOM      2  C   UNL     1     129.267 142.605 105.710  1.00  0.00     0.000 C 
BRANCH   2   3
ATOM      3  C   UNL     1     129.920 142.531 107.098  1.00  0.00     0.000 C 
BRANCH   3   4
ATOM      4  C   UNL     1     130.809 143.747 107.400  1.00  0.00     0.000 C 
BRANCH   4   5
ATOM      5  C   UNL     1     131.221 144.461 106.108  1.00  0.00     0.001 C 
BRANCH   5   6
ATOM      6  C   UNL     1     131.115 145.987 106.262  1.00  0.00     0.009 C 
BRANCH   6   7
ATOM      7  C   UNL     1     132.499 146.663 106.326  1.00  0.00     0.032 C 
ATOM      8  C   UNL     1     133.506 145.913 105.448  1.00  0.00     0.014 C 
BRANCH   7   9
ATOM      9  C   UNL     1     133.011 146.729 107.741  1.00  0.00     0.044 C 
ATOM     10  O   UNL     1     134.248 146.802 107.963  1.00  0.00    -0.550 OA
ATOM     11  O   UNL     1     132.123 146.709 108.810  1.00  0.00    -0.550 OA
ENDBRANCH   7   9
ENDBRANCH   6   7
ENDBRANCH   5   6
ENDBRANCH   4   5
ENDBRANCH   3   4
ENDBRANCH   2   3
ENDBRANCH   1   2
BRANCH   1  12
ATOM     12  C   UNL     1     127.633 144.395 104.986  1.00  0.00     0.000 C 
BRANCH  12  13
ATOM     13  C   UNL     1     127.051 145.497 105.884  1.00  0.00    -0.000 C 
BRANCH  13  14
ATOM     14  C   UNL     1     127.048 145.110 107.371  1.00  0.00    -0.000 C 
BRANCH  14  15
ATOM     15  C   UNL     1     128.016 145.960 108.207  1.00  0.00    -0.000 C 
BRANCH  15  16
ATOM     16  C   UNL     1     128.087 145.447 109.654  1.00  0.00    -0.000 C 
BRANCH  16  17
ATOM     17  C   UNL     1     127.842 143.932 109.767  1.00  0.00    -0.000 C 
BRANCH  17  18
ATOM     18  C   UNL     1     128.494 143.261 110.988  1.00  0.00    -0.003 C 
ATOM     19  C   UNL     1     129.986 143.566 111.113  1.00  0.00     0.004 C 
ENDBRANCH  17  18
ENDBRANCH  16  17
ENDBRANCH  15  16
ENDBRANCH  14  15
ENDBRANCH  13  14
ENDBRANCH  12  13
ENDBRANCH   1  12
TORSDOF 14
ENDMDL
MODEL 3
REMARK VINA RESULT:    -4.096      2.278      5.922
REMARK INTER + INTRA:          -9.732
REMARK INTER:                  -7.451
REMARK INTRA:                  -2.280
REMARK UNBOUND:                -2.283
REMARK SMILES CCCCCCCCCCCCCC[C@H](C)C(=O)[O-]
REMARK SMILES IDX 9 1 10 2 11 3 12 4 13 5 14 6 15 7 16 8 17 9 18 10 19 11 8 12
REMARK SMILES IDX 7 13 6 14 5 15 4 16 3 17 2 18 1 19
REMARK H PARENT
REMARK Flexibility Score: inf
ROOT
ATOM      1  C   UNL     1     128.960 142.857 105.448  1.00  0.00     0.000 C 
ENDROOT
BRANCH   1   2
ATOM      2  C   UNL     1     127.613 143.469 105.862  1.00  0.00     0.000 C 
BRANCH   2   3
ATOM      3  C   UNL     1     127.364 144.843 105.223  1.00  0.00     0.000 C 
BRANCH   3   4
ATOM      4  C   UNL     1     127.065 145.935 106.261  1.00  0.00     0.000 C 
BRANCH   4   5
ATOM      5  C   UNL     1     127.102 145.364 107.684  1.00  0.00     0.001 C 
BRANCH   5   6
ATOM      6  C   UNL     1     128.183 146.057 108.529  1.00  0.00     0.009 C 
BRANCH   6   7
ATOM      7  C   UNL     1     129.104 145.045 109.239  1.00  0.00     0.032 C 
ATOM      8  C   UNL     1     128.307 143.821 109.698  1.00  0.00     0.014 C 
BRANCH   7   9
ATOM      9  C   UNL     1     129.797 145.671 110.421  1.00  0.00     0.044 C 
ATOM     10  O   UNL     1     129.617 145.206 111.577  1.00  0.00    -0.550 OA
ATOM     11  O   UNL     1     130.637 146.764 110.244  1.00  0.00    -0.550 OA
ENDBRANCH   7   9
ENDBRANCH   6   7
ENDBRANCH   5   6
ENDBRANCH   4   5
ENDBRANCH   3   4
ENDBRANCH   2   3
ENDBRANCH   1   2
BRANCH   1  12
ATOM     12  C   UNL     1     130.067 143.249 106.433  1.00  0.00     0.000 C 
BRANCH  12  13
ATOM     13  C   UNL     1     131.094 144.176 105.766  1.00  0.00    -0.000 C 
BRANCH  13  14
ATOM     14  C   UNL     1     130.847 145.660 106.081  1.00  0.00    -0.000 C 
BRANCH  14  15
ATOM     15  C   UNL     1     132.097 146.366 106.627  1.00  0.00    -0.000 C 
BRANCH  15  16
ATOM     16  C   UNL     1     133.306 145.418 106.630  1.00  0.00    -0.000 C 
BRANCH  16  17
ATOM     17  C   UNL     1     134.556 146.037 105.978  1.00  0.00    -0.000 C 
BRANCH  17  18
ATOM     18  C   UNL     1     134.662 145.830 104.457  1.00  0.00    -0.003 C 
ATOM     19  C   UNL     1     134.548 144.363 104.044  1.00  0.00     0.004 C 
ENDBRANCH  17  18
ENDBRANCH  16  17
ENDBRANCH  15  16
ENDBRANCH  14  15
ENDBRANCH  13  14
ENDBRANCH  12  13
ENDBRANCH   1  12
TORSDOF 14
ENDMDL
MODEL 4
REMARK VINA RESULT:    -4.021      1.374      3.392
REMARK INTER + INTRA:          -9.596
REMARK INTER:                  -7.015
REMARK INTRA:                  -2.581
REMARK UNBOUND:                -2.283
REMARK SMILES CCCCCCCCCCCCCC[C@H](C)C(=O)[O-]
REMARK SMILES IDX 9 1 10 2 11 3 12 4 13 5 14 6 15 7 16 8 17 9 18 10 19 11 8 12
REMARK SMILES IDX 7 13 6 14 5 15 4 16 3 17 2 18 1 19
REMARK H PARENT
REMARK Flexibility Score: inf
ROOT
ATOM      1  C   UNL     1     128.251 146.370 108.890  1.00  0.00     0.000 C 
ENDROOT
BRANCH   1   2
ATOM      2  C   UNL     1     129.441 145.497 109.318  1.00  0.00     0.000 C 
BRANCH   2   3
ATOM      3  C   UNL     1     129.230 144.009 109.001  1.00  0.00     0.000 C 
BRANCH   3   4
ATOM      4  C   UNL     1     130.506 143.326 108.485  1.00  0.00     0.000 C 
BRANCH   4   5
ATOM      5  C   UNL     1     131.058 144.053 107.254  1.00  0.00     0.001 C 
BRANCH   5   6
ATOM      6  C   UNL     1     132.479 144.579 107.514  1.00  0.00     0.009 C 
BRANCH   6   7
ATOM      7  C   UNL     1     132.670 146.020 106.999  1.00  0.00     0.032 C 
ATOM      8  C   UNL     1     131.494 146.434 106.109  1.00  0.00     0.014 C 
BRANCH   7   9
ATOM      9  C   UNL     1     133.959 146.162 106.234  1.00  0.00     0.044 C 
ATOM     10  O   UNL     1     133.971 146.016 104.984  1.00  0.00    -0.550 OA
ATOM     11  O   UNL     1     135.143 146.453 106.902  1.00  0.00    -0.550 OA
ENDBRANCH   7   9
ENDBRANCH   6   7
ENDBRANCH   5   6
ENDBRANCH   4   5
ENDBRANCH   3   4
ENDBRANCH   2   3
ENDBRANCH   1   2
BRANCH   1  12
ATOM     12  C   UNL     1     127.163 145.524 108.219  1.00  0.00     0.000 C 
BRANCH  12  13
ATOM     13  C   UNL     1     126.875 146.026 106.796  1.00  0.00    -0.000 C 
BRANCH  13  14
ATOM     14  C   UNL     1     127.954 145.603 105.788  1.00  0.00    -0.000 C 
BRANCH  14  15
ATOM     15  C   UNL     1     127.526 144.402 104.931  1.00  0.00    -0.000 C 
BRANCH  15  16
ATOM     16  C   UNL     1     128.101 143.093 105.494  1.00  0.00    -0.000 C 
BRANCH  16  17
ATOM     17  C   UNL     1     127.081 142.302 106.332  1.00  0.00    -0.000 C 
BRANCH  17  18
ATOM     18  C   UNL     1     127.563 140.916 106.797  1.00  0.00    -0.003 C 
ATOM     19  C   UNL     1     129.004 140.615 106.388  1.00  0.00     0.004 C 
ENDBRANCH  17  18
ENDBRANCH  16  17
ENDBRANCH  15  16
ENDBRANCH  14  15
ENDBRANCH  13  14
ENDBRANCH  12  13
ENDBRANCH   1  12
TORSDOF 14
ENDMDL
MODEL 5
REMARK VINA RESULT:    -4.008      3.621      6.735
REMARK INTER + INTRA:          -9.571
REMARK INTER:                  -7.535
REMARK INTRA:                  -2.036
REMARK UNBOUND:                -2.283
REMARK SMILES CCCCCCCCCCCCCC[C@H](C)C(=O)[O-]
REMARK SMILES IDX 9 1 10 2 11 3 12 4 13 5 14 6 15 7 16 8 17 9 18 10 19 11 8 12
REMARK SMILES IDX 7 13 6 14 5 15 4 16 3 17 2 18 1 19
REMARK H PARENT
REMARK Flexibility Score: inf
ROOT
ATOM      1  C   UNL     1     128.889 145.044 108.625  1.00  0.00     0.000 C 
ENDROOT
BRANCH   1   2
ATOM      2  C   UNL     1     127.831 145.958 107.987  1.00  0.00     0.000 C 
BRANCH   2   3
ATOM      3  C   UNL     1     126.922 145.213 106.999  1.00  0.00     0.000 C 
BRANCH   3   4
ATOM      4  C   UNL     1     127.451 145.257 105.557  1.00  0.00     0.000 C 
BRANCH   4   5
ATOM      5  C   UNL     1     127.880 143.863 105.087  1.00  0.00     0.001 C 
BRANCH   5   6
ATOM      6  C   UNL     1     127.252 142.767 105.963  1.00  0.00     0.009 C 
BRANCH   6   7
ATOM      7  C   UNL     1     128.312 141.980 106.759  1.00  0.00     0.032 C 
ATOM      8  C   UNL     1     129.624 141.896 105.973  1.00  0.00     0.014 C 
BRANCH   7   9
ATOM      9  C   UNL     1     127.829 140.592 107.089  1.00  0.00     0.044 C 
ATOM     10  O   UNL     1     127.957 140.140 108.257  1.00  0.00    -0.550 OA
ATOM     11  O   UNL     1     127.242 139.801 106.108  1.00  0.00    -0.550 OA
ENDBRANCH   7   9
ENDBRANCH   6   7
ENDBRANCH   5   6
ENDBRANCH   4   5
ENDBRANCH   3   4
ENDBRANCH   2   3
ENDBRANCH   1   2
BRANCH   1  12
ATOM     12  C   UNL     1     130.294 145.636 108.465  1.00  0.00     0.000 C 
BRANCH  12  13
ATOM     13  C   UNL     1     130.989 145.077 107.215  1.00  0.00    -0.000 C 
BRANCH  13  14
ATOM     14  C   UNL     1     130.883 146.019 106.006  1.00  0.00    -0.000 C 
BRANCH  14  15
ATOM     15  C   UNL     1     132.169 146.825 105.768  1.00  0.00    -0.000 C 
BRANCH  15  16
ATOM     16  C   UNL     1     133.411 145.997 106.134  1.00  0.00    -0.000 C 
BRANCH  16  17
ATOM     17  C   UNL     1     134.498 146.031 105.045  1.00  0.00    -0.000 C 
BRANCH  17  18
ATOM     18  C   UNL     1     134.570 144.772 104.164  1.00  0.00    -0.003 C 
ATOM     19  C   UNL     1     133.854 143.570 104.779  1.00  0.00     0.004 C 
ENDBRANCH  17  18
ENDBRANCH  16  17
ENDBRANCH  15  16
ENDBRANCH  14  15
ENDBRANCH  13  14
ENDBRANCH  12  13
ENDBRANCH   1  12
TORSDOF 14
ENDMDL
MODEL 6
REMARK VINA RESULT:    -3.956      2.085      5.312
REMARK INTER + INTRA:          -9.477
REMARK INTER:                  -7.223
REMARK INTRA:                  -2.254
REMARK UNBOUND:                -2.283
REMARK SMILES CCCCCCCCCCCCCC[C@H](C)C(=O)[O-]
REMARK SMILES IDX 9 1 10 2 11 3 12 4 13 5 14 6 15 7 16 8 17 9 18 10 19 11 8 12
REMARK SMILES IDX 7 13 6 14 5 15 4 16 3 17 2 18 1 19
REMARK H PARENT
REMARK Flexibility Score: inf
ROOT
ATOM      1  C   UNL     1     128.285 141.503 106.379  1.00  0.00     0.000 C 
ENDROOT
BRANCH   1   2
ATOM      2  C   UNL     1     127.349 142.687 106.089  1.00  0.00     0.000 C 
BRANCH   2   3
ATOM      3  C   UNL     1     127.830 143.548 104.911  1.00  0.00     0.000 C 
BRANCH   3   4
ATOM      4  C   UNL     1     127.354 145.005 105.009  1.00  0.00     0.000 C 
BRANCH   4   5
ATOM      5  C   UNL     1     127.965 145.701 106.231  1.00  0.00     0.001 C 
BRANCH   5   6
ATOM      6  C   UNL     1     129.499 145.738 106.135  1.00  0.00     0.009 C 
BRANCH   6   7
ATOM      7  C   UNL     1     130.174 145.343 107.464  1.00  0.00     0.032 C 
ATOM      8  C   UNL     1     129.178 145.437 108.624  1.00  0.00     0.014 C 
BRANCH   7   9
ATOM      9  C   UNL     1     131.369 146.214 107.751  1.00  0.00     0.044 C 
ATOM     10  O   UNL     1     131.807 146.319 108.927  1.00  0.00    -0.550 OA
ATOM     11  O   UNL     1     131.995 146.908 106.721  1.00  0.00    -0.550 OA
ENDBRANCH   7   9
ENDBRANCH   6   7
ENDBRANCH   5   6
ENDBRANCH   4   5
ENDBRANCH   3   4
ENDBRANCH   2   3
ENDBRANCH   1   2
BRANCH   1  12
ATOM     12  C   UNL     1     129.122 141.761 107.637  1.00  0.00     0.000 C 
BRANCH  12  13
ATOM     13  C   UNL     1     130.619 141.822 107.300  1.00  0.00    -0.000 C 
BRANCH  13  14
ATOM     14  C   UNL     1     130.899 141.612 105.803  1.00  0.00    -0.000 C 
BRANCH  14  15
ATOM     15  C   UNL     1     131.506 142.853 105.134  1.00  0.00    -0.000 C 
BRANCH  15  16
ATOM     16  C   UNL     1     133.027 142.704 104.977  1.00  0.00    -0.000 C 
BRANCH  16  17
ATOM     17  C   UNL     1     133.805 143.942 105.456  1.00  0.00    -0.000 C 
BRANCH  17  18
ATOM     18  C   UNL     1     134.693 144.602 104.387  1.00  0.00    -0.003 C 
ATOM     19  C   UNL     1     134.573 146.125 104.366  1.00  0.00     0.004 C 
ENDBRANCH  17  18
ENDBRANCH  16  17
ENDBRANCH  15  16
ENDBRANCH  14  15
ENDBRANCH  13  14
ENDBRANCH  12  13
ENDBRANCH   1  12
TORSDOF 14
ENDMDL
MODEL 7
REMARK VINA RESULT:    -3.949      2.725      5.874
REMARK INTER + INTRA:          -9.465
REMARK INTER:                  -7.045
REMARK INTRA:                  -2.420
REMARK UNBOUND:                -2.283
REMARK SMILES CCCCCCCCCCCCCC[C@H](C)C(=O)[O-]
REMARK SMILES IDX 9 1 10 2 11 3 12 4 13 5 14 6 15 7 16 8 17 9 18 10 19 11 8 12
REMARK SMILES IDX 7 13 6 14 5 15 4 16 3 17 2 18 1 19
REMARK H PARENT
REMARK Flexibility Score: inf
ROOT
ATOM      1  C   UNL     1     127.302 146.095 108.723  1.00  0.00     0.000 C 
ENDROOT
BRANCH   1   2
ATOM      2  C   UNL     1     126.982 145.234 107.492  1.00  0.00     0.000 C 
BRANCH   2   3
ATOM      3  C   UNL     1     127.139 146.004 106.172  1.00  0.00     0.000 C 
BRANCH   3   4
ATOM      4  C   UNL     1     127.617 145.111 105.018  1.00  0.00     0.000 C 
BRANCH   4   5
ATOM      5  C   UNL     1     127.458 143.627 105.369  1.00  0.00     0.001 C 
BRANCH   5   6
ATOM      6  C   UNL     1     128.816 142.907 105.354  1.00  0.00     0.009 C 
BRANCH   6   7
ATOM      7  C   UNL     1     128.736 141.501 105.981  1.00  0.00     0.032 C 
ATOM      8  C   UNL     1     127.717 141.478 107.125  1.00  0.00     0.014 C 
BRANCH   7   9
ATOM      9  C   UNL     1     130.080 141.051 106.491  1.00  0.00     0.044 C 
ATOM     10  O   UNL     1     130.991 140.739 105.679  1.00  0.00    -0.550 OA
ATOM     11  O   UNL     1     130.324 140.977 107.857  1.00  0.00    -0.550 OA
ENDBRANCH   7   9
ENDBRANCH   6   7
ENDBRANCH   5   6
ENDBRANCH   4   5
ENDBRANCH   3   4
ENDBRANCH   2   3
ENDBRANCH   1   2
BRANCH   1  12
ATOM     12  C   UNL     1     128.750 145.884 109.179  1.00  0.00     0.000 C 
BRANCH  12  13
ATOM     13  C   UNL     1     129.222 144.455 108.870  1.00  0.00    -0.000 C 
BRANCH  13  14
ATOM     14  C   UNL     1     130.541 144.424 108.081  1.00  0.00    -0.000 C 
BRANCH  14  15
ATOM     15  C   UNL     1     131.059 145.828 107.737  1.00  0.00    -0.000 C 
BRANCH  15  16
ATOM     16  C   UNL     1     130.972 146.091 106.225  1.00  0.00    -0.000 C 
BRANCH  16  17
ATOM     17  C   UNL     1     132.297 146.596 105.627  1.00  0.00    -0.000 C 
BRANCH  17  18
ATOM     18  C   UNL     1     133.564 145.997 106.263  1.00  0.00    -0.003 C 
ATOM     19  C   UNL     1     134.674 145.729 105.248  1.00  0.00     0.004 C 
ENDBRANCH  17  18
ENDBRANCH  16  17
ENDBRANCH  15  16
ENDBRANCH  14  15
ENDBRANCH  13  14
ENDBRANCH  12  13
ENDBRANCH   1  12
TORSDOF 14
ENDMDL
MODEL 8
REMARK VINA RESULT:    -3.884      1.719      2.458
REMARK INTER + INTRA:          -9.347
REMARK INTER:                  -6.925
REMARK INTRA:                  -2.422
REMARK UNBOUND:                -2.283
REMARK SMILES CCCCCCCCCCCCCC[C@H](C)C(=O)[O-]
REMARK SMILES IDX 9 1 10 2 11 3 12 4 13 5 14 6 15 7 16 8 17 9 18 10 19 11 8 12
REMARK SMILES IDX 7 13 6 14 5 15 4 16 3 17 2 18 1 19
REMARK H PARENT
REMARK Flexibility Score: inf
ROOT
ATOM      1  C   UNL     1     128.303 142.136 105.763  1.00  0.00     0.000 C 
ENDROOT
BRANCH   1   2
ATOM      2  C   UNL     1     128.955 141.992 107.147  1.00  0.00     0.000 C 
BRANCH   2   3
ATOM      3  C   UNL     1     130.415 142.469 107.168  1.00  0.00     0.000 C 
BRANCH   3   4
ATOM      4  C   UNL     1     130.958 142.779 105.764  1.00  0.00     0.000 C 
BRANCH   4   5
ATOM      5  C   UNL     1     131.784 144.070 105.767  1.00  0.00     0.001 C 
BRANCH   5   6
ATOM      6  C   UNL     1     131.990 144.591 107.199  1.00  0.00     0.009 C 
BRANCH   6   7
ATOM      7  C   UNL     1     131.885 146.127 107.280  1.00  0.00     0.032 C 
ATOM      8  C   UNL     1     132.045 146.752 105.891  1.00  0.00     0.014 C 
BRANCH   7   9
ATOM      9  C   UNL     1     132.918 146.697 108.215  1.00  0.00     0.044 C 
ATOM     10  O   UNL     1     132.577 147.125 109.349  1.00  0.00    -0.550 OA
ATOM     11  O   UNL     1     134.254 146.757 107.833  1.00  0.00    -0.550 OA
ENDBRANCH   7   9
ENDBRANCH   6   7
ENDBRANCH   5   6
ENDBRANCH   4   5
ENDBRANCH   3   4
ENDBRANCH   2   3
ENDBRANCH   1   2
BRANCH   1  12
ATOM     12  C   UNL     1     127.244 143.244 105.767  1.00  0.00     0.000 C 
BRANCH  12  13
ATOM     13  C   UNL     1     127.747 144.491 105.024  1.00  0.00    -0.000 C 
BRANCH  13  14
ATOM     14  C   UNL     1     128.234 145.593 105.978  1.00  0.00    -0.000 C 
BRANCH  14  15
ATOM     15  C   UNL     1     127.319 145.765 107.200  1.00  0.00    -0.000 C 
BRANCH  15  16
ATOM     16  C   UNL     1     127.933 145.102 108.443  1.00  0.00    -0.000 C 
BRANCH  16  17
ATOM     17  C   UNL     1     128.923 146.018 109.185  1.00  0.00    -0.000 C 
BRANCH  17  18
ATOM     18  C   UNL     1     129.618 145.372 110.396  1.00  0.00    -0.003 C 
ATOM     19  C   UNL     1     128.655 144.602 111.298  1.00  0.00     0.004 C 
ENDBRANCH  17  18
ENDBRANCH  16  17
ENDBRANCH  15  16
ENDBRANCH  14  15
ENDBRANCH  13  14
ENDBRANCH  12  13
ENDBRANCH   1  12
TORSDOF 14
ENDMDL
MODEL 9
REMARK VINA RESULT:    -3.873      2.583      6.365
REMARK INTER + INTRA:          -9.327
REMARK INTER:                  -7.110
REMARK INTRA:                  -2.216
REMARK UNBOUND:                -2.283
REMARK SMILES CCCCCCCCCCCCCC[C@H](C)C(=O)[O-]
REMARK SMILES IDX 9 1 10 2 11 3 12 4 13 5 14 6 15 7 16 8 17 9 18 10 19 11 8 12
REMARK SMILES IDX 7 13 6 14 5 15 4 16 3 17 2 18 1 19
REMARK H PARENT
REMARK Flexibility Score: inf
ROOT
ATOM      1  C   UNL     1     130.922 144.011 106.320  1.00  0.00     0.000 C 
ENDROOT
BRANCH   1   2
ATOM      2  C   UNL     1     130.189 142.950 105.485  1.00  0.00     0.000 C 
BRANCH   2   3
ATOM      3  C   UNL     1     128.772 143.386 105.082  1.00  0.00     0.000 C 
BRANCH   3   4
ATOM      4  C   UNL     1     127.686 142.773 105.978  1.00  0.00     0.000 C 
BRANCH   4   5
ATOM      5  C   UNL     1     127.111 143.820 106.939  1.00  0.00     0.001 C 
BRANCH   5   6
ATOM      6  C   UNL     1     127.771 143.719 108.324  1.00  0.00     0.009 C 
BRANCH   6   7
ATOM      7  C   UNL     1     127.844 145.086 109.034  1.00  0.00     0.032 C 
ATOM      8  C   UNL     1     127.367 146.204 108.102  1.00  0.00     0.014 C 
BRANCH   7   9
ATOM      9  C   UNL     1     129.243 145.383 109.507  1.00  0.00     0.044 C 
ATOM     10  O   UNL     1     130.055 144.443 109.708  1.00  0.00    -0.550 OA
ATOM     11  O   UNL     1     129.646 146.696 109.725  1.00  0.00    -0.550 OA
ENDBRANCH   7   9
ENDBRANCH   6   7
ENDBRANCH   5   6
ENDBRANCH   4   5
ENDBRANCH   3   4
ENDBRANCH   2   3
ENDBRANCH   1   2
BRANCH   1  12
ATOM     12  C   UNL     1     130.397 145.417 106.003  1.00  0.00     0.000 C 
BRANCH  12  13
ATOM     13  C   UNL     1     131.519 146.461 106.113  1.00  0.00    -0.000 C 
BRANCH  13  14
ATOM     14  C   UNL     1     132.583 146.080 107.154  1.00  0.00    -0.000 C 
BRANCH  14  15
ATOM     15  C   UNL     1     134.004 146.067 106.571  1.00  0.00    -0.000 C 
BRANCH  15  16
ATOM     16  C   UNL     1     133.974 146.255 105.046  1.00  0.00    -0.000 C 
BRANCH  16  17
ATOM     17  C   UNL     1     134.669 145.111 104.287  1.00  0.00    -0.000 C 
BRANCH  17  18
ATOM     18  C   UNL     1     134.042 143.722 104.496  1.00  0.00    -0.003 C 
ATOM     19  C   UNL     1     134.918 142.585 103.971  1.00  0.00     0.004 C 
ENDBRANCH  17  18
ENDBRANCH  16  17
ENDBRANCH  15  16
ENDBRANCH  14  15
ENDBRANCH  13  14
ENDBRANCH  12  13
ENDBRANCH   1  12
TORSDOF 14
ENDMDL
