MODEL 1
REMARK VINA RESULT:     1.970      0.000      0.000
REMARK INTER + INTRA:           1.970
REMARK INTER:                   1.970
REMARK INTRA:                   0.000
REMARK UNBOUND:                 0.000
REMARK SMILES CC(C)=C1CC[C@H](C)CC1=O
REMARK SMILES IDX 8 1 7 2 6 3 5 4 4 5 2 6 1 7 3 8 10 9 11 10 9 11
REMARK H PARENT
REMARK Flexibility Score: inf
ROOT
ATOM      1  C   UNL     1       8.446  16.993   2.125  1.00  0.00     0.008 C 
ATOM      2  C   UNL     1       9.041  15.704   1.547  1.00  0.00    -0.006 C 
ATOM      3  C   UNL     1       9.015  15.737   0.010  1.00  0.00     0.008 C 
ATOM      4  C   UNL     1       9.512  14.414  -0.585  1.00  0.00     0.039 C 
ATOM      5  C   UNL     1      10.869  13.999  -0.034  1.00  0.00    -0.006 C 
ATOM      6  C   UNL     1      11.761  13.300  -0.794  1.00  0.00    -0.070 C 
ATOM      7  C   UNL     1      11.432  12.893  -2.213  1.00  0.00     0.039 C 
ATOM      8  C   UNL     1      13.133  12.932  -0.276  1.00  0.00     0.039 C 
ATOM      9  C   UNL     1      11.110  14.299   1.411  1.00  0.00     0.159 C 
ATOM     10  O   UNL     1      11.830  13.550   2.123  1.00  0.00    -0.295 OA
ATOM     11  C   UNL     1      10.481  15.507   2.042  1.00  0.00     0.084 C 
ENDROOT
TORSDOF 0
ENDMDL
MODEL 2
REMARK VINA RESULT:     2.663      1.927      2.367
REMARK INTER + INTRA:           2.663
REMARK INTER:                   2.663
REMARK INTRA:                   0.000
REMARK UNBOUND:                 0.000
REMARK SMILES CC(C)=C1CC[C@H](C)CC1=O
REMARK SMILES IDX 8 1 7 2 6 3 5 4 4 5 2 6 1 7 3 8 10 9 11 10 9 11
REMARK H PARENT
REMARK Flexibility Score: inf
ROOT
ATOM      1  C   UNL     1       6.743  17.392   2.122  1.00  0.00     0.008 C 
ATOM      2  C   UNL     1       8.098  16.677   2.121  1.00  0.00    -0.006 C 
ATOM      3  C   UNL     1       7.928  15.194   1.754  1.00  0.00     0.008 C 
ATOM      4  C   UNL     1       9.259  14.439   1.848  1.00  0.00     0.039 C 
ATOM      5  C   UNL     1      10.370  15.112   1.054  1.00  0.00    -0.006 C 
ATOM      6  C   UNL     1      11.366  14.386   0.470  1.00  0.00    -0.070 C 
ATOM      7  C   UNL     1      11.419  12.880   0.601  1.00  0.00     0.039 C 
ATOM      8  C   UNL     1      12.442  15.038  -0.369  1.00  0.00     0.039 C 
ATOM      9  C   UNL     1      10.363  16.607   1.055  1.00  0.00     0.159 C 
ATOM     10  O   UNL     1      11.436  17.266   0.996  1.00  0.00    -0.295 OA
ATOM     11  C   UNL     1       9.063  17.352   1.136  1.00  0.00     0.084 C 
ENDROOT
TORSDOF 0
ENDMDL
MODEL 3
REMARK VINA RESULT:     3.058      1.529      4.486
REMARK INTER + INTRA:           3.058
REMARK INTER:                   3.058
REMARK INTRA:                   0.000
REMARK UNBOUND:                 0.000
REMARK SMILES CC(C)=C1CC[C@H](C)CC1=O
REMARK SMILES IDX 8 1 7 2 6 3 5 4 4 5 2 6 1 7 3 8 10 9 11 10 9 11
REMARK H PARENT
REMARK Flexibility Score: inf
ROOT
ATOM      1  C   UNL     1      12.625  13.268  -0.546  1.00  0.00     0.008 C 
ATOM      2  C   UNL     1      11.711  13.933   0.489  1.00  0.00    -0.006 C 
ATOM      3  C   UNL     1      11.580  15.439   0.209  1.00  0.00     0.008 C 
ATOM      4  C   UNL     1      10.752  16.139   1.293  1.00  0.00     0.039 C 
ATOM      5  C   UNL     1       9.404  15.469   1.522  1.00  0.00    -0.006 C 
ATOM      6  C   UNL     1       8.308  16.190   1.899  1.00  0.00    -0.070 C 
ATOM      7  C   UNL     1       8.390  17.683   2.122  1.00  0.00     0.039 C 
ATOM      8  C   UNL     1       6.951  15.545   2.073  1.00  0.00     0.039 C 
ATOM      9  C   UNL     1       9.387  13.978   1.423  1.00  0.00     0.159 C 
ATOM     10  O   UNL     1       8.603  13.285   2.124  1.00  0.00    -0.295 OA
ATOM     11  C   UNL     1      10.322  13.277   0.481  1.00  0.00     0.084 C 
ENDROOT
TORSDOF 0
ENDMDL
MODEL 4
REMARK VINA RESULT:     4.350      1.657      4.382
REMARK INTER + INTRA:           4.350
REMARK INTER:                   4.350
REMARK INTRA:                   0.000
REMARK UNBOUND:                 0.000
REMARK SMILES CC(C)=C1CC[C@H](C)CC1=O
REMARK SMILES IDX 8 1 7 2 6 3 5 4 4 5 2 6 1 7 3 8 10 9 11 10 9 11
REMARK H PARENT
REMARK Flexibility Score: inf
ROOT
ATOM      1  C   UNL     1      11.001  12.877  -2.924  1.00  0.00     0.008 C 
ATOM      2  C   UNL     1      10.929  13.421  -1.493  1.00  0.00    -0.006 C 
ATOM      3  C   UNL     1      11.825  14.660  -1.338  1.00  0.00     0.008 C 
ATOM      4  C   UNL     1      11.845  15.157   0.113  1.00  0.00     0.039 C 
ATOM      5  C   UNL     1      10.447  15.374   0.675  1.00  0.00    -0.006 C 
ATOM      6  C   UNL     1      10.198  16.345   1.602  1.00  0.00    -0.070 C 
ATOM      7  C   UNL     1      11.304  17.235   2.121  1.00  0.00     0.039 C 
ATOM      8  C   UNL     1       8.804  16.608   2.125  1.00  0.00     0.039 C 
ATOM      9  C   UNL     1       9.406  14.394   0.242  1.00  0.00     0.159 C 
ATOM     10  O   UNL     1       8.459  14.065   1.005  1.00  0.00    -0.295 OA
ATOM     11  C   UNL     1       9.480  13.773  -1.122  1.00  0.00     0.084 C 
ENDROOT
TORSDOF 0
ENDMDL
MODEL 5
REMARK VINA RESULT:     4.445      2.419      3.398
REMARK INTER + INTRA:           4.445
REMARK INTER:                   4.445
REMARK INTRA:                   0.000
REMARK UNBOUND:                 0.000
REMARK SMILES CC(C)=C1CC[C@H](C)CC1=O
REMARK SMILES IDX 8 1 7 2 6 3 5 4 4 5 2 6 1 7 3 8 10 9 11 10 9 11
REMARK H PARENT
REMARK Flexibility Score: inf
ROOT
ATOM      1  C   UNL     1       5.597  14.030   1.755  1.00  0.00     0.008 C 
ATOM      2  C   UNL     1       7.039  14.397   2.123  1.00  0.00    -0.006 C 
ATOM      3  C   UNL     1       8.014  13.310   1.642  1.00  0.00     0.008 C 
ATOM      4  C   UNL     1       9.450  13.609   2.091  1.00  0.00     0.039 C 
ATOM      5  C   UNL     1       9.902  15.011   1.705  1.00  0.00    -0.006 C 
ATOM      6  C   UNL     1      11.207  15.279   1.409  1.00  0.00    -0.070 C 
ATOM      7  C   UNL     1      12.263  14.198   1.469  1.00  0.00     0.039 C 
ATOM      8  C   UNL     1      11.658  16.654   0.969  1.00  0.00     0.039 C 
ATOM      9  C   UNL     1       8.862  16.081   1.784  1.00  0.00     0.159 C 
ATOM     10  O   UNL     1       9.165  17.266   2.086  1.00  0.00    -0.295 OA
ATOM     11  C   UNL     1       7.424  15.752   1.511  1.00  0.00     0.084 C 
ENDROOT
TORSDOF 0
ENDMDL
