MODEL 1
REMARK VINA RESULT:    -6.319      0.000      0.000
REMARK INTER + INTRA:         -10.055
REMARK INTER:                  -8.721
REMARK INTRA:                  -1.334
REMARK UNBOUND:                -1.334
REMARK SMILES O=C([O-])[C@@H]1O[C@@H](Oc2cc3oc(-c4ccccc4)cc(=O)c3c(O)c2O)[C@H](O)[C@H](O)[C@H]1O
REMARK SMILES IDX 7 1 6 2 4 3 31 4 5 5 29 6 27 7 2 8 1 9 3 10 32 11 30 13
REMARK SMILES IDX 28 15 8 17 25 18 9 19 23 20 10 21 22 22 11 23 20 24 12 25
REMARK SMILES IDX 19 26 21 27 26 28 24 30 13 32 14 33 18 34 15 35 17 36 16 37
REMARK H PARENT 32 12 30 14 28 16 26 29 24 31
REMARK Flexibility Score: inf
ROOT
ATOM      1  O   UNL     1      23.673  -2.105  17.850  1.00  0.00    -0.458 OA
ENDROOT
BRANCH   1   2
ATOM      2  C   UNL     1      24.458  -2.422  19.006  1.00  0.00     0.339 C 
ATOM      3  C   UNL     1      24.143  -0.280  19.921  1.00  0.00     0.199 C 
ATOM      4  C   UNL     1      25.627   0.116  19.779  1.00  0.00     0.180 C 
ATOM      5  O   UNL     1      24.006  -1.678  20.128  1.00  0.00    -0.328 OA
ATOM      6  C   UNL     1      26.267  -0.673  18.624  1.00  0.00     0.181 C 
ATOM      7  C   UNL     1      25.966  -2.181  18.750  1.00  0.00     0.214 C 
BRANCH   3   8
ATOM      8  C   UNL     1      23.537   0.429  21.096  1.00  0.00     0.073 C 
ATOM      9  O   UNL     1      22.316   0.740  21.089  1.00  0.00    -0.547 OA
ATOM     10  O   UNL     1      24.327   0.780  22.185  1.00  0.00    -0.547 OA
ENDBRANCH   3   8
BRANCH   4  11
ATOM     11  O   UNL     1      25.718   1.494  19.516  1.00  0.00    -0.387 OA
ATOM     12  H   UNL     1      25.117   1.683  18.749  1.00  0.00     0.211 HD
ENDBRANCH   4  11
BRANCH   6  13
ATOM     13  O   UNL     1      27.654  -0.451  18.614  1.00  0.00    -0.387 OA
ATOM     14  H   UNL     1      27.933  -0.345  19.561  1.00  0.00     0.211 HD
ENDBRANCH   6  13
BRANCH   7  15
ATOM     15  O   UNL     1      26.752  -2.780  19.752  1.00  0.00    -0.384 OA
ATOM     16  H   UNL     1      26.154  -3.308  20.342  1.00  0.00     0.211 HD
ENDBRANCH   7  15
ENDBRANCH   1   2
BRANCH   1  17
ATOM     17  C   UNL     1      22.500  -2.760  17.435  1.00  0.00     0.172 A 
ATOM     18  C   UNL     1      21.270  -2.236  17.859  1.00  0.00     0.201 A 
ATOM     19  C   UNL     1      22.527  -3.907  16.626  1.00  0.00     0.098 A 
ATOM     20  C   UNL     1      20.056  -2.855  17.468  1.00  0.00     0.176 A 
ATOM     21  C   UNL     1      21.342  -4.528  16.235  1.00  0.00     0.146 A 
ATOM     22  C   UNL     1      20.095  -4.010  16.647  1.00  0.00     0.111 A 
ATOM     23  O   UNL     1      21.408  -5.612  15.468  1.00  0.00    -0.456 OA
ATOM     24  C   UNL     1      18.935  -4.685  16.207  1.00  0.00     0.197 A 
ATOM     25  C   UNL     1      20.335  -6.276  15.045  1.00  0.00     0.138 A 
ATOM     26  C   UNL     1      19.058  -5.818  15.403  1.00  0.00     0.100 A 
ATOM     27  O   UNL     1      17.780  -4.284  16.520  1.00  0.00    -0.289 OA
BRANCH  18  28
ATOM     28  O   UNL     1      21.304  -1.097  18.669  1.00  0.00    -0.502 OA
ATOM     29  H   UNL     1      21.952  -0.951  19.428  1.00  0.00     0.293 HD
ENDBRANCH  18  28
BRANCH  20  30
ATOM     30  O   UNL     1      18.816  -2.350  17.874  1.00  0.00    -0.504 OA
ATOM     31  H   UNL     1      18.229  -2.767  18.580  1.00  0.00     0.293 HD
ENDBRANCH  20  30
BRANCH  25  32
ATOM     32  C   UNL     1      20.529  -7.475  14.192  1.00  0.00     0.017 A 
ATOM     33  C   UNL     1      21.773  -8.132  14.107  1.00  0.00     0.012 A 
ATOM     34  C   UNL     1      19.455  -7.956  13.419  1.00  0.00     0.012 A 
ATOM     35  C   UNL     1      21.927  -9.254  13.286  1.00  0.00     0.001 A 
ATOM     36  C   UNL     1      19.615  -9.078  12.601  1.00  0.00     0.001 A 
ATOM     37  C   UNL     1      20.848  -9.728  12.536  1.00  0.00     0.000 A 
ENDBRANCH  25  32
ENDBRANCH   1  17
TORSDOF 9
ENDMDL
MODEL 2
REMARK VINA RESULT:    -6.264      4.069      6.453
REMARK INTER + INTRA:          -9.979
REMARK INTER:                  -9.218
REMARK INTRA:                  -0.761
REMARK UNBOUND:                -1.334
REMARK SMILES O=C([O-])[C@@H]1O[C@@H](Oc2cc3oc(-c4ccccc4)cc(=O)c3c(O)c2O)[C@H](O)[C@H](O)[C@H]1O
REMARK SMILES IDX 7 1 6 2 4 3 31 4 5 5 29 6 27 7 2 8 1 9 3 10 32 11 30 13
REMARK SMILES IDX 28 15 8 17 25 18 9 19 23 20 10 21 22 22 11 23 20 24 12 25
REMARK SMILES IDX 19 26 21 27 26 28 24 30 13 32 14 33 18 34 15 35 17 36 16 37
REMARK H PARENT 32 12 30 14 28 16 26 29 24 31
REMARK Flexibility Score: inf
ROOT
ATOM      1  O   UNL     1      26.002  -1.409  14.908  1.00  0.00    -0.458 OA
ENDROOT
BRANCH   1   2
ATOM      2  C   UNL     1      26.631  -0.187  14.504  1.00  0.00     0.339 C 
ATOM      3  C   UNL     1      24.766   0.459  13.229  1.00  0.00     0.199 C 
ATOM      4  C   UNL     1      25.511   0.345  11.883  1.00  0.00     0.180 C 
ATOM      5  O   UNL     1      25.654   0.818  14.276  1.00  0.00    -0.328 OA
ATOM      6  C   UNL     1      26.653  -0.678  12.006  1.00  0.00     0.181 C 
ATOM      7  C   UNL     1      27.518  -0.395  13.251  1.00  0.00     0.214 C 
BRANCH   3   8
ATOM      8  C   UNL     1      23.702   1.513  13.134  1.00  0.00     0.073 C 
ATOM      9  O   UNL     1      22.545   1.213  12.735  1.00  0.00    -0.547 OA
ATOM     10  O   UNL     1      23.997   2.834  13.451  1.00  0.00    -0.547 OA
ENDBRANCH   3   8
BRANCH   4  11
ATOM     11  O   UNL     1      24.612  -0.070  10.886  1.00  0.00    -0.387 OA
ATOM     12  H   UNL     1      24.635   0.619  10.171  1.00  0.00     0.211 HD
ENDBRANCH   4  11
BRANCH   6  13
ATOM     13  O   UNL     1      27.443  -0.645  10.845  1.00  0.00    -0.387 OA
ATOM     14  H   UNL     1      27.912   0.230  10.845  1.00  0.00     0.211 HD
ENDBRANCH   6  13
BRANCH   7  15
ATOM     15  O   UNL     1      28.370   0.708  13.046  1.00  0.00    -0.384 OA
ATOM     16  H   UNL     1      29.235   0.370  12.695  1.00  0.00     0.211 HD
ENDBRANCH   7  15
ENDBRANCH   1   2
BRANCH   1  17
ATOM     17  C   UNL     1      25.235  -1.606  16.070  1.00  0.00     0.172 A 
ATOM     18  C   UNL     1      25.831  -1.319  17.307  1.00  0.00     0.201 A 
ATOM     19  C   UNL     1      23.914  -2.080  16.027  1.00  0.00     0.098 A 
ATOM     20  C   UNL     1      25.102  -1.497  18.510  1.00  0.00     0.176 A 
ATOM     21  C   UNL     1      23.186  -2.262  17.201  1.00  0.00     0.146 A 
ATOM     22  C   UNL     1      23.767  -1.971  18.454  1.00  0.00     0.111 A 
ATOM     23  O   UNL     1      21.937  -2.712  17.119  1.00  0.00    -0.456 OA
ATOM     24  C   UNL     1      22.970  -2.171  19.602  1.00  0.00     0.197 A 
ATOM     25  C   UNL     1      21.163  -2.920  18.181  1.00  0.00     0.138 A 
ATOM     26  C   UNL     1      21.665  -2.645  19.462  1.00  0.00     0.100 A 
ATOM     27  O   UNL     1      23.407  -1.927  20.760  1.00  0.00    -0.289 OA
BRANCH  18  28
ATOM     28  O   UNL     1      27.150  -0.857  17.290  1.00  0.00    -0.502 OA
ATOM     29  H   UNL     1      27.425   0.083  17.048  1.00  0.00     0.293 HD
ENDBRANCH  18  28
BRANCH  20  30
ATOM     30  O   UNL     1      25.672  -1.214  19.757  1.00  0.00    -0.504 OA
ATOM     31  H   UNL     1      26.612  -0.876  19.895  1.00  0.00     0.293 HD
ENDBRANCH  20  30
BRANCH  25  32
ATOM     32  C   UNL     1      19.783  -3.425  17.970  1.00  0.00     0.017 A 
ATOM     33  C   UNL     1      19.403  -4.068  16.774  1.00  0.00     0.012 A 
ATOM     34  C   UNL     1      18.814  -3.233  18.973  1.00  0.00     0.012 A 
ATOM     35  C   UNL     1      18.092  -4.524  16.601  1.00  0.00     0.001 A 
ATOM     36  C   UNL     1      17.506  -3.690  18.794  1.00  0.00     0.001 A 
ATOM     37  C   UNL     1      17.145  -4.338  17.611  1.00  0.00     0.000 A 
ENDBRANCH  25  32
ENDBRANCH   1  17
TORSDOF 9
ENDMDL
MODEL 3
REMARK VINA RESULT:    -5.935      2.962      8.217
REMARK INTER + INTRA:          -9.524
REMARK INTER:                  -8.529
REMARK INTRA:                  -0.995
REMARK UNBOUND:                -1.334
REMARK SMILES O=C([O-])[C@@H]1O[C@@H](Oc2cc3oc(-c4ccccc4)cc(=O)c3c(O)c2O)[C@H](O)[C@H](O)[C@H]1O
REMARK SMILES IDX 7 1 6 2 4 3 31 4 5 5 29 6 27 7 2 8 1 9 3 10 32 11 30 13
REMARK SMILES IDX 28 15 8 17 25 18 9 19 23 20 10 21 22 22 11 23 20 24 12 25
REMARK SMILES IDX 19 26 21 27 26 28 24 30 13 32 14 33 18 34 15 35 17 36 16 37
REMARK H PARENT 32 12 30 14 28 16 26 29 24 31
REMARK Flexibility Score: inf
ROOT
ATOM      1  O   UNL     1      20.326  -4.574  17.599  1.00  0.00    -0.458 OA
ENDROOT
BRANCH   1   2
ATOM      2  C   UNL     1      20.376  -5.990  17.811  1.00  0.00     0.339 C 
ATOM      3  C   UNL     1      20.856  -6.404  15.548  1.00  0.00     0.199 C 
ATOM      4  C   UNL     1      19.511  -7.108  15.279  1.00  0.00     0.180 C 
ATOM      5  O   UNL     1      21.273  -6.594  16.891  1.00  0.00    -0.328 OA
ATOM      6  C   UNL     1      18.447  -6.589  16.261  1.00  0.00     0.181 C 
ATOM      7  C   UNL     1      18.968  -6.627  17.713  1.00  0.00     0.214 C 
BRANCH   3   8
ATOM      8  C   UNL     1      21.914  -6.965  14.645  1.00  0.00     0.073 C 
ATOM      9  O   UNL     1      22.982  -7.428  15.129  1.00  0.00    -0.547 OA
ATOM     10  O   UNL     1      21.741  -6.944  13.266  1.00  0.00    -0.547 OA
ENDBRANCH   3   8
BRANCH   4  11
ATOM     11  O   UNL     1      19.103  -6.848  13.960  1.00  0.00    -0.387 OA
ATOM     12  H   UNL     1      19.194  -5.870  13.817  1.00  0.00     0.211 HD
ENDBRANCH   4  11
BRANCH   6  13
ATOM     13  O   UNL     1      17.279  -7.359  16.141  1.00  0.00    -0.387 OA
ATOM     14  H   UNL     1      16.561  -6.863  16.615  1.00  0.00     0.211 HD
ENDBRANCH   6  13
BRANCH   7  15
ATOM     15  O   UNL     1      18.969  -7.939  18.224  1.00  0.00    -0.384 OA
ATOM     16  H   UNL     1      18.047  -8.158  18.520  1.00  0.00     0.211 HD
ENDBRANCH   7  15
ENDBRANCH   1   2
BRANCH   1  17
ATOM     17  C   UNL     1      21.384  -3.667  17.784  1.00  0.00     0.172 A 
ATOM     18  C   UNL     1      21.637  -3.210  19.085  1.00  0.00     0.201 A 
ATOM     19  C   UNL     1      22.175  -3.208  16.718  1.00  0.00     0.098 A 
ATOM     20  C   UNL     1      22.694  -2.296  19.329  1.00  0.00     0.176 A 
ATOM     21  C   UNL     1      23.215  -2.308  16.942  1.00  0.00     0.146 A 
ATOM     22  C   UNL     1      23.489  -1.844  18.247  1.00  0.00     0.111 A 
ATOM     23  O   UNL     1      23.943  -1.897  15.908  1.00  0.00    -0.456 OA
ATOM     24  C   UNL     1      24.562  -0.939  18.401  1.00  0.00     0.197 A 
ATOM     25  C   UNL     1      24.953  -1.039  16.018  1.00  0.00     0.138 A 
ATOM     26  C   UNL     1      25.295  -0.539  17.284  1.00  0.00     0.100 A 
ATOM     27  O   UNL     1      24.882  -0.483  19.533  1.00  0.00    -0.289 OA
BRANCH  18  28
ATOM     28  O   UNL     1      20.814  -3.694  20.106  1.00  0.00    -0.502 OA
ATOM     29  H   UNL     1      20.253  -3.116  20.714  1.00  0.00     0.293 HD
ENDBRANCH  18  28
BRANCH  20  30
ATOM     30  O   UNL     1      22.971  -1.829  20.619  1.00  0.00    -0.504 OA
ATOM     31  H   UNL     1      22.764  -2.331  21.469  1.00  0.00     0.293 HD
ENDBRANCH  20  30
BRANCH  25  32
ATOM     32  C   UNL     1      25.696  -0.650  14.793  1.00  0.00     0.017 A 
ATOM     33  C   UNL     1      25.343   0.489  14.041  1.00  0.00     0.012 A 
ATOM     34  C   UNL     1      26.763  -1.452  14.347  1.00  0.00     0.012 A 
ATOM     35  C   UNL     1      26.056   0.823  12.885  1.00  0.00     0.001 A 
ATOM     36  C   UNL     1      27.472  -1.113  13.191  1.00  0.00     0.001 A 
ATOM     37  C   UNL     1      27.122   0.025  12.463  1.00  0.00     0.000 A 
ENDBRANCH  25  32
ENDBRANCH   1  17
TORSDOF 9
ENDMDL
MODEL 4
REMARK VINA RESULT:    -5.880      3.164      8.414
REMARK INTER + INTRA:          -9.449
REMARK INTER:                  -8.651
REMARK INTRA:                  -0.798
REMARK UNBOUND:                -1.334
REMARK SMILES O=C([O-])[C@@H]1O[C@@H](Oc2cc3oc(-c4ccccc4)cc(=O)c3c(O)c2O)[C@H](O)[C@H](O)[C@H]1O
REMARK SMILES IDX 7 1 6 2 4 3 31 4 5 5 29 6 27 7 2 8 1 9 3 10 32 11 30 13
REMARK SMILES IDX 28 15 8 17 25 18 9 19 23 20 10 21 22 22 11 23 20 24 12 25
REMARK SMILES IDX 19 26 21 27 26 28 24 30 13 32 14 33 18 34 15 35 17 36 16 37
REMARK H PARENT 32 12 30 14 28 16 26 29 24 31
REMARK Flexibility Score: inf
ROOT
ATOM      1  O   UNL     1      21.071  -5.568  16.993  1.00  0.00    -0.458 OA
ENDROOT
BRANCH   1   2
ATOM      2  C   UNL     1      20.171  -5.733  15.890  1.00  0.00     0.339 C 
ATOM      3  C   UNL     1      20.074  -8.060  16.199  1.00  0.00     0.199 C 
ATOM      4  C   UNL     1      20.790  -8.375  14.870  1.00  0.00     0.180 C 
ATOM      5  O   UNL     1      19.329  -6.855  16.105  1.00  0.00    -0.328 OA
ATOM      6  C   UNL     1      21.700  -7.199  14.478  1.00  0.00     0.181 C 
ATOM      7  C   UNL     1      20.937  -5.860  14.549  1.00  0.00     0.214 C 
BRANCH   3   8
ATOM      8  C   UNL     1      19.126  -9.171  16.543  1.00  0.00     0.073 C 
ATOM      9  O   UNL     1      18.706  -9.304  17.723  1.00  0.00    -0.547 OA
ATOM     10  O   UNL     1      18.735 -10.083  15.569  1.00  0.00    -0.547 OA
ENDBRANCH   3   8
BRANCH   4  11
ATOM     11  O   UNL     1      21.562  -9.540  15.020  1.00  0.00    -0.387 OA
ATOM     12  H   UNL     1      20.982 -10.305  14.771  1.00  0.00     0.211 HD
ENDBRANCH   4  11
BRANCH   6  13
ATOM     13  O   UNL     1      22.205  -7.404  13.184  1.00  0.00    -0.387 OA
ATOM     14  H   UNL     1      22.814  -6.643  12.991  1.00  0.00     0.211 HD
ENDBRANCH   6  13
BRANCH   7  15
ATOM     15  O   UNL     1      20.067  -5.706  13.453  1.00  0.00    -0.384 OA
ATOM     16  H   UNL     1      19.227  -5.289  13.780  1.00  0.00     0.211 HD
ENDBRANCH   7  15
ENDBRANCH   1   2
BRANCH   1  17
ATOM     17  C   UNL     1      21.846  -4.428  17.273  1.00  0.00     0.172 A 
ATOM     18  C   UNL     1      21.784  -3.894  18.568  1.00  0.00     0.201 A 
ATOM     19  C   UNL     1      22.660  -3.818  16.306  1.00  0.00     0.098 A 
ATOM     20  C   UNL     1      22.546  -2.747  18.906  1.00  0.00     0.176 A 
ATOM     21  C   UNL     1      23.414  -2.689  16.622  1.00  0.00     0.146 A 
ATOM     22  C   UNL     1      23.369  -2.142  17.923  1.00  0.00     0.111 A 
ATOM     23  O   UNL     1      24.174  -2.139  15.680  1.00  0.00    -0.456 OA
ATOM     24  C   UNL     1      24.164  -1.003  18.176  1.00  0.00     0.197 A 
ATOM     25  C   UNL     1      24.926  -1.060  15.883  1.00  0.00     0.138 A 
ATOM     26  C   UNL     1      24.944  -0.464  17.153  1.00  0.00     0.100 A 
ATOM     27  O   UNL     1      24.191  -0.457  19.313  1.00  0.00    -0.289 OA
BRANCH  18  28
ATOM     28  O   UNL     1      20.951  -4.539  19.488  1.00  0.00    -0.502 OA
ATOM     29  H   UNL     1      20.412  -4.070  20.200  1.00  0.00     0.293 HD
ENDBRANCH  18  28
BRANCH  20  30
ATOM     30  O   UNL     1      22.506  -2.198  20.192  1.00  0.00    -0.504 OA
ATOM     31  H   UNL     1      23.235  -1.631  20.598  1.00  0.00     0.293 HD
ENDBRANCH  20  30
BRANCH  25  32
ATOM     32  C   UNL     1      25.735  -0.533  14.756  1.00  0.00     0.017 A 
ATOM     33  C   UNL     1      25.373   0.645  14.070  1.00  0.00     0.012 A 
ATOM     34  C   UNL     1      26.878  -1.237  14.334  1.00  0.00     0.012 A 
ATOM     35  C   UNL     1      26.151   1.111  13.005  1.00  0.00     0.001 A 
ATOM     36  C   UNL     1      27.651  -0.766  13.269  1.00  0.00     0.001 A 
ATOM     37  C   UNL     1      27.290   0.408  12.607  1.00  0.00     0.000 A 
ENDBRANCH  25  32
ENDBRANCH   1  17
TORSDOF 9
ENDMDL
MODEL 5
REMARK VINA RESULT:    -5.844      3.302      8.162
REMARK INTER + INTRA:          -9.398
REMARK INTER:                  -8.419
REMARK INTRA:                  -0.979
REMARK UNBOUND:                -1.334
REMARK SMILES O=C([O-])[C@@H]1O[C@@H](Oc2cc3oc(-c4ccccc4)cc(=O)c3c(O)c2O)[C@H](O)[C@H](O)[C@H]1O
REMARK SMILES IDX 7 1 6 2 4 3 31 4 5 5 29 6 27 7 2 8 1 9 3 10 32 11 30 13
REMARK SMILES IDX 28 15 8 17 25 18 9 19 23 20 10 21 22 22 11 23 20 24 12 25
REMARK SMILES IDX 19 26 21 27 26 28 24 30 13 32 14 33 18 34 15 35 17 36 16 37
REMARK H PARENT 32 12 30 14 28 16 26 29 24 31
REMARK Flexibility Score: inf
ROOT
ATOM      1  O   UNL     1      20.859  -5.112  16.875  1.00  0.00    -0.458 OA
ENDROOT
BRANCH   1   2
ATOM      2  C   UNL     1      21.019  -6.081  15.831  1.00  0.00     0.339 C 
ATOM      3  C   UNL     1      19.845  -7.716  17.044  1.00  0.00     0.199 C 
ATOM      4  C   UNL     1      21.082  -8.618  17.233  1.00  0.00     0.180 C 
ATOM      5  O   UNL     1      19.925  -6.987  15.829  1.00  0.00    -0.328 OA
ATOM      6  C   UNL     1      22.360  -7.764  17.191  1.00  0.00     0.181 C 
ATOM      7  C   UNL     1      22.365  -6.835  15.959  1.00  0.00     0.214 C 
BRANCH   3   8
ATOM      8  C   UNL     1      18.603  -8.557  17.005  1.00  0.00     0.073 C 
ATOM      9  O   UNL     1      17.999  -8.747  15.916  1.00  0.00    -0.547 OA
ATOM     10  O   UNL     1      18.088  -9.099  18.177  1.00  0.00    -0.547 OA
ENDBRANCH   3   8
BRANCH   4  11
ATOM     11  O   UNL     1      20.994  -9.277  18.471  1.00  0.00    -0.387 OA
ATOM     12  H   UNL     1      21.917  -9.335  18.833  1.00  0.00     0.211 HD
ENDBRANCH   4  11
BRANCH   6  13
ATOM     13  O   UNL     1      23.487  -8.601  17.176  1.00  0.00    -0.387 OA
ATOM     14  H   UNL     1      23.526  -9.043  18.065  1.00  0.00     0.211 HD
ENDBRANCH   6  13
BRANCH   7  15
ATOM     15  O   UNL     1      22.661  -7.546  14.781  1.00  0.00    -0.384 OA
ATOM     16  H   UNL     1      21.807  -7.760  14.324  1.00  0.00     0.211 HD
ENDBRANCH   7  15
ENDBRANCH   1   2
BRANCH   1  17
ATOM     17  C   UNL     1      21.755  -4.077  17.194  1.00  0.00     0.172 A 
ATOM     18  C   UNL     1      21.815  -3.649  18.529  1.00  0.00     0.201 A 
ATOM     19  C   UNL     1      22.572  -3.467  16.230  1.00  0.00     0.098 A 
ATOM     20  C   UNL     1      22.702  -2.610  18.907  1.00  0.00     0.176 A 
ATOM     21  C   UNL     1      23.448  -2.443  16.586  1.00  0.00     0.146 A 
ATOM     22  C   UNL     1      23.526  -2.004  17.926  1.00  0.00     0.111 A 
ATOM     23  O   UNL     1      24.206  -1.889  15.645  1.00  0.00    -0.456 OA
ATOM     24  C   UNL     1      24.441  -0.968  18.217  1.00  0.00     0.197 A 
ATOM     25  C   UNL     1      25.070  -0.906  15.884  1.00  0.00     0.138 A 
ATOM     26  C   UNL     1      25.214  -0.421  17.193  1.00  0.00     0.100 A 
ATOM     27  O   UNL     1      24.582  -0.524  19.389  1.00  0.00    -0.289 OA
BRANCH  18  28
ATOM     28  O   UNL     1      20.974  -4.288  19.445  1.00  0.00    -0.502 OA
ATOM     29  H   UNL     1      20.064  -4.663  19.223  1.00  0.00     0.293 HD
ENDBRANCH  18  28
BRANCH  20  30
ATOM     30  O   UNL     1      22.785  -2.168  20.232  1.00  0.00    -0.504 OA
ATOM     31  H   UNL     1      23.443  -2.514  20.914  1.00  0.00     0.293 HD
ENDBRANCH  20  30
BRANCH  25  32
ATOM     32  C   UNL     1      25.865  -0.363  14.754  1.00  0.00     0.017 A 
ATOM     33  C   UNL     1      27.112  -0.914  14.394  1.00  0.00     0.012 A 
ATOM     34  C   UNL     1      25.384   0.749  14.038  1.00  0.00     0.012 A 
ATOM     35  C   UNL     1      27.844  -0.374  13.330  1.00  0.00     0.001 A 
ATOM     36  C   UNL     1      26.119   1.283  12.977  1.00  0.00     0.001 A 
ATOM     37  C   UNL     1      27.346   0.722  12.621  1.00  0.00     0.000 A 
ENDBRANCH  25  32
ENDBRANCH   1  17
TORSDOF 9
ENDMDL
MODEL 6
REMARK VINA RESULT:    -5.697      2.269      8.925
REMARK INTER + INTRA:          -9.196
REMARK INTER:                  -8.000
REMARK INTRA:                  -1.197
REMARK UNBOUND:                -1.334
REMARK SMILES O=C([O-])[C@@H]1O[C@@H](Oc2cc3oc(-c4ccccc4)cc(=O)c3c(O)c2O)[C@H](O)[C@H](O)[C@H]1O
REMARK SMILES IDX 7 1 6 2 4 3 31 4 5 5 29 6 27 7 2 8 1 9 3 10 32 11 30 13
REMARK SMILES IDX 28 15 8 17 25 18 9 19 23 20 10 21 22 22 11 23 20 24 12 25
REMARK SMILES IDX 19 26 21 27 26 28 24 30 13 32 14 33 18 34 15 35 17 36 16 37
REMARK H PARENT 32 12 30 14 28 16 26 29 24 31
REMARK Flexibility Score: inf
ROOT
ATOM      1  O   UNL     1      21.720  -5.969  14.933  1.00  0.00    -0.458 OA
ENDROOT
BRANCH   1   2
ATOM      2  C   UNL     1      22.407  -7.221  15.045  1.00  0.00     0.339 C 
ATOM      3  C   UNL     1      20.636  -8.387  14.029  1.00  0.00     0.199 C 
ATOM      4  C   UNL     1      20.275  -9.169  15.308  1.00  0.00     0.180 C 
ATOM      5  O   UNL     1      22.024  -8.089  13.987  1.00  0.00    -0.328 OA
ATOM      6  C   UNL     1      20.699  -8.364  16.548  1.00  0.00     0.181 C 
ATOM      7  C   UNL     1      22.160  -7.882  16.423  1.00  0.00     0.214 C 
BRANCH   3   8
ATOM      8  C   UNL     1      20.297  -9.205  12.818  1.00  0.00     0.073 C 
ATOM      9  O   UNL     1      21.157  -9.971  12.308  1.00  0.00    -0.547 OA
ATOM     10  O   UNL     1      19.042  -9.095  12.229  1.00  0.00    -0.547 OA
ENDBRANCH   3   8
BRANCH   4  11
ATOM     11  O   UNL     1      18.888  -9.393  15.342  1.00  0.00    -0.387 OA
ATOM     12  H   UNL     1      18.740 -10.332  15.055  1.00  0.00     0.211 HD
ENDBRANCH   4  11
BRANCH   6  13
ATOM     13  O   UNL     1      20.542  -9.152  17.699  1.00  0.00    -0.387 OA
ATOM     14  H   UNL     1      20.747  -8.567  18.475  1.00  0.00     0.211 HD
ENDBRANCH   6  13
BRANCH   7  15
ATOM     15  O   UNL     1      23.068  -8.934  16.650  1.00  0.00    -0.384 OA
ATOM     16  H   UNL     1      22.786  -9.416  17.471  1.00  0.00     0.211 HD
ENDBRANCH   7  15
ENDBRANCH   1   2
BRANCH   1  17
ATOM     17  C   UNL     1      21.671  -4.956  15.907  1.00  0.00     0.172 A 
ATOM     18  C   UNL     1      20.415  -4.584  16.406  1.00  0.00     0.201 A 
ATOM     19  C   UNL     1      22.827  -4.314  16.380  1.00  0.00     0.098 A 
ATOM     20  C   UNL     1      20.308  -3.569  17.391  1.00  0.00     0.176 A 
ATOM     21  C   UNL     1      22.738  -3.314  17.347  1.00  0.00     0.146 A 
ATOM     22  C   UNL     1      21.481  -2.931  17.865  1.00  0.00     0.111 A 
ATOM     23  O   UNL     1      23.854  -2.729  17.771  1.00  0.00    -0.456 OA
ATOM     24  C   UNL     1      21.466  -1.917  18.847  1.00  0.00     0.197 A 
ATOM     25  C   UNL     1      23.873  -1.764  18.687  1.00  0.00     0.138 A 
ATOM     26  C   UNL     1      22.665  -1.335  19.258  1.00  0.00     0.100 A 
ATOM     27  O   UNL     1      20.388  -1.522  19.371  1.00  0.00    -0.289 OA
BRANCH  18  28
ATOM     28  O   UNL     1      19.299  -5.252  15.893  1.00  0.00    -0.502 OA
ATOM     29  H   UNL     1      19.154  -6.249  15.943  1.00  0.00     0.293 HD
ENDBRANCH  18  28
BRANCH  20  30
ATOM     30  O   UNL     1      19.066  -3.183  17.908  1.00  0.00    -0.504 OA
ATOM     31  H   UNL     1      18.459  -2.495  17.490  1.00  0.00     0.293 HD
ENDBRANCH  20  30
BRANCH  25  32
ATOM     32  C   UNL     1      25.180  -1.183  19.085  1.00  0.00     0.017 A 
ATOM     33  C   UNL     1      26.378  -1.920  18.991  1.00  0.00     0.012 A 
ATOM     34  C   UNL     1      25.229   0.126  19.599  1.00  0.00     0.012 A 
ATOM     35  C   UNL     1      27.593  -1.349  19.385  1.00  0.00     0.001 A 
ATOM     36  C   UNL     1      26.445   0.691  19.989  1.00  0.00     0.001 A 
ATOM     37  C   UNL     1      27.627  -0.043  19.880  1.00  0.00     0.000 A 
ENDBRANCH  25  32
ENDBRANCH   1  17
TORSDOF 9
ENDMDL
MODEL 7
REMARK VINA RESULT:    -5.609      3.452      8.026
REMARK INTER + INTRA:          -9.075
REMARK INTER:                  -8.068
REMARK INTRA:                  -1.007
REMARK UNBOUND:                -1.334
REMARK SMILES O=C([O-])[C@@H]1O[C@@H](Oc2cc3oc(-c4ccccc4)cc(=O)c3c(O)c2O)[C@H](O)[C@H](O)[C@H]1O
REMARK SMILES IDX 7 1 6 2 4 3 31 4 5 5 29 6 27 7 2 8 1 9 3 10 32 11 30 13
REMARK SMILES IDX 28 15 8 17 25 18 9 19 23 20 10 21 22 22 11 23 20 24 12 25
REMARK SMILES IDX 19 26 21 27 26 28 24 30 13 32 14 33 18 34 15 35 17 36 16 37
REMARK H PARENT 32 12 30 14 28 16 26 29 24 31
REMARK Flexibility Score: inf
ROOT
ATOM      1  O   UNL     1      20.138  -3.314  18.206  1.00  0.00    -0.458 OA
ENDROOT
BRANCH   1   2
ATOM      2  C   UNL     1      18.922  -2.557  18.205  1.00  0.00     0.339 C 
ATOM      3  C   UNL     1      17.604  -4.503  18.219  1.00  0.00     0.199 C 
ATOM      4  C   UNL     1      17.038  -4.259  16.806  1.00  0.00     0.180 C 
ATOM      5  O   UNL     1      17.894  -3.276  18.872  1.00  0.00    -0.328 OA
ATOM      6  C   UNL     1      18.034  -3.425  15.983  1.00  0.00     0.181 C 
ATOM      7  C   UNL     1      18.491  -2.177  16.767  1.00  0.00     0.214 C 
BRANCH   3   8
ATOM      8  C   UNL     1      16.601  -5.249  19.049  1.00  0.00     0.073 C 
ATOM      9  O   UNL     1      16.328  -6.450  18.786  1.00  0.00    -0.547 OA
ATOM     10  O   UNL     1      15.938  -4.607  20.088  1.00  0.00    -0.547 OA
ENDBRANCH   3   8
BRANCH   4  11
ATOM     11  O   UNL     1      16.819  -5.494  16.171  1.00  0.00    -0.387 OA
ATOM     12  H   UNL     1      17.488  -6.129  16.537  1.00  0.00     0.211 HD
ENDBRANCH   4  11
BRANCH   6  13
ATOM     13  O   UNL     1      17.442  -3.047  14.767  1.00  0.00    -0.387 OA
ATOM     14  H   UNL     1      16.655  -3.638  14.637  1.00  0.00     0.211 HD
ENDBRANCH   6  13
BRANCH   7  15
ATOM     15  O   UNL     1      17.492  -1.185  16.783  1.00  0.00    -0.384 OA
ATOM     16  H   UNL     1      17.914  -0.317  16.555  1.00  0.00     0.211 HD
ENDBRANCH   7  15
ENDBRANCH   1   2
BRANCH   1  17
ATOM     17  C   UNL     1      21.444  -2.792  18.226  1.00  0.00     0.172 A 
ATOM     18  C   UNL     1      22.071  -2.642  19.472  1.00  0.00     0.201 A 
ATOM     19  C   UNL     1      22.121  -2.417  17.055  1.00  0.00     0.098 A 
ATOM     20  C   UNL     1      23.388  -2.123  19.551  1.00  0.00     0.176 A 
ATOM     21  C   UNL     1      23.416  -1.904  17.117  1.00  0.00     0.146 A 
ATOM     22  C   UNL     1      24.065  -1.753  18.362  1.00  0.00     0.111 A 
ATOM     23  O   UNL     1      24.025  -1.561  15.987  1.00  0.00    -0.456 OA
ATOM     24  C   UNL     1      25.378  -1.234  18.350  1.00  0.00     0.197 A 
ATOM     25  C   UNL     1      25.257  -1.060  15.942  1.00  0.00     0.138 A 
ATOM     26  C   UNL     1      25.974  -0.889  17.136  1.00  0.00     0.100 A 
ATOM     27  O   UNL     1      26.035  -1.076  19.415  1.00  0.00    -0.289 OA
BRANCH  18  28
ATOM     28  O   UNL     1      21.347  -3.025  20.604  1.00  0.00    -0.502 OA
ATOM     29  H   UNL     1      21.041  -3.966  20.799  1.00  0.00     0.293 HD
ENDBRANCH  18  28
BRANCH  20  30
ATOM     30  O   UNL     1      24.039  -1.968  20.780  1.00  0.00    -0.504 OA
ATOM     31  H   UNL     1      24.169  -2.703  21.458  1.00  0.00     0.293 HD
ENDBRANCH  20  30
BRANCH  25  32
ATOM     32  C   UNL     1      25.839  -0.712  14.621  1.00  0.00     0.017 A 
ATOM     33  C   UNL     1      25.315   0.333  13.832  1.00  0.00     0.012 A 
ATOM     34  C   UNL     1      26.921  -1.461  14.121  1.00  0.00     0.012 A 
ATOM     35  C   UNL     1      25.878   0.630  12.586  1.00  0.00     0.001 A 
ATOM     36  C   UNL     1      27.479  -1.159  12.876  1.00  0.00     0.001 A 
ATOM     37  C   UNL     1      26.961  -0.113  12.111  1.00  0.00     0.000 A 
ENDBRANCH  25  32
ENDBRANCH   1  17
TORSDOF 9
ENDMDL
MODEL 8
REMARK VINA RESULT:    -5.474      1.954      3.091
REMARK INTER + INTRA:          -8.889
REMARK INTER:                  -7.783
REMARK INTRA:                  -1.106
REMARK UNBOUND:                -1.334
REMARK SMILES O=C([O-])[C@@H]1O[C@@H](Oc2cc3oc(-c4ccccc4)cc(=O)c3c(O)c2O)[C@H](O)[C@H](O)[C@H]1O
REMARK SMILES IDX 7 1 6 2 4 3 31 4 5 5 29 6 27 7 2 8 1 9 3 10 32 11 30 13
REMARK SMILES IDX 28 15 8 17 25 18 9 19 23 20 10 21 22 22 11 23 20 24 12 25
REMARK SMILES IDX 19 26 21 27 26 28 24 30 13 32 14 33 18 34 15 35 17 36 16 37
REMARK H PARENT 32 12 30 14 28 16 26 29 24 31
REMARK Flexibility Score: inf
ROOT
ATOM      1  O   UNL     1      22.270  -2.075  20.127  1.00  0.00    -0.458 OA
ENDROOT
BRANCH   1   2
ATOM      2  C   UNL     1      22.484  -0.804  19.501  1.00  0.00     0.339 C 
ATOM      3  C   UNL     1      24.567  -1.473  18.643  1.00  0.00     0.199 C 
ATOM      4  C   UNL     1      25.366  -0.488  19.520  1.00  0.00     0.180 C 
ATOM      5  O   UNL     1      23.281  -0.956  18.336  1.00  0.00    -0.328 OA
ATOM      6  C   UNL     1      24.579  -0.180  20.806  1.00  0.00     0.181 C 
ATOM      7  C   UNL     1      23.122   0.210  20.483  1.00  0.00     0.214 C 
BRANCH   3   8
ATOM      8  C   UNL     1      25.295  -1.713  17.353  1.00  0.00     0.073 C 
ATOM      9  O   UNL     1      24.854  -2.551  16.522  1.00  0.00    -0.547 OA
ATOM     10  O   UNL     1      26.481  -1.041  17.084  1.00  0.00    -0.547 OA
ENDBRANCH   3   8
BRANCH   4  11
ATOM     11  O   UNL     1      26.606  -1.059  19.851  1.00  0.00    -0.387 OA
ATOM     12  H   UNL     1      27.303  -0.393  19.616  1.00  0.00     0.211 HD
ENDBRANCH   4  11
BRANCH   6  13
ATOM     13  O   UNL     1      25.216   0.853  21.513  1.00  0.00    -0.387 OA
ATOM     14  H   UNL     1      24.574   1.163  22.204  1.00  0.00     0.211 HD
ENDBRANCH   6  13
BRANCH   7  15
ATOM     15  O   UNL     1      23.041   1.522  19.979  1.00  0.00    -0.384 OA
ATOM     16  H   UNL     1      23.964   1.858  19.837  1.00  0.00     0.211 HD
ENDBRANCH   7  15
ENDBRANCH   1   2
BRANCH   1  17
ATOM     17  C   UNL     1      21.419  -3.096  19.669  1.00  0.00     0.172 A 
ATOM     18  C   UNL     1      20.235  -3.333  20.384  1.00  0.00     0.201 A 
ATOM     19  C   UNL     1      21.719  -3.875  18.540  1.00  0.00     0.098 A 
ATOM     20  C   UNL     1      19.339  -4.349  19.965  1.00  0.00     0.176 A 
ATOM     21  C   UNL     1      20.849  -4.878  18.118  1.00  0.00     0.146 A 
ATOM     22  C   UNL     1      19.650  -5.126  18.821  1.00  0.00     0.111 A 
ATOM     23  O   UNL     1      21.167  -5.595  17.044  1.00  0.00    -0.456 OA
ATOM     24  C   UNL     1      18.812  -6.152  18.333  1.00  0.00     0.197 A 
ATOM     25  C   UNL     1      20.405  -6.574  16.565  1.00  0.00     0.138 A 
ATOM     26  C   UNL     1      19.192  -6.875  17.201  1.00  0.00     0.100 A 
ATOM     27  O   UNL     1      17.717  -6.433  18.894  1.00  0.00    -0.289 OA
BRANCH  18  28
ATOM     28  O   UNL     1      19.991  -2.532  21.503  1.00  0.00    -0.502 OA
ATOM     29  H   UNL     1      19.584  -2.861  22.365  1.00  0.00     0.293 HD
ENDBRANCH  18  28
BRANCH  20  30
ATOM     30  O   UNL     1      18.150  -4.603  20.657  1.00  0.00    -0.504 OA
ATOM     31  H   UNL     1      17.237  -4.284  20.368  1.00  0.00     0.293 HD
ENDBRANCH  20  30
BRANCH  25  32
ATOM     32  C   UNL     1      20.861  -7.308  15.357  1.00  0.00     0.017 A 
ATOM     33  C   UNL     1      21.038  -8.706  15.362  1.00  0.00     0.012 A 
ATOM     34  C   UNL     1      21.158  -6.592  14.183  1.00  0.00     0.012 A 
ATOM     35  C   UNL     1      21.480  -9.368  14.211  1.00  0.00     0.001 A 
ATOM     36  C   UNL     1      21.598  -7.259  13.036  1.00  0.00     0.001 A 
ATOM     37  C   UNL     1      21.756  -8.645  13.049  1.00  0.00     0.000 A 
ENDBRANCH  25  32
ENDBRANCH   1  17
TORSDOF 9
ENDMDL
MODEL 9
REMARK VINA RESULT:    -5.462      4.220     10.394
REMARK INTER + INTRA:          -8.872
REMARK INTER:                  -7.833
REMARK INTRA:                  -1.039
REMARK UNBOUND:                -1.334
REMARK SMILES O=C([O-])[C@@H]1O[C@@H](Oc2cc3oc(-c4ccccc4)cc(=O)c3c(O)c2O)[C@H](O)[C@H](O)[C@H]1O
REMARK SMILES IDX 7 1 6 2 4 3 31 4 5 5 29 6 27 7 2 8 1 9 3 10 32 11 30 13
REMARK SMILES IDX 28 15 8 17 25 18 9 19 23 20 10 21 22 22 11 23 20 24 12 25
REMARK SMILES IDX 19 26 21 27 26 28 24 30 13 32 14 33 18 34 15 35 17 36 16 37
REMARK H PARENT 32 12 30 14 28 16 26 29 24 31
REMARK Flexibility Score: inf
ROOT
ATOM      1  O   UNL     1      19.897  -7.480  11.823  1.00  0.00    -0.458 OA
ENDROOT
BRANCH   1   2
ATOM      2  C   UNL     1      18.900  -6.613  11.270  1.00  0.00     0.339 C 
ATOM      3  C   UNL     1      18.469  -8.091   9.494  1.00  0.00     0.199 C 
ATOM      4  C   UNL     1      19.022  -7.132   8.420  1.00  0.00     0.180 C 
ATOM      5  O   UNL     1      17.914  -7.371  10.584  1.00  0.00    -0.328 OA
ATOM      6  C   UNL     1      20.069  -6.196   9.047  1.00  0.00     0.181 C 
ATOM      7  C   UNL     1      19.529  -5.547  10.339  1.00  0.00     0.214 C 
BRANCH   3   8
ATOM      8  C   UNL     1      17.391  -8.950   8.903  1.00  0.00     0.073 C 
ATOM      9  O   UNL     1      17.691  -9.946   8.192  1.00  0.00    -0.547 OA
ATOM     10  O   UNL     1      16.053  -8.632   9.105  1.00  0.00    -0.547 OA
ENDBRANCH   3   8
BRANCH   4  11
ATOM     11  O   UNL     1      19.615  -7.879   7.388  1.00  0.00    -0.387 OA
ATOM     12  H   UNL     1      20.546  -8.073   7.670  1.00  0.00     0.211 HD
ENDBRANCH   4  11
BRANCH   6  13
ATOM     13  O   UNL     1      20.434  -5.207   8.120  1.00  0.00    -0.387 OA
ATOM     14  H   UNL     1      20.204  -5.561   7.221  1.00  0.00     0.211 HD
ENDBRANCH   6  13
BRANCH   7  15
ATOM     15  O   UNL     1      18.611  -4.520  10.052  1.00  0.00    -0.384 OA
ATOM     16  H   UNL     1      18.422  -4.535   9.078  1.00  0.00     0.211 HD
ENDBRANCH   7  15
ENDBRANCH   1   2
BRANCH   1  17
ATOM     17  C   UNL     1      20.444  -7.403  13.116  1.00  0.00     0.172 A 
ATOM     18  C   UNL     1      21.049  -8.553  13.643  1.00  0.00     0.201 A 
ATOM     19  C   UNL     1      20.395  -6.228  13.883  1.00  0.00     0.098 A 
ATOM     20  C   UNL     1      21.618  -8.531  14.941  1.00  0.00     0.176 A 
ATOM     21  C   UNL     1      20.949  -6.191  15.162  1.00  0.00     0.146 A 
ATOM     22  C   UNL     1      21.568  -7.338  15.705  1.00  0.00     0.111 A 
ATOM     23  O   UNL     1      20.884  -5.060  15.858  1.00  0.00    -0.456 OA
ATOM     24  C   UNL     1      22.114  -7.227  17.002  1.00  0.00     0.197 A 
ATOM     25  C   UNL     1      21.379  -4.926  17.085  1.00  0.00     0.138 A 
ATOM     26  C   UNL     1      22.020  -6.017  17.691  1.00  0.00     0.100 A 
ATOM     27  O   UNL     1      22.694  -8.199  17.559  1.00  0.00    -0.289 OA
BRANCH  18  28
ATOM     28  O   UNL     1      21.062  -9.696  12.838  1.00  0.00    -0.502 OA
ATOM     29  H   UNL     1      20.255 -10.268  12.641  1.00  0.00     0.293 HD
ENDBRANCH  18  28
BRANCH  20  30
ATOM     30  O   UNL     1      22.232  -9.663  15.488  1.00  0.00    -0.504 OA
ATOM     31  H   UNL     1      23.194  -9.708  15.788  1.00  0.00     0.293 HD
ENDBRANCH  20  30
BRANCH  25  32
ATOM     32  C   UNL     1      21.249  -3.614  17.768  1.00  0.00     0.017 A 
ATOM     33  C   UNL     1      20.093  -2.818  17.631  1.00  0.00     0.012 A 
ATOM     34  C   UNL     1      22.316  -3.130  18.548  1.00  0.00     0.012 A 
ATOM     35  C   UNL     1      20.005  -1.581  18.279  1.00  0.00     0.001 A 
ATOM     36  C   UNL     1      22.222  -1.894  19.192  1.00  0.00     0.001 A 
ATOM     37  C   UNL     1      21.067  -1.121  19.061  1.00  0.00     0.000 A 
ENDBRANCH  25  32
ENDBRANCH   1  17
TORSDOF 9
ENDMDL
