MODEL 1
REMARK VINA RESULT:    -7.039      0.000      0.000
REMARK INTER + INTRA:          -8.577
REMARK INTER:                  -8.273
REMARK INTRA:                  -0.304
REMARK UNBOUND:                -0.304
REMARK SMILES O=c1c(O)c(-c2ccc(O)c(O)c2)oc2cc(O)ccc12
REMARK SMILES IDX 5 1 3 2 2 3 1 4 21 5 15 6 14 7 16 8 17 9 19 10 20 11 6 12
REMARK SMILES IDX 7 13 8 14 9 15 13 16 11 17 10 18 12 20 4 22 18 24
REMARK H PARENT 10 19 12 21 4 23 18 25
REMARK Flexibility Score: inf
ROOT
ATOM      1  C   UNL     1      51.942  -2.573   0.389  1.00  0.00     0.180 A 
ATOM      2  C   UNL     1      52.797  -3.298   1.245  1.00  0.00     0.208 A 
ATOM      3  C   UNL     1      54.173  -3.025   1.218  1.00  0.00     0.235 A 
ATOM      4  O   UNL     1      54.959  -3.668   1.967  1.00  0.00    -0.285 OA
ATOM      5  C   UNL     1      54.663  -2.028   0.359  1.00  0.00     0.069 A 
ATOM      6  C   UNL     1      53.739  -1.330  -0.450  1.00  0.00     0.142 A 
ATOM      7  O   UNL     1      52.445  -1.626  -0.400  1.00  0.00    -0.452 OA
ATOM      8  C   UNL     1      54.186  -0.322  -1.312  1.00  0.00     0.094 A 
ATOM      9  C   UNL     1      55.550  -0.004  -1.378  1.00  0.00     0.119 A 
ATOM     10  C   UNL     1      56.466  -0.695  -0.578  1.00  0.00     0.047 A 
ATOM     11  C   UNL     1      56.029  -1.702   0.288  1.00  0.00     0.020 A 
ENDROOT
BRANCH   1  12
ATOM     12  C   UNL     1      50.483  -2.815   0.345  1.00  0.00     0.025 A 
ATOM     13  C   UNL     1      49.589  -2.044   1.109  1.00  0.00     0.016 A 
ATOM     14  C   UNL     1      48.217  -2.306   1.069  1.00  0.00     0.051 A 
ATOM     15  C   UNL     1      47.721  -3.351   0.278  1.00  0.00     0.157 A 
ATOM     16  C   UNL     1      49.982  -3.873  -0.430  1.00  0.00     0.062 A 
ATOM     17  C   UNL     1      48.605  -4.137  -0.471  1.00  0.00     0.158 A 
BRANCH  15  18
ATOM     18  O   UNL     1      46.353  -3.615   0.234  1.00  0.00    -0.504 OA
ATOM     19  H   UNL     1      45.670  -2.926   0.530  1.00  0.00     0.293 HD
ENDBRANCH  15  18
BRANCH  17  20
ATOM     20  O   UNL     1      48.109  -5.181  -1.251  1.00  0.00    -0.504 OA
ATOM     21  H   UNL     1      48.538  -5.433  -2.133  1.00  0.00     0.293 HD
ENDBRANCH  17  20
ENDBRANCH   1  12
BRANCH   2  22
ATOM     22  O   UNL     1      52.276  -4.251   2.125  1.00  0.00    -0.502 OA
ATOM     23  H   UNL     1      52.658  -5.185   2.200  1.00  0.00     0.293 HD
ENDBRANCH   2  22
BRANCH   9  24
ATOM     24  O   UNL     1      56.003   0.998  -2.234  1.00  0.00    -0.508 OA
ATOM     25  H   UNL     1      56.911   0.943  -2.678  1.00  0.00     0.293 HD
ENDBRANCH   9  24
TORSDOF 5
ENDMDL
MODEL 2
REMARK VINA RESULT:    -6.784      2.447      4.091
REMARK INTER + INTRA:          -8.278
REMARK INTER:                  -7.970
REMARK INTRA:                  -0.308
REMARK UNBOUND:                -0.304
REMARK SMILES O=c1c(O)c(-c2ccc(O)c(O)c2)oc2cc(O)ccc12
REMARK SMILES IDX 5 1 3 2 2 3 1 4 21 5 15 6 14 7 16 8 17 9 19 10 20 11 6 12
REMARK SMILES IDX 7 13 8 14 9 15 13 16 11 17 10 18 12 20 4 22 18 24
REMARK H PARENT 10 19 12 21 4 23 18 25
REMARK Flexibility Score: inf
ROOT
ATOM      1  C   UNL     1      48.388  -3.505   0.432  1.00  0.00     0.180 A 
ATOM      2  C   UNL     1      48.954  -4.599   1.120  1.00  0.00     0.208 A 
ATOM      3  C   UNL     1      50.304  -4.538   1.494  1.00  0.00     0.235 A 
ATOM      4  O   UNL     1      50.836  -5.509   2.100  1.00  0.00    -0.285 OA
ATOM      5  C   UNL     1      51.053  -3.389   1.194  1.00  0.00     0.069 A 
ATOM      6  C   UNL     1      50.407  -2.327   0.523  1.00  0.00     0.142 A 
ATOM      7  O   UNL     1      49.128  -2.428   0.180  1.00  0.00    -0.452 OA
ATOM      8  C   UNL     1      51.116  -1.160   0.217  1.00  0.00     0.094 A 
ATOM      9  C   UNL     1      52.467  -1.041   0.569  1.00  0.00     0.119 A 
ATOM     10  C   UNL     1      53.109  -2.093   1.232  1.00  0.00     0.047 A 
ATOM     11  C   UNL     1      52.409  -3.263   1.545  1.00  0.00     0.020 A 
ENDROOT
BRANCH   1  12
ATOM     12  C   UNL     1      46.976  -3.501  -0.012  1.00  0.00     0.025 A 
ATOM     13  C   UNL     1      46.577  -4.153  -1.191  1.00  0.00     0.016 A 
ATOM     14  C   UNL     1      45.243  -4.116  -1.604  1.00  0.00     0.051 A 
ATOM     15  C   UNL     1      44.291  -3.415  -0.852  1.00  0.00     0.157 A 
ATOM     16  C   UNL     1      46.021  -2.783   0.727  1.00  0.00     0.062 A 
ATOM     17  C   UNL     1      44.681  -2.745   0.315  1.00  0.00     0.158 A 
BRANCH  15  18
ATOM     18  O   UNL     1      42.958  -3.377  -1.258  1.00  0.00    -0.504 OA
ATOM     19  H   UNL     1      42.642  -2.738  -1.980  1.00  0.00     0.293 HD
ENDBRANCH  15  18
BRANCH  17  20
ATOM     20  O   UNL     1      43.734  -2.042   1.057  1.00  0.00    -0.504 OA
ATOM     21  H   UNL     1      43.148  -2.504   1.742  1.00  0.00     0.293 HD
ENDBRANCH  17  20
ENDBRANCH   1  12
BRANCH   2  22
ATOM     22  O   UNL     1      48.172  -5.710   1.448  1.00  0.00    -0.502 OA
ATOM     23  H   UNL     1      47.170  -5.647   1.580  1.00  0.00     0.293 HD
ENDBRANCH   2  22
BRANCH   9  24
ATOM     24  O   UNL     1      53.180   0.117   0.266  1.00  0.00    -0.508 OA
ATOM     25  H   UNL     1      52.709   0.986   0.043  1.00  0.00     0.293 HD
ENDBRANCH   9  24
TORSDOF 5
ENDMDL
MODEL 3
REMARK VINA RESULT:    -6.336      4.550      8.186
REMARK INTER + INTRA:          -7.750
REMARK INTER:                  -7.468
REMARK INTRA:                  -0.283
REMARK UNBOUND:                -0.304
REMARK SMILES O=c1c(O)c(-c2ccc(O)c(O)c2)oc2cc(O)ccc12
REMARK SMILES IDX 5 1 3 2 2 3 1 4 21 5 15 6 14 7 16 8 17 9 19 10 20 11 6 12
REMARK SMILES IDX 7 13 8 14 9 15 13 16 11 17 10 18 12 20 4 22 18 24
REMARK H PARENT 10 19 12 21 4 23 18 25
REMARK Flexibility Score: inf
ROOT
ATOM      1  C   UNL     1      44.467  -1.982   0.346  1.00  0.00     0.180 A 
ATOM      2  C   UNL     1      44.308  -2.932  -0.684  1.00  0.00     0.208 A 
ATOM      3  C   UNL     1      45.421  -3.684  -1.089  1.00  0.00     0.235 A 
ATOM      4  O   UNL     1      45.307  -4.532  -2.015  1.00  0.00    -0.285 OA
ATOM      5  C   UNL     1      46.657  -3.487  -0.451  1.00  0.00     0.069 A 
ATOM      6  C   UNL     1      46.728  -2.532   0.587  1.00  0.00     0.142 A 
ATOM      7  O   UNL     1      45.652  -1.836   0.935  1.00  0.00    -0.452 OA
ATOM      8  C   UNL     1      47.938  -2.315   1.255  1.00  0.00     0.094 A 
ATOM      9  C   UNL     1      49.083  -3.040   0.895  1.00  0.00     0.119 A 
ATOM     10  C   UNL     1      49.015  -3.984  -0.134  1.00  0.00     0.047 A 
ATOM     11  C   UNL     1      47.809  -4.211  -0.806  1.00  0.00     0.020 A 
ENDROOT
BRANCH   1  12
ATOM     12  C   UNL     1      43.346  -1.137   0.817  1.00  0.00     0.025 A 
ATOM     13  C   UNL     1      42.375  -1.636   1.703  1.00  0.00     0.016 A 
ATOM     14  C   UNL     1      41.312  -0.829   2.115  1.00  0.00     0.051 A 
ATOM     15  C   UNL     1      41.197   0.484   1.639  1.00  0.00     0.157 A 
ATOM     16  C   UNL     1      43.214   0.172   0.327  1.00  0.00     0.062 A 
ATOM     17  C   UNL     1      42.148   0.984   0.741  1.00  0.00     0.158 A 
BRANCH  15  18
ATOM     18  O   UNL     1      40.140   1.294   2.049  1.00  0.00    -0.504 OA
ATOM     19  H   UNL     1      39.934   2.172   1.586  1.00  0.00     0.293 HD
ENDBRANCH  15  18
BRANCH  17  20
ATOM     20  O   UNL     1      42.026   2.288   0.262  1.00  0.00    -0.504 OA
ATOM     21  H   UNL     1      41.142   2.780   0.284  1.00  0.00     0.293 HD
ENDBRANCH  17  20
ENDBRANCH   1  12
BRANCH   2  22
ATOM     22  O   UNL     1      43.055  -3.141  -1.267  1.00  0.00    -0.502 OA
ATOM     23  H   UNL     1      42.777  -4.038  -1.647  1.00  0.00     0.293 HD
ENDBRANCH   2  22
BRANCH   9  24
ATOM     24  O   UNL     1      50.292  -2.828   1.554  1.00  0.00    -0.508 OA
ATOM     25  H   UNL     1      50.972  -3.571   1.664  1.00  0.00     0.293 HD
ENDBRANCH   9  24
TORSDOF 5
ENDMDL
MODEL 4
REMARK VINA RESULT:    -6.210      2.034      7.292
REMARK INTER + INTRA:          -7.603
REMARK INTER:                  -7.684
REMARK INTRA:                   0.082
REMARK UNBOUND:                -0.304
REMARK SMILES O=c1c(O)c(-c2ccc(O)c(O)c2)oc2cc(O)ccc12
REMARK SMILES IDX 5 1 3 2 2 3 1 4 21 5 15 6 14 7 16 8 17 9 19 10 20 11 6 12
REMARK SMILES IDX 7 13 8 14 9 15 13 16 11 17 10 18 12 20 4 22 18 24
REMARK H PARENT 10 19 12 21 4 23 18 25
REMARK Flexibility Score: inf
ROOT
ATOM      1  C   UNL     1      49.574  -2.780   0.643  1.00  0.00     0.180 A 
ATOM      2  C   UNL     1      49.341  -4.137   0.339  1.00  0.00     0.208 A 
ATOM      3  C   UNL     1      48.042  -4.649   0.477  1.00  0.00     0.235 A 
ATOM      4  O   UNL     1      47.811  -5.862   0.221  1.00  0.00    -0.285 OA
ATOM      5  C   UNL     1      47.006  -3.798   0.895  1.00  0.00     0.069 A 
ATOM      6  C   UNL     1      47.316  -2.446   1.158  1.00  0.00     0.142 A 
ATOM      7  O   UNL     1      48.562  -2.004   1.023  1.00  0.00    -0.452 OA
ATOM      8  C   UNL     1      46.309  -1.564   1.566  1.00  0.00     0.094 A 
ATOM      9  C   UNL     1      44.992  -2.019   1.718  1.00  0.00     0.119 A 
ATOM     10  C   UNL     1      44.683  -3.358   1.459  1.00  0.00     0.047 A 
ATOM     11  C   UNL     1      45.682  -4.247   1.049  1.00  0.00     0.020 A 
ENDROOT
BRANCH   1  12
ATOM     12  C   UNL     1      50.919  -2.171   0.540  1.00  0.00     0.025 A 
ATOM     13  C   UNL     1      51.122  -0.953  -0.133  1.00  0.00     0.016 A 
ATOM     14  C   UNL     1      52.404  -0.408  -0.238  1.00  0.00     0.051 A 
ATOM     15  C   UNL     1      53.503  -1.078   0.315  1.00  0.00     0.157 A 
ATOM     16  C   UNL     1      52.027  -2.848   1.075  1.00  0.00     0.062 A 
ATOM     17  C   UNL     1      53.315  -2.301   0.971  1.00  0.00     0.158 A 
BRANCH  15  18
ATOM     18  O   UNL     1      54.784  -0.538   0.215  1.00  0.00    -0.504 OA
ATOM     19  H   UNL     1      54.951   0.346  -0.253  1.00  0.00     0.293 HD
ENDBRANCH  15  18
BRANCH  17  20
ATOM     20  O   UNL     1      54.411  -2.970   1.514  1.00  0.00    -0.504 OA
ATOM     21  H   UNL     1      55.361  -2.713   1.272  1.00  0.00     0.293 HD
ENDBRANCH  17  20
ENDBRANCH   1  12
BRANCH   2  22
ATOM     22  O   UNL     1      50.382  -4.948  -0.122  1.00  0.00    -0.502 OA
ATOM     23  H   UNL     1      50.781  -4.845  -1.047  1.00  0.00     0.293 HD
ENDBRANCH   2  22
BRANCH   9  24
ATOM     24  O   UNL     1      43.984  -1.147   2.125  1.00  0.00    -0.508 OA
ATOM     25  H   UNL     1      43.102  -1.089   1.629  1.00  0.00     0.293 HD
ENDBRANCH   9  24
TORSDOF 5
ENDMDL
MODEL 5
REMARK VINA RESULT:    -6.106      2.597      7.843
REMARK INTER + INTRA:          -7.481
REMARK INTER:                  -7.232
REMARK INTRA:                  -0.249
REMARK UNBOUND:                -0.304
REMARK SMILES O=c1c(O)c(-c2ccc(O)c(O)c2)oc2cc(O)ccc12
REMARK SMILES IDX 5 1 3 2 2 3 1 4 21 5 15 6 14 7 16 8 17 9 19 10 20 11 6 12
REMARK SMILES IDX 7 13 8 14 9 15 13 16 11 17 10 18 12 20 4 22 18 24
REMARK H PARENT 10 19 12 21 4 23 18 25
REMARK Flexibility Score: inf
ROOT
ATOM      1  C   UNL     1      48.209  -3.104   0.572  1.00  0.00     0.180 A 
ATOM      2  C   UNL     1      47.661  -3.969  -0.399  1.00  0.00     0.208 A 
ATOM      3  C   UNL     1      46.297  -3.865  -0.707  1.00  0.00     0.235 A 
ATOM      4  O   UNL     1      45.782  -4.635  -1.563  1.00  0.00    -0.285 OA
ATOM      5  C   UNL     1      45.515  -2.894  -0.060  1.00  0.00     0.069 A 
ATOM      6  C   UNL     1      46.143  -2.050   0.883  1.00  0.00     0.142 A 
ATOM      7  O   UNL     1      47.436  -2.187   1.151  1.00  0.00    -0.452 OA
ATOM      8  C   UNL     1      45.401  -1.063   1.540  1.00  0.00     0.094 A 
ATOM      9  C   UNL     1      44.034  -0.909   1.270  1.00  0.00     0.119 A 
ATOM     10  C   UNL     1      43.410  -1.746   0.338  1.00  0.00     0.047 A 
ATOM     11  C   UNL     1      44.144  -2.734  -0.327  1.00  0.00     0.020 A 
ENDROOT
BRANCH   1  12
ATOM     12  C   UNL     1      49.634  -3.164   0.965  1.00  0.00     0.025 A 
ATOM     13  C   UNL     1      50.137  -4.226   1.738  1.00  0.00     0.016 A 
ATOM     14  C   UNL     1      51.481  -4.250   2.118  1.00  0.00     0.051 A 
ATOM     15  C   UNL     1      52.339  -3.208   1.742  1.00  0.00     0.157 A 
ATOM     16  C   UNL     1      50.494  -2.112   0.609  1.00  0.00     0.062 A 
ATOM     17  C   UNL     1      51.844  -2.136   0.989  1.00  0.00     0.158 A 
BRANCH  15  18
ATOM     18  O   UNL     1      53.681  -3.228   2.117  1.00  0.00    -0.504 OA
ATOM     19  H   UNL     1      53.959  -3.268   3.091  1.00  0.00     0.293 HD
ENDBRANCH  15  18
BRANCH  17  20
ATOM     20  O   UNL     1      52.698  -1.096   0.624  1.00  0.00    -0.504 OA
ATOM     21  H   UNL     1      53.638  -1.027   0.995  1.00  0.00     0.293 HD
ENDBRANCH  17  20
ENDBRANCH   1  12
BRANCH   2  22
ATOM     22  O   UNL     1      48.474  -4.894  -1.061  1.00  0.00    -0.502 OA
ATOM     23  H   UNL     1      48.437  -5.026  -2.065  1.00  0.00     0.293 HD
ENDBRANCH   2  22
BRANCH   9  24
ATOM     24  O   UNL     1      43.288   0.070   1.921  1.00  0.00    -0.508 OA
ATOM     25  H   UNL     1      43.590   0.467   2.803  1.00  0.00     0.293 HD
ENDBRANCH   9  24
TORSDOF 5
ENDMDL
MODEL 6
REMARK VINA RESULT:    -6.088      2.890      8.313
REMARK INTER + INTRA:          -7.459
REMARK INTER:                  -7.204
REMARK INTRA:                  -0.255
REMARK UNBOUND:                -0.304
REMARK SMILES O=c1c(O)c(-c2ccc(O)c(O)c2)oc2cc(O)ccc12
REMARK SMILES IDX 5 1 3 2 2 3 1 4 21 5 15 6 14 7 16 8 17 9 19 10 20 11 6 12
REMARK SMILES IDX 7 13 8 14 9 15 13 16 11 17 10 18 12 20 4 22 18 24
REMARK H PARENT 10 19 12 21 4 23 18 25
REMARK Flexibility Score: inf
ROOT
ATOM      1  C   UNL     1      47.527  -2.859   0.829  1.00  0.00     0.180 A 
ATOM      2  C   UNL     1      46.921  -1.701   1.360  1.00  0.00     0.208 A 
ATOM      3  C   UNL     1      45.554  -1.488   1.134  1.00  0.00     0.235 A 
ATOM      4  O   UNL     1      44.992  -0.455   1.590  1.00  0.00    -0.285 OA
ATOM      5  C   UNL     1      44.819  -2.436   0.403  1.00  0.00     0.069 A 
ATOM      6  C   UNL     1      45.493  -3.580  -0.076  1.00  0.00     0.142 A 
ATOM      7  O   UNL     1      46.792  -3.740   0.154  1.00  0.00    -0.452 OA
ATOM      8  C   UNL     1      44.794  -4.553  -0.798  1.00  0.00     0.094 A 
ATOM      9  C   UNL     1      43.424  -4.395  -1.053  1.00  0.00     0.119 A 
ATOM     10  C   UNL     1      42.755  -3.261  -0.580  1.00  0.00     0.047 A 
ATOM     11  C   UNL     1      43.445  -2.284   0.145  1.00  0.00     0.020 A 
ENDROOT
BRANCH   1  12
ATOM     12  C   UNL     1      48.968  -3.145   1.009  1.00  0.00     0.025 A 
ATOM     13  C   UNL     1      49.415  -4.088   1.951  1.00  0.00     0.016 A 
ATOM     14  C   UNL     1      50.782  -4.325   2.121  1.00  0.00     0.051 A 
ATOM     15  C   UNL     1      51.721  -3.615   1.361  1.00  0.00     0.157 A 
ATOM     16  C   UNL     1      49.915  -2.422   0.265  1.00  0.00     0.062 A 
ATOM     17  C   UNL     1      51.287  -2.660   0.433  1.00  0.00     0.158 A 
BRANCH  15  18
ATOM     18  O   UNL     1      53.085  -3.850   1.524  1.00  0.00    -0.504 OA
ATOM     19  H   UNL     1      53.769  -3.114   1.391  1.00  0.00     0.293 HD
ENDBRANCH  15  18
BRANCH  17  20
ATOM     20  O   UNL     1      52.223  -1.950  -0.316  1.00  0.00    -0.504 OA
ATOM     21  H   UNL     1      51.952  -1.167  -0.899  1.00  0.00     0.293 HD
ENDBRANCH  17  20
ENDBRANCH   1  12
BRANCH   2  22
ATOM     22  O   UNL     1      47.667  -0.799   2.125  1.00  0.00    -0.502 OA
ATOM     23  H   UNL     1      47.860   0.145   1.813  1.00  0.00     0.293 HD
ENDBRANCH   2  22
BRANCH   9  24
ATOM     24  O   UNL     1      42.721  -5.358  -1.772  1.00  0.00    -0.508 OA
ATOM     25  H   UNL     1      43.199  -6.063  -2.321  1.00  0.00     0.293 HD
ENDBRANCH   9  24
TORSDOF 5
ENDMDL
MODEL 7
REMARK VINA RESULT:    -6.052      5.029      9.317
REMARK INTER + INTRA:          -7.417
REMARK INTER:                  -7.789
REMARK INTRA:                   0.372
REMARK UNBOUND:                -0.304
REMARK SMILES O=c1c(O)c(-c2ccc(O)c(O)c2)oc2cc(O)ccc12
REMARK SMILES IDX 5 1 3 2 2 3 1 4 21 5 15 6 14 7 16 8 17 9 19 10 20 11 6 12
REMARK SMILES IDX 7 13 8 14 9 15 13 16 11 17 10 18 12 20 4 22 18 24
REMARK H PARENT 10 19 12 21 4 23 18 25
REMARK Flexibility Score: inf
ROOT
ATOM      1  C   UNL     1      44.951  -2.290   0.346  1.00  0.00     0.180 A 
ATOM      2  C   UNL     1      43.727  -2.913   0.025  1.00  0.00     0.208 A 
ATOM      3  C   UNL     1      42.540  -2.175   0.147  1.00  0.00     0.235 A 
ATOM      4  O   UNL     1      41.432  -2.713  -0.125  1.00  0.00    -0.285 OA
ATOM      5  C   UNL     1      42.599  -0.836   0.566  1.00  0.00     0.069 A 
ATOM      6  C   UNL     1      43.865  -0.279   0.847  1.00  0.00     0.142 A 
ATOM      7  O   UNL     1      44.965  -1.014   0.726  1.00  0.00    -0.452 OA
ATOM      8  C   UNL     1      43.967   1.055   1.256  1.00  0.00     0.094 A 
ATOM      9  C   UNL     1      42.814   1.842   1.392  1.00  0.00     0.119 A 
ATOM     10  C   UNL     1      41.559   1.291   1.116  1.00  0.00     0.047 A 
ATOM     11  C   UNL     1      41.447  -0.041   0.704  1.00  0.00     0.020 A 
ENDROOT
BRANCH   1  12
ATOM     12  C   UNL     1      46.244  -3.006   0.261  1.00  0.00     0.025 A 
ATOM     13  C   UNL     1      47.355  -2.605   1.022  1.00  0.00     0.016 A 
ATOM     14  C   UNL     1      48.573  -3.281   0.908  1.00  0.00     0.051 A 
ATOM     15  C   UNL     1      48.701  -4.358   0.021  1.00  0.00     0.157 A 
ATOM     16  C   UNL     1      46.384  -4.073  -0.641  1.00  0.00     0.062 A 
ATOM     17  C   UNL     1      47.605  -4.754  -0.757  1.00  0.00     0.158 A 
BRANCH  15  18
ATOM     18  O   UNL     1      49.912  -5.037  -0.095  1.00  0.00    -0.504 OA
ATOM     19  H   UNL     1      49.970  -6.042   0.022  1.00  0.00     0.293 HD
ENDBRANCH  15  18
BRANCH  17  20
ATOM     20  O   UNL     1      47.738  -5.821  -1.644  1.00  0.00    -0.504 OA
ATOM     21  H   UNL     1      47.821  -6.775  -1.316  1.00  0.00     0.293 HD
ENDBRANCH  17  20
ENDBRANCH   1  12
BRANCH   2  22
ATOM     22  O   UNL     1      43.704  -4.232  -0.436  1.00  0.00    -0.502 OA
ATOM     23  H   UNL     1      43.967  -4.480  -1.382  1.00  0.00     0.293 HD
ENDBRANCH   2  22
BRANCH   9  24
ATOM     24  O   UNL     1      42.907   3.170   1.801  1.00  0.00    -0.508 OA
ATOM     25  H   UNL     1      43.803   3.634   1.898  1.00  0.00     0.293 HD
ENDBRANCH   9  24
TORSDOF 5
ENDMDL
MODEL 8
REMARK VINA RESULT:    -5.894      6.988     10.695
REMARK INTER + INTRA:          -7.231
REMARK INTER:                  -6.928
REMARK INTRA:                  -0.303
REMARK UNBOUND:                -0.304
REMARK SMILES O=c1c(O)c(-c2ccc(O)c(O)c2)oc2cc(O)ccc12
REMARK SMILES IDX 5 1 3 2 2 3 1 4 21 5 15 6 14 7 16 8 17 9 19 10 20 11 6 12
REMARK SMILES IDX 7 13 8 14 9 15 13 16 11 17 10 18 12 20 4 22 18 24
REMARK H PARENT 10 19 12 21 4 23 18 25
REMARK Flexibility Score: inf
ROOT
ATOM      1  C   UNL     1      43.784  -1.668   0.406  1.00  0.00     0.180 A 
ATOM      2  C   UNL     1      44.215  -0.405   0.864  1.00  0.00     0.208 A 
ATOM      3  C   UNL     1      43.253   0.532   1.269  1.00  0.00     0.235 A 
ATOM      4  O   UNL     1      43.612   1.672   1.672  1.00  0.00    -0.285 OA
ATOM      5  C   UNL     1      41.892   0.187   1.228  1.00  0.00     0.069 A 
ATOM      6  C   UNL     1      41.544  -1.105   0.779  1.00  0.00     0.142 A 
ATOM      7  O   UNL     1      42.486  -1.960   0.396  1.00  0.00    -0.452 OA
ATOM      8  C   UNL     1      40.199  -1.491   0.734  1.00  0.00     0.094 A 
ATOM      9  C   UNL     1      39.195  -0.597   1.130  1.00  0.00     0.119 A 
ATOM     10  C   UNL     1      39.538   0.684   1.573  1.00  0.00     0.047 A 
ATOM     11  C   UNL     1      40.879   1.079   1.624  1.00  0.00     0.020 A 
ENDROOT
BRANCH   1  12
ATOM     12  C   UNL     1      44.736  -2.703  -0.055  1.00  0.00     0.025 A 
ATOM     13  C   UNL     1      45.004  -2.895  -1.422  1.00  0.00     0.016 A 
ATOM     14  C   UNL     1      45.888  -3.894  -1.836  1.00  0.00     0.051 A 
ATOM     15  C   UNL     1      46.506  -4.725  -0.892  1.00  0.00     0.157 A 
ATOM     16  C   UNL     1      45.342  -3.552   0.885  1.00  0.00     0.062 A 
ATOM     17  C   UNL     1      46.231  -4.556   0.471  1.00  0.00     0.158 A 
BRANCH  15  18
ATOM     18  O   UNL     1      47.390  -5.722  -1.300  1.00  0.00    -0.504 OA
ATOM     19  H   UNL     1      47.061  -6.576  -1.736  1.00  0.00     0.293 HD
ENDBRANCH  15  18
BRANCH  17  20
ATOM     20  O   UNL     1      46.841  -5.389   1.407  1.00  0.00    -0.504 OA
ATOM     21  H   UNL     1      47.694  -5.891   1.193  1.00  0.00     0.293 HD
ENDBRANCH  17  20
ENDBRANCH   1  12
BRANCH   2  22
ATOM     22  O   UNL     1      45.578  -0.107   0.940  1.00  0.00    -0.502 OA
ATOM     23  H   UNL     1      46.221  -0.315   0.185  1.00  0.00     0.293 HD
ENDBRANCH   2  22
BRANCH   9  24
ATOM     24  O   UNL     1      37.854  -0.973   1.087  1.00  0.00    -0.508 OA
ATOM     25  H   UNL     1      37.578  -1.948   1.066  1.00  0.00     0.293 HD
ENDBRANCH   9  24
TORSDOF 5
ENDMDL
MODEL 9
REMARK VINA RESULT:    -5.891     18.191     19.957
REMARK INTER + INTRA:          -7.228
REMARK INTER:                  -6.910
REMARK INTRA:                  -0.318
REMARK UNBOUND:                -0.304
REMARK SMILES O=c1c(O)c(-c2ccc(O)c(O)c2)oc2cc(O)ccc12
REMARK SMILES IDX 5 1 3 2 2 3 1 4 21 5 15 6 14 7 16 8 17 9 19 10 20 11 6 12
REMARK SMILES IDX 7 13 8 14 9 15 13 16 11 17 10 18 12 20 4 22 18 24
REMARK H PARENT 10 19 12 21 4 23 18 25
REMARK Flexibility Score: inf
ROOT
ATOM      1  C   UNL     1      41.646  10.938  -8.872  1.00  0.00     0.180 A 
ATOM      2  C   UNL     1      42.242  12.050  -8.242  1.00  0.00     0.208 A 
ATOM      3  C   UNL     1      41.713  12.501  -7.023  1.00  0.00     0.235 A 
ATOM      4  O   UNL     1      42.223  13.501  -6.446  1.00  0.00    -0.285 OA
ATOM      5  C   UNL     1      40.621  11.828  -6.453  1.00  0.00     0.069 A 
ATOM      6  C   UNL     1      40.096  10.709  -7.135  1.00  0.00     0.142 A 
ATOM      7  O   UNL     1      40.621  10.319  -8.291  1.00  0.00    -0.452 OA
ATOM      8  C   UNL     1      39.014  10.005  -6.593  1.00  0.00     0.094 A 
ATOM      9  C   UNL     1      38.448  10.408  -5.376  1.00  0.00     0.119 A 
ATOM     10  C   UNL     1      38.966  11.518  -4.700  1.00  0.00     0.047 A 
ATOM     11  C   UNL     1      40.048  12.227  -5.232  1.00  0.00     0.020 A 
ENDROOT
BRANCH   1  12
ATOM     12  C   UNL     1      42.133  10.413 -10.168  1.00  0.00     0.025 A 
ATOM     13  C   UNL     1      41.563  10.823 -11.385  1.00  0.00     0.016 A 
ATOM     14  C   UNL     1      42.023  10.297 -12.595  1.00  0.00     0.051 A 
ATOM     15  C   UNL     1      43.050   9.344 -12.604  1.00  0.00     0.157 A 
ATOM     16  C   UNL     1      43.149   9.443 -10.182  1.00  0.00     0.062 A 
ATOM     17  C   UNL     1      43.612   8.914 -11.395  1.00  0.00     0.158 A 
BRANCH  15  18
ATOM     18  O   UNL     1      43.515   8.817 -13.808  1.00  0.00    -0.504 OA
ATOM     19  H   UNL     1      42.918   8.258 -14.407  1.00  0.00     0.293 HD
ENDBRANCH  15  18
BRANCH  17  20
ATOM     20  O   UNL     1      44.629   7.960 -11.407  1.00  0.00    -0.504 OA
ATOM     21  H   UNL     1      45.101   7.699 -12.264  1.00  0.00     0.293 HD
ENDBRANCH  17  20
ENDBRANCH   1  12
BRANCH   2  22
ATOM     22  O   UNL     1      43.359  12.671  -8.809  1.00  0.00    -0.502 OA
ATOM     23  H   UNL     1      43.591  13.640  -8.628  1.00  0.00     0.293 HD
ENDBRANCH   2  22
BRANCH   9  24
ATOM     24  O   UNL     1      37.370   9.713  -4.831  1.00  0.00    -0.508 OA
ATOM     25  H   UNL     1      36.444  10.121  -4.787  1.00  0.00     0.293 HD
ENDBRANCH   9  24
TORSDOF 5
ENDMDL
