MODEL 1
REMARK VINA RESULT:    -4.773      0.000      0.000
REMARK INTER + INTRA:          -5.526
REMARK INTER:                  -5.052
REMARK INTRA:                  -0.474
REMARK UNBOUND:                -0.474
REMARK SMILES CC1=C[C@@H]2C(=C(C)CC[C@@H]2C(C)C)CC1
REMARK SMILES IDX 1 1 2 2 3 3 4 4 10 5 9 6 8 7 6 8 5 9 14 10 15 11 7 12 11 13
REMARK SMILES IDX 12 14 13 15
REMARK H PARENT
REMARK Flexibility Score: inf
ROOT
ATOM      1  C   UNL     1     139.372 137.961 139.395  1.00  0.00     0.039 C 
ATOM      2  C   UNL     1     139.496 138.086 137.900  1.00  0.00    -0.076 C 
ATOM      3  C   UNL     1     140.120 137.120 137.203  1.00  0.00    -0.020 C 
ATOM      4  C   UNL     1     140.282 137.179 135.696  1.00  0.00     0.041 C 
ATOM      5  C   UNL     1     140.289 135.759 135.022  1.00  0.00     0.003 C 
ATOM      6  C   UNL     1     140.217 135.840 133.459  1.00  0.00     0.009 C 
ATOM      7  C   UNL     1     140.260 137.271 132.912  1.00  0.00     0.031 C 
ATOM      8  C   UNL     1     139.265 138.134 133.654  1.00  0.00    -0.073 C 
ATOM      9  C   UNL     1     139.287 138.114 135.012  1.00  0.00    -0.064 C 
ATOM     10  C   UNL     1     138.347 138.965 135.848  1.00  0.00     0.036 C 
ATOM     11  C   UNL     1     138.978 139.315 137.196  1.00  0.00     0.035 C 
ATOM     12  C   UNL     1     138.264 138.953 132.875  1.00  0.00     0.039 C 
ENDROOT
BRANCH   5  13
ATOM     13  C   UNL     1     139.254 134.739 135.616  1.00  0.00    -0.013 C 
ATOM     14  C   UNL     1     139.875 133.349 135.833  1.00  0.00     0.007 C 
ATOM     15  C   UNL     1     137.954 134.629 134.802  1.00  0.00     0.007 C 
ENDBRANCH   5  13
TORSDOF 1
ENDMDL
MODEL 2
REMARK VINA RESULT:    -4.764      3.481      5.146
REMARK INTER + INTRA:          -5.517
REMARK INTER:                  -5.043
REMARK INTRA:                  -0.474
REMARK UNBOUND:                -0.474
REMARK SMILES CC1=C[C@@H]2C(=C(C)CC[C@@H]2C(C)C)CC1
REMARK SMILES IDX 1 1 2 2 3 3 4 4 10 5 9 6 8 7 6 8 5 9 14 10 15 11 7 12 11 13
REMARK SMILES IDX 12 14 13 15
REMARK H PARENT
REMARK Flexibility Score: inf
ROOT
ATOM      1  C   UNL     1     134.738 139.333 139.407  1.00  0.00     0.039 C 
ATOM      2  C   UNL     1     134.616 139.479 137.913  1.00  0.00    -0.076 C 
ATOM      3  C   UNL     1     135.603 140.076 137.222  1.00  0.00    -0.020 C 
ATOM      4  C   UNL     1     135.549 140.257 135.717  1.00  0.00     0.041 C 
ATOM      5  C   UNL     1     136.968 140.223 135.043  1.00  0.00     0.003 C 
ATOM      6  C   UNL     1     136.885 140.171 133.479  1.00  0.00     0.009 C 
ATOM      7  C   UNL     1     135.455 140.270 132.934  1.00  0.00     0.031 C 
ATOM      8  C   UNL     1     134.559 139.297 133.665  1.00  0.00    -0.073 C 
ATOM      9  C   UNL     1     134.580 139.303 135.023  1.00  0.00    -0.064 C 
ATOM     10  C   UNL     1     133.698 138.384 135.849  1.00  0.00     0.036 C 
ATOM     11  C   UNL     1     133.370 139.012 137.204  1.00  0.00     0.035 C 
ATOM     12  C   UNL     1     133.705 138.334 132.876  1.00  0.00     0.039 C 
ENDROOT
BRANCH   5  13
ATOM     13  C   UNL     1     137.952 139.146 135.625  1.00  0.00    -0.013 C 
ATOM     14  C   UNL     1     139.359 139.721 135.863  1.00  0.00     0.007 C 
ATOM     15  C   UNL     1     138.029 137.859 134.787  1.00  0.00     0.007 C 
ENDBRANCH   5  13
TORSDOF 1
ENDMDL
MODEL 3
REMARK VINA RESULT:    -4.746      3.594      6.181
REMARK INTER + INTRA:          -5.497
REMARK INTER:                  -5.022
REMARK INTRA:                  -0.475
REMARK UNBOUND:                -0.474
REMARK SMILES CC1=C[C@@H]2C(=C(C)CC[C@@H]2C(C)C)CC1
REMARK SMILES IDX 1 1 2 2 3 3 4 4 10 5 9 6 8 7 6 8 5 9 14 10 15 11 7 12 11 13
REMARK SMILES IDX 12 14 13 15
REMARK H PARENT
REMARK Flexibility Score: inf
ROOT
ATOM      1  C   UNL     1     137.263 140.496 132.875  1.00  0.00     0.039 C 
ATOM      2  C   UNL     1     137.000 140.278 134.341  1.00  0.00    -0.076 C 
ATOM      3  C   UNL     1     135.733 140.253 134.791  1.00  0.00    -0.020 C 
ATOM      4  C   UNL     1     135.392 140.037 136.253  1.00  0.00     0.041 C 
ATOM      5  C   UNL     1     134.024 139.293 136.462  1.00  0.00     0.003 C 
ATOM      6  C   UNL     1     133.798 138.867 137.953  1.00  0.00     0.009 C 
ATOM      7  C   UNL     1     134.896 139.352 138.907  1.00  0.00     0.031 C 
ATOM      8  C   UNL     1     136.256 139.020 138.335  1.00  0.00    -0.073 C 
ATOM      9  C   UNL     1     136.514 139.374 137.050  1.00  0.00    -0.064 C 
ATOM     10  C   UNL     1     137.856 139.110 136.392  1.00  0.00     0.036 C 
ATOM     11  C   UNL     1     138.150 140.148 135.308  1.00  0.00     0.035 C 
ATOM     12  C   UNL     1     137.260 138.280 139.185  1.00  0.00     0.039 C 
ENDROOT
BRANCH   5  13
ATOM     13  C   UNL     1     133.749 138.118 135.457  1.00  0.00    -0.013 C 
ATOM     14  C   UNL     1     132.295 138.120 134.954  1.00  0.00     0.007 C 
ATOM     15  C   UNL     1     134.130 136.732 136.003  1.00  0.00     0.007 C 
ENDBRANCH   5  13
TORSDOF 1
ENDMDL
MODEL 4
REMARK VINA RESULT:    -4.743      2.818      4.445
REMARK INTER + INTRA:          -5.495
REMARK INTER:                  -5.050
REMARK INTRA:                  -0.445
REMARK UNBOUND:                -0.474
REMARK SMILES CC1=C[C@@H]2C(=C(C)CC[C@@H]2C(C)C)CC1
REMARK SMILES IDX 1 1 2 2 3 3 4 4 10 5 9 6 8 7 6 8 5 9 14 10 15 11 7 12 11 13
REMARK SMILES IDX 12 14 13 15
REMARK H PARENT
REMARK Flexibility Score: inf
ROOT
ATOM      1  C   UNL     1     136.794 132.982 140.453  1.00  0.00     0.039 C 
ATOM      2  C   UNL     1     137.647 133.344 139.267  1.00  0.00    -0.076 C 
ATOM      3  C   UNL     1     137.571 132.607 138.145  1.00  0.00    -0.020 C 
ATOM      4  C   UNL     1     138.399 132.913 136.911  1.00  0.00     0.041 C 
ATOM      5  C   UNL     1     137.675 132.521 135.573  1.00  0.00     0.003 C 
ATOM      6  C   UNL     1     138.429 133.056 134.308  1.00  0.00     0.009 C 
ATOM      7  C   UNL     1     139.758 133.751 134.629  1.00  0.00     0.031 C 
ATOM      8  C   UNL     1     139.554 134.758 135.738  1.00  0.00    -0.073 C 
ATOM      9  C   UNL     1     138.915 134.349 136.865  1.00  0.00    -0.064 C 
ATOM     10  C   UNL     1     138.686 135.276 138.045  1.00  0.00     0.036 C 
ATOM     11  C   UNL     1     138.624 134.490 139.355  1.00  0.00     0.035 C 
ATOM     12  C   UNL     1     140.027 136.179 135.549  1.00  0.00     0.039 C 
ENDROOT
BRANCH   5  13
ATOM     13  C   UNL     1     136.138 132.843 135.531  1.00  0.00    -0.013 C 
ATOM     14  C   UNL     1     135.386 131.935 134.543  1.00  0.00     0.007 C 
ATOM     15  C   UNL     1     135.821 134.322 135.255  1.00  0.00     0.007 C 
ENDBRANCH   5  13
TORSDOF 1
ENDMDL
MODEL 5
REMARK VINA RESULT:    -4.742      3.512      5.207
REMARK INTER + INTRA:          -5.494
REMARK INTER:                  -5.019
REMARK INTRA:                  -0.474
REMARK UNBOUND:                -0.474
REMARK SMILES CC1=C[C@@H]2C(=C(C)CC[C@@H]2C(C)C)CC1
REMARK SMILES IDX 1 1 2 2 3 3 4 4 10 5 9 6 8 7 6 8 5 9 14 10 15 11 7 12 11 13
REMARK SMILES IDX 12 14 13 15
REMARK H PARENT
REMARK Flexibility Score: inf
ROOT
ATOM      1  C   UNL     1     137.967 133.386 139.425  1.00  0.00     0.039 C 
ATOM      2  C   UNL     1     138.084 133.229 137.932  1.00  0.00    -0.076 C 
ATOM      3  C   UNL     1     137.116 132.586 137.255  1.00  0.00    -0.020 C 
ATOM      4  C   UNL     1     137.167 132.391 135.751  1.00  0.00     0.041 C 
ATOM      5  C   UNL     1     135.743 132.362 135.087  1.00  0.00     0.003 C 
ATOM      6  C   UNL     1     135.814 132.400 133.522  1.00  0.00     0.009 C 
ATOM      7  C   UNL     1     137.242 132.351 132.967  1.00  0.00     0.031 C 
ATOM      8  C   UNL     1     138.105 133.367 133.682  1.00  0.00    -0.073 C 
ATOM      9  C   UNL     1     138.094 133.375 135.040  1.00  0.00    -0.064 C 
ATOM     10  C   UNL     1     138.945 134.336 135.850  1.00  0.00     0.036 C 
ATOM     11  C   UNL     1     139.306 133.737 137.209  1.00  0.00     0.035 C 
ATOM     12  C   UNL     1     138.915 134.354 132.876  1.00  0.00     0.039 C 
ENDROOT
BRANCH   5  13
ATOM     13  C   UNL     1     134.722 133.406 135.664  1.00  0.00    -0.013 C 
ATOM     14  C   UNL     1     133.331 132.788 135.885  1.00  0.00     0.007 C 
ATOM     15  C   UNL     1     134.614 134.695 134.833  1.00  0.00     0.007 C 
ENDBRANCH   5  13
TORSDOF 1
ENDMDL
MODEL 6
REMARK VINA RESULT:    -4.712      1.314      5.029
REMARK INTER + INTRA:          -5.462
REMARK INTER:                  -5.006
REMARK INTRA:                  -0.456
REMARK UNBOUND:                -0.474
REMARK SMILES CC1=C[C@@H]2C(=C(C)CC[C@@H]2C(C)C)CC1
REMARK SMILES IDX 1 1 2 2 3 3 4 4 10 5 9 6 8 7 6 8 5 9 14 10 15 11 7 12 11 13
REMARK SMILES IDX 12 14 13 15
REMARK H PARENT
REMARK Flexibility Score: inf
ROOT
ATOM      1  C   UNL     1     140.470 135.329 132.876  1.00  0.00     0.039 C 
ATOM      2  C   UNL     1     140.258 135.573 134.347  1.00  0.00    -0.076 C 
ATOM      3  C   UNL     1     140.235 136.834 134.813  1.00  0.00    -0.020 C 
ATOM      4  C   UNL     1     140.025 137.156 136.281  1.00  0.00     0.041 C 
ATOM      5  C   UNL     1     139.281 138.521 136.510  1.00  0.00     0.003 C 
ATOM      6  C   UNL     1     138.861 138.727 138.006  1.00  0.00     0.009 C 
ATOM      7  C   UNL     1     139.349 137.617 138.943  1.00  0.00     0.031 C 
ATOM      8  C   UNL     1     139.014 136.265 138.355  1.00  0.00    -0.073 C 
ATOM      9  C   UNL     1     139.364 136.023 137.065  1.00  0.00    -0.064 C 
ATOM     10  C   UNL     1     139.097 134.690 136.390  1.00  0.00     0.036 C 
ATOM     11  C   UNL     1     140.131 134.411 135.299  1.00  0.00     0.035 C 
ATOM     12  C   UNL     1     138.278 135.249 139.194  1.00  0.00     0.039 C 
ENDROOT
BRANCH   5  13
ATOM     13  C   UNL     1     138.103 138.810 135.514  1.00  0.00    -0.013 C 
ATOM     14  C   UNL     1     138.257 140.174 134.820  1.00  0.00     0.007 C 
ATOM     15  C   UNL     1     136.708 138.680 136.147  1.00  0.00     0.007 C 
ENDBRANCH   5  13
TORSDOF 1
ENDMDL
MODEL 7
REMARK VINA RESULT:    -4.692      5.145      7.168
REMARK INTER + INTRA:          -5.440
REMARK INTER:                  -4.974
REMARK INTRA:                  -0.466
REMARK UNBOUND:                -0.474
REMARK SMILES CC1=C[C@@H]2C(=C(C)CC[C@@H]2C(C)C)CC1
REMARK SMILES IDX 1 1 2 2 3 3 4 4 10 5 9 6 8 7 6 8 5 9 14 10 15 11 7 12 11 13
REMARK SMILES IDX 12 14 13 15
REMARK H PARENT
REMARK Flexibility Score: inf
ROOT
ATOM      1  C   UNL     1     132.811 135.633 140.218  1.00  0.00     0.039 C 
ATOM      2  C   UNL     1     133.290 134.821 139.044  1.00  0.00    -0.076 C 
ATOM      3  C   UNL     1     132.610 134.866 137.885  1.00  0.00    -0.020 C 
ATOM      4  C   UNL     1     133.033 134.075 136.661  1.00  0.00     0.041 C 
ATOM      5  C   UNL     1     132.668 134.791 135.311  1.00  0.00     0.003 C 
ATOM      6  C   UNL     1     133.315 134.089 134.069  1.00  0.00     0.009 C 
ATOM      7  C   UNL     1     134.076 132.803 134.414  1.00  0.00     0.031 C 
ATOM      8  C   UNL     1     135.008 133.055 135.577  1.00  0.00    -0.073 C 
ATOM      9  C   UNL     1     134.500 133.651 136.687  1.00  0.00    -0.064 C 
ATOM     10  C   UNL     1     135.346 133.923 137.918  1.00  0.00     0.036 C 
ATOM     11  C   UNL     1     134.490 133.918 139.184  1.00  0.00     0.035 C 
ATOM     12  C   UNL     1     136.465 132.676 135.461  1.00  0.00     0.039 C 
ENDROOT
BRANCH   5  13
ATOM     13  C   UNL     1     132.892 136.345 135.302  1.00  0.00    -0.013 C 
ATOM     14  C   UNL     1     131.874 137.068 134.404  1.00  0.00     0.007 C 
ATOM     15  C   UNL     1     134.326 136.763 134.939  1.00  0.00     0.007 C 
ENDBRANCH   5  13
TORSDOF 1
ENDMDL
MODEL 8
REMARK VINA RESULT:    -4.674      3.284      6.348
REMARK INTER + INTRA:          -5.421
REMARK INTER:                  -4.973
REMARK INTRA:                  -0.448
REMARK UNBOUND:                -0.474
REMARK SMILES CC1=C[C@@H]2C(=C(C)CC[C@@H]2C(C)C)CC1
REMARK SMILES IDX 1 1 2 2 3 3 4 4 10 5 9 6 8 7 6 8 5 9 14 10 15 11 7 12 11 13
REMARK SMILES IDX 12 14 13 15
REMARK H PARENT
REMARK Flexibility Score: inf
ROOT
ATOM      1  C   UNL     1     135.466 132.044 133.098  1.00  0.00     0.039 C 
ATOM      2  C   UNL     1     135.648 132.317 134.568  1.00  0.00    -0.076 C 
ATOM      3  C   UNL     1     136.888 132.338 135.090  1.00  0.00    -0.020 C 
ATOM      4  C   UNL     1     137.147 132.607 136.560  1.00  0.00     0.041 C 
ATOM      5  C   UNL     1     138.515 133.336 136.819  1.00  0.00     0.003 C 
ATOM      6  C   UNL     1     138.663 133.818 138.302  1.00  0.00     0.009 C 
ATOM      7  C   UNL     1     137.502 133.392 139.209  1.00  0.00     0.031 C 
ATOM      8  C   UNL     1     136.185 133.725 138.545  1.00  0.00    -0.073 C 
ATOM      9  C   UNL     1     135.994 133.322 137.262  1.00  0.00    -0.064 C 
ATOM     10  C   UNL     1     134.698 133.582 136.516  1.00  0.00     0.036 C 
ATOM     11  C   UNL     1     134.447 132.506 135.459  1.00  0.00     0.035 C 
ATOM     12  C   UNL     1     135.147 134.516 139.304  1.00  0.00     0.039 C 
ENDROOT
BRANCH   5  13
ATOM     13  C   UNL     1     138.872 134.463 135.786  1.00  0.00    -0.013 C 
ATOM     14  C   UNL     1     140.232 134.217 135.111  1.00  0.00     0.007 C 
ATOM     15  C   UNL     1     138.809 135.884 136.371  1.00  0.00     0.007 C 
ENDBRANCH   5  13
TORSDOF 1
ENDMDL
MODEL 9
REMARK VINA RESULT:    -4.667      4.383      6.162
REMARK INTER + INTRA:          -5.414
REMARK INTER:                  -4.962
REMARK INTRA:                  -0.452
REMARK UNBOUND:                -0.474
REMARK SMILES CC1=C[C@@H]2C(=C(C)CC[C@@H]2C(C)C)CC1
REMARK SMILES IDX 1 1 2 2 3 3 4 4 10 5 9 6 8 7 6 8 5 9 14 10 15 11 7 12 11 13
REMARK SMILES IDX 12 14 13 15
REMARK H PARENT
REMARK Flexibility Score: inf
ROOT
ATOM      1  C   UNL     1     135.630 139.850 140.243  1.00  0.00     0.039 C 
ATOM      2  C   UNL     1     134.845 139.378 139.048  1.00  0.00    -0.076 C 
ATOM      3  C   UNL     1     134.896 140.080 137.902  1.00  0.00    -0.020 C 
ATOM      4  C   UNL     1     134.133 139.664 136.658  1.00  0.00     0.041 C 
ATOM      5  C   UNL     1     134.863 140.068 135.327  1.00  0.00     0.003 C 
ATOM      6  C   UNL     1     134.193 139.430 134.062  1.00  0.00     0.009 C 
ATOM      7  C   UNL     1     132.916 138.640 134.372  1.00  0.00     0.031 C 
ATOM      8  C   UNL     1     133.167 137.691 135.523  1.00  0.00    -0.073 C 
ATOM      9  C   UNL     1     133.736 138.190 136.651  1.00  0.00    -0.064 C 
ATOM     10  C   UNL     1     134.003 137.326 137.871  1.00  0.00     0.036 C 
ATOM     11  C   UNL     1     133.962 138.160 139.152  1.00  0.00     0.035 C 
ATOM     12  C   UNL     1     132.816 136.231 135.374  1.00  0.00     0.039 C 
ENDROOT
BRANCH   5  13
ATOM     13  C   UNL     1     136.421 139.872 135.339  1.00  0.00    -0.013 C 
ATOM     14  C   UNL     1     137.132 140.844 134.382  1.00  0.00     0.007 C 
ATOM     15  C   UNL     1     136.867 138.425 135.069  1.00  0.00     0.007 C 
ENDBRANCH   5  13
TORSDOF 1
ENDMDL
