MODEL 1
REMARK VINA RESULT:    -3.344      0.000      0.000
REMARK INTER + INTRA:          -3.963
REMARK INTER:                  -3.930
REMARK INTRA:                  -0.033
REMARK UNBOUND:                -0.033
REMARK SMILES O=C([O-])CCC(=O)[O-]
REMARK SMILES IDX 4 1 2 2 1 3 3 4 5 5 6 6 7 7 8 8
REMARK H PARENT
REMARK Flexibility Score: inf
ROOT
ATOM      1  C   UNL     1      36.003  24.315 220.351  1.00  0.00     0.059 C 
ENDROOT
BRANCH   1   2
ATOM      2  C   UNL     1      35.479  23.983 218.989  1.00  0.00     0.042 C 
ATOM      3  O   UNL     1      34.248  24.080 218.742  1.00  0.00    -0.550 OA
ATOM      4  O   UNL     1      36.344  23.521 218.005  1.00  0.00    -0.550 OA
ENDBRANCH   1   2
BRANCH   1   5
ATOM      5  C   UNL     1      34.986  23.925 221.424  1.00  0.00     0.059 C 
BRANCH   5   6
ATOM      6  C   UNL     1      35.574  24.094 222.789  1.00  0.00     0.042 C 
ATOM      7  O   UNL     1      36.505  23.338 223.176  1.00  0.00    -0.550 OA
ATOM      8  O   UNL     1      35.062  25.053 223.653  1.00  0.00    -0.550 OA
ENDBRANCH   5   6
ENDBRANCH   1   5
TORSDOF 3
ENDMDL
MODEL 2
REMARK VINA RESULT:    -3.315      0.153      1.155
REMARK INTER + INTRA:          -3.929
REMARK INTER:                  -3.896
REMARK INTRA:                  -0.033
REMARK UNBOUND:                -0.033
REMARK SMILES O=C([O-])CCC(=O)[O-]
REMARK SMILES IDX 4 1 2 2 1 3 3 4 5 5 6 6 7 7 8 8
REMARK H PARENT
REMARK Flexibility Score: inf
ROOT
ATOM      1  C   UNL     1      36.161  24.030 220.358  1.00  0.00     0.059 C 
ENDROOT
BRANCH   1   2
ATOM      2  C   UNL     1      35.630  23.901 218.965  1.00  0.00     0.042 C 
ATOM      3  O   UNL     1      36.398  23.577 218.022  1.00  0.00    -0.550 OA
ATOM      4  O   UNL     1      34.296  24.184 218.701  1.00  0.00    -0.550 OA
ENDBRANCH   1   2
BRANCH   1   5
ATOM      5  C   UNL     1      35.026  23.908 221.376  1.00  0.00     0.059 C 
BRANCH   5   6
ATOM      6  C   UNL     1      35.544  24.111 222.765  1.00  0.00     0.042 C 
ATOM      7  O   UNL     1      36.501  23.413 223.193  1.00  0.00    -0.550 OA
ATOM      8  O   UNL     1      34.938  25.037 223.604  1.00  0.00    -0.550 OA
ENDBRANCH   5   6
ENDBRANCH   1   5
TORSDOF 3
ENDMDL
MODEL 3
REMARK VINA RESULT:    -3.314      0.082      1.147
REMARK INTER + INTRA:          -3.928
REMARK INTER:                  -3.897
REMARK INTRA:                  -0.031
REMARK UNBOUND:                -0.033
REMARK SMILES O=C([O-])CCC(=O)[O-]
REMARK SMILES IDX 4 1 2 2 1 3 3 4 5 5 6 6 7 7 8 8
REMARK H PARENT
REMARK Flexibility Score: inf
ROOT
ATOM      1  C   UNL     1      35.988  24.355 220.381  1.00  0.00     0.059 C 
ENDROOT
BRANCH   1   2
ATOM      2  C   UNL     1      35.466  24.019 219.020  1.00  0.00     0.042 C 
ATOM      3  O   UNL     1      34.235  24.113 218.772  1.00  0.00    -0.550 OA
ATOM      4  O   UNL     1      36.332  23.554 218.038  1.00  0.00    -0.550 OA
ENDBRANCH   1   2
BRANCH   1   5
ATOM      5  C   UNL     1      34.981  23.945 221.456  1.00  0.00     0.059 C 
BRANCH   5   6
ATOM      6  C   UNL     1      35.571  24.118 222.820  1.00  0.00     0.042 C 
ATOM      7  O   UNL     1      35.190  25.063 223.560  1.00  0.00    -0.550 OA
ATOM      8  O   UNL     1      36.578  23.266 223.255  1.00  0.00    -0.550 OA
ENDBRANCH   5   6
ENDBRANCH   1   5
TORSDOF 3
ENDMDL
MODEL 4
REMARK VINA RESULT:    -3.297      0.237      4.280
REMARK INTER + INTRA:          -3.908
REMARK INTER:                  -3.872
REMARK INTRA:                  -0.035
REMARK UNBOUND:                -0.033
REMARK SMILES O=C([O-])CCC(=O)[O-]
REMARK SMILES IDX 4 1 2 2 1 3 3 4 5 5 6 6 7 7 8 8
REMARK H PARENT
REMARK Flexibility Score: inf
ROOT
ATOM      1  C   UNL     1      35.019  23.961 221.437  1.00  0.00     0.059 C 
ENDROOT
BRANCH   1   2
ATOM      2  C   UNL     1      35.497  24.178 222.838  1.00  0.00     0.042 C 
ATOM      3  O   UNL     1      34.922  25.016 223.581  1.00  0.00    -0.550 OA
ATOM      4  O   UNL     1      36.609  23.489 223.308  1.00  0.00    -0.550 OA
ENDBRANCH   1   2
BRANCH   1   5
ATOM      5  C   UNL     1      36.198  23.981 220.462  1.00  0.00     0.059 C 
BRANCH   5   6
ATOM      6  C   UNL     1      35.708  23.936 219.049  1.00  0.00     0.042 C 
ATOM      7  O   UNL     1      34.495  24.156 218.791  1.00  0.00    -0.550 OA
ATOM      8  O   UNL     1      36.581  23.603 218.021  1.00  0.00    -0.550 OA
ENDBRANCH   5   6
ENDBRANCH   1   5
TORSDOF 3
ENDMDL
MODEL 5
REMARK VINA RESULT:    -3.236      1.042      4.026
REMARK INTER + INTRA:          -3.836
REMARK INTER:                  -3.761
REMARK INTRA:                  -0.075
REMARK UNBOUND:                -0.033
REMARK SMILES O=C([O-])CCC(=O)[O-]
REMARK SMILES IDX 4 1 2 2 1 3 3 4 5 5 6 6 7 7 8 8
REMARK H PARENT
REMARK Flexibility Score: inf
ROOT
ATOM      1  C   UNL     1      35.381  23.764 221.626  1.00  0.00     0.059 C 
ENDROOT
BRANCH   1   2
ATOM      2  C   UNL     1      35.681  24.794 222.669  1.00  0.00     0.042 C 
ATOM      3  O   UNL     1      34.898  24.960 223.640  1.00  0.00    -0.550 OA
ATOM      4  O   UNL     1      36.802  25.605 222.542  1.00  0.00    -0.550 OA
ENDBRANCH   1   2
BRANCH   1   5
ATOM      5  C   UNL     1      36.576  23.591 220.687  1.00  0.00     0.059 C 
BRANCH   5   6
ATOM      6  C   UNL     1      36.151  23.764 219.263  1.00  0.00     0.042 C 
ATOM      7  O   UNL     1      36.993  23.658 218.333  1.00  0.00    -0.550 OA
ATOM      8  O   UNL     1      34.834  24.092 218.965  1.00  0.00    -0.550 OA
ENDBRANCH   5   6
ENDBRANCH   1   5
TORSDOF 3
ENDMDL
MODEL 6
REMARK VINA RESULT:    -3.184      1.232      1.849
REMARK INTER + INTRA:          -3.774
REMARK INTER:                  -3.683
REMARK INTRA:                  -0.091
REMARK UNBOUND:                -0.033
REMARK SMILES O=C([O-])CCC(=O)[O-]
REMARK SMILES IDX 4 1 2 2 1 3 3 4 5 5 6 6 7 7 8 8
REMARK H PARENT
REMARK Flexibility Score: inf
ROOT
ATOM      1  C   UNL     1      36.589  23.313 221.019  1.00  0.00     0.059 C 
ENDROOT
BRANCH   1   2
ATOM      2  C   UNL     1      36.445  23.586 219.554  1.00  0.00     0.042 C 
ATOM      3  O   UNL     1      37.350  23.238 218.752  1.00  0.00    -0.550 OA
ATOM      4  O   UNL     1      35.331  24.268 219.082  1.00  0.00    -0.550 OA
ENDBRANCH   1   2
BRANCH   1   5
ATOM      5  C   UNL     1      35.338  23.765 221.772  1.00  0.00     0.059 C 
BRANCH   5   6
ATOM      6  C   UNL     1      35.682  24.823 222.772  1.00  0.00     0.042 C 
ATOM      7  O   UNL     1      34.919  25.045 223.749  1.00  0.00    -0.550 OA
ATOM      8  O   UNL     1      36.820  25.601 222.597  1.00  0.00    -0.550 OA
ENDBRANCH   5   6
ENDBRANCH   1   5
TORSDOF 3
ENDMDL
MODEL 7
REMARK VINA RESULT:    -3.159      1.705      2.009
REMARK INTER + INTRA:          -3.746
REMARK INTER:                  -3.637
REMARK INTRA:                  -0.109
REMARK UNBOUND:                -0.033
REMARK SMILES O=C([O-])CCC(=O)[O-]
REMARK SMILES IDX 4 1 2 2 1 3 3 4 5 5 6 6 7 7 8 8
REMARK H PARENT
REMARK Flexibility Score: inf
ROOT
ATOM      1  C   UNL     1      35.807  24.389 220.570  1.00  0.00     0.059 C 
ENDROOT
BRANCH   1   2
ATOM      2  C   UNL     1      35.524  24.097 219.130  1.00  0.00     0.042 C 
ATOM      3  O   UNL     1      34.345  24.142 218.693  1.00  0.00    -0.550 OA
ATOM      4  O   UNL     1      36.559  23.727 218.280  1.00  0.00    -0.550 OA
ENDBRANCH   1   2
BRANCH   1   5
ATOM      5  C   UNL     1      36.539  23.214 221.219  1.00  0.00     0.059 C 
BRANCH   5   6
ATOM      6  C   UNL     1      37.932  23.610 221.597  1.00  0.00     0.042 C 
ATOM      7  O   UNL     1      38.911  23.222 220.907  1.00  0.00    -0.550 OA
ATOM      8  O   UNL     1      38.153  24.366 222.741  1.00  0.00    -0.550 OA
ENDBRANCH   5   6
ENDBRANCH   1   5
TORSDOF 3
ENDMDL
MODEL 8
REMARK VINA RESULT:    -3.115      1.022      4.249
REMARK INTER + INTRA:          -3.694
REMARK INTER:                  -3.659
REMARK INTRA:                  -0.035
REMARK UNBOUND:                -0.033
REMARK SMILES O=C([O-])CCC(=O)[O-]
REMARK SMILES IDX 4 1 2 2 1 3 3 4 5 5 6 6 7 7 8 8
REMARK H PARENT
REMARK Flexibility Score: inf
ROOT
ATOM      1  C   UNL     1      36.861  23.283 221.150  1.00  0.00     0.059 C 
ENDROOT
BRANCH   1   2
ATOM      2  C   UNL     1      36.797  23.137 222.638  1.00  0.00     0.042 C 
ATOM      3  O   UNL     1      37.394  22.187 223.208  1.00  0.00    -0.550 OA
ATOM      4  O   UNL     1      36.038  24.025 223.391  1.00  0.00    -0.550 OA
ENDBRANCH   1   2
BRANCH   1   5
ATOM      5  C   UNL     1      35.784  24.253 220.662  1.00  0.00     0.059 C 
BRANCH   5   6
ATOM      6  C   UNL     1      35.585  24.114 219.185  1.00  0.00     0.042 C 
ATOM      7  O   UNL     1      36.568  23.887 218.431  1.00  0.00    -0.550 OA
ATOM      8  O   UNL     1      34.321  24.284 218.635  1.00  0.00    -0.550 OA
ENDBRANCH   5   6
ENDBRANCH   1   5
TORSDOF 3
ENDMDL
MODEL 9
REMARK VINA RESULT:    -2.984      2.285      3.287
REMARK INTER + INTRA:          -3.540
REMARK INTER:                  -3.371
REMARK INTRA:                  -0.169
REMARK UNBOUND:                -0.033
REMARK SMILES O=C([O-])CCC(=O)[O-]
REMARK SMILES IDX 4 1 2 2 1 3 3 4 5 5 6 6 7 7 8 8
REMARK H PARENT
REMARK Flexibility Score: inf
ROOT
ATOM      1  C   UNL     1      36.245  22.529 222.120  1.00  0.00     0.059 C 
ENDROOT
BRANCH   1   2
ATOM      2  C   UNL     1      35.433  23.769 221.910  1.00  0.00     0.042 C 
ATOM      3  O   UNL     1      35.115  24.492 222.890  1.00  0.00    -0.550 OA
ATOM      4  O   UNL     1      34.986  24.099 220.636  1.00  0.00    -0.550 OA
ENDBRANCH   1   2
BRANCH   1   5
ATOM      5  C   UNL     1      37.518  22.852 222.903  1.00  0.00     0.059 C 
BRANCH   5   6
ATOM      6  C   UNL     1      38.430  23.713 222.086  1.00  0.00     0.042 C 
ATOM      7  O   UNL     1      38.897  23.287 220.996  1.00  0.00    -0.550 OA
ATOM      8  O   UNL     1      38.804  24.967 222.552  1.00  0.00    -0.550 OA
ENDBRANCH   5   6
ENDBRANCH   1   5
TORSDOF 3
ENDMDL
