MODEL 1
REMARK VINA RESULT:    -3.600      0.000      0.000
REMARK INTER + INTRA:          -4.930
REMARK INTER:                  -4.652
REMARK INTRA:                  -0.278
REMARK UNBOUND:                -0.278
REMARK SMILES C=CC(=O)CCCCC
REMARK SMILES IDX 6 1 7 2 8 3 9 4 5 5 3 6 4 7 2 8 1 9
REMARK H PARENT
REMARK Flexibility Score: inf
ROOT
ATOM      1  C   UNL     1       2.234  23.711  37.748  1.00  0.00     0.008 C 
ENDROOT
BRANCH   1   2
ATOM      2  C   UNL     1       3.087  23.810  39.029  1.00  0.00     0.000 C 
BRANCH   2   3
ATOM      3  C   UNL     1       4.186  22.741  39.159  1.00  0.00    -0.003 C 
ATOM      4  C   UNL     1       5.592  23.336  39.225  1.00  0.00     0.004 C 
ENDBRANCH   2   3
ENDBRANCH   1   2
BRANCH   1   5
ATOM      5  C   UNL     1       2.058  22.281  37.208  1.00  0.00     0.080 C 
BRANCH   5   6
ATOM      6  C   UNL     1       0.886  21.579  37.833  1.00  0.00     0.155 C 
ATOM      7  O   UNL     1      -0.254  22.116  37.782  1.00  0.00    -0.295 OA
BRANCH   6   8
ATOM      8  C   UNL     1       1.080  20.291  38.525  1.00  0.00     0.039 C 
ATOM      9  C   UNL     1       0.110  19.385  38.634  1.00  0.00     0.012 C 
ENDBRANCH   6   8
ENDBRANCH   5   6
ENDBRANCH   1   5
TORSDOF 5
ENDMDL
MODEL 2
REMARK VINA RESULT:    -3.532      1.601      4.290
REMARK INTER + INTRA:          -4.843
REMARK INTER:                  -4.582
REMARK INTRA:                  -0.261
REMARK UNBOUND:                -0.278
REMARK SMILES C=CC(=O)CCCCC
REMARK SMILES IDX 6 1 7 2 8 3 9 4 5 5 3 6 4 7 2 8 1 9
REMARK H PARENT
REMARK Flexibility Score: inf
ROOT
ATOM      1  C   UNL     1       1.672  22.315  37.374  1.00  0.00     0.008 C 
ENDROOT
BRANCH   1   2
ATOM      2  C   UNL     1       0.176  22.132  37.703  1.00  0.00     0.000 C 
BRANCH   2   3
ATOM      3  C   UNL     1      -0.212  20.727  38.194  1.00  0.00    -0.003 C 
ATOM      4  C   UNL     1       0.998  19.854  38.521  1.00  0.00     0.004 C 
ENDBRANCH   2   3
ENDBRANCH   1   2
BRANCH   1   5
ATOM      5  C   UNL     1       2.210  23.734  37.620  1.00  0.00     0.080 C 
BRANCH   5   6
ATOM      6  C   UNL     1       3.028  23.820  38.877  1.00  0.00     0.155 C 
ATOM      7  O   UNL     1       2.779  24.730  39.715  1.00  0.00    -0.295 OA
BRANCH   6   8
ATOM      8  C   UNL     1       4.129  22.866  39.108  1.00  0.00     0.039 C 
ATOM      9  C   UNL     1       5.409  23.234  39.092  1.00  0.00     0.012 C 
ENDBRANCH   6   8
ENDBRANCH   5   6
ENDBRANCH   1   5
TORSDOF 5
ENDMDL
MODEL 3
REMARK VINA RESULT:    -3.471      2.132      4.529
REMARK INTER + INTRA:          -4.764
REMARK INTER:                  -4.303
REMARK INTRA:                  -0.461
REMARK UNBOUND:                -0.278
REMARK SMILES C=CC(=O)CCCCC
REMARK SMILES IDX 6 1 7 2 8 3 9 4 5 5 3 6 4 7 2 8 1 9
REMARK H PARENT
REMARK Flexibility Score: inf
ROOT
ATOM      1  C   UNL     1       2.210  22.204  37.344  1.00  0.00     0.008 C 
ENDROOT
BRANCH   1   2
ATOM      2  C   UNL     1       0.989  21.425  37.876  1.00  0.00     0.000 C 
BRANCH   2   3
ATOM      3  C   UNL     1      -0.301  22.252  38.006  1.00  0.00    -0.003 C 
ATOM      4  C   UNL     1      -0.756  22.424  39.454  1.00  0.00     0.004 C 
ENDBRANCH   2   3
ENDBRANCH   1   2
BRANCH   1   5
ATOM      5  C   UNL     1       2.185  23.712  37.648  1.00  0.00     0.080 C 
BRANCH   5   6
ATOM      6  C   UNL     1       2.981  24.055  38.875  1.00  0.00     0.155 C 
ATOM      7  O   UNL     1       4.126  23.547  39.031  1.00  0.00    -0.295 OA
BRANCH   6   8
ATOM      8  C   UNL     1       2.411  24.952  39.898  1.00  0.00     0.039 C 
ATOM      9  C   UNL     1       1.561  25.931  39.596  1.00  0.00     0.012 C 
ENDBRANCH   6   8
ENDBRANCH   5   6
ENDBRANCH   1   5
TORSDOF 5
ENDMDL
MODEL 4
REMARK VINA RESULT:    -3.452     14.265     15.328
REMARK INTER + INTRA:          -4.739
REMARK INTER:                  -4.378
REMARK INTRA:                  -0.361
REMARK UNBOUND:                -0.278
REMARK SMILES C=CC(=O)CCCCC
REMARK SMILES IDX 6 1 7 2 8 3 9 4 5 5 3 6 4 7 2 8 1 9
REMARK H PARENT
REMARK Flexibility Score: inf
ROOT
ATOM      1  C   UNL     1       1.892  11.388  48.881  1.00  0.00     0.008 C 
ENDROOT
BRANCH   1   2
ATOM      2  C   UNL     1       1.303  12.803  48.709  1.00  0.00     0.000 C 
BRANCH   2   3
ATOM      3  C   UNL     1      -0.196  12.843  48.366  1.00  0.00    -0.003 C 
ATOM      4  C   UNL     1      -0.779  11.462  48.075  1.00  0.00     0.004 C 
ENDBRANCH   2   3
ENDBRANCH   1   2
BRANCH   1   5
ATOM      5  C   UNL     1       3.090  11.080  47.967  1.00  0.00     0.080 C 
BRANCH   5   6
ATOM      6  C   UNL     1       3.016   9.699  47.382  1.00  0.00     0.155 C 
ATOM      7  O   UNL     1       3.950   9.294  46.637  1.00  0.00    -0.295 OA
BRANCH   6   8
ATOM      8  C   UNL     1       1.846   8.843  47.654  1.00  0.00     0.039 C 
ATOM      9  C   UNL     1       1.527   7.804  46.885  1.00  0.00     0.012 C 
ENDBRANCH   6   8
ENDBRANCH   5   6
ENDBRANCH   1   5
TORSDOF 5
ENDMDL
MODEL 5
REMARK VINA RESULT:    -3.443      1.587      2.902
REMARK INTER + INTRA:          -4.727
REMARK INTER:                  -4.465
REMARK INTRA:                  -0.263
REMARK UNBOUND:                -0.278
REMARK SMILES C=CC(=O)CCCCC
REMARK SMILES IDX 6 1 7 2 8 3 9 4 5 5 3 6 4 7 2 8 1 9
REMARK H PARENT
REMARK Flexibility Score: inf
ROOT
ATOM      1  C   UNL     1       4.520  22.468  39.571  1.00  0.00     0.008 C 
ENDROOT
BRANCH   1   2
ATOM      2  C   UNL     1       6.062  22.476  39.601  1.00  0.00     0.000 C 
BRANCH   2   3
ATOM      3  C   UNL     1       6.719  23.586  38.763  1.00  0.00    -0.003 C 
ATOM      4  C   UNL     1       8.051  23.160  38.148  1.00  0.00     0.004 C 
ENDBRANCH   2   3
ENDBRANCH   1   2
BRANCH   1   5
ATOM      5  C   UNL     1       3.884  23.791  39.112  1.00  0.00     0.080 C 
BRANCH   5   6
ATOM      6  C   UNL     1       2.656  23.569  38.276  1.00  0.00     0.155 C 
ATOM      7  O   UNL     1       1.816  24.502  38.152  1.00  0.00    -0.295 OA
BRANCH   6   8
ATOM      8  C   UNL     1       2.426  22.261  37.633  1.00  0.00     0.039 C 
ATOM      9  C   UNL     1       1.270  21.608  37.734  1.00  0.00     0.012 C 
ENDBRANCH   6   8
ENDBRANCH   5   6
ENDBRANCH   1   5
TORSDOF 5
ENDMDL
MODEL 6
REMARK VINA RESULT:    -3.429      1.382      4.315
REMARK INTER + INTRA:          -4.710
REMARK INTER:                  -4.487
REMARK INTRA:                  -0.222
REMARK UNBOUND:                -0.278
REMARK SMILES C=CC(=O)CCCCC
REMARK SMILES IDX 6 1 7 2 8 3 9 4 5 5 3 6 4 7 2 8 1 9
REMARK H PARENT
REMARK Flexibility Score: inf
ROOT
ATOM      1  C   UNL     1       0.370  22.060  37.612  1.00  0.00     0.008 C 
ENDROOT
BRANCH   1   2
ATOM      2  C   UNL     1      -0.183  20.683  38.032  1.00  0.00     0.000 C 
BRANCH   2   3
ATOM      3  C   UNL     1       0.845  19.746  38.690  1.00  0.00    -0.003 C 
ATOM      4  C   UNL     1       0.221  18.459  39.226  1.00  0.00     0.004 C 
ENDBRANCH   2   3
ENDBRANCH   1   2
BRANCH   1   5
ATOM      5  C   UNL     1       1.868  22.066  37.262  1.00  0.00     0.080 C 
BRANCH   5   6
ATOM      6  C   UNL     1       2.649  23.013  38.127  1.00  0.00     0.155 C 
ATOM      7  O   UNL     1       2.342  24.237  38.137  1.00  0.00    -0.295 OA
BRANCH   6   8
ATOM      8  C   UNL     1       3.781  22.515  38.933  1.00  0.00     0.039 C 
ATOM      9  C   UNL     1       4.864  23.251  39.174  1.00  0.00     0.012 C 
ENDBRANCH   6   8
ENDBRANCH   5   6
ENDBRANCH   1   5
TORSDOF 5
ENDMDL
MODEL 7
REMARK VINA RESULT:    -3.414     21.999     22.625
REMARK INTER + INTRA:          -4.691
REMARK INTER:                  -4.435
REMARK INTRA:                  -0.256
REMARK UNBOUND:                -0.278
REMARK SMILES C=CC(=O)CCCCC
REMARK SMILES IDX 6 1 7 2 8 3 9 4 5 5 3 6 4 7 2 8 1 9
REMARK H PARENT
REMARK Flexibility Score: inf
ROOT
ATOM      1  C   UNL     1      18.029  12.162  50.033  1.00  0.00     0.008 C 
ENDROOT
BRANCH   1   2
ATOM      2  C   UNL     1      19.038  13.004  50.842  1.00  0.00     0.000 C 
BRANCH   2   3
ATOM      3  C   UNL     1      18.876  12.916  52.369  1.00  0.00    -0.003 C 
ATOM      4  C   UNL     1      19.014  14.270  53.062  1.00  0.00     0.004 C 
ENDBRANCH   2   3
ENDBRANCH   1   2
BRANCH   1   5
ATOM      5  C   UNL     1      16.674  11.949  50.728  1.00  0.00     0.080 C 
BRANCH   5   6
ATOM      6  C   UNL     1      16.433  10.507  51.071  1.00  0.00     0.155 C 
ATOM      7  O   UNL     1      16.973  10.018  52.101  1.00  0.00    -0.295 OA
BRANCH   6   8
ATOM      8  C   UNL     1      15.597   9.668  50.191  1.00  0.00     0.039 C 
ATOM      9  C   UNL     1      16.081   9.066  49.106  1.00  0.00     0.012 C 
ENDBRANCH   6   8
ENDBRANCH   5   6
ENDBRANCH   1   5
TORSDOF 5
ENDMDL
MODEL 8
REMARK VINA RESULT:    -3.365     13.304     15.084
REMARK INTER + INTRA:          -4.627
REMARK INTER:                  -4.093
REMARK INTRA:                  -0.534
REMARK UNBOUND:                -0.278
REMARK SMILES C=CC(=O)CCCCC
REMARK SMILES IDX 6 1 7 2 8 3 9 4 5 5 3 6 4 7 2 8 1 9
REMARK H PARENT
REMARK Flexibility Score: inf
ROOT
ATOM      1  C   UNL     1       2.433  11.083  48.213  1.00  0.00     0.008 C 
ENDROOT
BRANCH   1   2
ATOM      2  C   UNL     1       1.653  11.880  49.278  1.00  0.00     0.000 C 
BRANCH   2   3
ATOM      3  C   UNL     1       0.591  12.842  48.717  1.00  0.00    -0.003 C 
ATOM      4  C   UNL     1       1.074  13.614  47.490  1.00  0.00     0.004 C 
ENDBRANCH   2   3
ENDBRANCH   1   2
BRANCH   1   5
ATOM      5  C   UNL     1       2.270   9.556  48.312  1.00  0.00     0.080 C 
BRANCH   5   6
ATOM      6  C   UNL     1       1.436   9.002  47.193  1.00  0.00     0.155 C 
ATOM      7  O   UNL     1       1.450   7.761  46.967  1.00  0.00    -0.295 OA
BRANCH   6   8
ATOM      8  C   UNL     1       0.633   9.909  46.350  1.00  0.00     0.039 C 
ATOM      9  C   UNL     1      -0.685  10.035  46.490  1.00  0.00     0.012 C 
ENDBRANCH   6   8
ENDBRANCH   5   6
ENDBRANCH   1   5
TORSDOF 5
ENDMDL
MODEL 9
REMARK VINA RESULT:    -3.332     11.947     14.509
REMARK INTER + INTRA:          -4.584
REMARK INTER:                  -4.402
REMARK INTRA:                  -0.182
REMARK UNBOUND:                -0.278
REMARK SMILES C=CC(=O)CCCCC
REMARK SMILES IDX 6 1 7 2 8 3 9 4 5 5 3 6 4 7 2 8 1 9
REMARK H PARENT
REMARK Flexibility Score: inf
ROOT
ATOM      1  C   UNL     1      16.211  22.677  35.756  1.00  0.00     0.008 C 
ENDROOT
BRANCH   1   2
ATOM      2  C   UNL     1      17.333  22.941  34.731  1.00  0.00     0.000 C 
BRANCH   2   3
ATOM      3  C   UNL     1      18.412  21.846  34.657  1.00  0.00    -0.003 C 
ATOM      4  C   UNL     1      19.125  21.802  33.307  1.00  0.00     0.004 C 
ENDBRANCH   2   3
ENDBRANCH   1   2
BRANCH   1   5
ATOM      5  C   UNL     1      16.389  23.408  37.098  1.00  0.00     0.080 C 
BRANCH   5   6
ATOM      6  C   UNL     1      15.107  24.020  37.585  1.00  0.00     0.155 C 
ATOM      7  O   UNL     1      15.141  24.858  38.527  1.00  0.00    -0.295 OA
BRANCH   6   8
ATOM      8  C   UNL     1      13.821  23.618  36.983  1.00  0.00     0.039 C 
ATOM      9  C   UNL     1      12.856  24.493  36.707  1.00  0.00     0.012 C 
ENDBRANCH   6   8
ENDBRANCH   5   6
ENDBRANCH   1   5
TORSDOF 5
ENDMDL
