MODEL 1
REMARK VINA RESULT:    -7.144      0.000      0.000
REMARK INTER + INTRA:          -8.693
REMARK INTER:                  -8.397
REMARK INTRA:                  -0.296
REMARK UNBOUND:                -0.296
REMARK SMILES O=c1c(O)c(-c2ccc(O)c(O)c2)oc2cc(O)ccc12
REMARK SMILES IDX 5 1 3 2 2 3 1 4 21 5 15 6 14 7 16 8 17 9 19 10 20 11 6 12
REMARK SMILES IDX 7 13 8 14 9 15 13 16 11 17 10 18 12 20 4 22 18 24
REMARK H PARENT 10 19 12 21 4 23 18 25
REMARK Flexibility Score: inf
ROOT
ATOM      1  C   UNL     1     175.292 198.469 184.289  1.00  0.00     0.180 A 
ATOM      2  C   UNL     1     174.158 198.739 185.082  1.00  0.00     0.208 A 
ATOM      3  C   UNL     1     174.258 198.598 186.475  1.00  0.00     0.235 A 
ATOM      4  O   UNL     1     173.253 198.823 187.206  1.00  0.00    -0.285 OA
ATOM      5  C   UNL     1     175.482 198.214 187.044  1.00  0.00     0.069 A 
ATOM      6  C   UNL     1     176.577 197.985 186.183  1.00  0.00     0.142 A 
ATOM      7  O   UNL     1     176.438 198.121 184.869  1.00  0.00    -0.452 OA
ATOM      8  C   UNL     1     177.817 197.611 186.713  1.00  0.00     0.094 A 
ATOM      9  C   UNL     1     177.979 197.460 188.094  1.00  0.00     0.119 A 
ATOM     10  C   UNL     1     176.892 197.684 188.951  1.00  0.00     0.047 A 
ATOM     11  C   UNL     1     175.649 198.060 188.432  1.00  0.00     0.020 A 
ENDROOT
BRANCH   1  12
ATOM     12  C   UNL     1     175.261 198.577 182.812  1.00  0.00     0.025 A 
ATOM     13  C   UNL     1     174.726 197.523 182.054  1.00  0.00     0.016 A 
ATOM     14  C   UNL     1     174.668 197.612 180.661  1.00  0.00     0.051 A 
ATOM     15  C   UNL     1     175.130 198.761 180.007  1.00  0.00     0.157 A 
ATOM     16  C   UNL     1     175.704 199.738 182.153  1.00  0.00     0.062 A 
ATOM     17  C   UNL     1     175.645 199.830 180.758  1.00  0.00     0.158 A 
BRANCH  15  18
ATOM     18  O   UNL     1     175.073 198.845 178.616  1.00  0.00    -0.504 OA
ATOM     19  H   UNL     1     175.660 198.269 178.025  1.00  0.00     0.293 HD
ENDBRANCH  15  18
BRANCH  17  20
ATOM     20  O   UNL     1     176.099 200.994 180.137  1.00  0.00    -0.504 OA
ATOM     21  H   UNL     1     177.068 201.282 180.176  1.00  0.00     0.293 HD
ENDBRANCH  17  20
ENDBRANCH   1  12
BRANCH   2  22
ATOM     22  O   UNL     1     172.965 199.167 184.492  1.00  0.00    -0.502 OA
ATOM     23  H   UNL     1     172.116 199.304 185.025  1.00  0.00     0.293 HD
ENDBRANCH   2  22
BRANCH   9  24
ATOM     24  O   UNL     1     179.219 197.086 188.603  1.00  0.00    -0.508 OA
ATOM     25  H   UNL     1     179.334 196.241 189.150  1.00  0.00     0.293 HD
ENDBRANCH   9  24
TORSDOF 5
ENDMDL
MODEL 2
REMARK VINA RESULT:    -7.044      8.284     10.761
REMARK INTER + INTRA:          -8.575
REMARK INTER:                  -8.406
REMARK INTRA:                  -0.169
REMARK UNBOUND:                -0.296
REMARK SMILES O=c1c(O)c(-c2ccc(O)c(O)c2)oc2cc(O)ccc12
REMARK SMILES IDX 5 1 3 2 2 3 1 4 21 5 15 6 14 7 16 8 17 9 19 10 20 11 6 12
REMARK SMILES IDX 7 13 8 14 9 15 13 16 11 17 10 18 12 20 4 22 18 24
REMARK H PARENT 10 19 12 21 4 23 18 25
REMARK Flexibility Score: inf
ROOT
ATOM      1  C   UNL     1     166.868 199.209 183.197  1.00  0.00     0.180 A 
ATOM      2  C   UNL     1     168.026 199.984 183.413  1.00  0.00     0.208 A 
ATOM      3  C   UNL     1     167.882 201.351 183.697  1.00  0.00     0.235 A 
ATOM      4  O   UNL     1     168.904 202.068 183.884  1.00  0.00    -0.285 OA
ATOM      5  C   UNL     1     166.596 201.908 183.779  1.00  0.00     0.069 A 
ATOM      6  C   UNL     1     165.486 201.060 183.573  1.00  0.00     0.142 A 
ATOM      7  O   UNL     1     165.666 199.773 183.298  1.00  0.00    -0.452 OA
ATOM      8  C   UNL     1     164.188 201.575 183.657  1.00  0.00     0.094 A 
ATOM      9  C   UNL     1     163.982 202.929 183.942  1.00  0.00     0.119 A 
ATOM     10  C   UNL     1     165.082 203.774 184.145  1.00  0.00     0.047 A 
ATOM     11  C   UNL     1     166.383 203.269 184.065  1.00  0.00     0.020 A 
ENDROOT
BRANCH   1  12
ATOM     12  C   UNL     1     166.937 197.766 182.874  1.00  0.00     0.025 A 
ATOM     13  C   UNL     1     167.519 197.357 181.664  1.00  0.00     0.016 A 
ATOM     14  C   UNL     1     167.614 195.998 181.348  1.00  0.00     0.051 A 
ATOM     15  C   UNL     1     167.142 195.030 182.243  1.00  0.00     0.157 A 
ATOM     16  C   UNL     1     166.482 196.790 183.780  1.00  0.00     0.062 A 
ATOM     17  C   UNL     1     166.578 195.429 183.467  1.00  0.00     0.158 A 
BRANCH  15  18
ATOM     18  O   UNL     1     167.236 193.676 181.924  1.00  0.00    -0.504 OA
ATOM     19  H   UNL     1     166.598 192.993 182.314  1.00  0.00     0.293 HD
ENDBRANCH  15  18
BRANCH  17  20
ATOM     20  O   UNL     1     166.112 194.489 184.385  1.00  0.00    -0.504 OA
ATOM     21  H   UNL     1     165.479 193.745 184.120  1.00  0.00     0.293 HD
ENDBRANCH  17  20
ENDBRANCH   1  12
BRANCH   2  22
ATOM     22  O   UNL     1     169.291 199.392 183.374  1.00  0.00    -0.502 OA
ATOM     23  H   UNL     1     170.142 199.937 183.315  1.00  0.00     0.293 HD
ENDBRANCH   2  22
BRANCH   9  24
ATOM     24  O   UNL     1     162.683 203.424 184.020  1.00  0.00    -0.508 OA
ATOM     25  H   UNL     1     162.047 203.129 184.751  1.00  0.00     0.293 HD
ENDBRANCH   9  24
TORSDOF 5
ENDMDL
MODEL 3
REMARK VINA RESULT:    -6.919      1.562      3.263
REMARK INTER + INTRA:          -8.428
REMARK INTER:                  -8.107
REMARK INTRA:                  -0.322
REMARK UNBOUND:                -0.296
REMARK SMILES O=c1c(O)c(-c2ccc(O)c(O)c2)oc2cc(O)ccc12
REMARK SMILES IDX 5 1 3 2 2 3 1 4 21 5 15 6 14 7 16 8 17 9 19 10 20 11 6 12
REMARK SMILES IDX 7 13 8 14 9 15 13 16 11 17 10 18 12 20 4 22 18 24
REMARK H PARENT 10 19 12 21 4 23 18 25
REMARK Flexibility Score: inf
ROOT
ATOM      1  C   UNL     1     175.229 198.603 184.935  1.00  0.00     0.180 A 
ATOM      2  C   UNL     1     176.262 198.094 185.748  1.00  0.00     0.208 A 
ATOM      3  C   UNL     1     176.167 198.251 187.139  1.00  0.00     0.235 A 
ATOM      4  O   UNL     1     177.084 197.813 187.888  1.00  0.00    -0.285 OA
ATOM      5  C   UNL     1     175.043 198.890 187.687  1.00  0.00     0.069 A 
ATOM      6  C   UNL     1     174.040 199.351 186.807  1.00  0.00     0.142 A 
ATOM      7  O   UNL     1     174.173 199.189 185.495  1.00  0.00    -0.452 OA
ATOM      8  C   UNL     1     172.901 199.983 187.315  1.00  0.00     0.094 A 
ATOM      9  C   UNL     1     172.748 200.164 188.693  1.00  0.00     0.119 A 
ATOM     10  C   UNL     1     173.743 199.709 189.570  1.00  0.00     0.047 A 
ATOM     11  C   UNL     1     174.886 199.075 189.073  1.00  0.00     0.020 A 
ENDROOT
BRANCH   1  12
ATOM     12  C   UNL     1     175.264 198.493 183.458  1.00  0.00     0.025 A 
ATOM     13  C   UNL     1     174.687 197.375 182.835  1.00  0.00     0.016 A 
ATOM     14  C   UNL     1     174.690 197.260 181.443  1.00  0.00     0.051 A 
ATOM     15  C   UNL     1     175.257 198.269 180.653  1.00  0.00     0.157 A 
ATOM     16  C   UNL     1     175.813 199.513 182.661  1.00  0.00     0.062 A 
ATOM     17  C   UNL     1     175.816 199.402 181.265  1.00  0.00     0.158 A 
BRANCH  15  18
ATOM     18  O   UNL     1     175.261 198.150 179.263  1.00  0.00    -0.504 OA
ATOM     19  H   UNL     1     175.532 197.289 178.804  1.00  0.00     0.293 HD
ENDBRANCH  15  18
BRANCH  17  20
ATOM     20  O   UNL     1     176.374 200.430 180.506  1.00  0.00    -0.504 OA
ATOM     21  H   UNL     1     176.139 200.567 179.530  1.00  0.00     0.293 HD
ENDBRANCH  17  20
ENDBRANCH   1  12
BRANCH   2  22
ATOM     22  O   UNL     1     177.345 197.419 185.178  1.00  0.00    -0.502 OA
ATOM     23  H   UNL     1     177.853 197.785 184.382  1.00  0.00     0.293 HD
ENDBRANCH   2  22
BRANCH   9  24
ATOM     24  O   UNL     1     171.608 200.796 189.181  1.00  0.00    -0.508 OA
ATOM     25  H   UNL     1     170.679 200.489 188.918  1.00  0.00     0.293 HD
ENDBRANCH   9  24
TORSDOF 5
ENDMDL
MODEL 4
REMARK VINA RESULT:    -6.878      7.866      9.390
REMARK INTER + INTRA:          -8.380
REMARK INTER:                  -8.100
REMARK INTRA:                  -0.280
REMARK UNBOUND:                -0.296
REMARK SMILES O=c1c(O)c(-c2ccc(O)c(O)c2)oc2cc(O)ccc12
REMARK SMILES IDX 5 1 3 2 2 3 1 4 21 5 15 6 14 7 16 8 17 9 19 10 20 11 6 12
REMARK SMILES IDX 7 13 8 14 9 15 13 16 11 17 10 18 12 20 4 22 18 24
REMARK H PARENT 10 19 12 21 4 23 18 25
REMARK Flexibility Score: inf
ROOT
ATOM      1  C   UNL     1     167.069 199.751 183.665  1.00  0.00     0.180 A 
ATOM      2  C   UNL     1     166.095 200.717 183.340  1.00  0.00     0.208 A 
ATOM      3  C   UNL     1     166.196 201.997 183.908  1.00  0.00     0.235 A 
ATOM      4  O   UNL     1     165.331 202.876 183.641  1.00  0.00    -0.285 OA
ATOM      5  C   UNL     1     167.268 202.289 184.765  1.00  0.00     0.069 A 
ATOM      6  C   UNL     1     168.216 201.274 185.022  1.00  0.00     0.142 A 
ATOM      7  O   UNL     1     168.078 200.073 184.471  1.00  0.00    -0.452 OA
ATOM      8  C   UNL     1     169.304 201.530 185.863  1.00  0.00     0.094 A 
ATOM      9  C   UNL     1     169.460 202.787 186.454  1.00  0.00     0.119 A 
ATOM     10  C   UNL     1     168.521 203.797 186.202  1.00  0.00     0.047 A 
ATOM     11  C   UNL     1     167.430 203.553 185.362  1.00  0.00     0.020 A 
ENDROOT
BRANCH   1  12
ATOM     12  C   UNL     1     167.022 198.374 183.122  1.00  0.00     0.025 A 
ATOM     13  C   UNL     1     167.476 198.131 181.816  1.00  0.00     0.016 A 
ATOM     14  C   UNL     1     167.460 196.836 181.290  1.00  0.00     0.051 A 
ATOM     15  C   UNL     1     167.005 195.764 182.068  1.00  0.00     0.157 A 
ATOM     16  C   UNL     1     166.585 197.291 183.907  1.00  0.00     0.062 A 
ATOM     17  C   UNL     1     166.570 195.993 183.384  1.00  0.00     0.158 A 
BRANCH  15  18
ATOM     18  O   UNL     1     166.988 194.474 181.539  1.00  0.00    -0.504 OA
ATOM     19  H   UNL     1     167.327 193.679 182.068  1.00  0.00     0.293 HD
ENDBRANCH  15  18
BRANCH  17  20
ATOM     20  O   UNL     1     166.125 194.944 184.188  1.00  0.00    -0.504 OA
ATOM     21  H   UNL     1     166.386 193.982 184.011  1.00  0.00     0.293 HD
ENDBRANCH  17  20
ENDBRANCH   1  12
BRANCH   2  22
ATOM     22  O   UNL     1     165.066 200.413 182.445  1.00  0.00    -0.502 OA
ATOM     23  H   UNL     1     164.279 199.830 182.702  1.00  0.00     0.293 HD
ENDBRANCH   2  22
BRANCH   9  24
ATOM     24  O   UNL     1     170.549 203.024 187.288  1.00  0.00    -0.508 OA
ATOM     25  H   UNL     1     171.071 203.891 187.245  1.00  0.00     0.293 HD
ENDBRANCH   9  24
TORSDOF 5
ENDMDL
MODEL 5
REMARK VINA RESULT:    -6.629      7.880     10.014
REMARK INTER + INTRA:          -8.087
REMARK INTER:                  -7.788
REMARK INTRA:                  -0.299
REMARK UNBOUND:                -0.296
REMARK SMILES O=c1c(O)c(-c2ccc(O)c(O)c2)oc2cc(O)ccc12
REMARK SMILES IDX 5 1 3 2 2 3 1 4 21 5 15 6 14 7 16 8 17 9 19 10 20 11 6 12
REMARK SMILES IDX 7 13 8 14 9 15 13 16 11 17 10 18 12 20 4 22 18 24
REMARK H PARENT 10 19 12 21 4 23 18 25
REMARK Flexibility Score: inf
ROOT
ATOM      1  C   UNL     1     168.016 200.809 183.864  1.00  0.00     0.180 A 
ATOM      2  C   UNL     1     168.657 200.802 182.608  1.00  0.00     0.208 A 
ATOM      3  C   UNL     1     168.618 199.632 181.834  1.00  0.00     0.235 A 
ATOM      4  O   UNL     1     169.194 199.598 180.711  1.00  0.00    -0.285 OA
ATOM      5  C   UNL     1     167.930 198.508 182.317  1.00  0.00     0.069 A 
ATOM      6  C   UNL     1     167.294 198.602 183.574  1.00  0.00     0.142 A 
ATOM      7  O   UNL     1     167.362 199.726 184.278  1.00  0.00    -0.452 OA
ATOM      8  C   UNL     1     166.589 197.507 184.085  1.00  0.00     0.094 A 
ATOM      9  C   UNL     1     166.511 196.315 183.357  1.00  0.00     0.119 A 
ATOM     10  C   UNL     1     167.144 196.217 182.110  1.00  0.00     0.047 A 
ATOM     11  C   UNL     1     167.850 197.307 181.589  1.00  0.00     0.020 A 
ENDROOT
BRANCH   1  12
ATOM     12  C   UNL     1     168.028 201.998 184.746  1.00  0.00     0.025 A 
ATOM     13  C   UNL     1     169.001 202.100 185.753  1.00  0.00     0.016 A 
ATOM     14  C   UNL     1     169.044 203.223 186.584  1.00  0.00     0.051 A 
ATOM     15  C   UNL     1     168.125 204.266 186.410  1.00  0.00     0.157 A 
ATOM     16  C   UNL     1     167.121 203.057 184.561  1.00  0.00     0.062 A 
ATOM     17  C   UNL     1     167.163 204.184 185.390  1.00  0.00     0.158 A 
BRANCH  15  18
ATOM     18  O   UNL     1     168.170 205.384 187.242  1.00  0.00    -0.504 OA
ATOM     19  H   UNL     1     167.682 205.405 188.130  1.00  0.00     0.293 HD
ENDBRANCH  15  18
BRANCH  17  20
ATOM     20  O   UNL     1     166.245 205.212 185.182  1.00  0.00    -0.504 OA
ATOM     21  H   UNL     1     165.673 205.263 184.347  1.00  0.00     0.293 HD
ENDBRANCH  17  20
ENDBRANCH   1  12
BRANCH   2  22
ATOM     22  O   UNL     1     169.293 201.952 182.131  1.00  0.00    -0.502 OA
ATOM     23  H   UNL     1     170.285 202.112 182.253  1.00  0.00     0.293 HD
ENDBRANCH   2  22
BRANCH   9  24
ATOM     24  O   UNL     1     165.807 195.235 183.881  1.00  0.00    -0.508 OA
ATOM     25  H   UNL     1     165.233 195.329 184.711  1.00  0.00     0.293 HD
ENDBRANCH   9  24
TORSDOF 5
ENDMDL
MODEL 6
REMARK VINA RESULT:    -6.605      8.630     10.582
REMARK INTER + INTRA:          -8.059
REMARK INTER:                  -7.809
REMARK INTRA:                  -0.251
REMARK UNBOUND:                -0.296
REMARK SMILES O=c1c(O)c(-c2ccc(O)c(O)c2)oc2cc(O)ccc12
REMARK SMILES IDX 5 1 3 2 2 3 1 4 21 5 15 6 14 7 16 8 17 9 19 10 20 11 6 12
REMARK SMILES IDX 7 13 8 14 9 15 13 16 11 17 10 18 12 20 4 22 18 24
REMARK H PARENT 10 19 12 21 4 23 18 25
REMARK Flexibility Score: inf
ROOT
ATOM      1  C   UNL     1     166.700 200.016 183.093  1.00  0.00     0.180 A 
ATOM      2  C   UNL     1     166.346 198.852 183.806  1.00  0.00     0.208 A 
ATOM      3  C   UNL     1     166.771 197.606 183.320  1.00  0.00     0.235 A 
ATOM      4  O   UNL     1     166.457 196.549 183.934  1.00  0.00    -0.285 OA
ATOM      5  C   UNL     1     167.551 197.549 182.154  1.00  0.00     0.069 A 
ATOM      6  C   UNL     1     167.883 198.761 181.512  1.00  0.00     0.142 A 
ATOM      7  O   UNL     1     167.453 199.920 182.000  1.00  0.00    -0.452 OA
ATOM      8  C   UNL     1     168.667 198.747 180.354  1.00  0.00     0.094 A 
ATOM      9  C   UNL     1     169.124 197.535 179.825  1.00  0.00     0.119 A 
ATOM     10  C   UNL     1     168.795 196.329 180.459  1.00  0.00     0.047 A 
ATOM     11  C   UNL     1     168.012 196.333 181.619  1.00  0.00     0.020 A 
ENDROOT
BRANCH   1  12
ATOM     12  C   UNL     1     166.274 201.366 183.531  1.00  0.00     0.025 A 
ATOM     13  C   UNL     1     167.233 202.266 184.023  1.00  0.00     0.016 A 
ATOM     14  C   UNL     1     166.858 203.551 184.422  1.00  0.00     0.051 A 
ATOM     15  C   UNL     1     165.522 203.961 184.320  1.00  0.00     0.157 A 
ATOM     16  C   UNL     1     164.938 201.787 183.410  1.00  0.00     0.062 A 
ATOM     17  C   UNL     1     164.560 203.075 183.807  1.00  0.00     0.158 A 
BRANCH  15  18
ATOM     18  O   UNL     1     165.151 205.244 184.721  1.00  0.00    -0.504 OA
ATOM     19  H   UNL     1     165.182 206.029 184.082  1.00  0.00     0.293 HD
ENDBRANCH  15  18
BRANCH  17  20
ATOM     20  O   UNL     1     163.225 203.458 183.679  1.00  0.00    -0.504 OA
ATOM     21  H   UNL     1     162.864 203.879 182.832  1.00  0.00     0.293 HD
ENDBRANCH  17  20
ENDBRANCH   1  12
BRANCH   2  22
ATOM     22  O   UNL     1     165.610 198.944 184.990  1.00  0.00    -0.502 OA
ATOM     23  H   UNL     1     165.998 198.692 185.890  1.00  0.00     0.293 HD
ENDBRANCH   2  22
BRANCH   9  24
ATOM     24  O   UNL     1     169.903 197.540 178.671  1.00  0.00    -0.508 OA
ATOM     25  H   UNL     1     169.512 197.788 177.769  1.00  0.00     0.293 HD
ENDBRANCH   9  24
TORSDOF 5
ENDMDL
MODEL 7
REMARK VINA RESULT:    -6.524      7.622      9.829
REMARK INTER + INTRA:          -7.964
REMARK INTER:                  -7.651
REMARK INTRA:                  -0.313
REMARK UNBOUND:                -0.296
REMARK SMILES O=c1c(O)c(-c2ccc(O)c(O)c2)oc2cc(O)ccc12
REMARK SMILES IDX 5 1 3 2 2 3 1 4 21 5 15 6 14 7 16 8 17 9 19 10 20 11 6 12
REMARK SMILES IDX 7 13 8 14 9 15 13 16 11 17 10 18 12 20 4 22 18 24
REMARK H PARENT 10 19 12 21 4 23 18 25
REMARK Flexibility Score: inf
ROOT
ATOM      1  C   UNL     1     167.678 199.842 183.880  1.00  0.00     0.180 A 
ATOM      2  C   UNL     1     168.760 200.046 184.761  1.00  0.00     0.208 A 
ATOM      3  C   UNL     1     168.929 201.312 185.343  1.00  0.00     0.235 A 
ATOM      4  O   UNL     1     169.896 201.523 186.126  1.00  0.00    -0.285 OA
ATOM      5  C   UNL     1     168.011 202.334 185.052  1.00  0.00     0.069 A 
ATOM      6  C   UNL     1     166.940 202.043 184.179  1.00  0.00     0.142 A 
ATOM      7  O   UNL     1     166.822 200.833 183.642  1.00  0.00    -0.452 OA
ATOM      8  C   UNL     1     166.000 203.031 183.872  1.00  0.00     0.094 A 
ATOM      9  C   UNL     1     166.113 204.310 184.425  1.00  0.00     0.119 A 
ATOM     10  C   UNL     1     167.176 204.604 185.292  1.00  0.00     0.047 A 
ATOM     11  C   UNL     1     168.121 203.622 185.606  1.00  0.00     0.020 A 
ENDROOT
BRANCH   1  12
ATOM     12  C   UNL     1     167.443 198.541 183.212  1.00  0.00     0.025 A 
ATOM     13  C   UNL     1     168.005 198.303 181.948  1.00  0.00     0.016 A 
ATOM     14  C   UNL     1     167.814 197.075 181.308  1.00  0.00     0.051 A 
ATOM     15  C   UNL     1     167.072 196.063 181.930  1.00  0.00     0.157 A 
ATOM     16  C   UNL     1     166.716 197.515 183.842  1.00  0.00     0.062 A 
ATOM     17  C   UNL     1     166.524 196.284 183.205  1.00  0.00     0.158 A 
BRANCH  15  18
ATOM     18  O   UNL     1     166.881 194.840 181.288  1.00  0.00    -0.504 OA
ATOM     19  H   UNL     1     167.141 194.703 180.318  1.00  0.00     0.293 HD
ENDBRANCH  15  18
BRANCH  17  20
ATOM     20  O   UNL     1     165.793 195.291 183.856  1.00  0.00    -0.504 OA
ATOM     21  H   UNL     1     165.497 194.444 183.386  1.00  0.00     0.293 HD
ENDBRANCH  17  20
ENDBRANCH   1  12
BRANCH   2  22
ATOM     22  O   UNL     1     169.629 198.997 185.070  1.00  0.00    -0.502 OA
ATOM     23  H   UNL     1     169.318 198.035 185.128  1.00  0.00     0.293 HD
ENDBRANCH   2  22
BRANCH   9  24
ATOM     24  O   UNL     1     165.168 205.282 184.109  1.00  0.00    -0.508 OA
ATOM     25  H   UNL     1     164.191 205.172 184.356  1.00  0.00     0.293 HD
ENDBRANCH   9  24
TORSDOF 5
ENDMDL
MODEL 8
REMARK VINA RESULT:    -6.494      8.754     10.242
REMARK INTER + INTRA:          -7.928
REMARK INTER:                  -7.607
REMARK INTRA:                  -0.321
REMARK UNBOUND:                -0.296
REMARK SMILES O=c1c(O)c(-c2ccc(O)c(O)c2)oc2cc(O)ccc12
REMARK SMILES IDX 5 1 3 2 2 3 1 4 21 5 15 6 14 7 16 8 17 9 19 10 20 11 6 12
REMARK SMILES IDX 7 13 8 14 9 15 13 16 11 17 10 18 12 20 4 22 18 24
REMARK H PARENT 10 19 12 21 4 23 18 25
REMARK Flexibility Score: inf
ROOT
ATOM      1  C   UNL     1     166.752 201.865 184.122  1.00  0.00     0.180 A 
ATOM      2  C   UNL     1     165.584 202.594 183.820  1.00  0.00     0.208 A 
ATOM      3  C   UNL     1     165.390 203.844 184.428  1.00  0.00     0.235 A 
ATOM      4  O   UNL     1     164.346 204.511 184.181  1.00  0.00    -0.285 OA
ATOM      5  C   UNL     1     166.366 204.345 185.303  1.00  0.00     0.069 A 
ATOM      6  C   UNL     1     167.520 203.565 185.536  1.00  0.00     0.142 A 
ATOM      7  O   UNL     1     167.661 202.383 184.946  1.00  0.00    -0.452 OA
ATOM      8  C   UNL     1     168.520 204.034 186.394  1.00  0.00     0.094 A 
ATOM      9  C   UNL     1     168.384 205.275 187.025  1.00  0.00     0.119 A 
ATOM     10  C   UNL     1     167.240 206.051 186.798  1.00  0.00     0.047 A 
ATOM     11  C   UNL     1     166.234 205.592 185.941  1.00  0.00     0.020 A 
ENDROOT
BRANCH   1  12
ATOM     12  C   UNL     1     167.021 200.532 183.536  1.00  0.00     0.025 A 
ATOM     13  C   UNL     1     167.860 200.428 182.415  1.00  0.00     0.016 A 
ATOM     14  C   UNL     1     168.144 199.178 181.858  1.00  0.00     0.051 A 
ATOM     15  C   UNL     1     167.606 198.015 182.422  1.00  0.00     0.157 A 
ATOM     16  C   UNL     1     166.499 199.360 184.112  1.00  0.00     0.062 A 
ATOM     17  C   UNL     1     166.784 198.107 183.557  1.00  0.00     0.158 A 
BRANCH  15  18
ATOM     18  O   UNL     1     167.890 196.769 181.862  1.00  0.00    -0.504 OA
ATOM     19  H   UNL     1     168.382 196.683 180.981  1.00  0.00     0.293 HD
ENDBRANCH  15  18
BRANCH  17  20
ATOM     20  O   UNL     1     166.245 196.965 184.151  1.00  0.00    -0.504 OA
ATOM     21  H   UNL     1     165.402 196.525 183.804  1.00  0.00     0.293 HD
ENDBRANCH  17  20
ENDBRANCH   1  12
BRANCH   2  22
ATOM     22  O   UNL     1     164.652 202.092 182.907  1.00  0.00    -0.502 OA
ATOM     23  H   UNL     1     164.802 201.229 182.399  1.00  0.00     0.293 HD
ENDBRANCH   2  22
BRANCH   9  24
ATOM     24  O   UNL     1     169.390 205.726 187.876  1.00  0.00    -0.508 OA
ATOM     25  H   UNL     1     169.206 205.928 188.852  1.00  0.00     0.293 HD
ENDBRANCH   9  24
TORSDOF 5
ENDMDL
MODEL 9
REMARK VINA RESULT:    -6.466      2.536      4.375
REMARK INTER + INTRA:          -7.896
REMARK INTER:                  -7.618
REMARK INTRA:                  -0.278
REMARK UNBOUND:                -0.296
REMARK SMILES O=c1c(O)c(-c2ccc(O)c(O)c2)oc2cc(O)ccc12
REMARK SMILES IDX 5 1 3 2 2 3 1 4 21 5 15 6 14 7 16 8 17 9 19 10 20 11 6 12
REMARK SMILES IDX 7 13 8 14 9 15 13 16 11 17 10 18 12 20 4 22 18 24
REMARK H PARENT 10 19 12 21 4 23 18 25
REMARK Flexibility Score: inf
ROOT
ATOM      1  C   UNL     1     174.159 199.488 184.687  1.00  0.00     0.180 A 
ATOM      2  C   UNL     1     174.727 199.057 185.904  1.00  0.00     0.208 A 
ATOM      3  C   UNL     1     174.234 199.589 187.105  1.00  0.00     0.235 A 
ATOM      4  O   UNL     1     174.733 199.227 188.207  1.00  0.00    -0.285 OA
ATOM      5  C   UNL     1     173.181 200.516 187.070  1.00  0.00     0.069 A 
ATOM      6  C   UNL     1     172.650 200.878 185.812  1.00  0.00     0.142 A 
ATOM      7  O   UNL     1     173.152 200.358 184.697  1.00  0.00    -0.452 OA
ATOM      8  C   UNL     1     171.593 201.791 185.735  1.00  0.00     0.094 A 
ATOM      9  C   UNL     1     171.057 202.351 186.900  1.00  0.00     0.119 A 
ATOM     10  C   UNL     1     171.582 201.995 188.150  1.00  0.00     0.047 A 
ATOM     11  C   UNL     1     172.638 201.082 188.238  1.00  0.00     0.020 A 
ENDROOT
BRANCH   1  12
ATOM     12  C   UNL     1     174.637 198.988 183.377  1.00  0.00     0.025 A 
ATOM     13  C   UNL     1     174.214 197.728 182.923  1.00  0.00     0.016 A 
ATOM     14  C   UNL     1     174.635 197.246 181.681  1.00  0.00     0.051 A 
ATOM     15  C   UNL     1     175.471 198.022 180.868  1.00  0.00     0.157 A 
ATOM     16  C   UNL     1     175.459 199.773 182.549  1.00  0.00     0.062 A 
ATOM     17  C   UNL     1     175.880 199.293 181.303  1.00  0.00     0.158 A 
BRANCH  15  18
ATOM     18  O   UNL     1     175.891 197.536 179.630  1.00  0.00    -0.504 OA
ATOM     19  H   UNL     1     175.417 196.767 179.173  1.00  0.00     0.293 HD
ENDBRANCH  15  18
BRANCH  17  20
ATOM     20  O   UNL     1     176.700 200.096 180.511  1.00  0.00    -0.504 OA
ATOM     21  H   UNL     1     176.948 201.041 180.776  1.00  0.00     0.293 HD
ENDBRANCH  17  20
ENDBRANCH   1  12
BRANCH   2  22
ATOM     22  O   UNL     1     175.742 198.096 185.911  1.00  0.00    -0.502 OA
ATOM     23  H   UNL     1     176.642 198.255 185.476  1.00  0.00     0.293 HD
ENDBRANCH   2  22
BRANCH   9  24
ATOM     24  O   UNL     1     170.006 203.258 186.804  1.00  0.00    -0.508 OA
ATOM     25  H   UNL     1     170.044 204.162 187.261  1.00  0.00     0.293 HD
ENDBRANCH   9  24
TORSDOF 5
ENDMDL
