MODEL 1
REMARK VINA RESULT:    -3.281      0.000      0.000
REMARK INTER + INTRA:          -5.670
REMARK INTER:                  -6.253
REMARK INTRA:                   0.583
REMARK UNBOUND:                 0.583
REMARK SMILES C[C@@H]1O[C@@H](O[C@@H]2[C@@H](O)[C@H](OCCc3ccc(O)c(O)c3)O[C@@H](CO)[C@@H]2OC(=O)C=Cc2ccc(O)c(O)c2)[C@H](O)[C@@H](O)[C@@H]1O
REMARK SMILES IDX 6 1 7 2 9 3 21 4 22 5 25 6 5 7 4 8 1 9 2 10 43 11 3 12 41 13
REMARK SMILES IDX 39 14 44 15 42 17 40 19 8 21 26 23 27 24 28 25 29 26 30 27
REMARK SMILES IDX 31 28 38 29 32 30 36 31 33 32 34 33 37 34 35 36 10 38 11 39
REMARK SMILES IDX 12 40 13 41 20 42 14 43 18 44 15 45 16 46 19 47 17 49 23 51
REMARK SMILES IDX 24 52
REMARK H PARENT 44 16 42 18 40 20 8 22 37 35 35 37 19 48 17 50 24 53
REMARK Flexibility Score: inf
ROOT
ATOM      1  C   UNL     1      20.046  10.222  -4.978  1.00  0.00     0.199 C 
ATOM      2  C   UNL     1      20.376   8.948  -4.170  1.00  0.00     0.203 C 
ATOM      3  C   UNL     1      21.875   8.559  -4.325  1.00  0.00     0.282 C 
ATOM      4  O   UNL     1      22.688   9.655  -4.734  1.00  0.00    -0.340 OA
ATOM      5  C   UNL     1      22.348  10.148  -6.028  1.00  0.00     0.190 C 
ATOM      6  C   UNL     1      20.822  10.176  -6.304  1.00  0.00     0.240 C 
ENDROOT
BRANCH   1   7
ATOM      7  O   UNL     1      20.460  11.371  -4.248  1.00  0.00    -0.340 OA
BRANCH   7   8
ATOM      8  C   UNL     1      20.544  11.145  -2.852  1.00  0.00     0.282 C 
ATOM      9  C   UNL     1      17.433  12.750  -1.763  1.00  0.00     0.041 C 
ATOM     10  C   UNL     1      18.941  12.601  -1.964  1.00  0.00     0.150 C 
ATOM     11  C   UNL     1      19.729  12.988  -0.697  1.00  0.00     0.174 C 
ATOM     12  O   UNL     1      19.241  11.261  -2.294  1.00  0.00    -0.344 OA
ATOM     13  C   UNL     1      21.225  12.596  -0.827  1.00  0.00     0.179 C 
ATOM     14  C   UNL     1      21.600  12.133  -2.255  1.00  0.00     0.202 C 
BRANCH  11  15
ATOM     15  O   UNL     1      19.165  12.345   0.423  1.00  0.00    -0.388 OA
ATOM     16  H   UNL     1      18.218  12.647   0.477  1.00  0.00     0.211 HD
ENDBRANCH  11  15
BRANCH  13  17
ATOM     17  O   UNL     1      22.015  13.700  -0.451  1.00  0.00    -0.387 OA
ATOM     18  H   UNL     1      22.942  13.532  -0.782  1.00  0.00     0.211 HD
ENDBRANCH  13  17
BRANCH  14  19
ATOM     19  O   UNL     1      22.860  11.495  -2.226  1.00  0.00    -0.385 OA
ATOM     20  H   UNL     1      23.313  11.777  -1.390  1.00  0.00     0.211 HD
ENDBRANCH  14  19
ENDBRANCH   7   8
ENDBRANCH   1   7
BRANCH   2  21
ATOM     21  O   UNL     1      19.576   7.876  -4.612  1.00  0.00    -0.385 OA
ATOM     22  H   UNL     1      19.519   7.937  -5.601  1.00  0.00     0.211 HD
ENDBRANCH   2  21
BRANCH   6  23
ATOM     23  O   UNL     1      20.510  11.327  -7.097  1.00  0.00    -0.453 OA
BRANCH  23  24
ATOM     24  C   UNL     1      19.327  12.060  -6.968  1.00  0.00     0.331 C 
ATOM     25  O   UNL     1      19.354  13.321  -6.949  1.00  0.00    -0.247 OA
BRANCH  24  26
ATOM     26  C   UNL     1      18.031  11.369  -6.876  1.00  0.00     0.094 C 
ATOM     27  C   UNL     1      16.973  11.934  -6.278  1.00  0.00     0.016 C 
BRANCH  27  28
ATOM     28  C   UNL     1      15.695  11.222  -6.056  1.00  0.00    -0.021 A 
ATOM     29  C   UNL     1      14.854  11.549  -4.977  1.00  0.00     0.058 A 
ATOM     30  C   UNL     1      15.248  10.304  -7.026  1.00  0.00     0.012 A 
ATOM     31  C   UNL     1      13.605  10.933  -4.835  1.00  0.00     0.157 A 
ATOM     32  C   UNL     1      14.003   9.692  -6.895  1.00  0.00     0.051 A 
ATOM     33  C   UNL     1      13.167  10.004  -5.816  1.00  0.00     0.157 A 
BRANCH  31  34
ATOM     34  O   UNL     1      12.833  11.286  -3.727  1.00  0.00    -0.504 OA
ATOM     35  H   UNL     1      12.559  10.633  -3.003  1.00  0.00     0.293 HD
ENDBRANCH  31  34
BRANCH  33  36
ATOM     36  O   UNL     1      11.910   9.395  -5.773  1.00  0.00    -0.504 OA
ATOM     37  H   UNL     1      11.047   9.878  -5.562  1.00  0.00     0.293 HD
ENDBRANCH  33  36
ENDBRANCH  27  28
ENDBRANCH  24  26
ENDBRANCH  23  24
ENDBRANCH   6  23
BRANCH   3  38
ATOM     38  O   UNL     1      22.381   7.958  -3.141  1.00  0.00    -0.350 OA
BRANCH  38  39
ATOM     39  C   UNL     1      23.791   7.877  -3.129  1.00  0.00     0.168 C 
BRANCH  39  40
ATOM     40  C   UNL     1      24.372   9.289  -3.094  1.00  0.00     0.064 C 
BRANCH  40  41
ATOM     41  C   UNL     1      25.641   9.391  -3.900  1.00  0.00    -0.042 A 
ATOM     42  C   UNL     1      25.832  10.464  -4.787  1.00  0.00     0.054 A 
ATOM     43  C   UNL     1      26.643   8.407  -3.780  1.00  0.00     0.008 A 
ATOM     44  C   UNL     1      27.001  10.552  -5.550  1.00  0.00     0.157 A 
ATOM     45  C   UNL     1      27.798   8.481  -4.564  1.00  0.00     0.050 A 
ATOM     46  C   UNL     1      27.976   9.545  -5.455  1.00  0.00     0.157 A 
BRANCH  44  47
ATOM     47  O   UNL     1      27.204  11.629  -6.416  1.00  0.00    -0.504 OA
ATOM     48  H   UNL     1      27.982  12.258  -6.299  1.00  0.00     0.293 HD
ENDBRANCH  44  47
BRANCH  46  49
ATOM     49  O   UNL     1      29.123   9.603  -6.251  1.00  0.00    -0.504 OA
ATOM     50  H   UNL     1      29.100  10.077  -7.140  1.00  0.00     0.293 HD
ENDBRANCH  46  49
ENDBRANCH  40  41
ENDBRANCH  39  40
ENDBRANCH  38  39
ENDBRANCH   3  38
BRANCH   5  51
ATOM     51  C   UNL     1      23.136   9.401  -7.124  1.00  0.00     0.192 C 
BRANCH  51  52
ATOM     52  O   UNL     1      23.558   8.149  -6.643  1.00  0.00    -0.394 OA
ATOM     53  H   UNL     1      24.320   8.306  -6.018  1.00  0.00     0.210 HD
ENDBRANCH  51  52
ENDBRANCH   5  51
TORSDOF 20
ENDMDL
MODEL 2
REMARK VINA RESULT:    -1.897      1.921      3.967
REMARK INTER + INTRA:          -3.032
REMARK INTER:                  -4.468
REMARK INTRA:                   1.435
REMARK UNBOUND:                 0.583
REMARK SMILES C[C@@H]1O[C@@H](O[C@@H]2[C@@H](O)[C@H](OCCc3ccc(O)c(O)c3)O[C@@H](CO)[C@@H]2OC(=O)C=Cc2ccc(O)c(O)c2)[C@H](O)[C@@H](O)[C@@H]1O
REMARK SMILES IDX 6 1 7 2 9 3 21 4 22 5 25 6 5 7 4 8 1 9 2 10 43 11 3 12 41 13
REMARK SMILES IDX 39 14 44 15 42 17 40 19 8 21 26 23 27 24 28 25 29 26 30 27
REMARK SMILES IDX 31 28 38 29 32 30 36 31 33 32 34 33 37 34 35 36 10 38 11 39
REMARK SMILES IDX 12 40 13 41 20 42 14 43 18 44 15 45 16 46 19 47 17 49 23 51
REMARK SMILES IDX 24 52
REMARK H PARENT 44 16 42 18 40 20 8 22 37 35 35 37 19 48 17 50 24 53
REMARK Flexibility Score: inf
ROOT
ATOM      1  C   UNL     1      19.998  10.167  -3.738  1.00  0.00     0.199 C 
ATOM      2  C   UNL     1      20.406   8.890  -4.504  1.00  0.00     0.203 C 
ATOM      3  C   UNL     1      20.593   9.183  -6.022  1.00  0.00     0.282 C 
ATOM      4  O   UNL     1      20.829  10.563  -6.289  1.00  0.00    -0.340 OA
ATOM      5  C   UNL     1      19.729  11.396  -5.933  1.00  0.00     0.190 C 
ATOM      6  C   UNL     1      19.030  10.977  -4.614  1.00  0.00     0.240 C 
ENDROOT
BRANCH   1   7
ATOM      7  O   UNL     1      21.152  10.959  -3.482  1.00  0.00    -0.340 OA
BRANCH   7   8
ATOM      8  C   UNL     1      22.294  10.532  -4.204  1.00  0.00     0.282 C 
ATOM      9  C   UNL     1      23.610   8.020  -1.881  1.00  0.00     0.041 C 
ATOM     10  C   UNL     1      23.545   9.363  -2.610  1.00  0.00     0.150 C 
ATOM     11  C   UNL     1      24.935   9.815  -3.101  1.00  0.00     0.174 C 
ATOM     12  O   UNL     1      22.683   9.252  -3.723  1.00  0.00    -0.344 OA
ATOM     13  C   UNL     1      24.821  11.038  -4.048  1.00  0.00     0.179 C 
ATOM     14  C   UNL     1      23.395  11.637  -4.085  1.00  0.00     0.202 C 
BRANCH  11  15
ATOM     15  O   UNL     1      25.566   8.750  -3.774  1.00  0.00    -0.388 OA
ATOM     16  H   UNL     1      25.931   8.146  -3.072  1.00  0.00     0.211 HD
ENDBRANCH  11  15
BRANCH  13  17
ATOM     17  O   UNL     1      25.748  12.017  -3.635  1.00  0.00    -0.387 OA
ATOM     18  H   UNL     1      25.743  12.743  -4.320  1.00  0.00     0.211 HD
ENDBRANCH  13  17
BRANCH  14  19
ATOM     19  O   UNL     1      23.283  12.517  -5.184  1.00  0.00    -0.385 OA
ATOM     20  H   UNL     1      22.326  12.766  -5.265  1.00  0.00     0.211 HD
ENDBRANCH  14  19
ENDBRANCH   7   8
ENDBRANCH   1   7
BRANCH   2  21
ATOM     21  O   UNL     1      19.419   7.897  -4.347  1.00  0.00    -0.385 OA
ATOM     22  H   UNL     1      19.317   7.439  -5.222  1.00  0.00     0.211 HD
ENDBRANCH   2  21
BRANCH   6  23
ATOM     23  O   UNL     1      18.601  12.152  -3.917  1.00  0.00    -0.453 OA
BRANCH  23  24
ATOM     24  C   UNL     1      17.360  12.268  -3.285  1.00  0.00     0.331 C 
ATOM     25  O   UNL     1      17.287  12.627  -2.078  1.00  0.00    -0.247 OA
BRANCH  24  26
ATOM     26  C   UNL     1      16.119  11.996  -4.026  1.00  0.00     0.094 C 
ATOM     27  C   UNL     1      14.916  12.062  -3.437  1.00  0.00     0.016 C 
BRANCH  27  28
ATOM     28  C   UNL     1      13.662  11.672  -4.117  1.00  0.00    -0.021 A 
ATOM     29  C   UNL     1      13.677  10.919  -5.304  1.00  0.00     0.058 A 
ATOM     30  C   UNL     1      12.432  11.935  -3.482  1.00  0.00     0.012 A 
ATOM     31  C   UNL     1      12.482  10.477  -5.884  1.00  0.00     0.157 A 
ATOM     32  C   UNL     1      11.239  11.492  -4.049  1.00  0.00     0.051 A 
ATOM     33  C   UNL     1      11.247  10.753  -5.238  1.00  0.00     0.157 A 
BRANCH  31  34
ATOM     34  O   UNL     1      12.570   9.757  -7.076  1.00  0.00    -0.504 OA
ATOM     35  H   UNL     1      11.795   9.247  -7.482  1.00  0.00     0.293 HD
ENDBRANCH  31  34
BRANCH  33  36
ATOM     36  O   UNL     1      10.020  10.294  -5.725  1.00  0.00    -0.504 OA
ATOM     37  H   UNL     1       9.580  10.626  -6.573  1.00  0.00     0.293 HD
ENDBRANCH  33  36
ENDBRANCH  27  28
ENDBRANCH  24  26
ENDBRANCH  23  24
ENDBRANCH   6  23
BRANCH   3  38
ATOM     38  O   UNL     1      21.610   8.368  -6.587  1.00  0.00    -0.350 OA
BRANCH  38  39
ATOM     39  C   UNL     1      22.677   9.121  -7.124  1.00  0.00     0.168 C 
BRANCH  39  40
ATOM     40  C   UNL     1      23.964   8.305  -7.022  1.00  0.00     0.064 C 
BRANCH  40  41
ATOM     41  C   UNL     1      25.186   9.187  -7.010  1.00  0.00    -0.042 A 
ATOM     42  C   UNL     1      26.466   8.622  -6.874  1.00  0.00     0.054 A 
ATOM     43  C   UNL     1      25.056  10.586  -7.124  1.00  0.00     0.008 A 
ATOM     44  C   UNL     1      27.600   9.440  -6.845  1.00  0.00     0.157 A 
ATOM     45  C   UNL     1      26.189  11.403  -7.067  1.00  0.00     0.050 A 
ATOM     46  C   UNL     1      27.459  10.836  -6.918  1.00  0.00     0.157 A 
BRANCH  44  47
ATOM     47  O   UNL     1      28.875   8.881  -6.733  1.00  0.00    -0.504 OA
ATOM     48  H   UNL     1      29.654   9.238  -7.262  1.00  0.00     0.293 HD
ENDBRANCH  44  47
BRANCH  46  49
ATOM     49  O   UNL     1      28.586  11.659  -6.840  1.00  0.00    -0.504 OA
ATOM     50  H   UNL     1      29.127  11.858  -7.666  1.00  0.00     0.293 HD
ENDBRANCH  46  49
ENDBRANCH  40  41
ENDBRANCH  39  40
ENDBRANCH  38  39
ENDBRANCH   3  38
BRANCH   5  51
ATOM     51  C   UNL     1      18.740  11.533  -7.110  1.00  0.00     0.192 C 
BRANCH  51  52
ATOM     52  O   UNL     1      17.866  12.609  -6.880  1.00  0.00    -0.394 OA
ATOM     53  H   UNL     1      17.827  12.764  -5.895  1.00  0.00     0.210 HD
ENDBRANCH  51  52
ENDBRANCH   5  51
TORSDOF 20
ENDMDL
MODEL 3
REMARK VINA RESULT:    -1.609      1.790     10.127
REMARK INTER + INTRA:          -2.484
REMARK INTER:                  -3.874
REMARK INTRA:                   1.390
REMARK UNBOUND:                 0.583
REMARK SMILES C[C@@H]1O[C@@H](O[C@@H]2[C@@H](O)[C@H](OCCc3ccc(O)c(O)c3)O[C@@H](CO)[C@@H]2OC(=O)C=Cc2ccc(O)c(O)c2)[C@H](O)[C@@H](O)[C@@H]1O
REMARK SMILES IDX 6 1 7 2 9 3 21 4 22 5 25 6 5 7 4 8 1 9 2 10 43 11 3 12 41 13
REMARK SMILES IDX 39 14 44 15 42 17 40 19 8 21 26 23 27 24 28 25 29 26 30 27
REMARK SMILES IDX 31 28 38 29 32 30 36 31 33 32 34 33 37 34 35 36 10 38 11 39
REMARK SMILES IDX 12 40 13 41 20 42 14 43 18 44 15 45 16 46 19 47 17 49 23 51
REMARK SMILES IDX 24 52
REMARK H PARENT 44 16 42 18 40 20 8 22 37 35 35 37 19 48 17 50 24 53
REMARK Flexibility Score: inf
ROOT
ATOM      1  C   UNL     1      19.339  10.294  -4.706  1.00  0.00     0.199 C 
ATOM      2  C   UNL     1      18.296  10.206  -5.840  1.00  0.00     0.203 C 
ATOM      3  C   UNL     1      17.268  11.371  -5.747  1.00  0.00     0.282 C 
ATOM      4  O   UNL     1      17.760  12.479  -5.000  1.00  0.00    -0.340 OA
ATOM      5  C   UNL     1      18.012  12.162  -3.633  1.00  0.00     0.190 C 
ATOM      6  C   UNL     1      18.631  10.756  -3.423  1.00  0.00     0.240 C 
ENDROOT
BRANCH   1   7
ATOM      7  O   UNL     1      20.335  11.251  -5.046  1.00  0.00    -0.340 OA
BRANCH   7   8
ATOM      8  C   UNL     1      21.117  10.870  -6.165  1.00  0.00     0.282 C 
ATOM      9  C   UNL     1      22.745   7.878  -4.808  1.00  0.00     0.041 C 
ATOM     10  C   UNL     1      22.637   9.332  -5.272  1.00  0.00     0.150 C 
ATOM     11  C   UNL     1      23.847   9.749  -6.131  1.00  0.00     0.174 C 
ATOM     12  O   UNL     1      21.459   9.496  -6.032  1.00  0.00    -0.344 OA
ATOM     13  C   UNL     1      23.607  11.130  -6.799  1.00  0.00     0.179 C 
ATOM     14  C   UNL     1      22.340  11.840  -6.266  1.00  0.00     0.202 C 
BRANCH  11  15
ATOM     15  O   UNL     1      24.078   8.776  -7.124  1.00  0.00    -0.388 OA
ATOM     16  H   UNL     1      24.077   7.894  -6.663  1.00  0.00     0.211 HD
ENDBRANCH  11  15
BRANCH  13  17
ATOM     17  O   UNL     1      24.742  11.937  -6.585  1.00  0.00    -0.387 OA
ATOM     18  H   UNL     1      25.060  12.250  -7.479  1.00  0.00     0.211 HD
ENDBRANCH  13  17
BRANCH  14  19
ATOM     19  O   UNL     1      22.006  12.912  -7.124  1.00  0.00    -0.385 OA
ATOM     20  H   UNL     1      21.844  13.706  -6.553  1.00  0.00     0.211 HD
ENDBRANCH  14  19
ENDBRANCH   7   8
ENDBRANCH   1   7
BRANCH   2  21
ATOM     21  O   UNL     1      17.607   8.979  -5.768  1.00  0.00    -0.385 OA
ATOM     22  H   UNL     1      17.436   8.680  -6.699  1.00  0.00     0.211 HD
ENDBRANCH   2  21
BRANCH   6  23
ATOM     23  O   UNL     1      19.565  10.813  -2.338  1.00  0.00    -0.453 OA
BRANCH  23  24
ATOM     24  C   UNL     1      20.794  11.475  -2.407  1.00  0.00     0.331 C 
ATOM     25  O   UNL     1      20.860  12.721  -2.228  1.00  0.00    -0.247 OA
BRANCH  24  26
ATOM     26  C   UNL     1      22.031  10.722  -2.667  1.00  0.00     0.094 C 
ATOM     27  C   UNL     1      23.218  11.334  -2.778  1.00  0.00     0.016 C 
BRANCH  27  28
ATOM     28  C   UNL     1      24.459  10.626  -3.163  1.00  0.00    -0.021 A 
ATOM     29  C   UNL     1      25.417  11.231  -3.995  1.00  0.00     0.058 A 
ATOM     30  C   UNL     1      24.750   9.384  -2.564  1.00  0.00     0.012 A 
ATOM     31  C   UNL     1      26.628  10.587  -4.273  1.00  0.00     0.157 A 
ATOM     32  C   UNL     1      25.957   8.741  -2.830  1.00  0.00     0.051 A 
ATOM     33  C   UNL     1      26.909   9.333  -3.669  1.00  0.00     0.157 A 
BRANCH  31  34
ATOM     34  O   UNL     1      27.522  11.233  -5.128  1.00  0.00    -0.504 OA
ATOM     35  H   UNL     1      27.703  10.937  -6.079  1.00  0.00     0.293 HD
ENDBRANCH  31  34
BRANCH  33  36
ATOM     36  O   UNL     1      28.120   8.659  -3.851  1.00  0.00    -0.504 OA
ATOM     37  H   UNL     1      28.242   7.855  -4.452  1.00  0.00     0.293 HD
ENDBRANCH  33  36
ENDBRANCH  27  28
ENDBRANCH  24  26
ENDBRANCH  23  24
ENDBRANCH   6  23
BRANCH   3  38
ATOM     38  O   UNL     1      16.823  11.776  -7.035  1.00  0.00    -0.350 OA
BRANCH  38  39
ATOM     39  C   UNL     1      15.417  11.863  -7.124  1.00  0.00     0.168 C 
BRANCH  39  40
ATOM     40  C   UNL     1      14.795  10.691  -6.368  1.00  0.00     0.064 C 
BRANCH  40  41
ATOM     41  C   UNL     1      13.362  10.966  -5.991  1.00  0.00    -0.042 A 
ATOM     42  C   UNL     1      12.322  10.214  -6.564  1.00  0.00     0.054 A 
ATOM     43  C   UNL     1      13.051  11.986  -5.070  1.00  0.00     0.008 A 
ATOM     44  C   UNL     1      10.990  10.479  -6.228  1.00  0.00     0.157 A 
ATOM     45  C   UNL     1      11.718  12.269  -4.758  1.00  0.00     0.050 A 
ATOM     46  C   UNL     1      10.686  11.525  -5.341  1.00  0.00     0.157 A 
BRANCH  44  47
ATOM     47  O   UNL     1       9.956   9.718  -6.778  1.00  0.00    -0.504 OA
ATOM     48  H   UNL     1       9.687   9.817  -7.744  1.00  0.00     0.293 HD
ENDBRANCH  44  47
BRANCH  46  49
ATOM     49  O   UNL     1       9.354  11.825  -5.042  1.00  0.00    -0.504 OA
ATOM     50  H   UNL     1       8.931  11.469  -4.201  1.00  0.00     0.293 HD
ENDBRANCH  46  49
ENDBRANCH  40  41
ENDBRANCH  39  40
ENDBRANCH  38  39
ENDBRANCH   3  38
BRANCH   5  51
ATOM     51  C   UNL     1      16.749  12.388  -2.776  1.00  0.00     0.192 C 
BRANCH  51  52
ATOM     52  O   UNL     1      17.116  12.769  -1.473  1.00  0.00    -0.394 OA
ATOM     53  H   UNL     1      16.871  12.022  -0.858  1.00  0.00     0.210 HD
ENDBRANCH  51  52
ENDBRANCH   5  51
TORSDOF 20
ENDMDL
MODEL 4
REMARK VINA RESULT:    -0.621      1.698      9.534
REMARK INTER + INTRA:          -0.600
REMARK INTER:                   0.325
REMARK INTRA:                  -0.925
REMARK UNBOUND:                 0.583
REMARK SMILES C[C@@H]1O[C@@H](O[C@@H]2[C@@H](O)[C@H](OCCc3ccc(O)c(O)c3)O[C@@H](CO)[C@@H]2OC(=O)C=Cc2ccc(O)c(O)c2)[C@H](O)[C@@H](O)[C@@H]1O
REMARK SMILES IDX 6 1 7 2 9 3 21 4 22 5 25 6 5 7 4 8 1 9 2 10 43 11 3 12 41 13
REMARK SMILES IDX 39 14 44 15 42 17 40 19 8 21 26 23 27 24 28 25 29 26 30 27
REMARK SMILES IDX 31 28 38 29 32 30 36 31 33 32 34 33 37 34 35 36 10 38 11 39
REMARK SMILES IDX 12 40 13 41 20 42 14 43 18 44 15 45 16 46 19 47 17 49 23 51
REMARK SMILES IDX 24 52
REMARK H PARENT 44 16 42 18 40 20 8 22 37 35 35 37 19 48 17 50 24 53
REMARK Flexibility Score: inf
ROOT
ATOM      1  C   UNL     1      18.965  11.984  -5.322  1.00  0.00     0.199 C 
ATOM      2  C   UNL     1      17.581  12.216  -5.965  1.00  0.00     0.203 C 
ATOM      3  C   UNL     1      16.914  10.866  -6.360  1.00  0.00     0.282 C 
ATOM      4  O   UNL     1      17.448   9.758  -5.641  1.00  0.00    -0.340 OA
ATOM      5  C   UNL     1      18.828   9.529  -5.918  1.00  0.00     0.190 C 
ATOM      6  C   UNL     1      19.661  10.829  -6.058  1.00  0.00     0.240 C 
ENDROOT
BRANCH   1   7
ATOM      7  O   UNL     1      18.802  11.621  -3.956  1.00  0.00    -0.340 OA
BRANCH   7   8
ATOM      8  C   UNL     1      19.220  12.632  -3.056  1.00  0.00     0.282 C 
ATOM      9  C   UNL     1      22.695  11.599  -2.511  1.00  0.00     0.041 C 
ATOM     10  C   UNL     1      21.216  11.789  -2.172  1.00  0.00     0.150 C 
ATOM     11  C   UNL     1      21.021  12.321  -0.739  1.00  0.00     0.174 C 
ATOM     12  O   UNL     1      20.639  12.703  -3.080  1.00  0.00    -0.344 OA
ATOM     13  C   UNL     1      19.548  12.746  -0.496  1.00  0.00     0.179 C 
ATOM     14  C   UNL     1      18.606  12.324  -1.649  1.00  0.00     0.202 C 
BRANCH  11  15
ATOM     15  O   UNL     1      21.874  13.423  -0.525  1.00  0.00    -0.388 OA
ATOM     16  H   UNL     1      21.357  14.235  -0.777  1.00  0.00     0.211 HD
ENDBRANCH  11  15
BRANCH  13  17
ATOM     17  O   UNL     1      19.110  12.181   0.719  1.00  0.00    -0.387 OA
ATOM     18  H   UNL     1      18.258  11.695   0.533  1.00  0.00     0.211 HD
ENDBRANCH  13  17
BRANCH  14  19
ATOM     19  O   UNL     1      17.376  13.009  -1.525  1.00  0.00    -0.385 OA
ATOM     20  H   UNL     1      16.987  13.079  -2.435  1.00  0.00     0.211 HD
ENDBRANCH  14  19
ENDBRANCH   7   8
ENDBRANCH   1   7
BRANCH   2  21
ATOM     21  O   UNL     1      17.712  13.017  -7.116  1.00  0.00    -0.385 OA
ATOM     22  H   UNL     1      17.516  12.442  -7.901  1.00  0.00     0.211 HD
ENDBRANCH   2  21
BRANCH   6  23
ATOM     23  O   UNL     1      20.967  10.611  -5.510  1.00  0.00    -0.453 OA
BRANCH  23  24
ATOM     24  C   UNL     1      22.151  10.904  -6.192  1.00  0.00     0.331 C 
ATOM     25  O   UNL     1      22.197  11.859  -7.014  1.00  0.00    -0.247 OA
BRANCH  24  26
ATOM     26  C   UNL     1      23.367  10.115  -5.942  1.00  0.00     0.094 C 
ATOM     27  C   UNL     1      24.088  10.267  -4.822  1.00  0.00     0.016 C 
BRANCH  27  28
ATOM     28  C   UNL     1      25.381   9.585  -4.594  1.00  0.00    -0.021 A 
ATOM     29  C   UNL     1      26.451   9.727  -5.496  1.00  0.00     0.058 A 
ATOM     30  C   UNL     1      25.588   8.902  -3.379  1.00  0.00     0.012 A 
ATOM     31  C   UNL     1      27.697   9.154  -5.219  1.00  0.00     0.157 A 
ATOM     32  C   UNL     1      26.828   8.336  -3.094  1.00  0.00     0.051 A 
ATOM     33  C   UNL     1      27.894   8.463  -3.994  1.00  0.00     0.157 A 
BRANCH  31  34
ATOM     34  O   UNL     1      28.707   9.313  -6.170  1.00  0.00    -0.504 OA
ATOM     35  H   UNL     1      28.949   8.607  -6.855  1.00  0.00     0.293 HD
ENDBRANCH  31  34
BRANCH  33  36
ATOM     36  O   UNL     1      29.125   7.917  -3.622  1.00  0.00    -0.504 OA
ATOM     37  H   UNL     1      30.019   8.224  -3.982  1.00  0.00     0.293 HD
ENDBRANCH  33  36
ENDBRANCH  27  28
ENDBRANCH  24  26
ENDBRANCH  23  24
ENDBRANCH   6  23
BRANCH   3  38
ATOM     38  O   UNL     1      15.500  10.928  -6.232  1.00  0.00    -0.350 OA
BRANCH  38  39
ATOM     39  C   UNL     1      14.851   9.810  -6.800  1.00  0.00     0.168 C 
BRANCH  39  40
ATOM     40  C   UNL     1      13.339  10.000  -6.687  1.00  0.00     0.064 C 
BRANCH  40  41
ATOM     41  C   UNL     1      12.976  10.924  -5.553  1.00  0.00    -0.042 A 
ATOM     42  C   UNL     1      13.919  11.226  -4.556  1.00  0.00     0.054 A 
ATOM     43  C   UNL     1      11.685  11.485  -5.475  1.00  0.00     0.008 A 
ATOM     44  C   UNL     1      13.579  12.070  -3.493  1.00  0.00     0.157 A 
ATOM     45  C   UNL     1      11.339  12.304  -4.398  1.00  0.00     0.050 A 
ATOM     46  C   UNL     1      12.278  12.591  -3.401  1.00  0.00     0.157 A 
BRANCH  44  47
ATOM     47  O   UNL     1      14.522  12.390  -2.513  1.00  0.00    -0.504 OA
ATOM     48  H   UNL     1      14.977  13.288  -2.496  1.00  0.00     0.293 HD
ENDBRANCH  44  47
BRANCH  46  49
ATOM     49  O   UNL     1      11.920  13.394  -2.315  1.00  0.00    -0.504 OA
ATOM     50  H   UNL     1      11.131  13.146  -1.740  1.00  0.00     0.293 HD
ENDBRANCH  46  49
ENDBRANCH  40  41
ENDBRANCH  39  40
ENDBRANCH  38  39
ENDBRANCH   3  38
BRANCH   5  51
ATOM     51  C   UNL     1      18.996   8.583  -7.125  1.00  0.00     0.192 C 
BRANCH  51  52
ATOM     52  O   UNL     1      20.268   7.984  -7.092  1.00  0.00    -0.394 OA
ATOM     53  H   UNL     1      20.943   8.710  -6.979  1.00  0.00     0.210 HD
ENDBRANCH  51  52
ENDBRANCH   5  51
TORSDOF 20
ENDMDL
MODEL 5
REMARK VINA RESULT:    -0.478      2.149     10.287
REMARK INTER + INTRA:          -0.328
REMARK INTER:                  -1.970
REMARK INTRA:                   1.642
REMARK UNBOUND:                 0.583
REMARK SMILES C[C@@H]1O[C@@H](O[C@@H]2[C@@H](O)[C@H](OCCc3ccc(O)c(O)c3)O[C@@H](CO)[C@@H]2OC(=O)C=Cc2ccc(O)c(O)c2)[C@H](O)[C@@H](O)[C@@H]1O
REMARK SMILES IDX 6 1 7 2 9 3 21 4 22 5 25 6 5 7 4 8 1 9 2 10 43 11 3 12 41 13
REMARK SMILES IDX 39 14 44 15 42 17 40 19 8 21 26 23 27 24 28 25 29 26 30 27
REMARK SMILES IDX 31 28 38 29 32 30 36 31 33 32 34 33 37 34 35 36 10 38 11 39
REMARK SMILES IDX 12 40 13 41 20 42 14 43 18 44 15 45 16 46 19 47 17 49 23 51
REMARK SMILES IDX 24 52
REMARK H PARENT 44 16 42 18 40 20 8 22 37 35 35 37 19 48 17 50 24 53
REMARK Flexibility Score: inf
ROOT
ATOM      1  C   UNL     1      19.309  10.852  -4.269  1.00  0.00     0.199 C 
ATOM      2  C   UNL     1      18.257  11.455  -3.315  1.00  0.00     0.203 C 
ATOM      3  C   UNL     1      17.144  12.202  -4.107  1.00  0.00     0.282 C 
ATOM      4  O   UNL     1      17.055  11.775  -5.463  1.00  0.00    -0.340 OA
ATOM      5  C   UNL     1      18.233  12.059  -6.215  1.00  0.00     0.190 C 
ATOM      6  C   UNL     1      19.547  11.838  -5.424  1.00  0.00     0.240 C 
ENDROOT
BRANCH   1   7
ATOM      7  O   UNL     1      18.819   9.629  -4.809  1.00  0.00    -0.340 OA
BRANCH   7   8
ATOM      8  C   UNL     1      19.786   8.594  -4.814  1.00  0.00     0.282 C 
ATOM      9  C   UNL     1      22.184   9.956  -2.397  1.00  0.00     0.041 C 
ATOM     10  C   UNL     1      21.641   9.572  -3.775  1.00  0.00     0.150 C 
ATOM     11  C   UNL     1      22.717   8.894  -4.645  1.00  0.00     0.174 C 
ATOM     12  O   UNL     1      20.554   8.684  -3.621  1.00  0.00    -0.344 OA
ATOM     13  C   UNL     1      22.095   8.287  -5.931  1.00  0.00     0.179 C 
ATOM     14  C   UNL     1      20.619   8.703  -6.135  1.00  0.00     0.202 C 
BRANCH  11  15
ATOM     15  O   UNL     1      23.354   7.880  -3.902  1.00  0.00    -0.388 OA
ATOM     16  H   UNL     1      23.387   8.196  -2.959  1.00  0.00     0.211 HD
ENDBRANCH  11  15
BRANCH  13  17
ATOM     17  O   UNL     1      22.869   8.686  -7.039  1.00  0.00    -0.387 OA
ATOM     18  H   UNL     1      23.171   9.623  -6.871  1.00  0.00     0.211 HD
ENDBRANCH  13  17
BRANCH  14  19
ATOM     19  O   UNL     1      20.029   7.877  -7.118  1.00  0.00    -0.385 OA
ATOM     20  H   UNL     1      20.440   6.978  -7.031  1.00  0.00     0.211 HD
ENDBRANCH  14  19
ENDBRANCH   7   8
ENDBRANCH   1   7
BRANCH   2  21
ATOM     21  O   UNL     1      18.873  12.359  -2.427  1.00  0.00    -0.385 OA
ATOM     22  H   UNL     1      19.781  12.010  -2.232  1.00  0.00     0.211 HD
ENDBRANCH   2  21
BRANCH   6  23
ATOM     23  O   UNL     1      20.548  11.325  -6.311  1.00  0.00    -0.453 OA
BRANCH  23  24
ATOM     24  C   UNL     1      21.604  12.091  -6.812  1.00  0.00     0.331 C 
ATOM     25  O   UNL     1      21.461  13.330  -7.005  1.00  0.00    -0.247 OA
BRANCH  24  26
ATOM     26  C   UNL     1      22.905  11.467  -7.101  1.00  0.00     0.094 C 
ATOM     27  C   UNL     1      23.903  11.474  -6.206  1.00  0.00     0.016 C 
BRANCH  27  28
ATOM     28  C   UNL     1      25.261  10.969  -6.508  1.00  0.00    -0.021 A 
ATOM     29  C   UNL     1      26.404  11.744  -6.242  1.00  0.00     0.058 A 
ATOM     30  C   UNL     1      25.415   9.634  -6.930  1.00  0.00     0.012 A 
ATOM     31  C   UNL     1      27.685  11.217  -6.443  1.00  0.00     0.157 A 
ATOM     32  C   UNL     1      26.687   9.100  -7.125  1.00  0.00     0.051 A 
ATOM     33  C   UNL     1      27.829   9.872  -6.874  1.00  0.00     0.157 A 
BRANCH  31  34
ATOM     34  O   UNL     1      28.774  12.050  -6.183  1.00  0.00    -0.504 OA
ATOM     35  H   UNL     1      29.036  12.361  -5.256  1.00  0.00     0.293 HD
ENDBRANCH  31  34
BRANCH  33  36
ATOM     36  O   UNL     1      29.074   9.259  -7.039  1.00  0.00    -0.504 OA
ATOM     37  H   UNL     1      29.482   8.607  -6.383  1.00  0.00     0.293 HD
ENDBRANCH  33  36
ENDBRANCH  27  28
ENDBRANCH  24  26
ENDBRANCH  23  24
ENDBRANCH   6  23
BRANCH   3  38
ATOM     38  O   UNL     1      15.886  12.104  -3.454  1.00  0.00    -0.350 OA
BRANCH  38  39
ATOM     39  C   UNL     1      14.841  11.742  -4.333  1.00  0.00     0.168 C 
BRANCH  39  40
ATOM     40  C   UNL     1      13.504  11.921  -3.617  1.00  0.00     0.064 C 
BRANCH  40  41
ATOM     41  C   UNL     1      12.382  11.232  -4.350  1.00  0.00    -0.042 A 
ATOM     42  C   UNL     1      11.237  10.807  -3.654  1.00  0.00     0.054 A 
ATOM     43  C   UNL     1      12.474  10.997  -5.737  1.00  0.00     0.008 A 
ATOM     44  C   UNL     1      10.202  10.151  -4.329  1.00  0.00     0.157 A 
ATOM     45  C   UNL     1      11.452  10.316  -6.404  1.00  0.00     0.050 A 
ATOM     46  C   UNL     1      10.320   9.884  -5.703  1.00  0.00     0.157 A 
BRANCH  44  47
ATOM     47  O   UNL     1       9.053   9.749  -3.645  1.00  0.00    -0.504 OA
ATOM     48  H   UNL     1       8.901   9.999  -2.681  1.00  0.00     0.293 HD
ENDBRANCH  44  47
BRANCH  46  49
ATOM     49  O   UNL     1       9.311   9.186  -6.371  1.00  0.00    -0.504 OA
ATOM     50  H   UNL     1       8.899   8.367  -5.953  1.00  0.00     0.293 HD
ENDBRANCH  46  49
ENDBRANCH  40  41
ENDBRANCH  39  40
ENDBRANCH  38  39
ENDBRANCH   3  38
BRANCH   5  51
ATOM     51  C   UNL     1      18.152  13.463  -6.851  1.00  0.00     0.192 C 
BRANCH  51  52
ATOM     52  O   UNL     1      16.810  13.800  -7.102  1.00  0.00    -0.394 OA
ATOM     53  H   UNL     1      16.288  13.602  -6.275  1.00  0.00     0.210 HD
ENDBRANCH  51  52
ENDBRANCH   5  51
TORSDOF 20
ENDMDL
