MODEL 1
REMARK VINA RESULT:    -5.249      0.000      0.000
REMARK INTER + INTRA:          -6.030
REMARK INTER:                  -5.863
REMARK INTRA:                  -0.167
REMARK UNBOUND:                -0.167
REMARK SMILES COc1cc2ccc(=O)oc2cc1OC
REMARK SMILES IDX 3 1 13 2 12 3 11 4 5 5 4 6 6 7 7 8 8 9 9 10 10 11 2 12 1 13
REMARK SMILES IDX 14 14 15 15
REMARK H PARENT
REMARK Flexibility Score: inf
ROOT
ATOM      1  C   UNL     1      19.508  25.852  39.419  1.00  0.00     0.161 A 
ATOM      2  C   UNL     1      19.094  25.702  38.085  1.00  0.00     0.164 A 
ATOM      3  C   UNL     1      19.175  24.438  37.466  1.00  0.00     0.098 A 
ATOM      4  C   UNL     1      19.662  23.335  38.170  1.00  0.00     0.142 A 
ATOM      5  C   UNL     1      20.078  23.486  39.509  1.00  0.00     0.022 A 
ATOM      6  C   UNL     1      20.000  24.739  40.129  1.00  0.00     0.062 A 
ATOM      7  C   UNL     1      20.561  22.362  40.188  1.00  0.00     0.019 A 
ATOM      8  C   UNL     1      20.619  21.135  39.527  1.00  0.00     0.094 A 
ATOM      9  C   UNL     1      20.189  21.062  38.198  1.00  0.00     0.336 A 
ATOM     10  O   UNL     1      20.234  19.963  37.583  1.00  0.00    -0.246 OA
ATOM     11  O   UNL     1      19.734  22.146  37.576  1.00  0.00    -0.423 OA
ENDROOT
BRANCH   1  12
ATOM     12  O   UNL     1      19.414  27.126  40.004  1.00  0.00    -0.493 OA
ATOM     13  C   UNL     1      20.513  28.012  40.190  1.00  0.00     0.278 C 
ENDBRANCH   1  12
BRANCH   2  14
ATOM     14  O   UNL     1      18.609  26.831  37.407  1.00  0.00    -0.493 OA
ATOM     15  C   UNL     1      19.362  27.599  36.474  1.00  0.00     0.278 C 
ENDBRANCH   2  14
TORSDOF 2
ENDMDL
MODEL 2
REMARK VINA RESULT:    -5.043      1.363      5.730
REMARK INTER + INTRA:          -5.799
REMARK INTER:                  -5.680
REMARK INTRA:                  -0.119
REMARK UNBOUND:                -0.167
REMARK SMILES COc1cc2ccc(=O)oc2cc1OC
REMARK SMILES IDX 3 1 13 2 12 3 11 4 5 5 4 6 6 7 7 8 8 9 9 10 10 11 2 12 1 13
REMARK SMILES IDX 14 14 15 15
REMARK H PARENT
REMARK Flexibility Score: inf
ROOT
ATOM      1  C   UNL     1      20.260  21.803  38.407  1.00  0.00     0.161 A 
ATOM      2  C   UNL     1      20.631  21.901  39.759  1.00  0.00     0.164 A 
ATOM      3  C   UNL     1      20.514  23.136  40.428  1.00  0.00     0.098 A 
ATOM      4  C   UNL     1      20.032  24.262  39.757  1.00  0.00     0.142 A 
ATOM      5  C   UNL     1      19.660  24.164  38.400  1.00  0.00     0.022 A 
ATOM      6  C   UNL     1      19.774  22.940  37.731  1.00  0.00     0.062 A 
ATOM      7  C   UNL     1      19.181  25.309  37.756  1.00  0.00     0.019 A 
ATOM      8  C   UNL     1      19.086  26.506  38.466  1.00  0.00     0.094 A 
ATOM      9  C   UNL     1      19.474  26.528  39.810  1.00  0.00     0.336 A 
ATOM     10  O   UNL     1      19.396  27.598  40.469  1.00  0.00    -0.246 OA
ATOM     11  O   UNL     1      19.926  25.424  40.399  1.00  0.00    -0.423 OA
ENDROOT
BRANCH   1  12
ATOM     12  O   UNL     1      20.389  20.557  37.772  1.00  0.00    -0.493 OA
ATOM     13  C   UNL     1      19.299  19.703  37.442  1.00  0.00     0.278 C 
ENDBRANCH   1  12
BRANCH   2  14
ATOM     14  O   UNL     1      21.111  20.750  40.403  1.00  0.00    -0.493 OA
ATOM     15  C   UNL     1      21.237  20.607  41.814  1.00  0.00     0.278 C 
ENDBRANCH   2  14
TORSDOF 2
ENDMDL
MODEL 3
REMARK VINA RESULT:    -4.891      1.360      2.648
REMARK INTER + INTRA:          -5.630
REMARK INTER:                  -5.467
REMARK INTRA:                  -0.163
REMARK UNBOUND:                -0.167
REMARK SMILES COc1cc2ccc(=O)oc2cc1OC
REMARK SMILES IDX 3 1 13 2 12 3 11 4 5 5 4 6 6 7 7 8 8 9 9 10 10 11 2 12 1 13
REMARK SMILES IDX 14 14 15 15
REMARK H PARENT
REMARK Flexibility Score: inf
ROOT
ATOM      1  C   UNL     1      19.147  25.707  38.189  1.00  0.00     0.161 A 
ATOM      2  C   UNL     1      19.551  26.029  39.495  1.00  0.00     0.164 A 
ATOM      3  C   UNL     1      20.081  25.024  40.331  1.00  0.00     0.098 A 
ATOM      4  C   UNL     1      20.208  23.713  39.867  1.00  0.00     0.142 A 
ATOM      5  C   UNL     1      19.802  23.390  38.556  1.00  0.00     0.022 A 
ATOM      6  C   UNL     1      19.275  24.384  37.722  1.00  0.00     0.062 A 
ATOM      7  C   UNL     1      19.942  22.068  38.122  1.00  0.00     0.019 A 
ATOM      8  C   UNL     1      20.473  21.114  38.990  1.00  0.00     0.094 A 
ATOM      9  C   UNL     1      20.853  21.508  40.277  1.00  0.00     0.336 A 
ATOM     10  O   UNL     1      21.335  20.662  41.076  1.00  0.00    -0.246 OA
ATOM     11  O   UNL     1      20.709  22.772  40.665  1.00  0.00    -0.423 OA
ENDROOT
BRANCH   1  12
ATOM     12  O   UNL     1      18.624  26.733  37.384  1.00  0.00    -0.493 OA
ATOM     13  C   UNL     1      19.352  27.410  36.366  1.00  0.00     0.278 C 
ENDBRANCH   1  12
BRANCH   2  14
ATOM     14  O   UNL     1      19.410  27.357  39.928  1.00  0.00    -0.493 OA
ATOM     15  C   UNL     1      20.492  28.262  40.124  1.00  0.00     0.278 C 
ENDBRANCH   2  14
TORSDOF 2
ENDMDL
MODEL 4
REMARK VINA RESULT:    -4.720      4.009      5.273
REMARK INTER + INTRA:          -5.438
REMARK INTER:                  -5.272
REMARK INTRA:                  -0.166
REMARK UNBOUND:                -0.167
REMARK SMILES COc1cc2ccc(=O)oc2cc1OC
REMARK SMILES IDX 3 1 13 2 12 3 11 4 5 5 4 6 6 7 7 8 8 9 9 10 10 11 2 12 1 13
REMARK SMILES IDX 14 14 15 15
REMARK H PARENT
REMARK Flexibility Score: inf
ROOT
ATOM      1  C   UNL     1      17.685  26.130  43.533  1.00  0.00     0.161 A 
ATOM      2  C   UNL     1      17.273  24.817  43.818  1.00  0.00     0.164 A 
ATOM      3  C   UNL     1      17.783  23.744  43.059  1.00  0.00     0.098 A 
ATOM      4  C   UNL     1      18.695  23.977  42.028  1.00  0.00     0.142 A 
ATOM      5  C   UNL     1      19.109  25.295  41.742  1.00  0.00     0.022 A 
ATOM      6  C   UNL     1      18.606  26.364  42.493  1.00  0.00     0.062 A 
ATOM      7  C   UNL     1      20.024  25.496  40.704  1.00  0.00     0.019 A 
ATOM      8  C   UNL     1      20.497  24.397  39.986  1.00  0.00     0.094 A 
ATOM      9  C   UNL     1      20.042  23.120  40.326  1.00  0.00     0.336 A 
ATOM     10  O   UNL     1      20.457  22.115  39.690  1.00  0.00    -0.246 OA
ATOM     11  O   UNL     1      19.171  22.957  41.318  1.00  0.00    -0.423 OA
ENDROOT
BRANCH   1  12
ATOM     12  O   UNL     1      17.156  27.175  44.309  1.00  0.00    -0.493 OA
ATOM     13  C   UNL     1      17.835  27.796  45.395  1.00  0.00     0.278 C 
ENDBRANCH   1  12
BRANCH   2  14
ATOM     14  O   UNL     1      16.355  24.619  44.861  1.00  0.00    -0.493 OA
ATOM     15  C   UNL     1      16.697  24.146  46.160  1.00  0.00     0.278 C 
ENDBRANCH   2  14
TORSDOF 2
ENDMDL
MODEL 5
REMARK VINA RESULT:    -4.680      5.092      7.336
REMARK INTER + INTRA:          -5.394
REMARK INTER:                  -5.280
REMARK INTRA:                  -0.113
REMARK UNBOUND:                -0.167
REMARK SMILES COc1cc2ccc(=O)oc2cc1OC
REMARK SMILES IDX 3 1 13 2 12 3 11 4 5 5 4 6 6 7 7 8 8 9 9 10 10 11 2 12 1 13
REMARK SMILES IDX 14 14 15 15
REMARK H PARENT
REMARK Flexibility Score: inf
ROOT
ATOM      1  C   UNL     1      16.437  25.624  44.342  1.00  0.00     0.161 A 
ATOM      2  C   UNL     1      17.324  26.097  45.323  1.00  0.00     0.164 A 
ATOM      3  C   UNL     1      18.581  26.608  44.942  1.00  0.00     0.098 A 
ATOM      4  C   UNL     1      18.949  26.649  43.595  1.00  0.00     0.142 A 
ATOM      5  C   UNL     1      18.059  26.174  42.610  1.00  0.00     0.022 A 
ATOM      6  C   UNL     1      16.809  25.666  42.983  1.00  0.00     0.062 A 
ATOM      7  C   UNL     1      18.457  26.228  41.270  1.00  0.00     0.019 A 
ATOM      8  C   UNL     1      19.712  26.745  40.949  1.00  0.00     0.094 A 
ATOM      9  C   UNL     1      20.542  27.197  41.980  1.00  0.00     0.336 A 
ATOM     10  O   UNL     1      21.679  27.666  41.711  1.00  0.00    -0.246 OA
ATOM     11  O   UNL     1      20.139  27.134  43.246  1.00  0.00    -0.423 OA
ENDROOT
BRANCH   1  12
ATOM     12  O   UNL     1      15.193  25.122  44.758  1.00  0.00    -0.493 OA
ATOM     13  C   UNL     1      14.844  23.742  44.773  1.00  0.00     0.278 C 
ENDBRANCH   1  12
BRANCH   2  14
ATOM     14  O   UNL     1      16.921  26.042  46.667  1.00  0.00    -0.493 OA
ATOM     15  C   UNL     1      16.256  27.096  47.355  1.00  0.00     0.278 C 
ENDBRANCH   2  14
TORSDOF 2
ENDMDL
MODEL 6
REMARK VINA RESULT:    -4.633      4.168      6.457
REMARK INTER + INTRA:          -5.341
REMARK INTER:                  -5.235
REMARK INTRA:                  -0.106
REMARK UNBOUND:                -0.167
REMARK SMILES COc1cc2ccc(=O)oc2cc1OC
REMARK SMILES IDX 3 1 13 2 12 3 11 4 5 5 4 6 6 7 7 8 8 9 9 10 10 11 2 12 1 13
REMARK SMILES IDX 14 14 15 15
REMARK H PARENT
REMARK Flexibility Score: inf
ROOT
ATOM      1  C   UNL     1      18.825  24.514  41.513  1.00  0.00     0.161 A 
ATOM      2  C   UNL     1      19.344  25.818  41.461  1.00  0.00     0.164 A 
ATOM      3  C   UNL     1      19.067  26.723  42.506  1.00  0.00     0.098 A 
ATOM      4  C   UNL     1      18.281  26.331  43.592  1.00  0.00     0.142 A 
ATOM      5  C   UNL     1      17.760  25.022  43.644  1.00  0.00     0.022 A 
ATOM      6  C   UNL     1      18.032  24.119  42.610  1.00  0.00     0.062 A 
ATOM      7  C   UNL     1      16.977  24.659  44.745  1.00  0.00     0.019 A 
ATOM      8  C   UNL     1      16.735  25.595  45.751  1.00  0.00     0.094 A 
ATOM      9  C   UNL     1      17.285  26.875  45.631  1.00  0.00     0.336 A 
ATOM     10  O   UNL     1      17.078  27.735  46.528  1.00  0.00    -0.246 OA
ATOM     11  O   UNL     1      18.026  27.194  44.573  1.00  0.00    -0.423 OA
ENDROOT
BRANCH   1  12
ATOM     12  O   UNL     1      19.121  23.639  40.455  1.00  0.00    -0.493 OA
ATOM     13  C   UNL     1      20.204  22.714  40.452  1.00  0.00     0.278 C 
ENDBRANCH   1  12
BRANCH   2  14
ATOM     14  O   UNL     1      20.130  26.179  40.355  1.00  0.00    -0.493 OA
ATOM     15  C   UNL     1      20.099  27.454  39.724  1.00  0.00     0.278 C 
ENDBRANCH   2  14
TORSDOF 2
ENDMDL
MODEL 7
REMARK VINA RESULT:    -4.629      7.154      8.205
REMARK INTER + INTRA:          -5.337
REMARK INTER:                  -5.223
REMARK INTRA:                  -0.115
REMARK UNBOUND:                -0.167
REMARK SMILES COc1cc2ccc(=O)oc2cc1OC
REMARK SMILES IDX 3 1 13 2 12 3 11 4 5 5 4 6 6 7 7 8 8 9 9 10 10 11 2 12 1 13
REMARK SMILES IDX 14 14 15 15
REMARK H PARENT
REMARK Flexibility Score: inf
ROOT
ATOM      1  C   UNL     1      16.758  22.523  43.739  1.00  0.00     0.161 A 
ATOM      2  C   UNL     1      16.743  23.102  45.019  1.00  0.00     0.164 A 
ATOM      3  C   UNL     1      16.740  22.276  46.161  1.00  0.00     0.098 A 
ATOM      4  C   UNL     1      16.754  20.886  46.028  1.00  0.00     0.142 A 
ATOM      5  C   UNL     1      16.770  20.304  44.744  1.00  0.00     0.022 A 
ATOM      6  C   UNL     1      16.772  21.120  43.606  1.00  0.00     0.062 A 
ATOM      7  C   UNL     1      16.783  18.909  44.644  1.00  0.00     0.019 A 
ATOM      8  C   UNL     1      16.781  18.139  45.807  1.00  0.00     0.094 A 
ATOM      9  C   UNL     1      16.765  18.786  47.047  1.00  0.00     0.336 A 
ATOM     10  O   UNL     1      16.761  18.109  48.109  1.00  0.00    -0.246 OA
ATOM     11  O   UNL     1      16.752  20.115  47.113  1.00  0.00    -0.423 OA
ENDROOT
BRANCH   1  12
ATOM     12  O   UNL     1      16.761  23.376  42.624  1.00  0.00    -0.493 OA
ATOM     13  C   UNL     1      17.924  23.740  41.888  1.00  0.00     0.278 C 
ENDBRANCH   1  12
BRANCH   2  14
ATOM     14  O   UNL     1      16.730  24.503  45.116  1.00  0.00    -0.493 OA
ATOM     15  C   UNL     1      17.110  25.236  46.275  1.00  0.00     0.278 C 
ENDBRANCH   2  14
TORSDOF 2
ENDMDL
MODEL 8
REMARK VINA RESULT:    -4.601      4.257      6.403
REMARK INTER + INTRA:          -5.305
REMARK INTER:                  -5.160
REMARK INTRA:                  -0.145
REMARK UNBOUND:                -0.167
REMARK SMILES COc1cc2ccc(=O)oc2cc1OC
REMARK SMILES IDX 3 1 13 2 12 3 11 4 5 5 4 6 6 7 7 8 8 9 9 10 10 11 2 12 1 13
REMARK SMILES IDX 14 14 15 15
REMARK H PARENT
REMARK Flexibility Score: inf
ROOT
ATOM      1  C   UNL     1      17.140  24.261  43.756  1.00  0.00     0.161 A 
ATOM      2  C   UNL     1      17.030  25.621  44.095  1.00  0.00     0.164 A 
ATOM      3  C   UNL     1      17.688  26.592  43.313  1.00  0.00     0.098 A 
ATOM      4  C   UNL     1      18.447  26.211  42.204  1.00  0.00     0.142 A 
ATOM      5  C   UNL     1      18.557  24.847  41.864  1.00  0.00     0.022 A 
ATOM      6  C   UNL     1      17.906  23.879  42.637  1.00  0.00     0.062 A 
ATOM      7  C   UNL     1      19.324  24.499  40.748  1.00  0.00     0.019 A 
ATOM      8  C   UNL     1      19.953  25.501  40.009  1.00  0.00     0.094 A 
ATOM      9  C   UNL     1      19.799  26.832  40.407  1.00  0.00     0.336 A 
ATOM     10  O   UNL     1      20.359  27.752  39.753  1.00  0.00    -0.246 OA
ATOM     11  O   UNL     1      19.064  27.137  41.473  1.00  0.00    -0.423 OA
ENDROOT
BRANCH   1  12
ATOM     12  O   UNL     1      16.471  23.322  44.558  1.00  0.00    -0.493 OA
ATOM     13  C   UNL     1      17.115  22.296  45.306  1.00  0.00     0.278 C 
ENDBRANCH   1  12
BRANCH   2  14
ATOM     14  O   UNL     1      16.258  25.968  45.216  1.00  0.00    -0.493 OA
ATOM     15  C   UNL     1      16.792  26.432  46.451  1.00  0.00     0.278 C 
ENDBRANCH   2  14
TORSDOF 2
ENDMDL
MODEL 9
REMARK VINA RESULT:    -4.595      4.401      6.309
REMARK INTER + INTRA:          -5.299
REMARK INTER:                  -5.191
REMARK INTRA:                  -0.108
REMARK UNBOUND:                -0.167
REMARK SMILES COc1cc2ccc(=O)oc2cc1OC
REMARK SMILES IDX 3 1 13 2 12 3 11 4 5 5 4 6 6 7 7 8 8 9 9 10 10 11 2 12 1 13
REMARK SMILES IDX 14 14 15 15
REMARK H PARENT
REMARK Flexibility Score: inf
ROOT
ATOM      1  C   UNL     1      19.021  25.789  41.398  1.00  0.00     0.161 A 
ATOM      2  C   UNL     1      18.707  24.429  41.560  1.00  0.00     0.164 A 
ATOM      3  C   UNL     1      18.091  23.990  42.750  1.00  0.00     0.098 A 
ATOM      4  C   UNL     1      17.791  24.898  43.768  1.00  0.00     0.142 A 
ATOM      5  C   UNL     1      18.107  26.263  43.605  1.00  0.00     0.022 A 
ATOM      6  C   UNL     1      18.718  26.704  42.426  1.00  0.00     0.062 A 
ATOM      7  C   UNL     1      17.794  27.147  44.643  1.00  0.00     0.019 A 
ATOM      8  C   UNL     1      17.184  26.659  45.798  1.00  0.00     0.094 A 
ATOM      9  C   UNL     1      16.901  25.293  45.889  1.00  0.00     0.336 A 
ATOM     10  O   UNL     1      16.352  24.832  46.924  1.00  0.00    -0.246 OA
ATOM     11  O   UNL     1      17.210  24.473  44.887  1.00  0.00    -0.423 OA
ENDROOT
BRANCH   1  12
ATOM     12  O   UNL     1      19.634  26.190  40.200  1.00  0.00    -0.493 OA
ATOM     13  C   UNL     1      20.162  27.490  39.959  1.00  0.00     0.278 C 
ENDBRANCH   1  12
BRANCH   2  14
ATOM     14  O   UNL     1      19.021  23.543  40.517  1.00  0.00    -0.493 OA
ATOM     15  C   UNL     1      20.202  22.750  40.459  1.00  0.00     0.278 C 
ENDBRANCH   2  14
TORSDOF 2
ENDMDL
