MODEL 1
REMARK VINA RESULT:    -4.174      0.000      0.000
REMARK INTER + INTRA:          -5.323
REMARK INTER:                  -5.151
REMARK INTRA:                  -0.173
REMARK UNBOUND:                -0.173
REMARK SMILES CCCCC=CC(C)=O
REMARK SMILES IDX 4 1 3 2 2 3 1 4 5 5 6 6 7 7 9 8 8 9
REMARK H PARENT
REMARK Flexibility Score: inf
ROOT
ATOM      1  C   UNL     1      10.823 -13.487  17.161  1.00  0.00     0.027 C 
ENDROOT
BRANCH   1   2
ATOM      2  C   UNL     1       9.834 -14.260  18.041  1.00  0.00     0.004 C 
BRANCH   2   3
ATOM      3  C   UNL     1       9.565 -15.674  17.505  1.00  0.00    -0.003 C 
ATOM      4  C   UNL     1      10.848 -16.323  16.995  1.00  0.00     0.004 C 
ENDBRANCH   2   3
ENDBRANCH   1   2
BRANCH   1   5
ATOM      5  C   UNL     1      11.212 -12.177  17.787  1.00  0.00    -0.023 C 
ATOM      6  C   UNL     1      10.303 -11.233  18.061  1.00  0.00     0.042 C 
BRANCH   6   7
ATOM      7  C   UNL     1      10.638  -9.949  18.709  1.00  0.00     0.152 C 
ATOM      8  O   UNL     1      10.009  -8.915  18.359  1.00  0.00    -0.295 OA
ATOM      9  C   UNL     1      11.695  -9.832  19.766  1.00  0.00     0.093 C 
ENDBRANCH   6   7
ENDBRANCH   1   5
TORSDOF 4
ENDMDL
MODEL 2
REMARK VINA RESULT:    -4.172      2.278      5.327
REMARK INTER + INTRA:          -5.320
REMARK INTER:                  -5.176
REMARK INTRA:                  -0.144
REMARK UNBOUND:                -0.173
REMARK SMILES CCCCC=CC(C)=O
REMARK SMILES IDX 4 1 3 2 2 3 1 4 5 5 6 6 7 7 9 8 8 9
REMARK H PARENT
REMARK Flexibility Score: inf
ROOT
ATOM      1  C   UNL     1      10.930 -11.331  18.209  1.00  0.00     0.027 C 
ENDROOT
BRANCH   1   2
ATOM      2  C   UNL     1       9.845 -10.264  18.017  1.00  0.00     0.004 C 
BRANCH   2   3
ATOM      3  C   UNL     1      10.310  -8.875  18.480  1.00  0.00    -0.003 C 
ATOM      4  C   UNL     1      11.355  -8.985  19.586  1.00  0.00     0.004 C 
ENDBRANCH   2   3
ENDBRANCH   1   2
BRANCH   1   5
ATOM      5  C   UNL     1      10.333 -12.689  18.451  1.00  0.00    -0.023 C 
ATOM      6  C   UNL     1      10.433 -13.672  17.547  1.00  0.00     0.042 C 
BRANCH   6   7
ATOM      7  C   UNL     1       9.892 -15.029  17.762  1.00  0.00     0.152 C 
ATOM      8  O   UNL     1       8.918 -15.172  18.547  1.00  0.00    -0.295 OA
ATOM      9  C   UNL     1      10.459 -16.238  17.080  1.00  0.00     0.093 C 
ENDBRANCH   6   7
ENDBRANCH   1   5
TORSDOF 4
ENDMDL
MODEL 3
REMARK VINA RESULT:    -4.170      1.517      2.299
REMARK INTER + INTRA:          -5.317
REMARK INTER:                  -5.182
REMARK INTRA:                  -0.136
REMARK UNBOUND:                -0.173
REMARK SMILES CCCCC=CC(C)=O
REMARK SMILES IDX 4 1 3 2 2 3 1 4 5 5 6 6 7 7 9 8 8 9
REMARK H PARENT
REMARK Flexibility Score: inf
ROOT
ATOM      1  C   UNL     1       9.697 -15.246  17.382  1.00  0.00     0.027 C 
ENDROOT
BRANCH   1   2
ATOM      2  C   UNL     1      10.846 -16.241  17.589  1.00  0.00     0.004 C 
BRANCH   2   3
ATOM      3  C   UNL     1      11.611 -16.522  16.288  1.00  0.00    -0.003 C 
ATOM      4  C   UNL     1      12.584 -17.685  16.463  1.00  0.00     0.004 C 
ENDBRANCH   2   3
ENDBRANCH   1   2
BRANCH   1   5
ATOM      5  C   UNL     1      10.201 -13.832  17.295  1.00  0.00    -0.023 C 
ATOM      6  C   UNL     1      10.183 -13.015  18.356  1.00  0.00     0.042 C 
BRANCH   6   7
ATOM      7  C   UNL     1      10.701 -11.632  18.322  1.00  0.00     0.152 C 
ATOM      8  O   UNL     1      11.947 -11.457  18.276  1.00  0.00    -0.295 OA
ATOM      9  C   UNL     1       9.800 -10.434  18.339  1.00  0.00     0.093 C 
ENDBRANCH   6   7
ENDBRANCH   1   5
TORSDOF 4
ENDMDL
MODEL 4
REMARK VINA RESULT:    -4.132      3.453      5.923
REMARK INTER + INTRA:          -5.271
REMARK INTER:                  -5.119
REMARK INTRA:                  -0.152
REMARK UNBOUND:                -0.173
REMARK SMILES CCCCC=CC(C)=O
REMARK SMILES IDX 4 1 3 2 2 3 1 4 5 5 6 6 7 7 9 8 8 9
REMARK H PARENT
REMARK Flexibility Score: inf
ROOT
ATOM      1  C   UNL     1       9.701 -14.842  17.980  1.00  0.00     0.027 C 
ENDROOT
BRANCH   1   2
ATOM      2  C   UNL     1      10.204 -13.522  17.382  1.00  0.00     0.004 C 
BRANCH   2   3
ATOM      3  C   UNL     1      10.396 -12.437  18.453  1.00  0.00    -0.003 C 
ATOM      4  C   UNL     1       9.734 -11.128  18.034  1.00  0.00     0.004 C 
ENDBRANCH   2   3
ENDBRANCH   1   2
BRANCH   1   5
ATOM      5  C   UNL     1      10.599 -15.990  17.614  1.00  0.00    -0.023 C 
ATOM      6  C   UNL     1      11.135 -16.101  16.392  1.00  0.00     0.042 C 
BRANCH   6   7
ATOM      7  C   UNL     1      12.051 -17.193  16.004  1.00  0.00     0.152 C 
ATOM      8  O   UNL     1      12.006 -17.625  14.822  1.00  0.00    -0.295 OA
ATOM      9  C   UNL     1      13.030 -17.801  16.963  1.00  0.00     0.093 C 
ENDBRANCH   6   7
ENDBRANCH   1   5
TORSDOF 4
ENDMDL
MODEL 5
REMARK VINA RESULT:    -3.781     17.148     19.784
REMARK INTER + INTRA:          -4.838
REMARK INTER:                  -4.639
REMARK INTRA:                  -0.200
REMARK UNBOUND:                -0.173
REMARK SMILES CCCCC=CC(C)=O
REMARK SMILES IDX 4 1 3 2 2 3 1 4 5 5 6 6 7 7 9 8 8 9
REMARK H PARENT
REMARK Flexibility Score: inf
ROOT
ATOM      1  C   UNL     1      -2.079 -24.551  13.969  1.00  0.00     0.027 C 
ENDROOT
BRANCH   1   2
ATOM      2  C   UNL     1      -0.992 -24.223  14.999  1.00  0.00     0.004 C 
BRANCH   2   3
ATOM      3  C   UNL     1       0.252 -25.108  14.832  1.00  0.00    -0.003 C 
ATOM      4  C   UNL     1       1.125 -24.618  13.680  1.00  0.00     0.004 C 
ENDBRANCH   2   3
ENDBRANCH   1   2
BRANCH   1   5
ATOM      5  C   UNL     1      -2.340 -26.030  13.895  1.00  0.00    -0.023 C 
ATOM      6  C   UNL     1      -3.295 -26.535  13.103  1.00  0.00     0.042 C 
BRANCH   6   7
ATOM      7  C   UNL     1      -3.559 -27.982  12.974  1.00  0.00     0.152 C 
ATOM      8  O   UNL     1      -4.457 -28.498  13.690  1.00  0.00    -0.295 OA
ATOM      9  C   UNL     1      -2.800 -28.857  12.021  1.00  0.00     0.093 C 
ENDBRANCH   6   7
ENDBRANCH   1   5
TORSDOF 4
ENDMDL
MODEL 6
REMARK VINA RESULT:    -3.699     16.897     19.273
REMARK INTER + INTRA:          -4.737
REMARK INTER:                  -4.479
REMARK INTRA:                  -0.257
REMARK UNBOUND:                -0.173
REMARK SMILES CCCCC=CC(C)=O
REMARK SMILES IDX 4 1 3 2 2 3 1 4 5 5 6 6 7 7 9 8 8 9
REMARK H PARENT
REMARK Flexibility Score: inf
ROOT
ATOM      1  C   UNL     1      -3.175 -26.364  13.131  1.00  0.00     0.027 C 
ENDROOT
BRANCH   1   2
ATOM      2  C   UNL     1      -3.731 -27.631  13.793  1.00  0.00     0.004 C 
BRANCH   2   3
ATOM      3  C   UNL     1      -3.920 -28.775  12.786  1.00  0.00    -0.003 C 
ATOM      4  C   UNL     1      -2.738 -28.864  11.826  1.00  0.00     0.004 C 
ENDBRANCH   2   3
ENDBRANCH   1   2
BRANCH   1   5
ATOM      5  C   UNL     1      -2.044 -25.776  13.927  1.00  0.00    -0.023 C 
ATOM      6  C   UNL     1      -0.765 -26.030  13.624  1.00  0.00     0.042 C 
BRANCH   6   7
ATOM      7  C   UNL     1       0.374 -25.444  14.358  1.00  0.00     0.152 C 
ATOM      8  O   UNL     1       1.071 -24.564  13.786  1.00  0.00    -0.295 OA
ATOM      9  C   UNL     1       0.728 -25.854  15.756  1.00  0.00     0.093 C 
ENDBRANCH   6   7
ENDBRANCH   1   5
TORSDOF 4
ENDMDL
MODEL 7
REMARK VINA RESULT:    -3.698      4.076      6.350
REMARK INTER + INTRA:          -4.735
REMARK INTER:                  -4.579
REMARK INTRA:                  -0.156
REMARK UNBOUND:                -0.173
REMARK SMILES CCCCC=CC(C)=O
REMARK SMILES IDX 4 1 3 2 2 3 1 4 5 5 6 6 7 7 9 8 8 9
REMARK H PARENT
REMARK Flexibility Score: inf
ROOT
ATOM      1  C   UNL     1      11.381 -15.355  16.121  1.00  0.00     0.027 C 
ENDROOT
BRANCH   1   2
ATOM      2  C   UNL     1      10.672 -16.056  17.287  1.00  0.00     0.004 C 
BRANCH   2   3
ATOM      3  C   UNL     1       9.663 -15.135  17.989  1.00  0.00    -0.003 C 
ATOM      4  C   UNL     1      10.162 -13.693  18.019  1.00  0.00     0.004 C 
ENDBRANCH   2   3
ENDBRANCH   1   2
BRANCH   1   5
ATOM      5  C   UNL     1      10.607 -15.496  14.840  1.00  0.00    -0.023 C 
ATOM      6  C   UNL     1      11.176 -15.972  13.725  1.00  0.00     0.042 C 
BRANCH   6   7
ATOM      7  C   UNL     1      10.442 -16.161  12.458  1.00  0.00     0.152 C 
ATOM      8  O   UNL     1       9.836 -15.175  11.960  1.00  0.00    -0.295 OA
ATOM      9  C   UNL     1      10.394 -17.478  11.743  1.00  0.00     0.093 C 
ENDBRANCH   6   7
ENDBRANCH   1   5
TORSDOF 4
ENDMDL
MODEL 8
REMARK VINA RESULT:    -3.677     18.415     19.294
REMARK INTER + INTRA:          -4.710
REMARK INTER:                  -4.511
REMARK INTRA:                  -0.199
REMARK UNBOUND:                -0.173
REMARK SMILES CCCCC=CC(C)=O
REMARK SMILES IDX 4 1 3 2 2 3 1 4 5 5 6 6 7 7 9 8 8 9
REMARK H PARENT
REMARK Flexibility Score: inf
ROOT
ATOM      1  C   UNL     1      -0.675 -26.866  13.611  1.00  0.00     0.027 C 
ENDROOT
BRANCH   1   2
ATOM      2  C   UNL     1      -1.385 -25.548  13.941  1.00  0.00     0.004 C 
BRANCH   2   3
ATOM      3  C   UNL     1      -2.834 -25.526  13.433  1.00  0.00    -0.003 C 
ATOM      4  C   UNL     1      -3.325 -26.935  13.110  1.00  0.00     0.004 C 
ENDBRANCH   2   3
ENDBRANCH   1   2
BRANCH   1   5
ATOM      5  C   UNL     1       0.408 -26.669  12.588  1.00  0.00    -0.023 C 
ATOM      6  C   UNL     1       0.795 -27.660  11.775  1.00  0.00     0.042 C 
BRANCH   6   7
ATOM      7  C   UNL     1       1.830 -27.497  10.734  1.00  0.00     0.152 C 
ATOM      8  O   UNL     1       1.869 -26.417  10.088  1.00  0.00    -0.295 OA
ATOM      9  C   UNL     1       2.833 -28.567  10.421  1.00  0.00     0.093 C 
ENDBRANCH   6   7
ENDBRANCH   1   5
TORSDOF 4
ENDMDL
MODEL 9
REMARK VINA RESULT:    -3.633      3.999      6.745
REMARK INTER + INTRA:          -4.655
REMARK INTER:                  -4.472
REMARK INTRA:                  -0.183
REMARK UNBOUND:                -0.173
REMARK SMILES CCCCC=CC(C)=O
REMARK SMILES IDX 4 1 3 2 2 3 1 4 5 5 6 6 7 7 9 8 8 9
REMARK H PARENT
REMARK Flexibility Score: inf
ROOT
ATOM      1  C   UNL     1      11.228 -16.367  17.422  1.00  0.00     0.027 C 
ENDROOT
BRANCH   1   2
ATOM      2  C   UNL     1       9.912 -15.598  17.584  1.00  0.00     0.004 C 
BRANCH   2   3
ATOM      3  C   UNL     1       9.921 -14.265  16.820  1.00  0.00    -0.003 C 
ATOM      4  C   UNL     1      10.595 -13.167  17.638  1.00  0.00     0.004 C 
ENDBRANCH   2   3
ENDBRANCH   1   2
BRANCH   1   5
ATOM      5  C   UNL     1      11.618 -16.496  15.976  1.00  0.00    -0.023 C 
ATOM      6  C   UNL     1      12.000 -17.668  15.453  1.00  0.00     0.042 C 
BRANCH   6   7
ATOM      7  C   UNL     1      12.355 -17.844  14.031  1.00  0.00     0.152 C 
ATOM      8  O   UNL     1      13.105 -16.990  13.487  1.00  0.00    -0.295 OA
ATOM      9  C   UNL     1      11.860 -19.000  13.215  1.00  0.00     0.093 C 
ENDBRANCH   6   7
ENDBRANCH   1   5
TORSDOF 4
ENDMDL
