MODEL 1
REMARK VINA RESULT:    -6.047      0.000      0.000
REMARK INTER + INTRA:         -21.501
REMARK INTER:                 -15.946
REMARK INTRA:                  -5.555
REMARK UNBOUND:                -5.555
REMARK SMILES CCCCCCCCCCCCCCCCCCCCCCCCCCCCCC(=O)[O-]
REMARK SMILES IDX 16 1 17 2 18 3 19 4 20 5 21 6 22 7 23 8 24 9 25 10 26 11
REMARK SMILES IDX 27 12 28 13 29 14 30 15 31 16 32 17 15 18 14 19 13 20 12 21
REMARK SMILES IDX 11 22 10 23 9 24 8 25 7 26 6 27 5 28 4 29 3 30 2 31 1 32
REMARK H PARENT
REMARK Flexibility Score: inf
ROOT
ATOM      1  C   UNL     1      14.588   9.922 -13.887  1.00  0.00     0.000 C 
ENDROOT
BRANCH   1   2
ATOM      2  C   UNL     1      14.187  10.101 -12.406  1.00  0.00     0.000 C 
BRANCH   2   3
ATOM      3  C   UNL     1      12.707  10.497 -12.233  1.00  0.00     0.000 C 
BRANCH   3   4
ATOM      4  C   UNL     1      11.824   9.325 -11.771  1.00  0.00     0.000 C 
BRANCH   4   5
ATOM      5  C   UNL     1      10.934   8.766 -12.897  1.00  0.00     0.000 C 
BRANCH   5   6
ATOM      6  C   UNL     1      10.413   9.872 -13.831  1.00  0.00     0.000 C 
BRANCH   6   7
ATOM      7  C   UNL     1       9.223  10.634 -13.223  1.00  0.00     0.000 C 
BRANCH   7   8
ATOM      8  C   UNL     1       7.876   9.926 -13.458  1.00  0.00     0.000 C 
BRANCH   8   9
ATOM      9  C   UNL     1       7.547   8.793 -12.462  1.00  0.00     0.000 C 
BRANCH   9  10
ATOM     10  C   UNL     1       7.273   7.415 -13.100  1.00  0.00     0.000 C 
BRANCH  10  11
ATOM     11  C   UNL     1       7.305   7.389 -14.639  1.00  0.00     0.000 C 
BRANCH  11  12
ATOM     12  C   UNL     1       8.417   6.486 -15.197  1.00  0.00     0.000 C 
BRANCH  12  13
ATOM     13  C   UNL     1       9.297   7.196 -16.245  1.00  0.00     0.006 C 
BRANCH  13  14
ATOM     14  C   UNL     1       8.660   8.467 -16.834  1.00  0.00     0.053 C 
BRANCH  14  15
ATOM     15  C   UNL     1       9.031   8.684 -18.269  1.00  0.00     0.041 C 
ATOM     16  O   UNL     1      10.239   8.831 -18.597  1.00  0.00    -0.550 OA
ATOM     17  O   UNL     1       8.043   8.749 -19.243  1.00  0.00    -0.550 OA
ENDBRANCH  14  15
ENDBRANCH  13  14
ENDBRANCH  12  13
ENDBRANCH  11  12
ENDBRANCH  10  11
ENDBRANCH   9  10
ENDBRANCH   8   9
ENDBRANCH   7   8
ENDBRANCH   6   7
ENDBRANCH   5   6
ENDBRANCH   4   5
ENDBRANCH   3   4
ENDBRANCH   2   3
ENDBRANCH   1   2
BRANCH   1  18
ATOM     18  C   UNL     1      14.243   8.532 -14.458  1.00  0.00     0.000 C 
BRANCH  18  19
ATOM     19  C   UNL     1      13.630   8.557 -15.872  1.00  0.00     0.000 C 
BRANCH  19  20
ATOM     20  C   UNL     1      12.909   7.249 -16.251  1.00  0.00     0.000 C 
BRANCH  20  21
ATOM     21  C   UNL     1      12.571   6.386 -15.013  1.00  0.00     0.000 C 
BRANCH  21  22
ATOM     22  C   UNL     1      12.117   4.959 -15.374  1.00  0.00     0.000 C 
BRANCH  22  23
ATOM     23  C   UNL     1      11.162   4.331 -14.339  1.00  0.00     0.000 C 
BRANCH  23  24
ATOM     24  C   UNL     1      11.338   4.927 -12.931  1.00  0.00    -0.000 C 
BRANCH  24  25
ATOM     25  C   UNL     1      10.020   4.982 -12.140  1.00  0.00    -0.000 C 
BRANCH  25  26
ATOM     26  C   UNL     1       9.864   6.211 -11.228  1.00  0.00    -0.000 C 
BRANCH  26  27
ATOM     27  C   UNL     1      10.374   5.958  -9.797  1.00  0.00    -0.000 C 
BRANCH  27  28
ATOM     28  C   UNL     1      11.718   6.654  -9.520  1.00  0.00    -0.000 C 
BRANCH  28  29
ATOM     29  C   UNL     1      12.914   5.717  -9.745  1.00  0.00    -0.000 C 
BRANCH  29  30
ATOM     30  C   UNL     1      14.231   6.391  -9.331  1.00  0.00    -0.000 C 
BRANCH  30  31
ATOM     31  C   UNL     1      14.754   7.368 -10.397  1.00  0.00    -0.003 C 
ATOM     32  C   UNL     1      16.003   8.124  -9.944  1.00  0.00     0.004 C 
ENDBRANCH  30  31
ENDBRANCH  29  30
ENDBRANCH  28  29
ENDBRANCH  27  28
ENDBRANCH  26  27
ENDBRANCH  25  26
ENDBRANCH  24  25
ENDBRANCH  23  24
ENDBRANCH  22  23
ENDBRANCH  21  22
ENDBRANCH  20  21
ENDBRANCH  19  20
ENDBRANCH  18  19
ENDBRANCH   1  18
TORSDOF 28
ENDMDL
MODEL 2
REMARK VINA RESULT:    -5.997      0.761      3.639
REMARK INTER + INTRA:         -21.369
REMARK INTER:                 -15.665
REMARK INTRA:                  -5.704
REMARK UNBOUND:                -5.555
REMARK SMILES CCCCCCCCCCCCCCCCCCCCCCCCCCCCCC(=O)[O-]
REMARK SMILES IDX 16 1 17 2 18 3 19 4 20 5 21 6 22 7 23 8 24 9 25 10 26 11
REMARK SMILES IDX 27 12 28 13 29 14 30 15 31 16 32 17 15 18 14 19 13 20 12 21
REMARK SMILES IDX 11 22 10 23 9 24 8 25 7 26 6 27 5 28 4 29 3 30 2 31 1 32
REMARK H PARENT
REMARK Flexibility Score: inf
ROOT
ATOM      1  C   UNL     1      14.775   8.680 -12.506  1.00  0.00     0.000 C 
ENDROOT
BRANCH   1   2
ATOM      2  C   UNL     1      14.057   9.993 -12.891  1.00  0.00     0.000 C 
BRANCH   2   3
ATOM      3  C   UNL     1      13.373  10.673 -11.688  1.00  0.00     0.000 C 
BRANCH   3   4
ATOM      4  C   UNL     1      11.857  10.854 -11.886  1.00  0.00     0.000 C 
BRANCH   4   5
ATOM      5  C   UNL     1      11.157   9.564 -12.353  1.00  0.00     0.000 C 
BRANCH   5   6
ATOM      6  C   UNL     1      10.242   9.804 -13.567  1.00  0.00     0.000 C 
BRANCH   6   7
ATOM      7  C   UNL     1       8.990  10.619 -13.200  1.00  0.00     0.000 C 
BRANCH   7   8
ATOM      8  C   UNL     1       7.690   9.801 -13.312  1.00  0.00     0.000 C 
BRANCH   8   9
ATOM      9  C   UNL     1       7.640   8.525 -12.445  1.00  0.00     0.000 C 
BRANCH   9  10
ATOM     10  C   UNL     1       7.250   7.234 -13.196  1.00  0.00     0.000 C 
BRANCH  10  11
ATOM     11  C   UNL     1       7.189   7.362 -14.729  1.00  0.00     0.000 C 
BRANCH  11  12
ATOM     12  C   UNL     1       8.256   6.514 -15.440  1.00  0.00     0.000 C 
BRANCH  12  13
ATOM     13  C   UNL     1       9.299   7.367 -16.190  1.00  0.00     0.006 C 
BRANCH  13  14
ATOM     14  C   UNL     1       8.747   8.704 -16.717  1.00  0.00     0.053 C 
BRANCH  14  15
ATOM     15  C   UNL     1       8.659   8.740 -18.211  1.00  0.00     0.041 C 
ATOM     16  O   UNL     1       9.707   8.814 -18.907  1.00  0.00    -0.550 OA
ATOM     17  O   UNL     1       7.420   8.717 -18.839  1.00  0.00    -0.550 OA
ENDBRANCH  14  15
ENDBRANCH  13  14
ENDBRANCH  12  13
ENDBRANCH  11  12
ENDBRANCH  10  11
ENDBRANCH   9  10
ENDBRANCH   8   9
ENDBRANCH   7   8
ENDBRANCH   6   7
ENDBRANCH   5   6
ENDBRANCH   4   5
ENDBRANCH   3   4
ENDBRANCH   2   3
ENDBRANCH   1   2
BRANCH   1  18
ATOM     18  C   UNL     1      15.407   8.711 -11.099  1.00  0.00     0.000 C 
BRANCH  18  19
ATOM     19  C   UNL     1      14.897   7.609 -10.147  1.00  0.00     0.000 C 
BRANCH  19  20
ATOM     20  C   UNL     1      13.662   6.860 -10.684  1.00  0.00     0.000 C 
BRANCH  20  21
ATOM     21  C   UNL     1      13.221   5.709  -9.750  1.00  0.00     0.000 C 
BRANCH  21  22
ATOM     22  C   UNL     1      11.817   5.918  -9.152  1.00  0.00     0.000 C 
BRANCH  22  23
ATOM     23  C   UNL     1      10.903   6.813 -10.013  1.00  0.00     0.000 C 
BRANCH  23  24
ATOM     24  C   UNL     1       9.978   6.001 -10.938  1.00  0.00    -0.000 C 
BRANCH  24  25
ATOM     25  C   UNL     1      10.499   5.929 -12.384  1.00  0.00    -0.000 C 
BRANCH  25  26
ATOM     26  C   UNL     1      11.004   4.543 -12.820  1.00  0.00    -0.000 C 
BRANCH  26  27
ATOM     27  C   UNL     1      10.908   4.327 -14.341  1.00  0.00    -0.000 C 
BRANCH  27  28
ATOM     28  C   UNL     1      12.254   4.545 -15.053  1.00  0.00    -0.000 C 
BRANCH  28  29
ATOM     29  C   UNL     1      12.276   5.848 -15.866  1.00  0.00    -0.000 C 
BRANCH  29  30
ATOM     30  C   UNL     1      12.789   7.021 -15.017  1.00  0.00    -0.000 C 
BRANCH  30  31
ATOM     31  C   UNL     1      13.405   8.142 -15.869  1.00  0.00    -0.003 C 
ATOM     32  C   UNL     1      12.487   8.593 -17.006  1.00  0.00     0.004 C 
ENDBRANCH  30  31
ENDBRANCH  29  30
ENDBRANCH  28  29
ENDBRANCH  27  28
ENDBRANCH  26  27
ENDBRANCH  25  26
ENDBRANCH  24  25
ENDBRANCH  23  24
ENDBRANCH  22  23
ENDBRANCH  21  22
ENDBRANCH  20  21
ENDBRANCH  19  20
ENDBRANCH  18  19
ENDBRANCH   1  18
TORSDOF 28
ENDMDL
MODEL 3
REMARK VINA RESULT:    -5.971      1.985      5.340
REMARK INTER + INTRA:         -21.301
REMARK INTER:                 -15.738
REMARK INTRA:                  -5.562
REMARK UNBOUND:                -5.555
REMARK SMILES CCCCCCCCCCCCCCCCCCCCCCCCCCCCCC(=O)[O-]
REMARK SMILES IDX 16 1 17 2 18 3 19 4 20 5 21 6 22 7 23 8 24 9 25 10 26 11
REMARK SMILES IDX 27 12 28 13 29 14 30 15 31 16 32 17 15 18 14 19 13 20 12 21
REMARK SMILES IDX 11 22 10 23 9 24 8 25 7 26 6 27 5 28 4 29 3 30 2 31 1 32
REMARK H PARENT
REMARK Flexibility Score: inf
ROOT
ATOM      1  C   UNL     1       8.337   7.506 -15.526  1.00  0.00     0.000 C 
ENDROOT
BRANCH   1   2
ATOM      2  C   UNL     1       8.792   8.737 -16.340  1.00  0.00     0.000 C 
BRANCH   2   3
ATOM      3  C   UNL     1       9.537   8.354 -17.634  1.00  0.00     0.000 C 
BRANCH   3   4
ATOM      4  C   UNL     1      10.929   9.002 -17.738  1.00  0.00     0.000 C 
BRANCH   4   5
ATOM      5  C   UNL     1      11.734   8.903 -16.429  1.00  0.00     0.000 C 
BRANCH   5   6
ATOM      6  C   UNL     1      13.054   8.134 -16.614  1.00  0.00     0.000 C 
BRANCH   6   7
ATOM      7  C   UNL     1      13.964   8.232 -15.378  1.00  0.00     0.000 C 
BRANCH   7   8
ATOM      8  C   UNL     1      13.552   9.367 -14.421  1.00  0.00     0.000 C 
BRANCH   8   9
ATOM      9  C   UNL     1      14.623   9.775 -13.388  1.00  0.00     0.000 C 
BRANCH   9  10
ATOM     10  C   UNL     1      14.077  10.240 -12.021  1.00  0.00     0.000 C 
BRANCH  10  11
ATOM     11  C   UNL     1      12.650  10.818 -12.050  1.00  0.00     0.000 C 
BRANCH  11  12
ATOM     12  C   UNL     1      11.583   9.791 -11.640  1.00  0.00     0.000 C 
BRANCH  12  13
ATOM     13  C   UNL     1      10.414   9.708 -12.642  1.00  0.00     0.006 C 
BRANCH  13  14
ATOM     14  C   UNL     1       9.977  11.073 -13.202  1.00  0.00     0.053 C 
BRANCH  14  15
ATOM     15  C   UNL     1       8.490  11.250 -13.191  1.00  0.00     0.041 C 
ATOM     16  O   UNL     1       7.730  10.245 -13.233  1.00  0.00    -0.550 OA
ATOM     17  O   UNL     1       7.939  12.525 -13.159  1.00  0.00    -0.550 OA
ENDBRANCH  14  15
ENDBRANCH  13  14
ENDBRANCH  12  13
ENDBRANCH  11  12
ENDBRANCH  10  11
ENDBRANCH   9  10
ENDBRANCH   8   9
ENDBRANCH   7   8
ENDBRANCH   6   7
ENDBRANCH   5   6
ENDBRANCH   4   5
ENDBRANCH   3   4
ENDBRANCH   2   3
ENDBRANCH   1   2
BRANCH   1  18
ATOM     18  C   UNL     1       9.095   6.212 -15.886  1.00  0.00     0.000 C 
BRANCH  18  19
ATOM     19  C   UNL     1      10.290   5.896 -14.963  1.00  0.00     0.000 C 
BRANCH  19  20
ATOM     20  C   UNL     1      11.495   5.291 -15.708  1.00  0.00     0.000 C 
BRANCH  20  21
ATOM     21  C   UNL     1      12.408   4.462 -14.774  1.00  0.00     0.000 C 
BRANCH  21  22
ATOM     22  C   UNL     1      12.135   4.714 -13.279  1.00  0.00     0.000 C 
BRANCH  22  23
ATOM     23  C   UNL     1      13.372   5.195 -12.495  1.00  0.00     0.000 C 
BRANCH  23  24
ATOM     24  C   UNL     1      13.278   6.677 -12.087  1.00  0.00    -0.000 C 
BRANCH  24  25
ATOM     25  C   UNL     1      13.808   6.938 -10.667  1.00  0.00    -0.000 C 
BRANCH  25  26
ATOM     26  C   UNL     1      13.638   5.764  -9.688  1.00  0.00    -0.000 C 
BRANCH  26  27
ATOM     27  C   UNL     1      12.357   5.877  -8.841  1.00  0.00    -0.000 C 
BRANCH  27  28
ATOM     28  C   UNL     1      11.263   6.705  -9.537  1.00  0.00    -0.000 C 
BRANCH  28  29
ATOM     29  C   UNL     1      10.229   5.819 -10.249  1.00  0.00    -0.000 C 
BRANCH  29  30
ATOM     30  C   UNL     1       9.588   6.559 -11.432  1.00  0.00    -0.000 C 
BRANCH  30  31
ATOM     31  C   UNL     1       8.229   5.963 -11.835  1.00  0.00    -0.003 C 
ATOM     32  C   UNL     1       7.259   7.015 -12.373  1.00  0.00     0.004 C 
ENDBRANCH  30  31
ENDBRANCH  29  30
ENDBRANCH  28  29
ENDBRANCH  27  28
ENDBRANCH  26  27
ENDBRANCH  25  26
ENDBRANCH  24  25
ENDBRANCH  23  24
ENDBRANCH  22  23
ENDBRANCH  21  22
ENDBRANCH  20  21
ENDBRANCH  19  20
ENDBRANCH  18  19
ENDBRANCH   1  18
TORSDOF 28
ENDMDL
MODEL 4
REMARK VINA RESULT:    -5.934      1.966      6.295
REMARK INTER + INTRA:         -21.203
REMARK INTER:                 -15.923
REMARK INTRA:                  -5.280
REMARK UNBOUND:                -5.555
REMARK SMILES CCCCCCCCCCCCCCCCCCCCCCCCCCCCCC(=O)[O-]
REMARK SMILES IDX 16 1 17 2 18 3 19 4 20 5 21 6 22 7 23 8 24 9 25 10 26 11
REMARK SMILES IDX 27 12 28 13 29 14 30 15 31 16 32 17 15 18 14 19 13 20 12 21
REMARK SMILES IDX 11 22 10 23 9 24 8 25 7 26 6 27 5 28 4 29 3 30 2 31 1 32
REMARK H PARENT
REMARK Flexibility Score: inf
ROOT
ATOM      1  C   UNL     1       9.290   6.032 -11.403  1.00  0.00     0.000 C 
ENDROOT
BRANCH   1   2
ATOM      2  C   UNL     1      10.732   6.387 -10.977  1.00  0.00     0.000 C 
BRANCH   2   3
ATOM      3  C   UNL     1      10.993   6.125  -9.481  1.00  0.00     0.000 C 
BRANCH   3   4
ATOM      4  C   UNL     1      12.487   5.945  -9.157  1.00  0.00     0.000 C 
BRANCH   4   5
ATOM      5  C   UNL     1      13.399   6.228 -10.365  1.00  0.00     0.000 C 
BRANCH   5   6
ATOM      6  C   UNL     1      14.571   7.159 -10.004  1.00  0.00     0.000 C 
BRANCH   6   7
ATOM      7  C   UNL     1      15.396   7.561 -11.238  1.00  0.00     0.000 C 
BRANCH   7   8
ATOM      8  C   UNL     1      14.569   7.558 -12.537  1.00  0.00     0.000 C 
BRANCH   8   9
ATOM      9  C   UNL     1      14.788   8.778 -13.457  1.00  0.00     0.000 C 
BRANCH   9  10
ATOM     10  C   UNL     1      13.664   9.836 -13.425  1.00  0.00     0.000 C 
BRANCH  10  11
ATOM     11  C   UNL     1      13.341  10.405 -12.032  1.00  0.00     0.000 C 
BRANCH  11  12
ATOM     12  C   UNL     1      11.884  10.880 -11.906  1.00  0.00     0.000 C 
BRANCH  12  13
ATOM     13  C   UNL     1      10.871   9.865 -12.473  1.00  0.00     0.006 C 
BRANCH  13  14
ATOM     14  C   UNL     1      10.031  10.411 -13.640  1.00  0.00     0.053 C 
BRANCH  14  15
ATOM     15  C   UNL     1       8.736  11.010 -13.185  1.00  0.00     0.041 C 
ATOM     16  O   UNL     1       7.714  10.284 -13.049  1.00  0.00    -0.550 OA
ATOM     17  O   UNL     1       8.647  12.374 -12.936  1.00  0.00    -0.550 OA
ENDBRANCH  14  15
ENDBRANCH  13  14
ENDBRANCH  12  13
ENDBRANCH  11  12
ENDBRANCH  10  11
ENDBRANCH   9  10
ENDBRANCH   8   9
ENDBRANCH   7   8
ENDBRANCH   6   7
ENDBRANCH   5   6
ENDBRANCH   4   5
ENDBRANCH   3   4
ENDBRANCH   2   3
ENDBRANCH   1   2
BRANCH   1  18
ATOM     18  C   UNL     1       8.699   6.998 -12.450  1.00  0.00     0.000 C 
BRANCH  18  19
ATOM     19  C   UNL     1       7.184   6.831 -12.688  1.00  0.00     0.000 C 
BRANCH  19  20
ATOM     20  C   UNL     1       6.801   6.778 -14.180  1.00  0.00     0.000 C 
BRANCH  20  21
ATOM     21  C   UNL     1       7.852   7.467 -15.081  1.00  0.00     0.000 C 
BRANCH  21  22
ATOM     22  C   UNL     1       7.270   8.618 -15.923  1.00  0.00     0.000 C 
BRANCH  22  23
ATOM     23  C   UNL     1       7.928   8.768 -17.309  1.00  0.00     0.000 C 
BRANCH  23  24
ATOM     24  C   UNL     1       9.277   8.031 -17.408  1.00  0.00    -0.000 C 
BRANCH  24  25
ATOM     25  C   UNL     1      10.473   8.993 -17.513  1.00  0.00    -0.000 C 
BRANCH  25  26
ATOM     26  C   UNL     1      11.446   8.947 -16.322  1.00  0.00    -0.000 C 
BRANCH  26  27
ATOM     27  C   UNL     1      12.787   8.278 -16.675  1.00  0.00    -0.000 C 
BRANCH  27  28
ATOM     28  C   UNL     1      12.943   6.893 -16.025  1.00  0.00    -0.000 C 
BRANCH  28  29
ATOM     29  C   UNL     1      11.916   6.657 -14.907  1.00  0.00    -0.000 C 
BRANCH  29  30
ATOM     30  C   UNL     1      10.923   5.551 -15.294  1.00  0.00    -0.000 C 
BRANCH  30  31
ATOM     31  C   UNL     1      11.393   4.155 -14.853  1.00  0.00    -0.003 C 
ATOM     32  C   UNL     1      10.999   3.825 -13.413  1.00  0.00     0.004 C 
ENDBRANCH  30  31
ENDBRANCH  29  30
ENDBRANCH  28  29
ENDBRANCH  27  28
ENDBRANCH  26  27
ENDBRANCH  25  26
ENDBRANCH  24  25
ENDBRANCH  23  24
ENDBRANCH  22  23
ENDBRANCH  21  22
ENDBRANCH  20  21
ENDBRANCH  19  20
ENDBRANCH  18  19
ENDBRANCH   1  18
TORSDOF 28
ENDMDL
MODEL 5
REMARK VINA RESULT:    -5.894      1.496      4.823
REMARK INTER + INTRA:         -21.097
REMARK INTER:                 -15.711
REMARK INTRA:                  -5.387
REMARK UNBOUND:                -5.555
REMARK SMILES CCCCCCCCCCCCCCCCCCCCCCCCCCCCCC(=O)[O-]
REMARK SMILES IDX 16 1 17 2 18 3 19 4 20 5 21 6 22 7 23 8 24 9 25 10 26 11
REMARK SMILES IDX 27 12 28 13 29 14 30 15 31 16 32 17 15 18 14 19 13 20 12 21
REMARK SMILES IDX 11 22 10 23 9 24 8 25 7 26 6 27 5 28 4 29 3 30 2 31 1 32
REMARK H PARENT
REMARK Flexibility Score: inf
ROOT
ATOM      1  C   UNL     1       9.436  10.533 -12.835  1.00  0.00     0.000 C 
ENDROOT
BRANCH   1   2
ATOM      2  C   UNL     1      10.937  10.698 -13.166  1.00  0.00     0.000 C 
BRANCH   2   3
ATOM      3  C   UNL     1      11.842   9.818 -12.282  1.00  0.00     0.000 C 
BRANCH   3   4
ATOM      4  C   UNL     1      13.092  10.561 -11.780  1.00  0.00     0.000 C 
BRANCH   4   5
ATOM      5  C   UNL     1      14.397  10.017 -12.391  1.00  0.00     0.000 C 
BRANCH   5   6
ATOM      6  C   UNL     1      14.336   9.945 -13.927  1.00  0.00     0.000 C 
BRANCH   6   7
ATOM      7  C   UNL     1      15.109   8.738 -14.484  1.00  0.00     0.000 C 
BRANCH   7   8
ATOM      8  C   UNL     1      14.330   7.979 -15.574  1.00  0.00     0.000 C 
BRANCH   8   9
ATOM      9  C   UNL     1      12.818   8.286 -15.634  1.00  0.00     0.000 C 
BRANCH   9  10
ATOM     10  C   UNL     1      12.277   8.659 -17.031  1.00  0.00     0.000 C 
BRANCH  10  11
ATOM     11  C   UNL     1      10.925   9.396 -17.033  1.00  0.00     0.000 C 
BRANCH  11  12
ATOM     12  C   UNL     1      10.021   8.976 -18.204  1.00  0.00     0.000 C 
BRANCH  12  13
ATOM     13  C   UNL     1       8.759   8.219 -17.745  1.00  0.00     0.006 C 
BRANCH  13  14
ATOM     14  C   UNL     1       8.165   8.740 -16.425  1.00  0.00     0.053 C 
BRANCH  14  15
ATOM     15  C   UNL     1       6.773   9.267 -16.589  1.00  0.00     0.041 C 
ATOM     16  O   UNL     1       6.108   8.993 -17.624  1.00  0.00    -0.550 OA
ATOM     17  O   UNL     1       6.216  10.082 -15.612  1.00  0.00    -0.550 OA
ENDBRANCH  14  15
ENDBRANCH  13  14
ENDBRANCH  12  13
ENDBRANCH  11  12
ENDBRANCH  10  11
ENDBRANCH   9  10
ENDBRANCH   8   9
ENDBRANCH   7   8
ENDBRANCH   6   7
ENDBRANCH   5   6
ENDBRANCH   4   5
ENDBRANCH   3   4
ENDBRANCH   2   3
ENDBRANCH   1   2
BRANCH   1  18
ATOM     18  C   UNL     1       8.825   9.224 -13.374  1.00  0.00     0.000 C 
BRANCH  18  19
ATOM     19  C   UNL     1       7.729   8.615 -12.475  1.00  0.00     0.000 C 
BRANCH  19  20
ATOM     20  C   UNL     1       7.808   7.080 -12.367  1.00  0.00     0.000 C 
BRANCH  20  21
ATOM     21  C   UNL     1       9.267   6.571 -12.302  1.00  0.00     0.000 C 
BRANCH  21  22
ATOM     22  C   UNL     1       9.624   5.925 -10.949  1.00  0.00     0.000 C 
BRANCH  22  23
ATOM     23  C   UNL     1      10.746   6.661 -10.188  1.00  0.00     0.000 C 
BRANCH  23  24
ATOM     24  C   UNL     1      11.552   5.725  -9.269  1.00  0.00    -0.000 C 
BRANCH  24  25
ATOM     25  C   UNL     1      13.071   5.911  -9.416  1.00  0.00    -0.000 C 
BRANCH  25  26
ATOM     26  C   UNL     1      13.495   7.070 -10.335  1.00  0.00    -0.000 C 
BRANCH  26  27
ATOM     27  C   UNL     1      14.086   6.584 -11.671  1.00  0.00    -0.000 C 
BRANCH  27  28
ATOM     28  C   UNL     1      13.000   6.250 -12.708  1.00  0.00    -0.000 C 
BRANCH  28  29
ATOM     29  C   UNL     1      12.938   4.747 -13.020  1.00  0.00    -0.000 C 
BRANCH  29  30
ATOM     30  C   UNL     1      11.592   4.368 -13.655  1.00  0.00    -0.000 C 
BRANCH  30  31
ATOM     31  C   UNL     1      11.559   4.631 -15.169  1.00  0.00    -0.003 C 
ATOM     32  C   UNL     1      10.518   5.678 -15.565  1.00  0.00     0.004 C 
ENDBRANCH  30  31
ENDBRANCH  29  30
ENDBRANCH  28  29
ENDBRANCH  27  28
ENDBRANCH  26  27
ENDBRANCH  25  26
ENDBRANCH  24  25
ENDBRANCH  23  24
ENDBRANCH  22  23
ENDBRANCH  21  22
ENDBRANCH  20  21
ENDBRANCH  19  20
ENDBRANCH  18  19
ENDBRANCH   1  18
TORSDOF 28
ENDMDL
MODEL 6
REMARK VINA RESULT:    -5.886      1.482      5.104
REMARK INTER + INTRA:         -21.076
REMARK INTER:                 -15.826
REMARK INTRA:                  -5.250
REMARK UNBOUND:                -5.555
REMARK SMILES CCCCCCCCCCCCCCCCCCCCCCCCCCCCCC(=O)[O-]
REMARK SMILES IDX 16 1 17 2 18 3 19 4 20 5 21 6 22 7 23 8 24 9 25 10 26 11
REMARK SMILES IDX 27 12 28 13 29 14 30 15 31 16 32 17 15 18 14 19 13 20 12 21
REMARK SMILES IDX 11 22 10 23 9 24 8 25 7 26 6 27 5 28 4 29 3 30 2 31 1 32
REMARK H PARENT
REMARK Flexibility Score: inf
ROOT
ATOM      1  C   UNL     1      14.022   7.309 -10.733  1.00  0.00     0.000 C 
ENDROOT
BRANCH   1   2
ATOM      2  C   UNL     1      14.238   6.611 -12.095  1.00  0.00     0.000 C 
BRANCH   2   3
ATOM      3  C   UNL     1      13.896   7.521 -13.291  1.00  0.00     0.000 C 
BRANCH   3   4
ATOM      4  C   UNL     1      14.926   8.645 -13.501  1.00  0.00     0.000 C 
BRANCH   4   5
ATOM      5  C   UNL     1      14.294  10.050 -13.466  1.00  0.00     0.000 C 
BRANCH   5   6
ATOM      6  C   UNL     1      13.902  10.476 -12.040  1.00  0.00     0.000 C 
BRANCH   6   7
ATOM      7  C   UNL     1      12.420  10.876 -11.939  1.00  0.00     0.000 C 
BRANCH   7   8
ATOM      8  C   UNL     1      11.464   9.692 -12.175  1.00  0.00     0.000 C 
BRANCH   8   9
ATOM      9  C   UNL     1      10.345   9.948 -13.207  1.00  0.00     0.000 C 
BRANCH   9  10
ATOM     10  C   UNL     1       8.937  10.163 -12.612  1.00  0.00     0.000 C 
BRANCH  10  11
ATOM     11  C   UNL     1       7.774   9.659 -13.485  1.00  0.00     0.000 C 
BRANCH  11  12
ATOM     12  C   UNL     1       7.922   8.180 -13.877  1.00  0.00     0.000 C 
BRANCH  12  13
ATOM     13  C   UNL     1       7.286   7.855 -15.244  1.00  0.00     0.006 C 
BRANCH  13  14
ATOM     14  C   UNL     1       6.790   9.095 -16.009  1.00  0.00     0.053 C 
BRANCH  14  15
ATOM     15  C   UNL     1       5.640   8.787 -16.918  1.00  0.00     0.041 C 
ATOM     16  O   UNL     1       5.626   9.231 -18.097  1.00  0.00    -0.550 OA
ATOM     17  O   UNL     1       4.569   8.031 -16.457  1.00  0.00    -0.550 OA
ENDBRANCH  14  15
ENDBRANCH  13  14
ENDBRANCH  12  13
ENDBRANCH  11  12
ENDBRANCH  10  11
ENDBRANCH   9  10
ENDBRANCH   8   9
ENDBRANCH   7   8
ENDBRANCH   6   7
ENDBRANCH   5   6
ENDBRANCH   4   5
ENDBRANCH   3   4
ENDBRANCH   2   3
ENDBRANCH   1   2
BRANCH   1  18
ATOM     18  C   UNL     1      14.043   6.341  -9.533  1.00  0.00     0.000 C 
BRANCH  18  19
ATOM     19  C   UNL     1      12.653   5.831  -9.101  1.00  0.00     0.000 C 
BRANCH  19  20
ATOM     20  C   UNL     1      11.494   6.708  -9.611  1.00  0.00     0.000 C 
BRANCH  20  21
ATOM     21  C   UNL     1      10.261   5.871 -10.026  1.00  0.00     0.000 C 
BRANCH  21  22
ATOM     22  C   UNL     1       9.640   6.327 -11.360  1.00  0.00     0.000 C 
BRANCH  22  23
ATOM     23  C   UNL     1      10.619   6.275 -12.550  1.00  0.00     0.000 C 
BRANCH  23  24
ATOM     24  C   UNL     1      11.127   4.851 -12.840  1.00  0.00    -0.000 C 
BRANCH  24  25
ATOM     25  C   UNL     1      10.820   4.391 -14.275  1.00  0.00    -0.000 C 
BRANCH  25  26
ATOM     26  C   UNL     1      12.041   4.329 -15.209  1.00  0.00    -0.000 C 
BRANCH  26  27
ATOM     27  C   UNL     1      12.406   5.702 -15.801  1.00  0.00    -0.000 C 
BRANCH  27  28
ATOM     28  C   UNL     1      11.194   6.646 -15.893  1.00  0.00    -0.000 C 
BRANCH  28  29
ATOM     29  C   UNL     1      11.613   8.120 -16.001  1.00  0.00    -0.000 C 
BRANCH  29  30
ATOM     30  C   UNL     1      10.472   8.979 -16.566  1.00  0.00    -0.000 C 
BRANCH  30  31
ATOM     31  C   UNL     1      10.483   9.038 -18.102  1.00  0.00    -0.003 C 
ATOM     32  C   UNL     1       9.146   8.627 -18.718  1.00  0.00     0.004 C 
ENDBRANCH  30  31
ENDBRANCH  29  30
ENDBRANCH  28  29
ENDBRANCH  27  28
ENDBRANCH  26  27
ENDBRANCH  25  26
ENDBRANCH  24  25
ENDBRANCH  23  24
ENDBRANCH  22  23
ENDBRANCH  21  22
ENDBRANCH  20  21
ENDBRANCH  19  20
ENDBRANCH  18  19
ENDBRANCH   1  18
TORSDOF 28
ENDMDL
MODEL 7
REMARK VINA RESULT:    -5.870      2.875      6.785
REMARK INTER + INTRA:         -21.033
REMARK INTER:                 -15.401
REMARK INTRA:                  -5.631
REMARK UNBOUND:                -5.555
REMARK SMILES CCCCCCCCCCCCCCCCCCCCCCCCCCCCCC(=O)[O-]
REMARK SMILES IDX 16 1 17 2 18 3 19 4 20 5 21 6 22 7 23 8 24 9 25 10 26 11
REMARK SMILES IDX 27 12 28 13 29 14 30 15 31 16 32 17 15 18 14 19 13 20 12 21
REMARK SMILES IDX 11 22 10 23 9 24 8 25 7 26 6 27 5 28 4 29 3 30 2 31 1 32
REMARK H PARENT
REMARK Flexibility Score: inf
ROOT
ATOM      1  C   UNL     1      14.337   8.427 -15.664  1.00  0.00     0.000 C 
ENDROOT
BRANCH   1   2
ATOM      2  C   UNL     1      12.935   8.236 -16.285  1.00  0.00     0.000 C 
BRANCH   2   3
ATOM      3  C   UNL     1      12.024   7.333 -15.430  1.00  0.00     0.000 C 
BRANCH   3   4
ATOM      4  C   UNL     1      11.689   5.998 -16.118  1.00  0.00     0.000 C 
BRANCH   4   5
ATOM      5  C   UNL     1      12.411   4.797 -15.479  1.00  0.00     0.000 C 
BRANCH   5   6
ATOM      6  C   UNL     1      12.279   4.787 -13.946  1.00  0.00     0.000 C 
BRANCH   6   7
ATOM      7  C   UNL     1      10.969   4.130 -13.479  1.00  0.00     0.000 C 
BRANCH   7   8
ATOM      8  C   UNL     1      10.241   4.948 -12.396  1.00  0.00     0.000 C 
BRANCH   8   9
ATOM      9  C   UNL     1      11.088   6.053 -11.729  1.00  0.00     0.000 C 
BRANCH   9  10
ATOM     10  C   UNL     1      10.607   6.497 -10.331  1.00  0.00     0.000 C 
BRANCH  10  11
ATOM     11  C   UNL     1      11.615   6.270  -9.190  1.00  0.00     0.000 C 
BRANCH  11  12
ATOM     12  C   UNL     1      12.908   5.586  -9.665  1.00  0.00     0.000 C 
BRANCH  12  13
ATOM     13  C   UNL     1      14.168   6.434  -9.399  1.00  0.00     0.006 C 
BRANCH  13  14
ATOM     14  C   UNL     1      14.488   7.441 -10.518  1.00  0.00     0.053 C 
BRANCH  14  15
ATOM     15  C   UNL     1      15.685   8.285 -10.207  1.00  0.00     0.041 C 
ATOM     16  O   UNL     1      16.828   7.760 -10.124  1.00  0.00    -0.550 OA
ATOM     17  O   UNL     1      15.539   9.648  -9.984  1.00  0.00    -0.550 OA
ENDBRANCH  14  15
ENDBRANCH  13  14
ENDBRANCH  12  13
ENDBRANCH  11  12
ENDBRANCH  10  11
ENDBRANCH   9  10
ENDBRANCH   8   9
ENDBRANCH   7   8
ENDBRANCH   6   7
ENDBRANCH   5   6
ENDBRANCH   4   5
ENDBRANCH   3   4
ENDBRANCH   2   3
ENDBRANCH   1   2
BRANCH   1  18
ATOM     18  C   UNL     1      14.338   8.417 -14.122  1.00  0.00     0.000 C 
BRANCH  18  19
ATOM     19  C   UNL     1      14.663   9.779 -13.476  1.00  0.00     0.000 C 
BRANCH  19  20
ATOM     20  C   UNL     1      13.466  10.406 -12.735  1.00  0.00     0.000 C 
BRANCH  20  21
ATOM     21  C   UNL     1      12.341   9.380 -12.461  1.00  0.00     0.000 C 
BRANCH  21  22
ATOM     22  C   UNL     1      10.993  10.037 -12.110  1.00  0.00     0.000 C 
BRANCH  22  23
ATOM     23  C   UNL     1      10.331  10.766 -13.297  1.00  0.00     0.000 C 
BRANCH  23  24
ATOM     24  C   UNL     1       8.873  11.167 -13.009  1.00  0.00    -0.000 C 
BRANCH  24  25
ATOM     25  C   UNL     1       7.860  10.119 -13.503  1.00  0.00    -0.000 C 
BRANCH  25  26
ATOM     26  C   UNL     1       7.577   8.976 -12.513  1.00  0.00    -0.000 C 
BRANCH  26  27
ATOM     27  C   UNL     1       7.548   7.595 -13.192  1.00  0.00    -0.000 C 
BRANCH  27  28
ATOM     28  C   UNL     1       8.765   7.362 -14.104  1.00  0.00    -0.000 C 
BRANCH  28  29
ATOM     29  C   UNL     1       8.354   6.933 -15.521  1.00  0.00    -0.000 C 
BRANCH  29  30
ATOM     30  C   UNL     1       7.984   8.150 -16.381  1.00  0.00    -0.000 C 
BRANCH  30  31
ATOM     31  C   UNL     1       9.219   8.875 -16.940  1.00  0.00    -0.003 C 
ATOM     32  C   UNL     1       9.474   8.557 -18.414  1.00  0.00     0.004 C 
ENDBRANCH  30  31
ENDBRANCH  29  30
ENDBRANCH  28  29
ENDBRANCH  27  28
ENDBRANCH  26  27
ENDBRANCH  25  26
ENDBRANCH  24  25
ENDBRANCH  23  24
ENDBRANCH  22  23
ENDBRANCH  21  22
ENDBRANCH  20  21
ENDBRANCH  19  20
ENDBRANCH  18  19
ENDBRANCH   1  18
TORSDOF 28
ENDMDL
MODEL 8
REMARK VINA RESULT:    -5.806      2.423      6.326
REMARK INTER + INTRA:         -20.864
REMARK INTER:                 -15.476
REMARK INTRA:                  -5.388
REMARK UNBOUND:                -5.555
REMARK SMILES CCCCCCCCCCCCCCCCCCCCCCCCCCCCCC(=O)[O-]
REMARK SMILES IDX 16 1 17 2 18 3 19 4 20 5 21 6 22 7 23 8 24 9 25 10 26 11
REMARK SMILES IDX 27 12 28 13 29 14 30 15 31 16 32 17 15 18 14 19 13 20 12 21
REMARK SMILES IDX 11 22 10 23 9 24 8 25 7 26 6 27 5 28 4 29 3 30 2 31 1 32
REMARK H PARENT
REMARK Flexibility Score: inf
ROOT
ATOM      1  C   UNL     1      10.972   5.583 -15.268  1.00  0.00     0.000 C 
ENDROOT
BRANCH   1   2
ATOM      2  C   UNL     1      10.798   4.292 -14.438  1.00  0.00     0.000 C 
BRANCH   2   3
ATOM      3  C   UNL     1      11.157   4.487 -12.951  1.00  0.00     0.000 C 
BRANCH   3   4
ATOM      4  C   UNL     1      10.768   5.878 -12.420  1.00  0.00     0.000 C 
BRANCH   4   5
ATOM      5  C   UNL     1       9.679   5.821 -11.332  1.00  0.00     0.000 C 
BRANCH   5   6
ATOM      6  C   UNL     1      10.268   5.922  -9.913  1.00  0.00     0.000 C 
BRANCH   6   7
ATOM      7  C   UNL     1      11.603   6.685  -9.890  1.00  0.00     0.000 C 
BRANCH   7   8
ATOM      8  C   UNL     1      12.699   5.949  -9.097  1.00  0.00     0.000 C 
BRANCH   8   9
ATOM      9  C   UNL     1      14.129   6.104  -9.656  1.00  0.00     0.000 C 
BRANCH   9  10
ATOM     10  C   UNL     1      14.452   7.485 -10.264  1.00  0.00     0.000 C 
BRANCH  10  11
ATOM     11  C   UNL     1      15.012   7.454 -11.698  1.00  0.00     0.000 C 
BRANCH  11  12
ATOM     12  C   UNL     1      13.907   7.427 -12.767  1.00  0.00     0.000 C 
BRANCH  12  13
ATOM     13  C   UNL     1      13.011   8.681 -12.736  1.00  0.00     0.006 C 
BRANCH  13  14
ATOM     14  C   UNL     1      13.788  10.004 -12.854  1.00  0.00     0.053 C 
BRANCH  14  15
ATOM     15  C   UNL     1      13.663  10.856 -11.628  1.00  0.00     0.041 C 
ATOM     16  O   UNL     1      12.588  11.468 -11.388  1.00  0.00    -0.550 OA
ATOM     17  O   UNL     1      14.741  10.996 -10.763  1.00  0.00    -0.550 OA
ENDBRANCH  14  15
ENDBRANCH  13  14
ENDBRANCH  12  13
ENDBRANCH  11  12
ENDBRANCH  10  11
ENDBRANCH   9  10
ENDBRANCH   8   9
ENDBRANCH   7   8
ENDBRANCH   6   7
ENDBRANCH   5   6
ENDBRANCH   4   5
ENDBRANCH   3   4
ENDBRANCH   2   3
ENDBRANCH   1   2
BRANCH   1  18
ATOM     18  C   UNL     1      12.381   5.742 -15.876  1.00  0.00     0.000 C 
BRANCH  18  19
ATOM     19  C   UNL     1      12.793   7.201 -16.157  1.00  0.00     0.000 C 
BRANCH  19  20
ATOM     20  C   UNL     1      11.634   8.205 -16.001  1.00  0.00     0.000 C 
BRANCH  20  21
ATOM     21  C   UNL     1      11.458   9.097 -17.252  1.00  0.00     0.000 C 
BRANCH  21  22
ATOM     22  C   UNL     1      10.260   8.684 -18.128  1.00  0.00     0.000 C 
BRANCH  22  23
ATOM     23  C   UNL     1       9.114   8.022 -17.338  1.00  0.00     0.000 C 
BRANCH  23  24
ATOM     24  C   UNL     1       8.471   8.975 -16.313  1.00  0.00    -0.000 C 
BRANCH  24  25
ATOM     25  C   UNL     1       6.963   8.728 -16.136  1.00  0.00    -0.000 C 
BRANCH  25  26
ATOM     26  C   UNL     1       6.605   7.506 -15.273  1.00  0.00    -0.000 C 
BRANCH  26  27
ATOM     27  C   UNL     1       7.710   7.147 -14.263  1.00  0.00    -0.000 C 
BRANCH  27  28
ATOM     28  C   UNL     1       7.357   7.574 -12.827  1.00  0.00    -0.000 C 
BRANCH  28  29
ATOM     29  C   UNL     1       7.841   8.997 -12.510  1.00  0.00    -0.000 C 
BRANCH  29  30
ATOM     30  C   UNL     1       9.322   9.172 -12.877  1.00  0.00    -0.000 C 
BRANCH  30  31
ATOM     31  C   UNL     1       9.693  10.639 -13.152  1.00  0.00    -0.003 C 
ATOM     32  C   UNL     1       8.474  11.561 -13.182  1.00  0.00     0.004 C 
ENDBRANCH  30  31
ENDBRANCH  29  30
ENDBRANCH  28  29
ENDBRANCH  27  28
ENDBRANCH  26  27
ENDBRANCH  25  26
ENDBRANCH  24  25
ENDBRANCH  23  24
ENDBRANCH  22  23
ENDBRANCH  21  22
ENDBRANCH  20  21
ENDBRANCH  19  20
ENDBRANCH  18  19
ENDBRANCH   1  18
TORSDOF 28
ENDMDL
MODEL 9
REMARK VINA RESULT:    -5.790      1.891      4.333
REMARK INTER + INTRA:         -20.823
REMARK INTER:                 -15.828
REMARK INTRA:                  -4.994
REMARK UNBOUND:                -5.555
REMARK SMILES CCCCCCCCCCCCCCCCCCCCCCCCCCCCCC(=O)[O-]
REMARK SMILES IDX 16 1 17 2 18 3 19 4 20 5 21 6 22 7 23 8 24 9 25 10 26 11
REMARK SMILES IDX 27 12 28 13 29 14 30 15 31 16 32 17 15 18 14 19 13 20 12 21
REMARK SMILES IDX 11 22 10 23 9 24 8 25 7 26 6 27 5 28 4 29 3 30 2 31 1 32
REMARK H PARENT
REMARK Flexibility Score: inf
ROOT
ATOM      1  C   UNL     1       9.639   7.993 -16.389  1.00  0.00     0.000 C 
ENDROOT
BRANCH   1   2
ATOM      2  C   UNL     1      10.246   8.804 -17.556  1.00  0.00     0.000 C 
BRANCH   2   3
ATOM      3  C   UNL     1      11.765   9.021 -17.404  1.00  0.00     0.000 C 
BRANCH   3   4
ATOM      4  C   UNL     1      12.310   8.509 -16.059  1.00  0.00     0.000 C 
BRANCH   4   5
ATOM      5  C   UNL     1      13.783   8.068 -16.140  1.00  0.00     0.000 C 
BRANCH   5   6
ATOM      6  C   UNL     1      14.613   8.587 -14.953  1.00  0.00     0.000 C 
BRANCH   6   7
ATOM      7  C   UNL     1      13.734   8.959 -13.747  1.00  0.00     0.000 C 
BRANCH   7   8
ATOM      8  C   UNL     1      14.278  10.166 -12.959  1.00  0.00     0.000 C 
BRANCH   8   9
ATOM      9  C   UNL     1      13.357  10.684 -11.835  1.00  0.00     0.000 C 
BRANCH   9  10
ATOM     10  C   UNL     1      11.960  10.032 -11.775  1.00  0.00     0.000 C 
BRANCH  10  11
ATOM     11  C   UNL     1      10.839  10.823 -12.474  1.00  0.00     0.000 C 
BRANCH  11  12
ATOM     12  C   UNL     1       9.905   9.926 -13.303  1.00  0.00     0.000 C 
BRANCH  12  13
ATOM     13  C   UNL     1       8.444  10.418 -13.303  1.00  0.00     0.006 C 
BRANCH  13  14
ATOM     14  C   UNL     1       7.473   9.482 -14.044  1.00  0.00     0.053 C 
BRANCH  14  15
ATOM     15  C   UNL     1       7.413   8.115 -13.435  1.00  0.00     0.041 C 
ATOM     16  O   UNL     1       7.121   7.116 -14.145  1.00  0.00    -0.550 OA
ATOM     17  O   UNL     1       7.656   7.946 -12.078  1.00  0.00    -0.550 OA
ENDBRANCH  14  15
ENDBRANCH  13  14
ENDBRANCH  12  13
ENDBRANCH  11  12
ENDBRANCH  10  11
ENDBRANCH   9  10
ENDBRANCH   8   9
ENDBRANCH   7   8
ENDBRANCH   6   7
ENDBRANCH   5   6
ENDBRANCH   4   5
ENDBRANCH   3   4
ENDBRANCH   2   3
ENDBRANCH   1   2
BRANCH   1  18
ATOM     18  C   UNL     1       9.509   6.485 -16.687  1.00  0.00     0.000 C 
BRANCH  18  19
ATOM     19  C   UNL     1       9.952   5.567 -15.530  1.00  0.00     0.000 C 
BRANCH  19  20
ATOM     20  C   UNL     1      11.460   5.250 -15.543  1.00  0.00     0.000 C 
BRANCH  20  21
ATOM     21  C   UNL     1      11.932   4.583 -14.229  1.00  0.00     0.000 C 
BRANCH  21  22
ATOM     22  C   UNL     1      12.410   5.596 -13.172  1.00  0.00     0.000 C 
BRANCH  22  23
ATOM     23  C   UNL     1      11.281   6.482 -12.607  1.00  0.00     0.000 C 
BRANCH  23  24
ATOM     24  C   UNL     1      10.192   5.667 -11.885  1.00  0.00    -0.000 C 
BRANCH  24  25
ATOM     25  C   UNL     1      10.110   5.984 -10.382  1.00  0.00    -0.000 C 
BRANCH  25  26
ATOM     26  C   UNL     1      11.329   6.728  -9.811  1.00  0.00    -0.000 C 
BRANCH  26  27
ATOM     27  C   UNL     1      12.311   5.791  -9.084  1.00  0.00    -0.000 C 
BRANCH  27  28
ATOM     28  C   UNL     1      13.771   6.022  -9.511  1.00  0.00    -0.000 C 
BRANCH  28  29
ATOM     29  C   UNL     1      13.946   7.334 -10.291  1.00  0.00    -0.000 C 
BRANCH  29  30
ATOM     30  C   UNL     1      15.359   7.440 -10.885  1.00  0.00    -0.000 C 
BRANCH  30  31
ATOM     31  C   UNL     1      16.359   8.092  -9.916  1.00  0.00    -0.003 C 
ATOM     32  C   UNL     1      16.680   7.204  -8.713  1.00  0.00     0.004 C 
ENDBRANCH  30  31
ENDBRANCH  29  30
ENDBRANCH  28  29
ENDBRANCH  27  28
ENDBRANCH  26  27
ENDBRANCH  25  26
ENDBRANCH  24  25
ENDBRANCH  23  24
ENDBRANCH  22  23
ENDBRANCH  21  22
ENDBRANCH  20  21
ENDBRANCH  19  20
ENDBRANCH  18  19
ENDBRANCH   1  18
TORSDOF 28
ENDMDL
