MODEL 1
REMARK VINA RESULT:    -4.566      0.000      0.000
REMARK INTER + INTRA:          -4.566
REMARK INTER:                  -4.566
REMARK INTRA:                   0.000
REMARK UNBOUND:                 0.000
REMARK SMILES CC1(C)C(=O)[C@@]2(C)CC[C@@H]1C2
REMARK SMILES IDX 1 1 2 2 10 3 9 4 8 5 6 6 11 7 4 8 5 9 7 10 3 11
REMARK H PARENT
REMARK Flexibility Score: inf
ROOT
ATOM      1  C   UNL     1     105.420 108.188 102.001  1.00  0.00     0.020 C 
ATOM      2  C   UNL     1     105.967 107.458 103.247  1.00  0.00     0.027 C 
ATOM      3  C   UNL     1     107.532 107.495 103.382  1.00  0.00     0.003 C 
ATOM      4  C   UNL     1     108.217 107.102 102.048  1.00  0.00     0.005 C 
ATOM      5  C   UNL     1     107.873 105.602 101.908  1.00  0.00     0.015 C 
ATOM      6  C   UNL     1     107.124 105.304 103.221  1.00  0.00     0.027 C 
ATOM      7  C   UNL     1     107.828 106.232 104.190  1.00  0.00     0.019 C 
ATOM      8  C   UNL     1     105.780 105.972 103.140  1.00  0.00     0.144 C 
ATOM      9  O   UNL     1     104.715 105.405 102.943  1.00  0.00    -0.298 OA
ATOM     10  C   UNL     1     107.101 103.833 103.643  1.00  0.00     0.020 C 
ATOM     11  C   UNL     1     105.274 108.020 104.507  1.00  0.00     0.020 C 
ENDROOT
TORSDOF 0
ENDMDL
MODEL 2
REMARK VINA RESULT:    -4.554      1.426      2.599
REMARK INTER + INTRA:          -4.554
REMARK INTER:                  -4.554
REMARK INTRA:                   0.000
REMARK UNBOUND:                 0.000
REMARK SMILES CC1(C)C(=O)[C@@]2(C)CC[C@@H]1C2
REMARK SMILES IDX 1 1 2 2 10 3 9 4 8 5 6 6 11 7 4 8 5 9 7 10 3 11
REMARK H PARENT
REMARK Flexibility Score: inf
ROOT
ATOM      1  C   UNL     1     103.764 105.566 102.133  1.00  0.00     0.020 C 
ATOM      2  C   UNL     1     104.502 106.030 103.408  1.00  0.00     0.027 C 
ATOM      3  C   UNL     1     104.571 107.590 103.583  1.00  0.00     0.003 C 
ATOM      4  C   UNL     1     105.041 108.278 102.275  1.00  0.00     0.005 C 
ATOM      5  C   UNL     1     106.516 107.833 102.158  1.00  0.00     0.015 C 
ATOM      6  C   UNL     1     106.731 107.034 103.458  1.00  0.00     0.027 C 
ATOM      7  C   UNL     1     105.832 107.777 104.425  1.00  0.00     0.019 C 
ATOM      8  C   UNL     1     105.973 105.742 103.328  1.00  0.00     0.144 C 
ATOM      9  O   UNL     1     106.469 104.645 103.116  1.00  0.00    -0.298 OA
ATOM     10  C   UNL     1     108.187 106.898 103.910  1.00  0.00     0.020 C 
ATOM     11  C   UNL     1     103.864 105.349 104.638  1.00  0.00     0.020 C 
ENDROOT
TORSDOF 0
ENDMDL
MODEL 3
REMARK VINA RESULT:    -4.500      1.773      3.779
REMARK INTER + INTRA:          -4.500
REMARK INTER:                  -4.500
REMARK INTRA:                   0.000
REMARK UNBOUND:                 0.000
REMARK SMILES CC1(C)C(=O)[C@@]2(C)CC[C@@H]1C2
REMARK SMILES IDX 1 1 2 2 10 3 9 4 8 5 6 6 11 7 4 8 5 9 7 10 3 11
REMARK H PARENT
REMARK Flexibility Score: inf
ROOT
ATOM      1  C   UNL     1     106.582 103.816 102.016  1.00  0.00     0.020 C 
ATOM      2  C   UNL     1     106.030 104.545 103.260  1.00  0.00     0.027 C 
ATOM      3  C   UNL     1     104.464 104.515 103.384  1.00  0.00     0.003 C 
ATOM      4  C   UNL     1     103.791 104.916 102.045  1.00  0.00     0.005 C 
ATOM      5  C   UNL     1     104.143 106.414 101.912  1.00  0.00     0.015 C 
ATOM      6  C   UNL     1     104.883 106.705 103.233  1.00  0.00     0.027 C 
ATOM      7  C   UNL     1     104.167 105.777 104.193  1.00  0.00     0.019 C 
ATOM      8  C   UNL     1     106.224 106.030 103.160  1.00  0.00     0.144 C 
ATOM      9  O   UNL     1     107.293 106.592 102.973  1.00  0.00    -0.298 OA
ATOM     10  C   UNL     1     104.910 108.174 103.659  1.00  0.00     0.020 C 
ATOM     11  C   UNL     1     106.710 103.975 104.524  1.00  0.00     0.020 C 
ENDROOT
TORSDOF 0
ENDMDL
MODEL 4
REMARK VINA RESULT:    -4.484      1.404      2.663
REMARK INTER + INTRA:          -4.484
REMARK INTER:                  -4.484
REMARK INTRA:                   0.000
REMARK UNBOUND:                 0.000
REMARK SMILES CC1(C)C(=O)[C@@]2(C)CC[C@@H]1C2
REMARK SMILES IDX 1 1 2 2 10 3 9 4 8 5 6 6 11 7 4 8 5 9 7 10 3 11
REMARK H PARENT
REMARK Flexibility Score: inf
ROOT
ATOM      1  C   UNL     1     108.142 106.607 101.979  1.00  0.00     0.020 C 
ATOM      2  C   UNL     1     107.444 106.049 103.238  1.00  0.00     0.027 C 
ATOM      3  C   UNL     1     107.498 104.484 103.365  1.00  0.00     0.003 C 
ATOM      4  C   UNL     1     107.083 103.800 102.036  1.00  0.00     0.005 C 
ATOM      5  C   UNL     1     105.577 104.131 101.930  1.00  0.00     0.015 C 
ATOM      6  C   UNL     1     105.300 104.872 103.253  1.00  0.00     0.027 C 
ATOM      7  C   UNL     1     106.255 104.172 104.198  1.00  0.00     0.019 C 
ATOM      8  C   UNL     1     105.954 106.222 103.163  1.00  0.00     0.144 C 
ATOM      9  O   UNL     1     105.374 107.282 102.983  1.00  0.00    -0.298 OA
ATOM     10  C   UNL     1     103.839 104.879 103.706  1.00  0.00     0.020 C 
ATOM     11  C   UNL     1     108.026 106.741 104.489  1.00  0.00     0.020 C 
ENDROOT
TORSDOF 0
ENDMDL
MODEL 5
REMARK VINA RESULT:    -4.372      1.251      3.069
REMARK INTER + INTRA:          -4.372
REMARK INTER:                  -4.372
REMARK INTRA:                   0.000
REMARK UNBOUND:                 0.000
REMARK SMILES CC1(C)C(=O)[C@@]2(C)CC[C@@H]1C2
REMARK SMILES IDX 1 1 2 2 10 3 9 4 8 5 6 6 11 7 4 8 5 9 7 10 3 11
REMARK H PARENT
REMARK Flexibility Score: inf
ROOT
ATOM      1  C   UNL     1     108.067 107.094 104.375  1.00  0.00     0.020 C 
ATOM      2  C   UNL     1     107.216 106.858 103.108  1.00  0.00     0.027 C 
ATOM      3  C   UNL     1     106.043 107.886 102.917  1.00  0.00     0.003 C 
ATOM      4  C   UNL     1     105.226 108.050 104.225  1.00  0.00     0.005 C 
ATOM      5  C   UNL     1     104.525 106.681 104.373  1.00  0.00     0.015 C 
ATOM      6  C   UNL     1     104.947 105.946 103.086  1.00  0.00     0.027 C 
ATOM      7  C   UNL     1     105.030 107.090 102.095  1.00  0.00     0.019 C 
ATOM      8  C   UNL     1     106.404 105.600 103.216  1.00  0.00     0.144 C 
ATOM      9  O   UNL     1     106.852 104.487 103.449  1.00  0.00    -0.298 OA
ATOM     10  C   UNL     1     104.035 104.794 102.660  1.00  0.00     0.020 C 
ATOM     11  C   UNL     1     108.144 106.821 101.875  1.00  0.00     0.020 C 
ENDROOT
TORSDOF 0
ENDMDL
MODEL 6
REMARK VINA RESULT:    -4.350      1.466      3.080
REMARK INTER + INTRA:          -4.350
REMARK INTER:                  -4.350
REMARK INTRA:                   0.000
REMARK UNBOUND:                 0.000
REMARK SMILES CC1(C)C(=O)[C@@]2(C)CC[C@@H]1C2
REMARK SMILES IDX 1 1 2 2 10 3 9 4 8 5 6 6 11 7 4 8 5 9 7 10 3 11
REMARK H PARENT
REMARK Flexibility Score: inf
ROOT
ATOM      1  C   UNL     1     103.966 105.033 104.391  1.00  0.00     0.020 C 
ATOM      2  C   UNL     1     104.822 105.150 103.111  1.00  0.00     0.027 C 
ATOM      3  C   UNL     1     106.014 104.129 103.035  1.00  0.00     0.003 C 
ATOM      4  C   UNL     1     106.823 104.117 104.358  1.00  0.00     0.005 C 
ATOM      5  C   UNL     1     107.500 105.506 104.365  1.00  0.00     0.015 C 
ATOM      6  C   UNL     1     107.075 106.095 103.005  1.00  0.00     0.027 C 
ATOM      7  C   UNL     1     107.019 104.852 102.140  1.00  0.00     0.019 C 
ATOM      8  C   UNL     1     105.612 106.427 103.091  1.00  0.00     0.144 C 
ATOM      9  O   UNL     1     105.143 107.550 103.203  1.00  0.00    -0.298 OA
ATOM     10  C   UNL     1     107.971 107.212 102.466  1.00  0.00     0.020 C 
ATOM     11  C   UNL     1     103.902 105.042 101.875  1.00  0.00     0.020 C 
ENDROOT
TORSDOF 0
ENDMDL
MODEL 7
REMARK VINA RESULT:    -4.350      0.753      3.240
REMARK INTER + INTRA:          -4.350
REMARK INTER:                  -4.350
REMARK INTRA:                   0.000
REMARK UNBOUND:                 0.000
REMARK SMILES CC1(C)C(=O)[C@@]2(C)CC[C@@H]1C2
REMARK SMILES IDX 1 1 2 2 10 3 9 4 8 5 6 6 11 7 4 8 5 9 7 10 3 11
REMARK H PARENT
REMARK Flexibility Score: inf
ROOT
ATOM      1  C   UNL     1     106.746 104.240 104.483  1.00  0.00     0.020 C 
ATOM      2  C   UNL     1     106.957 105.213 103.301  1.00  0.00     0.027 C 
ATOM      3  C   UNL     1     107.862 106.452 103.639  1.00  0.00     0.003 C 
ATOM      4  C   UNL     1     107.414 107.126 104.962  1.00  0.00     0.005 C 
ATOM      5  C   UNL     1     106.041 107.733 104.597  1.00  0.00     0.015 C 
ATOM      6  C   UNL     1     105.923 107.419 103.093  1.00  0.00     0.027 C 
ATOM      7  C   UNL     1     107.369 107.506 102.649  1.00  0.00     0.019 C 
ATOM      8  C   UNL     1     105.691 105.940 102.955  1.00  0.00     0.144 C 
ATOM      9  O   UNL     1     104.624 105.411 102.679  1.00  0.00    -0.298 OA
ATOM     10  C   UNL     1     104.956 108.310 102.311  1.00  0.00     0.020 C 
ATOM     11  C   UNL     1     107.500 104.426 102.089  1.00  0.00     0.020 C 
ENDROOT
TORSDOF 0
ENDMDL
MODEL 8
REMARK VINA RESULT:    -4.337      1.608      2.935
REMARK INTER + INTRA:          -4.337
REMARK INTER:                  -4.337
REMARK INTRA:                   0.000
REMARK UNBOUND:                 0.000
REMARK SMILES CC1(C)C(=O)[C@@]2(C)CC[C@@H]1C2
REMARK SMILES IDX 1 1 2 2 10 3 9 4 8 5 6 6 11 7 4 8 5 9 7 10 3 11
REMARK H PARENT
REMARK Flexibility Score: inf
ROOT
ATOM      1  C   UNL     1     105.136 108.044 104.394  1.00  0.00     0.020 C 
ATOM      2  C   UNL     1     105.207 107.126 103.153  1.00  0.00     0.027 C 
ATOM      3  C   UNL     1     104.149 105.965 103.148  1.00  0.00     0.003 C 
ATOM      4  C   UNL     1     104.133 105.218 104.507  1.00  0.00     0.005 C 
ATOM      5  C   UNL     1     105.501 104.499 104.525  1.00  0.00     0.015 C 
ATOM      6  C   UNL     1     106.081 104.843 103.139  1.00  0.00     0.027 C 
ATOM      7  C   UNL     1     104.827 104.898 102.290  1.00  0.00     0.019 C 
ATOM      8  C   UNL     1     106.458 106.298 103.152  1.00  0.00     0.144 C 
ATOM      9  O   UNL     1     107.597 106.736 103.226  1.00  0.00    -0.298 OA
ATOM     10  C   UNL     1     107.162 103.889 102.627  1.00  0.00     0.020 C 
ATOM     11  C   UNL     1     105.107 107.991 101.878  1.00  0.00     0.020 C 
ENDROOT
TORSDOF 0
ENDMDL
MODEL 9
REMARK VINA RESULT:    -4.299      1.578      2.418
REMARK INTER + INTRA:          -4.299
REMARK INTER:                  -4.299
REMARK INTRA:                   0.000
REMARK UNBOUND:                 0.000
REMARK SMILES CC1(C)C(=O)[C@@]2(C)CC[C@@H]1C2
REMARK SMILES IDX 1 1 2 2 10 3 9 4 8 5 6 6 11 7 4 8 5 9 7 10 3 11
REMARK H PARENT
REMARK Flexibility Score: inf
ROOT
ATOM      1  C   UNL     1     106.093 107.090 104.852  1.00  0.00     0.020 C 
ATOM      2  C   UNL     1     107.262 106.485 104.043  1.00  0.00     0.027 C 
ATOM      3  C   UNL     1     107.138 106.676 102.488  1.00  0.00     0.003 C 
ATOM      4  C   UNL     1     105.726 106.274 101.987  1.00  0.00     0.005 C 
ATOM      5  C   UNL     1     105.706 104.743 102.195  1.00  0.00     0.015 C 
ATOM      6  C   UNL     1     107.135 104.451 102.691  1.00  0.00     0.027 C 
ATOM      7  C   UNL     1     107.937 105.495 101.941  1.00  0.00     0.019 C 
ATOM      8  C   UNL     1     107.248 104.985 104.092  1.00  0.00     0.144 C 
ATOM      9  O   UNL     1     107.251 104.311 105.111  1.00  0.00    -0.298 OA
ATOM     10  C   UNL     1     107.614 103.011 102.497  1.00  0.00     0.020 C 
ATOM     11  C   UNL     1     108.594 107.050 104.580  1.00  0.00     0.020 C 
ENDROOT
TORSDOF 0
ENDMDL
