MODEL 1
REMARK VINA RESULT:    -2.970      0.000      0.000
REMARK INTER + INTRA:          -3.664
REMARK INTER:                  -3.490
REMARK INTRA:                  -0.174
REMARK UNBOUND:                -0.174
REMARK SMILES O=C([O-])CCC(=O)[O-]
REMARK SMILES IDX 4 1 2 2 1 3 3 4 5 5 6 6 7 7 8 8
REMARK H PARENT
REMARK Flexibility Score: inf
ROOT
ATOM      1  C   UNL     1      -3.391 -49.015  17.061  1.00  0.00     0.059 C 
ENDROOT
BRANCH   1   2
ATOM      2  C   UNL     1      -4.507 -48.563  17.950  1.00  0.00     0.042 C 
ATOM      3  O   UNL     1      -5.380 -47.766  17.517  1.00  0.00    -0.550 OA
ATOM      4  O   UNL     1      -4.555 -48.984  19.273  1.00  0.00    -0.550 OA
ENDBRANCH   1   2
BRANCH   1   5
ATOM      5  C   UNL     1      -2.038 -48.752  17.724  1.00  0.00     0.059 C 
BRANCH   5   6
ATOM      6  C   UNL     1      -1.724 -47.290  17.714  1.00  0.00     0.042 C 
ATOM      7  O   UNL     1      -1.613 -46.658  18.797  1.00  0.00    -0.550 OA
ATOM      8  O   UNL     1      -1.606 -46.612  16.507  1.00  0.00    -0.550 OA
ENDBRANCH   5   6
ENDBRANCH   1   5
TORSDOF 3
ENDMDL
MODEL 2
REMARK VINA RESULT:    -2.961      0.046      3.553
REMARK INTER + INTRA:          -3.654
REMARK INTER:                  -3.476
REMARK INTRA:                  -0.178
REMARK UNBOUND:                -0.174
REMARK SMILES O=C([O-])CCC(=O)[O-]
REMARK SMILES IDX 4 1 2 2 1 3 3 4 5 5 6 6 7 7 8 8
REMARK H PARENT
REMARK Flexibility Score: inf
ROOT
ATOM      1  C   UNL     1      -2.073 -48.778  17.716  1.00  0.00     0.059 C 
ENDROOT
BRANCH   1   2
ATOM      2  C   UNL     1      -1.762 -47.314  17.714  1.00  0.00     0.042 C 
ATOM      3  O   UNL     1      -1.632 -46.692  18.801  1.00  0.00    -0.550 OA
ATOM      4  O   UNL     1      -1.665 -46.625  16.512  1.00  0.00    -0.550 OA
ENDBRANCH   1   2
BRANCH   1   5
ATOM      5  C   UNL     1      -3.435 -49.036  17.070  1.00  0.00     0.059 C 
BRANCH   5   6
ATOM      6  C   UNL     1      -4.537 -48.554  17.961  1.00  0.00     0.042 C 
ATOM      7  O   UNL     1      -5.378 -47.722  17.532  1.00  0.00    -0.550 OA
ATOM      8  O   UNL     1      -4.604 -48.985  19.279  1.00  0.00    -0.550 OA
ENDBRANCH   5   6
ENDBRANCH   1   5
TORSDOF 3
ENDMDL
MODEL 3
REMARK VINA RESULT:    -2.958      1.768      3.325
REMARK INTER + INTRA:          -3.651
REMARK INTER:                  -3.580
REMARK INTRA:                  -0.071
REMARK UNBOUND:                -0.174
REMARK SMILES O=C([O-])CCC(=O)[O-]
REMARK SMILES IDX 4 1 2 2 1 3 3 4 5 5 6 6 7 7 8 8
REMARK H PARENT
REMARK Flexibility Score: inf
ROOT
ATOM      1  C   UNL     1      -3.740 -48.553  17.715  1.00  0.00     0.059 C 
ENDROOT
BRANCH   1   2
ATOM      2  C   UNL     1      -2.250 -48.411  17.733  1.00  0.00     0.042 C 
ATOM      3  O   UNL     1      -1.520 -49.349  17.317  1.00  0.00    -0.550 OA
ATOM      4  O   UNL     1      -1.668 -47.264  18.255  1.00  0.00    -0.550 OA
ENDBRANCH   1   2
BRANCH   1   5
ATOM      5  C   UNL     1      -4.289 -48.616  19.141  1.00  0.00     0.059 C 
BRANCH   5   6
ATOM      6  C   UNL     1      -4.799 -47.275  19.566  1.00  0.00     0.042 C 
ATOM      7  O   UNL     1      -4.678 -46.902  20.762  1.00  0.00    -0.550 OA
ATOM      8  O   UNL     1      -5.453 -46.458  18.653  1.00  0.00    -0.550 OA
ENDBRANCH   5   6
ENDBRANCH   1   5
TORSDOF 3
ENDMDL
MODEL 4
REMARK VINA RESULT:    -2.948      2.206      3.128
REMARK INTER + INTRA:          -3.639
REMARK INTER:                  -3.533
REMARK INTRA:                  -0.107
REMARK UNBOUND:                -0.174
REMARK SMILES O=C([O-])CCC(=O)[O-]
REMARK SMILES IDX 4 1 2 2 1 3 3 4 5 5 6 6 7 7 8 8
REMARK H PARENT
REMARK Flexibility Score: inf
ROOT
ATOM      1  C   UNL     1      -4.516 -48.596  19.226  1.00  0.00     0.059 C 
ENDROOT
BRANCH   1   2
ATOM      2  C   UNL     1      -4.520 -47.151  19.615  1.00  0.00     0.042 C 
ATOM      3  O   UNL     1      -4.834 -46.811  20.786  1.00  0.00    -0.550 OA
ATOM      4  O   UNL     1      -4.225 -46.175  18.671  1.00  0.00    -0.550 OA
ENDBRANCH   1   2
BRANCH   1   5
ATOM      5  C   UNL     1      -4.895 -48.754  17.752  1.00  0.00     0.059 C 
BRANCH   5   6
ATOM      6  C   UNL     1      -3.709 -49.186  16.949  1.00  0.00     0.042 C 
ATOM      7  O   UNL     1      -3.869 -49.723  15.822  1.00  0.00    -0.550 OA
ATOM      8  O   UNL     1      -2.428 -49.044  17.468  1.00  0.00    -0.550 OA
ENDBRANCH   5   6
ENDBRANCH   1   5
TORSDOF 3
ENDMDL
MODEL 5
REMARK VINA RESULT:    -2.946      2.219      2.891
REMARK INTER + INTRA:          -3.637
REMARK INTER:                  -3.528
REMARK INTRA:                  -0.108
REMARK UNBOUND:                -0.174
REMARK SMILES O=C([O-])CCC(=O)[O-]
REMARK SMILES IDX 4 1 2 2 1 3 3 4 5 5 6 6 7 7 8 8
REMARK H PARENT
REMARK Flexibility Score: inf
ROOT
ATOM      1  C   UNL     1      -4.901 -48.705  17.745  1.00  0.00     0.059 C 
ENDROOT
BRANCH   1   2
ATOM      2  C   UNL     1      -3.723 -49.145  16.934  1.00  0.00     0.042 C 
ATOM      3  O   UNL     1      -3.889 -49.618  15.779  1.00  0.00    -0.550 OA
ATOM      4  O   UNL     1      -2.444 -49.077  17.472  1.00  0.00    -0.550 OA
ENDBRANCH   1   2
BRANCH   1   5
ATOM      5  C   UNL     1      -4.505 -48.527  19.211  1.00  0.00     0.059 C 
BRANCH   5   6
ATOM      6  C   UNL     1      -4.519 -47.078  19.586  1.00  0.00     0.042 C 
ATOM      7  O   UNL     1      -4.901 -46.725  20.732  1.00  0.00    -0.550 OA
ATOM      8  O   UNL     1      -4.160 -46.115  18.652  1.00  0.00    -0.550 OA
ENDBRANCH   5   6
ENDBRANCH   1   5
TORSDOF 3
ENDMDL
MODEL 6
REMARK VINA RESULT:    -2.946      1.786      2.426
REMARK INTER + INTRA:          -3.637
REMARK INTER:                  -3.576
REMARK INTRA:                  -0.060
REMARK UNBOUND:                -0.174
REMARK SMILES O=C([O-])CCC(=O)[O-]
REMARK SMILES IDX 4 1 2 2 1 3 3 4 5 5 6 6 7 7 8 8
REMARK H PARENT
REMARK Flexibility Score: inf
ROOT
ATOM      1  C   UNL     1      -4.291 -48.624  19.235  1.00  0.00     0.059 C 
ENDROOT
BRANCH   1   2
ATOM      2  C   UNL     1      -4.832 -47.266  19.552  1.00  0.00     0.042 C 
ATOM      3  O   UNL     1      -4.759 -46.813  20.725  1.00  0.00    -0.550 OA
ATOM      4  O   UNL     1      -5.461 -46.520  18.564  1.00  0.00    -0.550 OA
ENDBRANCH   1   2
BRANCH   1   5
ATOM      5  C   UNL     1      -3.756 -48.666  17.803  1.00  0.00     0.059 C 
BRANCH   5   6
ATOM      6  C   UNL     1      -2.270 -48.484  17.793  1.00  0.00     0.042 C 
ATOM      7  O   UNL     1      -1.523 -49.401  17.361  1.00  0.00    -0.550 OA
ATOM      8  O   UNL     1      -1.708 -47.324  18.308  1.00  0.00    -0.550 OA
ENDBRANCH   5   6
ENDBRANCH   1   5
TORSDOF 3
ENDMDL
MODEL 7
REMARK VINA RESULT:    -2.940      1.187      1.846
REMARK INTER + INTRA:          -3.630
REMARK INTER:                  -3.510
REMARK INTRA:                  -0.120
REMARK UNBOUND:                -0.174
REMARK SMILES O=C([O-])CCC(=O)[O-]
REMARK SMILES IDX 4 1 2 2 1 3 3 4 5 5 6 6 7 7 8 8
REMARK H PARENT
REMARK Flexibility Score: inf
ROOT
ATOM      1  C   UNL     1      -2.552 -48.670  18.126  1.00  0.00     0.059 C 
ENDROOT
BRANCH   1   2
ATOM      2  C   UNL     1      -4.027 -48.703  18.377  1.00  0.00     0.042 C 
ATOM      3  O   UNL     1      -4.468 -48.808  19.552  1.00  0.00    -0.550 OA
ATOM      4  O   UNL     1      -4.915 -48.666  17.310  1.00  0.00    -0.550 OA
ENDBRANCH   1   2
BRANCH   1   5
ATOM      5  C   UNL     1      -2.017 -47.245  18.268  1.00  0.00     0.059 C 
BRANCH   5   6
ATOM      6  C   UNL     1      -1.885 -46.599  16.925  1.00  0.00     0.042 C 
ATOM      7  O   UNL     1      -1.935 -47.297  15.878  1.00  0.00    -0.550 OA
ATOM      8  O   UNL     1      -1.656 -45.232  16.830  1.00  0.00    -0.550 OA
ENDBRANCH   5   6
ENDBRANCH   1   5
TORSDOF 3
ENDMDL
MODEL 8
REMARK VINA RESULT:    -2.904      1.876      3.585
REMARK INTER + INTRA:          -3.587
REMARK INTER:                  -3.511
REMARK INTRA:                  -0.076
REMARK UNBOUND:                -0.174
REMARK SMILES O=C([O-])CCC(=O)[O-]
REMARK SMILES IDX 4 1 2 2 1 3 3 4 5 5 6 6 7 7 8 8
REMARK H PARENT
REMARK Flexibility Score: inf
ROOT
ATOM      1  C   UNL     1      -1.726 -46.642  18.604  1.00  0.00     0.059 C 
ENDROOT
BRANCH   1   2
ATOM      2  C   UNL     1      -2.341 -45.320  18.266  1.00  0.00     0.042 C 
ATOM      3  O   UNL     1      -2.731 -44.550  19.182  1.00  0.00    -0.550 OA
ATOM      4  O   UNL     1      -2.529 -44.961  16.938  1.00  0.00    -0.550 OA
ENDBRANCH   1   2
BRANCH   1   5
ATOM      5  C   UNL     1      -1.568 -47.497  17.346  1.00  0.00     0.059 C 
BRANCH   5   6
ATOM      6  C   UNL     1      -2.270 -48.808  17.510  1.00  0.00     0.042 C 
ATOM      7  O   UNL     1      -2.032 -49.757  16.719  1.00  0.00    -0.550 OA
ATOM      8  O   UNL     1      -3.225 -48.965  18.506  1.00  0.00    -0.550 OA
ENDBRANCH   5   6
ENDBRANCH   1   5
TORSDOF 3
ENDMDL
MODEL 9
REMARK VINA RESULT:    -2.900      1.910      2.711
REMARK INTER + INTRA:          -3.583
REMARK INTER:                  -3.504
REMARK INTRA:                  -0.078
REMARK UNBOUND:                -0.174
REMARK SMILES O=C([O-])CCC(=O)[O-]
REMARK SMILES IDX 4 1 2 2 1 3 3 4 5 5 6 6 7 7 8 8
REMARK H PARENT
REMARK Flexibility Score: inf
ROOT
ATOM      1  C   UNL     1      -1.671 -47.467  17.309  1.00  0.00     0.059 C 
ENDROOT
BRANCH   1   2
ATOM      2  C   UNL     1      -2.328 -48.794  17.529  1.00  0.00     0.042 C 
ATOM      3  O   UNL     1      -2.095 -49.753  16.747  1.00  0.00    -0.550 OA
ATOM      4  O   UNL     1      -3.234 -48.958  18.568  1.00  0.00    -0.550 OA
ENDBRANCH   1   2
BRANCH   1   5
ATOM      5  C   UNL     1      -1.726 -46.626  18.585  1.00  0.00     0.059 C 
BRANCH   5   6
ATOM      6  C   UNL     1      -2.390 -45.312  18.319  1.00  0.00     0.042 C 
ATOM      7  O   UNL     1      -2.626 -44.950  17.137  1.00  0.00    -0.550 OA
ATOM      8  O   UNL     1      -2.702 -44.464  19.374  1.00  0.00    -0.550 OA
ENDBRANCH   5   6
ENDBRANCH   1   5
TORSDOF 3
ENDMDL
