MODEL 1
REMARK VINA RESULT:    -0.386      0.000      0.000
REMARK INTER + INTRA:          -0.299
REMARK INTER:                  -0.589
REMARK INTRA:                   0.290
REMARK UNBOUND:                 0.290
REMARK SMILES O=C([O-])CCCCCCCCC(=O)[O-]
REMARK SMILES IDX 7 1 6 2 5 3 4 4 2 5 1 6 3 7 8 8 9 9 10 10 11 11 12 12 13 13
REMARK SMILES IDX 14 14
REMARK H PARENT
REMARK Flexibility Score: inf
ROOT
ATOM      1  C   UNL     1      10.646  16.770   1.170  1.00  0.00     0.000 C 
ENDROOT
BRANCH   1   2
ATOM      2  C   UNL     1       9.463  16.485   2.109  1.00  0.00     0.000 C 
BRANCH   2   3
ATOM      3  C   UNL     1       8.109  16.867   1.487  1.00  0.00     0.006 C 
BRANCH   3   4
ATOM      4  C   UNL     1       6.942  16.103   2.125  1.00  0.00     0.053 C 
BRANCH   4   5
ATOM      5  C   UNL     1       7.049  14.628   1.892  1.00  0.00     0.041 C 
ATOM      6  O   UNL     1       8.162  14.048   2.004  1.00  0.00    -0.550 OA
ATOM      7  O   UNL     1       5.929  13.899   1.515  1.00  0.00    -0.550 OA
ENDBRANCH   4   5
ENDBRANCH   3   4
ENDBRANCH   2   3
ENDBRANCH   1   2
BRANCH   1   8
ATOM      8  C   UNL     1      11.826  15.811   1.398  1.00  0.00     0.000 C 
BRANCH   8   9
ATOM      9  C   UNL     1      11.408  14.507   2.098  1.00  0.00     0.000 C 
BRANCH   9  10
ATOM     10  C   UNL     1      11.606  13.248   1.226  1.00  0.00     0.006 C 
BRANCH  10  11
ATOM     11  C   UNL     1      12.090  13.591  -0.189  1.00  0.00     0.053 C 
BRANCH  11  12
ATOM     12  C   UNL     1      10.926  13.765  -1.113  1.00  0.00     0.041 C 
ATOM     13  O   UNL     1      11.106  13.792  -2.359  1.00  0.00    -0.550 OA
ATOM     14  O   UNL     1       9.651  13.949  -0.597  1.00  0.00    -0.550 OA
ENDBRANCH  11  12
ENDBRANCH  10  11
ENDBRANCH   9  10
ENDBRANCH   8   9
ENDBRANCH   1   8
TORSDOF 9
ENDMDL
MODEL 2
REMARK VINA RESULT:     1.098      2.353      3.297
REMARK INTER + INTRA:           1.966
REMARK INTER:                   2.126
REMARK INTRA:                  -0.160
REMARK UNBOUND:                 0.290
REMARK SMILES O=C([O-])CCCCCCCCC(=O)[O-]
REMARK SMILES IDX 7 1 6 2 5 3 4 4 2 5 1 6 3 7 8 8 9 9 10 10 11 11 12 12 13 13
REMARK SMILES IDX 14 14
REMARK H PARENT
REMARK Flexibility Score: inf
ROOT
ATOM      1  C   UNL     1       9.323  14.567  -0.755  1.00  0.00     0.000 C 
ENDROOT
BRANCH   1   2
ATOM      2  C   UNL     1       8.161  13.917   0.012  1.00  0.00     0.000 C 
BRANCH   2   3
ATOM      3  C   UNL     1       8.298  14.073   1.536  1.00  0.00     0.006 C 
BRANCH   3   4
ATOM      4  C   UNL     1       7.297  15.085   2.107  1.00  0.00     0.053 C 
BRANCH   4   5
ATOM      5  C   UNL     1       7.785  16.494   1.957  1.00  0.00     0.041 C 
ATOM      6  O   UNL     1       6.978  17.415   1.660  1.00  0.00    -0.550 OA
ATOM      7  O   UNL     1       9.134  16.784   2.109  1.00  0.00    -0.550 OA
ENDBRANCH   4   5
ENDBRANCH   3   4
ENDBRANCH   2   3
ENDBRANCH   1   2
BRANCH   1   8
ATOM      8  C   UNL     1      10.425  13.561  -1.124  1.00  0.00     0.000 C 
BRANCH   8   9
ATOM      9  C   UNL     1      11.777  13.888  -0.468  1.00  0.00     0.000 C 
BRANCH   9  10
ATOM     10  C   UNL     1      12.126  12.963   0.718  1.00  0.00     0.006 C 
BRANCH  10  11
ATOM     11  C   UNL     1      11.881  13.639   2.073  1.00  0.00     0.053 C 
BRANCH  11  12
ATOM     12  C   UNL     1      12.424  15.032   2.070  1.00  0.00     0.041 C 
ATOM     13  O   UNL     1      13.667  15.228   2.125  1.00  0.00    -0.550 OA
ATOM     14  O   UNL     1      11.557  16.116   2.057  1.00  0.00    -0.550 OA
ENDBRANCH  11  12
ENDBRANCH  10  11
ENDBRANCH   9  10
ENDBRANCH   8   9
ENDBRANCH   1   8
TORSDOF 9
ENDMDL
MODEL 3
REMARK VINA RESULT:     2.161      2.057      3.258
REMARK INTER + INTRA:           3.588
REMARK INTER:                   2.989
REMARK INTRA:                   0.599
REMARK UNBOUND:                 0.290
REMARK SMILES O=C([O-])CCCCCCCCC(=O)[O-]
REMARK SMILES IDX 7 1 6 2 5 3 4 4 2 5 1 6 3 7 8 8 9 9 10 10 11 11 12 12 13 13
REMARK SMILES IDX 14 14
REMARK H PARENT
REMARK Flexibility Score: inf
ROOT
ATOM      1  C   UNL     1      11.056  13.587  -1.634  1.00  0.00     0.000 C 
ENDROOT
BRANCH   1   2
ATOM      2  C   UNL     1       9.774  14.430  -1.726  1.00  0.00     0.000 C 
BRANCH   2   3
ATOM      3  C   UNL     1       9.331  14.983  -0.360  1.00  0.00     0.006 C 
BRANCH   3   4
ATOM      4  C   UNL     1       8.603  13.928   0.483  1.00  0.00     0.053 C 
BRANCH   4   5
ATOM      5  C   UNL     1       7.590  14.549   1.396  1.00  0.00     0.041 C 
ATOM      6  O   UNL     1       7.893  15.559   2.084  1.00  0.00    -0.550 OA
ATOM      7  O   UNL     1       6.324  13.991   1.513  1.00  0.00    -0.550 OA
ENDBRANCH   4   5
ENDBRANCH   3   4
ENDBRANCH   2   3
ENDBRANCH   1   2
BRANCH   1   8
ATOM      8  C   UNL     1      11.233  12.930  -0.256  1.00  0.00     0.000 C 
BRANCH   8   9
ATOM      9  C   UNL     1      12.539  13.347   0.441  1.00  0.00     0.000 C 
BRANCH   9  10
ATOM     10  C   UNL     1      12.353  13.725   1.926  1.00  0.00     0.006 C 
BRANCH  10  11
ATOM     11  C   UNL     1      11.254  14.776   2.125  1.00  0.00     0.053 C 
BRANCH  11  12
ATOM     12  C   UNL     1      11.777  16.145   1.823  1.00  0.00     0.041 C 
ATOM     13  O   UNL     1      11.018  17.018   1.326  1.00  0.00    -0.550 OA
ATOM     14  O   UNL     1      13.115  16.442   2.045  1.00  0.00    -0.550 OA
ENDBRANCH  11  12
ENDBRANCH  10  11
ENDBRANCH   9  10
ENDBRANCH   8   9
ENDBRANCH   1   8
TORSDOF 9
ENDMDL
