MODEL 1
REMARK VINA RESULT:    20.773      0.000      0.000
REMARK INTER + INTRA:          31.980
REMARK INTER:                  31.703
REMARK INTRA:                   0.277
REMARK UNBOUND:                 0.277
REMARK SMILES CC1=CCC[C@H](C)C(=O)C[C@H](C(C)C)C(=O)C1
REMARK SMILES IDX 8 1 9 2 6 3 7 4 5 5 4 6 3 7 2 8 1 9 10 11 11 12 15 13 16 14
REMARK SMILES IDX 17 15 12 17 13 18 14 19
REMARK H PARENT
REMARK Flexibility Score: 70.00
ROOT
ATOM      1  C   UNL     1      34.125  13.934  40.386  1.00  0.00     0.136 C 
ATOM      2  O   UNL     1      33.247  13.595  39.604  1.00  0.00    -0.299 OA
ENDROOT
BRANCH   1   3
ATOM      3  C   UNL     1      34.510  13.009  41.523  1.00  0.00     0.053 C 
ATOM      4  C   UNL     1      33.990  11.598  41.228  1.00  0.00     0.016 C 
BRANCH   3   5
ATOM      5  C   UNL     1      36.040  12.974  41.759  1.00  0.00     0.015 C 
BRANCH   5   6
ATOM      6  C   UNL     1      36.552  14.073  42.703  1.00  0.00     0.028 C 
BRANCH   6   7
ATOM      7  C   UNL     1      35.507  14.459  43.723  1.00  0.00    -0.028 C 
ATOM      8  C   UNL     1      34.874  15.653  43.771  1.00  0.00    -0.070 CG0
ATOM      9  C   UNL     1      33.868  15.878  44.872  1.00  0.00     0.039 C 
ATOM     10  G   UNL     1      35.137  16.767  42.774  1.00  0.00     0.000 G0
ENDBRANCH   6   7
ENDBRANCH   5   6
ENDBRANCH   3   5
ENDBRANCH   1   3
BRANCH   1  11
ATOM     11  C   UNL     1      34.768  15.291  40.224  1.00  0.00     0.087 C 
BRANCH  11  12
ATOM     12  C   UNL     1      33.783  16.469  40.440  1.00  0.00     0.066 C 
BRANCH  12  13
ATOM     13  C   UNL     1      33.914  17.060  41.842  1.00  0.00     0.140 C 
ATOM     14  O   UNL     1      33.015  17.767  42.273  1.00  0.00    -0.299 OA
BRANCH  13  15
ATOM     15  C   UNL     1      35.091  16.773  42.752  1.00  0.00     0.106 CG0
ATOM     16  G   UNL     1      34.841  15.673  43.769  1.00  0.00     0.000 G0
ENDBRANCH  13  15
ENDBRANCH  12  13
BRANCH  12  17
ATOM     17  C   UNL     1      33.924  17.546  39.320  1.00  0.00    -0.006 C 
ATOM     18  C   UNL     1      34.910  18.680  39.653  1.00  0.00     0.008 C 
ATOM     19  C   UNL     1      32.560  18.141  38.939  1.00  0.00     0.008 C 
ENDBRANCH  12  17
ENDBRANCH  11  12
ENDBRANCH   1  11
TORSDOF 1
ENDMDL
MODEL 2
REMARK VINA RESULT:    21.732      1.892      4.739
REMARK INTER + INTRA:          33.443
REMARK INTER:                  32.760
REMARK INTRA:                   0.684
REMARK UNBOUND:                 0.277
REMARK SMILES CC1=CCC[C@H](C)C(=O)C[C@H](C(C)C)C(=O)C1
REMARK SMILES IDX 8 1 9 2 6 3 7 4 5 5 4 6 3 7 2 8 1 9 10 11 11 12 15 13 16 14
REMARK SMILES IDX 17 15 12 17 13 18 14 19
REMARK H PARENT
REMARK Flexibility Score: 70.00
ROOT
ATOM      1  C   UNL     1      35.851  13.629  42.715  1.00  0.00     0.136 C 
ATOM      2  O   UNL     1      36.817  14.027  42.079  1.00  0.00    -0.299 OA
ENDROOT
BRANCH   1   3
ATOM      3  C   UNL     1      35.421  14.372  43.964  1.00  0.00     0.053 C 
ATOM      4  C   UNL     1      36.407  14.073  45.097  1.00  0.00     0.016 C 
BRANCH   3   5
ATOM      5  C   UNL     1      35.322  15.900  43.732  1.00  0.00     0.015 C 
BRANCH   5   6
ATOM      6  C   UNL     1      34.025  16.344  43.037  1.00  0.00     0.028 C 
BRANCH   6   7
ATOM      7  C   UNL     1      34.307  17.019  41.716  1.00  0.00    -0.028 C 
ATOM      8  C   UNL     1      34.085  16.469  40.500  1.00  0.00    -0.070 CG0
ATOM      9  C   UNL     1      34.444  17.279  39.280  1.00  0.00     0.039 C 
ATOM     10  G   UNL     1      33.501  15.080  40.318  1.00  0.00     0.000 G0
ENDBRANCH   6   7
ENDBRANCH   5   6
ENDBRANCH   3   5
ENDBRANCH   1   3
BRANCH   1  11
ATOM     11  C   UNL     1      35.142  12.374  42.263  1.00  0.00     0.087 C 
BRANCH  11  12
ATOM     12  C   UNL     1      34.052  12.633  41.192  1.00  0.00     0.066 C 
BRANCH  12  13
ATOM     13  C   UNL     1      34.364  13.877  40.364  1.00  0.00     0.140 C 
ATOM     14  O   UNL     1      35.383  13.901  39.690  1.00  0.00    -0.299 OA
BRANCH  13  15
ATOM     15  C   UNL     1      33.441  15.078  40.298  1.00  0.00     0.106 CG0
ATOM     16  G   UNL     1      34.140  16.413  40.477  1.00  0.00     0.000 G0
ENDBRANCH  13  15
ENDBRANCH  12  13
BRANCH  12  17
ATOM     17  C   UNL     1      33.805  11.371  40.308  1.00  0.00    -0.006 C 
ATOM     18  C   UNL     1      32.411  10.741  40.482  1.00  0.00     0.008 C 
ATOM     19  C   UNL     1      34.887  10.306  40.538  1.00  0.00     0.008 C 
ENDBRANCH  12  17
ENDBRANCH  11  12
ENDBRANCH   1  11
TORSDOF 1
ENDMDL
MODEL 3
REMARK VINA RESULT:    22.535      1.997      4.001
REMARK INTER + INTRA:          34.669
REMARK INTER:                  33.155
REMARK INTRA:                   1.514
REMARK UNBOUND:                 0.277
REMARK SMILES CC1=CCC[C@H](C)C(=O)C[C@H](C(C)C)C(=O)C1
REMARK SMILES IDX 8 1 9 2 6 3 7 4 5 5 4 6 3 7 2 8 1 9 10 11 11 12 15 13 16 14
REMARK SMILES IDX 17 15 12 17 13 18 14 19
REMARK H PARENT
REMARK Flexibility Score: 70.00
ROOT
ATOM      1  C   UNL     1      35.318  15.571  43.411  1.00  0.00     0.136 C 
ATOM      2  O   UNL     1      35.382  16.661  43.962  1.00  0.00    -0.299 OA
ENDROOT
BRANCH   1   3
ATOM      3  C   UNL     1      36.407  14.546  43.657  1.00  0.00     0.053 C 
ATOM      4  C   UNL     1      36.568  14.327  45.165  1.00  0.00     0.016 C 
BRANCH   3   5
ATOM      5  C   UNL     1      36.115  13.199  42.951  1.00  0.00     0.015 C 
BRANCH   5   6
ATOM      6  C   UNL     1      34.652  12.740  43.059  1.00  0.00     0.028 C 
BRANCH   6   7
ATOM      7  C   UNL     1      34.333  11.665  42.048  1.00  0.00    -0.028 C 
ATOM      8  C   UNL     1      33.711  11.872  40.865  1.00  0.00    -0.070 CG0
ATOM      9  C   UNL     1      33.453  10.677  39.981  1.00  0.00     0.039 C 
ATOM     10  G   UNL     1      33.263  13.245  40.398  1.00  0.00     0.000 G0
ENDBRANCH   6   7
ENDBRANCH   5   6
ENDBRANCH   3   5
ENDBRANCH   1   3
BRANCH   1  11
ATOM     11  C   UNL     1      34.178  15.295  42.460  1.00  0.00     0.087 C 
BRANCH  11  12
ATOM     12  C   UNL     1      34.546  15.526  40.972  1.00  0.00     0.066 C 
BRANCH  12  13
ATOM     13  C   UNL     1      34.374  14.253  40.147  1.00  0.00     0.140 C 
ATOM     14  O   UNL     1      35.195  13.994  39.278  1.00  0.00    -0.299 OA
BRANCH  13  15
ATOM     15  C   UNL     1      33.254  13.261  40.384  1.00  0.00     0.106 CG0
ATOM     16  G   UNL     1      33.718  11.899  40.868  1.00  0.00     0.000 G0
ENDBRANCH  13  15
ENDBRANCH  12  13
BRANCH  12  17
ATOM     17  C   UNL     1      33.770  16.740  40.372  1.00  0.00    -0.006 C 
ATOM     18  C   UNL     1      34.514  17.465  39.235  1.00  0.00     0.008 C 
ATOM     19  C   UNL     1      33.378  17.749  41.461  1.00  0.00     0.008 C 
ENDBRANCH  12  17
ENDBRANCH  11  12
ENDBRANCH   1  11
TORSDOF 1
ENDMDL
MODEL 4
REMARK VINA RESULT:    23.242      3.524      5.445
REMARK INTER + INTRA:          35.748
REMARK INTER:                  34.226
REMARK INTRA:                   1.522
REMARK UNBOUND:                 0.277
REMARK SMILES CC1=CCC[C@H](C)C(=O)C[C@H](C(C)C)C(=O)C1
REMARK SMILES IDX 8 1 9 2 6 3 7 4 5 5 4 6 3 7 2 8 1 9 10 11 11 12 15 13 16 14
REMARK SMILES IDX 17 15 12 17 13 18 14 19
REMARK H PARENT
REMARK Flexibility Score: 70.00
ROOT
ATOM      1  C   UNL     1      32.864  11.918  42.462  1.00  0.00     0.136 C 
ATOM      2  O   UNL     1      32.112  12.877  42.563  1.00  0.00    -0.299 OA
ENDROOT
BRANCH   1   3
ATOM      3  C   UNL     1      32.401  10.681  41.719  1.00  0.00     0.053 C 
ATOM      4  C   UNL     1      31.078  10.194  42.320  1.00  0.00     0.016 C 
BRANCH   3   5
ATOM      5  C   UNL     1      32.235  10.936  40.201  1.00  0.00     0.015 C 
BRANCH   5   6
ATOM      6  C   UNL     1      32.922   9.888  39.312  1.00  0.00     0.028 C 
BRANCH   6   7
ATOM      7  C   UNL     1      34.193   9.371  39.945  1.00  0.00    -0.028 C 
ATOM      8  C   UNL     1      35.313  10.102  40.145  1.00  0.00    -0.070 CG0
ATOM      9  C   UNL     1      36.501   9.419  40.776  1.00  0.00     0.039 C 
ATOM     10  G   UNL     1      35.423  11.565  39.758  1.00  0.00     0.000 G0
ENDBRANCH   6   7
ENDBRANCH   5   6
ENDBRANCH   3   5
ENDBRANCH   1   3
BRANCH   1  11
ATOM     11  C   UNL     1      34.220  11.976  43.125  1.00  0.00     0.087 C 
BRANCH  11  12
ATOM     12  C   UNL     1      35.317  12.611  42.232  1.00  0.00     0.066 C 
BRANCH  12  13
ATOM     13  C   UNL     1      34.919  12.594  40.759  1.00  0.00     0.140 C 
ATOM     14  O   UNL     1      34.156  13.454  40.341  1.00  0.00    -0.299 OA
BRANCH  13  15
ATOM     15  C   UNL     1      35.465  11.586  39.768  1.00  0.00     0.106 CG0
ATOM     16  G   UNL     1      35.287  10.138  40.188  1.00  0.00     0.000 G0
ENDBRANCH  13  15
ENDBRANCH  12  13
BRANCH  12  17
ATOM     17  C   UNL     1      35.708  14.036  42.733  1.00  0.00    -0.006 C 
ATOM     18  C   UNL     1      36.994  14.078  43.578  1.00  0.00     0.008 C 
ATOM     19  C   UNL     1      34.557  14.694  43.508  1.00  0.00     0.008 C 
ENDBRANCH  12  17
ENDBRANCH  11  12
ENDBRANCH   1  11
TORSDOF 1
ENDMDL
MODEL 5
REMARK VINA RESULT:    23.481      2.926      4.836
REMARK INTER + INTRA:          36.113
REMARK INTER:                  33.344
REMARK INTRA:                   2.769
REMARK UNBOUND:                 0.277
REMARK SMILES CC1=CCC[C@H](C)C(=O)C[C@H](C(C)C)C(=O)C1
REMARK SMILES IDX 8 1 9 2 6 3 7 4 5 5 4 6 3 7 2 8 1 9 10 11 11 12 15 13 16 14
REMARK SMILES IDX 17 15 12 17 13 18 14 19
REMARK H PARENT
REMARK Flexibility Score: 70.00
ROOT
ATOM      1  C   UNL     1      35.672  10.832  40.532  1.00  0.00     0.136 C 
ATOM      2  O   UNL     1      36.174  11.482  39.624  1.00  0.00    -0.299 OA
ENDROOT
BRANCH   1   3
ATOM      3  C   UNL     1      35.559   9.327  40.399  1.00  0.00     0.053 C 
ATOM      4  C   UNL     1      36.222   8.660  41.608  1.00  0.00     0.016 C 
BRANCH   3   5
ATOM      5  C   UNL     1      34.090   8.858  40.270  1.00  0.00     0.015 C 
BRANCH   5   6
ATOM      6  C   UNL     1      33.126   9.948  39.774  1.00  0.00     0.028 C 
BRANCH   6   7
ATOM      7  C   UNL     1      32.418  10.626  40.923  1.00  0.00    -0.028 C 
ATOM      8  C   UNL     1      32.389  11.961  41.137  1.00  0.00    -0.070 CG0
ATOM      9  C   UNL     1      31.648  12.468  42.349  1.00  0.00     0.039 C 
ATOM     10  G   UNL     1      33.072  12.959  40.219  1.00  0.00     0.000 G0
ENDBRANCH   6   7
ENDBRANCH   5   6
ENDBRANCH   3   5
ENDBRANCH   1   3
BRANCH   1  11
ATOM     11  C   UNL     1      35.133  11.559  41.741  1.00  0.00     0.087 C 
BRANCH  11  12
ATOM     12  C   UNL     1      35.280  13.099  41.652  1.00  0.00     0.066 C 
BRANCH  12  13
ATOM     13  C   UNL     1      34.246  13.708  40.709  1.00  0.00     0.140 C 
ATOM     14  O   UNL     1      34.397  14.860  40.327  1.00  0.00    -0.299 OA
BRANCH  13  15
ATOM     15  C   UNL     1      33.056  12.934  40.178  1.00  0.00     0.106 CG0
ATOM     16  G   UNL     1      32.440  11.972  41.178  1.00  0.00     0.000 G0
ENDBRANCH  13  15
ENDBRANCH  12  13
BRANCH  12  17
ATOM     17  C   UNL     1      35.263  13.759  43.067  1.00  0.00    -0.006 C 
ATOM     18  C   UNL     1      34.575  15.135  43.114  1.00  0.00     0.008 C 
ATOM     19  C   UNL     1      36.680  13.867  43.651  1.00  0.00     0.008 C 
ENDBRANCH  12  17
ENDBRANCH  11  12
ENDBRANCH   1  11
TORSDOF 1
ENDMDL
MODEL 6
REMARK VINA RESULT:    23.552      3.774      6.171
REMARK INTER + INTRA:          36.221
REMARK INTER:                  33.801
REMARK INTRA:                   2.420
REMARK UNBOUND:                 0.277
REMARK SMILES CC1=CCC[C@H](C)C(=O)C[C@H](C(C)C)C(=O)C1
REMARK SMILES IDX 8 1 9 2 6 3 7 4 5 5 4 6 3 7 2 8 1 9 10 11 11 12 15 13 16 14
REMARK SMILES IDX 17 15 12 17 13 18 14 19
REMARK H PARENT
REMARK Flexibility Score: 70.00
ROOT
ATOM      1  C   UNL     1      34.737  13.457  40.737  1.00  0.00     0.136 C 
ATOM      2  O   UNL     1      33.992  14.425  40.688  1.00  0.00    -0.299 OA
ENDROOT
BRANCH   1   3
ATOM      3  C   UNL     1      36.054  13.565  41.480  1.00  0.00     0.053 C 
ATOM      4  C   UNL     1      35.786  13.972  42.932  1.00  0.00     0.016 C 
BRANCH   3   5
ATOM      5  C   UNL     1      36.862  12.244  41.437  1.00  0.00     0.015 C 
BRANCH   5   6
ATOM      6  C   UNL     1      36.416  11.274  40.332  1.00  0.00     0.028 C 
BRANCH   6   7
ATOM      7  C   UNL     1      36.305   9.859  40.849  1.00  0.00    -0.028 C 
ATOM      8  C   UNL     1      35.315   8.993  40.536  1.00  0.00    -0.070 CG0
ATOM      9  C   UNL     1      35.350   7.620  41.159  1.00  0.00     0.039 C 
ATOM     10  G   UNL     1      34.177   9.347  39.595  1.00  0.00     0.000 G0
ENDBRANCH   6   7
ENDBRANCH   5   6
ENDBRANCH   3   5
ENDBRANCH   1   3
BRANCH   1  11
ATOM     11  C   UNL     1      34.344  12.191  40.011  1.00  0.00     0.087 C 
BRANCH  11  12
ATOM     12  C   UNL     1      33.069  11.522  40.584  1.00  0.00     0.066 C 
BRANCH  12  13
ATOM     13  C   UNL     1      32.991  10.046  40.205  1.00  0.00     0.140 C 
ATOM     14  O   UNL     1      31.935   9.449  40.360  1.00  0.00    -0.299 OA
BRANCH  13  15
ATOM     15  C   UNL     1      34.152   9.288  39.595  1.00  0.00     0.106 CG0
ATOM     16  G   UNL     1      35.308   9.043  40.548  1.00  0.00     0.000 G0
ENDBRANCH  13  15
ENDBRANCH  12  13
BRANCH  12  17
ATOM     17  C   UNL     1      32.942  11.755  42.122  1.00  0.00    -0.006 C 
ATOM     18  C   UNL     1      33.838  10.839  42.976  1.00  0.00     0.008 C 
ATOM     19  C   UNL     1      31.483  11.633  42.589  1.00  0.00     0.008 C 
ENDBRANCH  12  17
ENDBRANCH  11  12
ENDBRANCH   1  11
TORSDOF 1
ENDMDL
MODEL 7
REMARK VINA RESULT:    23.642      1.503      3.467
REMARK INTER + INTRA:          36.358
REMARK INTER:                  36.710
REMARK INTRA:                  -0.352
REMARK UNBOUND:                 0.277
REMARK SMILES CC1=CCC[C@H](C)C(=O)C[C@H](C(C)C)C(=O)C1
REMARK SMILES IDX 8 1 9 2 6 3 7 4 5 5 4 6 3 7 2 8 1 9 10 11 11 12 15 13 16 14
REMARK SMILES IDX 17 15 12 17 13 18 14 19
REMARK H PARENT
REMARK Flexibility Score: 70.00
ROOT
ATOM      1  C   UNL     1      33.896  16.543  43.078  1.00  0.00     0.136 C 
ATOM      2  O   UNL     1      33.135  16.223  43.981  1.00  0.00    -0.299 OA
ENDROOT
BRANCH   1   3
ATOM      3  C   UNL     1      35.375  16.696  43.367  1.00  0.00     0.053 C 
ATOM      4  C   UNL     1      35.608  17.993  44.149  1.00  0.00     0.016 C 
BRANCH   3   5
ATOM      5  C   UNL     1      35.948  15.490  44.150  1.00  0.00     0.015 C 
BRANCH   5   6
ATOM      6  C   UNL     1      36.477  14.358  43.257  1.00  0.00     0.028 C 
BRANCH   6   7
ATOM      7  C   UNL     1      35.411  13.325  42.981  1.00  0.00    -0.028 C 
ATOM      8  C   UNL     1      34.827  13.112  41.780  1.00  0.00    -0.070 CG0
ATOM      9  C   UNL     1      33.762  12.049  41.687  1.00  0.00     0.039 C 
ATOM     10  G   UNL     1      35.194  13.899  40.534  1.00  0.00     0.000 G0
ENDBRANCH   6   7
ENDBRANCH   5   6
ENDBRANCH   3   5
ENDBRANCH   1   3
BRANCH   1  11
ATOM     11  C   UNL     1      33.328  16.825  41.706  1.00  0.00     0.087 C 
BRANCH  11  12
ATOM     12  C   UNL     1      34.295  16.458  40.551  1.00  0.00     0.066 C 
BRANCH  12  13
ATOM     13  C   UNL     1      34.166  14.989  40.157  1.00  0.00     0.140 C 
ATOM     14  O   UNL     1      33.213  14.639  39.476  1.00  0.00    -0.299 OA
BRANCH  13  15
ATOM     15  C   UNL     1      35.194  13.940  40.531  1.00  0.00     0.106 CG0
ATOM     16  G   UNL     1      34.839  13.128  41.763  1.00  0.00     0.000 G0
ENDBRANCH  13  15
ENDBRANCH  12  13
BRANCH  12  17
ATOM     17  C   UNL     1      34.128  17.422  39.336  1.00  0.00    -0.006 C 
ATOM     18  C   UNL     1      35.196  18.528  39.255  1.00  0.00     0.008 C 
ATOM     19  C   UNL     1      32.727  18.052  39.309  1.00  0.00     0.008 C 
ENDBRANCH  12  17
ENDBRANCH  11  12
ENDBRANCH   1  11
TORSDOF 1
ENDMDL
