MODEL 1
REMARK VINA RESULT:    -3.723      0.000      0.000
REMARK INTER + INTRA:          -7.862
REMARK INTER:                  -5.790
REMARK INTRA:                  -2.071
REMARK UNBOUND:                -2.071
REMARK SMILES COc1cc(CNC(=O)CCCCC=CC(C)C)ccc1O
REMARK SMILES IDX 11 1 12 2 13 3 14 4 15 5 16 6 17 7 18 8 10 9 8 10 9 11 7 12
REMARK SMILES IDX 6 14 5 15 4 16 19 17 3 18 20 19 21 20 2 21 1 22 22 23
REMARK H PARENT 7 13 22 24
REMARK Flexibility Score: inf
ROOT
ATOM      1  C   UNL     1     104.592  80.276  17.386  1.00  0.00     0.010 C 
ENDROOT
BRANCH   1   2
ATOM      2  C   UNL     1     106.038  80.698  17.106  1.00  0.00     0.005 C 
BRANCH   2   3
ATOM      3  C   UNL     1     106.400  81.968  17.887  1.00  0.00     0.027 C 
BRANCH   3   4
ATOM      4  C   UNL     1     105.463  82.188  19.043  1.00  0.00    -0.031 C 
ATOM      5  C   UNL     1     105.873  82.067  20.316  1.00  0.00    -0.028 C 
BRANCH   5   6
ATOM      6  C   UNL     1     104.918  82.254  21.470  1.00  0.00     0.005 C 
ATOM      7  C   UNL     1     103.467  82.184  20.981  1.00  0.00     0.012 C 
ATOM      8  C   UNL     1     105.183  83.592  22.170  1.00  0.00     0.012 C 
ENDBRANCH   5   6
ENDBRANCH   3   4
ENDBRANCH   2   3
ENDBRANCH   1   2
BRANCH   1   9
ATOM      9  C   UNL     1     103.696  80.542  16.172  1.00  0.00     0.100 C 
BRANCH   9  10
ATOM     10  C   UNL     1     103.343  81.995  16.089  1.00  0.00     0.220 C 
ATOM     11  O   UNL     1     103.860  82.708  15.187  1.00  0.00    -0.275 OA
ATOM     12  N   UNL     1     102.395  82.560  17.006  1.00  0.00    -0.352 N 
ATOM     13  H   UNL     1     101.945  81.939  17.715  1.00  0.00     0.163 HD
BRANCH  12  14
ATOM     14  C   UNL     1     101.980  83.960  16.946  1.00  0.00     0.151 C 
BRANCH  14  15
ATOM     15  C   UNL     1     102.675  84.763  18.014  1.00  0.00    -0.025 A 
ATOM     16  C   UNL     1     102.029  85.047  19.227  1.00  0.00     0.056 A 
ATOM     17  C   UNL     1     103.971  85.251  17.791  1.00  0.00     0.009 A 
ATOM     18  C   UNL     1     102.676  85.809  20.221  1.00  0.00     0.160 A 
ATOM     19  C   UNL     1     104.616  86.008  18.770  1.00  0.00     0.050 A 
ATOM     20  C   UNL     1     103.973  86.289  19.984  1.00  0.00     0.157 A 
BRANCH  18  21
ATOM     21  O   UNL     1     102.065  86.111  21.449  1.00  0.00    -0.493 OA
ATOM     22  C   UNL     1     100.776  86.698  21.589  1.00  0.00     0.278 C 
ENDBRANCH  18  21
BRANCH  20  23
ATOM     23  O   UNL     1     104.616  87.047  20.961  1.00  0.00    -0.504 OA
ATOM     24  H   UNL     1     105.349  86.654  21.541  1.00  0.00     0.293 HD
ENDBRANCH  20  23
ENDBRANCH  14  15
ENDBRANCH  12  14
ENDBRANCH   9  10
ENDBRANCH   1   9
TORSDOF 10
ENDMDL
MODEL 2
REMARK VINA RESULT:    -3.720      3.813      6.653
REMARK INTER + INTRA:          -7.858
REMARK INTER:                  -5.720
REMARK INTRA:                  -2.138
REMARK UNBOUND:                -2.071
REMARK SMILES COc1cc(CNC(=O)CCCCC=CC(C)C)ccc1O
REMARK SMILES IDX 11 1 12 2 13 3 14 4 15 5 16 6 17 7 18 8 10 9 8 10 9 11 7 12
REMARK SMILES IDX 6 14 5 15 4 16 19 17 3 18 20 19 21 20 2 21 1 22 22 23
REMARK H PARENT 7 13 22 24
REMARK Flexibility Score: inf
ROOT
ATOM      1  C   UNL     1     104.256  82.849  26.117  1.00  0.00     0.010 C 
ENDROOT
BRANCH   1   2
ATOM      2  C   UNL     1     104.786  81.433  25.863  1.00  0.00     0.005 C 
BRANCH   2   3
ATOM      3  C   UNL     1     104.942  81.167  24.360  1.00  0.00     0.027 C 
BRANCH   3   4
ATOM      4  C   UNL     1     104.532  82.363  23.545  1.00  0.00    -0.031 C 
ATOM      5  C   UNL     1     105.286  82.816  22.531  1.00  0.00    -0.028 C 
BRANCH   5   6
ATOM      6  C   UNL     1     104.885  84.039  21.739  1.00  0.00     0.005 C 
ATOM      7  C   UNL     1     103.566  84.610  22.270  1.00  0.00     0.012 C 
ATOM      8  C   UNL     1     104.758  83.692  20.251  1.00  0.00     0.012 C 
ENDBRANCH   5   6
ENDBRANCH   3   4
ENDBRANCH   2   3
ENDBRANCH   1   2
BRANCH   1   9
ATOM      9  C   UNL     1     102.979  82.815  26.961  1.00  0.00     0.100 C 
BRANCH   9  10
ATOM     10  C   UNL     1     101.770  82.736  26.081  1.00  0.00     0.220 C 
ATOM     11  O   UNL     1     101.092  83.776  25.863  1.00  0.00    -0.275 OA
ATOM     12  N   UNL     1     101.410  81.492  25.462  1.00  0.00    -0.352 N 
ATOM     13  H   UNL     1     102.014  80.654  25.620  1.00  0.00     0.163 HD
BRANCH  12  14
ATOM     14  C   UNL     1     100.267  81.364  24.560  1.00  0.00     0.151 C 
BRANCH  14  15
ATOM     15  C   UNL     1     100.698  81.562  23.130  1.00  0.00    -0.025 A 
ATOM     16  C   UNL     1     100.251  82.673  22.398  1.00  0.00     0.056 A 
ATOM     17  C   UNL     1     101.535  80.620  22.514  1.00  0.00     0.009 A 
ATOM     18  C   UNL     1     100.646  82.851  21.056  1.00  0.00     0.160 A 
ATOM     19  C   UNL     1     101.927  80.790  21.186  1.00  0.00     0.050 A 
ATOM     20  C   UNL     1     101.485  81.901  20.455  1.00  0.00     0.157 A 
BRANCH  18  21
ATOM     21  O   UNL     1     100.224  83.951  20.292  1.00  0.00    -0.493 OA
ATOM     22  C   UNL     1     100.054  85.270  20.798  1.00  0.00     0.278 C 
ENDBRANCH  18  21
BRANCH  20  23
ATOM     23  O   UNL     1     101.875  82.069  19.127  1.00  0.00    -0.504 OA
ATOM     24  H   UNL     1     101.802  81.316  18.453  1.00  0.00     0.293 HD
ENDBRANCH  20  23
ENDBRANCH  14  15
ENDBRANCH  12  14
ENDBRANCH   9  10
ENDBRANCH   1   9
TORSDOF 10
ENDMDL
MODEL 3
REMARK VINA RESULT:    -3.712     11.546     13.460
REMARK INTER + INTRA:          -7.846
REMARK INTER:                  -7.288
REMARK INTRA:                  -0.558
REMARK UNBOUND:                -2.071
REMARK SMILES COc1cc(CNC(=O)CCCCC=CC(C)C)ccc1O
REMARK SMILES IDX 11 1 12 2 13 3 14 4 15 5 16 6 17 7 18 8 10 9 8 10 9 11 7 12
REMARK SMILES IDX 6 14 5 15 4 16 19 17 3 18 20 19 21 20 2 21 1 22 22 23
REMARK H PARENT 7 13 22 24
REMARK Flexibility Score: inf
ROOT
ATOM      1  C   UNL     1     114.737  94.146  20.046  1.00  0.00     0.010 C 
ENDROOT
BRANCH   1   2
ATOM      2  C   UNL     1     113.822  93.062  19.466  1.00  0.00     0.005 C 
BRANCH   2   3
ATOM      3  C   UNL     1     114.559  91.722  19.357  1.00  0.00     0.027 C 
BRANCH   3   4
ATOM      4  C   UNL     1     114.012  90.883  18.234  1.00  0.00    -0.031 C 
ATOM      5  C   UNL     1     114.344  89.590  18.095  1.00  0.00    -0.028 C 
BRANCH   5   6
ATOM      6  C   UNL     1     113.819  88.763  16.945  1.00  0.00     0.005 C 
ATOM      7  C   UNL     1     114.974  88.282  16.060  1.00  0.00     0.012 C 
ATOM      8  C   UNL     1     112.814  89.575  16.120  1.00  0.00     0.012 C 
ENDBRANCH   5   6
ENDBRANCH   3   4
ENDBRANCH   2   3
ENDBRANCH   1   2
BRANCH   1   9
ATOM      9  C   UNL     1     114.319  94.514  21.472  1.00  0.00     0.100 C 
BRANCH   9  10
ATOM     10  C   UNL     1     112.992  95.212  21.466  1.00  0.00     0.220 C 
ATOM     11  O   UNL     1     112.811  96.192  20.695  1.00  0.00    -0.275 OA
ATOM     12  N   UNL     1     111.927  94.741  22.304  1.00  0.00    -0.352 N 
ATOM     13  H   UNL     1     112.087  93.898  22.900  1.00  0.00     0.163 HD
BRANCH  12  14
ATOM     14  C   UNL     1     110.600  95.354  22.308  1.00  0.00     0.151 C 
BRANCH  14  15
ATOM     15  C   UNL     1     109.707  94.674  23.313  1.00  0.00    -0.025 A 
ATOM     16  C   UNL     1     108.479  95.246  23.678  1.00  0.00     0.056 A 
ATOM     17  C   UNL     1     110.111  93.469  23.907  1.00  0.00     0.009 A 
ATOM     18  C   UNL     1     107.649  94.615  24.627  1.00  0.00     0.160 A 
ATOM     19  C   UNL     1     109.295  92.841  24.849  1.00  0.00     0.050 A 
ATOM     20  C   UNL     1     108.067  93.410  25.210  1.00  0.00     0.157 A 
BRANCH  18  21
ATOM     21  O   UNL     1     106.411  95.153  25.014  1.00  0.00    -0.493 OA
ATOM     22  C   UNL     1     106.203  96.507  25.400  1.00  0.00     0.278 C 
ENDBRANCH  18  21
BRANCH  20  23
ATOM     23  O   UNL     1     107.253  92.783  26.153  1.00  0.00    -0.504 OA
ATOM     24  H   UNL     1     106.592  93.307  26.716  1.00  0.00     0.293 HD
ENDBRANCH  20  23
ENDBRANCH  14  15
ENDBRANCH  12  14
ENDBRANCH   9  10
ENDBRANCH   1   9
TORSDOF 10
ENDMDL
MODEL 4
REMARK VINA RESULT:    -3.698      3.448      6.229
REMARK INTER + INTRA:          -7.823
REMARK INTER:                  -6.957
REMARK INTRA:                  -0.866
REMARK UNBOUND:                -2.071
REMARK SMILES COc1cc(CNC(=O)CCCCC=CC(C)C)ccc1O
REMARK SMILES IDX 11 1 12 2 13 3 14 4 15 5 16 6 17 7 18 8 10 9 8 10 9 11 7 12
REMARK SMILES IDX 6 14 5 15 4 16 19 17 3 18 20 19 21 20 2 21 1 22 22 23
REMARK H PARENT 7 13 22 24
REMARK Flexibility Score: inf
ROOT
ATOM      1  C   UNL     1     105.614  82.862  21.869  1.00  0.00     0.010 C 
ENDROOT
BRANCH   1   2
ATOM      2  C   UNL     1     104.812  83.387  23.065  1.00  0.00     0.005 C 
BRANCH   2   3
ATOM      3  C   UNL     1     103.750  82.369  23.501  1.00  0.00     0.027 C 
BRANCH   3   4
ATOM      4  C   UNL     1     103.634  82.304  25.000  1.00  0.00    -0.031 C 
ATOM      5  C   UNL     1     104.529  82.903  25.802  1.00  0.00    -0.028 C 
BRANCH   5   6
ATOM      6  C   UNL     1     104.426  82.804  27.305  1.00  0.00     0.005 C 
ATOM      7  C   UNL     1     103.195  83.566  27.809  1.00  0.00     0.012 C 
ATOM      8  C   UNL     1     105.699  83.349  27.964  1.00  0.00     0.012 C 
ENDBRANCH   5   6
ENDBRANCH   3   4
ENDBRANCH   2   3
ENDBRANCH   1   2
BRANCH   1   9
ATOM      9  C   UNL     1     106.119  81.440  22.126  1.00  0.00     0.100 C 
BRANCH   9  10
ATOM     10  C   UNL     1     106.169  80.662  20.846  1.00  0.00     0.220 C 
ATOM     11  O   UNL     1     105.226  79.875  20.561  1.00  0.00    -0.275 OA
ATOM     12  N   UNL     1     107.264  80.841  19.936  1.00  0.00    -0.352 N 
ATOM     13  H   UNL     1     108.010  81.532  20.172  1.00  0.00     0.163 HD
BRANCH  12  14
ATOM     14  C   UNL     1     107.344  80.142  18.655  1.00  0.00     0.151 C 
BRANCH  14  15
ATOM     15  C   UNL     1     106.468  80.815  17.631  1.00  0.00    -0.025 A 
ATOM     16  C   UNL     1     106.390  82.215  17.568  1.00  0.00     0.056 A 
ATOM     17  C   UNL     1     105.706  80.040  16.744  1.00  0.00     0.009 A 
ATOM     18  C   UNL     1     105.560  82.842  16.616  1.00  0.00     0.160 A 
ATOM     19  C   UNL     1     104.881  80.655  15.802  1.00  0.00     0.050 A 
ATOM     20  C   UNL     1     104.805  82.053  15.736  1.00  0.00     0.157 A 
BRANCH  18  21
ATOM     21  O   UNL     1     105.458  84.240  16.519  1.00  0.00    -0.493 OA
ATOM     22  C   UNL     1     106.404  85.076  15.863  1.00  0.00     0.278 C 
ENDBRANCH  18  21
BRANCH  20  23
ATOM     23  O   UNL     1     103.979  82.668  14.796  1.00  0.00    -0.504 OA
ATOM     24  H   UNL     1     103.432  82.128  14.135  1.00  0.00     0.293 HD
ENDBRANCH  20  23
ENDBRANCH  14  15
ENDBRANCH  12  14
ENDBRANCH   9  10
ENDBRANCH   1   9
TORSDOF 10
ENDMDL
MODEL 5
REMARK VINA RESULT:    -3.674      2.331      3.130
REMARK INTER + INTRA:          -7.786
REMARK INTER:                  -5.680
REMARK INTRA:                  -2.106
REMARK UNBOUND:                -2.071
REMARK SMILES COc1cc(CNC(=O)CCCCC=CC(C)C)ccc1O
REMARK SMILES IDX 11 1 12 2 13 3 14 4 15 5 16 6 17 7 18 8 10 9 8 10 9 11 7 12
REMARK SMILES IDX 6 14 5 15 4 16 19 17 3 18 20 19 21 20 2 21 1 22 22 23
REMARK H PARENT 7 13 22 24
REMARK Flexibility Score: inf
ROOT
ATOM      1  C   UNL     1     105.312  80.091  16.015  1.00  0.00     0.010 C 
ENDROOT
BRANCH   1   2
ATOM      2  C   UNL     1     106.049  80.110  17.358  1.00  0.00     0.005 C 
BRANCH   2   3
ATOM      3  C   UNL     1     106.590  81.512  17.668  1.00  0.00     0.027 C 
BRANCH   3   4
ATOM      4  C   UNL     1     105.860  82.140  18.822  1.00  0.00    -0.031 C 
ATOM      5  C   UNL     1     105.447  83.417  18.783  1.00  0.00    -0.028 C 
BRANCH   5   6
ATOM      6  C   UNL     1     104.745  84.052  19.960  1.00  0.00     0.005 C 
ATOM      7  C   UNL     1     104.997  83.239  21.235  1.00  0.00     0.012 C 
ATOM      8  C   UNL     1     103.241  84.167  19.686  1.00  0.00     0.012 C 
ENDBRANCH   5   6
ENDBRANCH   3   4
ENDBRANCH   2   3
ENDBRANCH   1   2
BRANCH   1   9
ATOM      9  C   UNL     1     103.803  80.264  16.212  1.00  0.00     0.100 C 
BRANCH   9  10
ATOM     10  C   UNL     1     103.414  81.701  16.050  1.00  0.00     0.220 C 
ATOM     11  O   UNL     1     102.651  82.237  16.898  1.00  0.00    -0.275 OA
ATOM     12  N   UNL     1     103.938  82.470  14.956  1.00  0.00    -0.352 N 
ATOM     13  H   UNL     1     104.605  82.017  14.293  1.00  0.00     0.163 HD
BRANCH  12  14
ATOM     14  C   UNL     1     103.628  83.886  14.771  1.00  0.00     0.151 C 
BRANCH  14  15
ATOM     15  C   UNL     1     104.655  84.746  15.460  1.00  0.00    -0.025 A 
ATOM     16  C   UNL     1     104.260  85.852  16.229  1.00  0.00     0.056 A 
ATOM     17  C   UNL     1     106.020  84.455  15.318  1.00  0.00     0.009 A 
ATOM     18  C   UNL     1     105.224  86.662  16.863  1.00  0.00     0.160 A 
ATOM     19  C   UNL     1     106.978  85.256  15.942  1.00  0.00     0.050 A 
ATOM     20  C   UNL     1     106.585  86.358  16.713  1.00  0.00     0.157 A 
BRANCH  18  21
ATOM     21  O   UNL     1     104.869  87.775  17.644  1.00  0.00    -0.493 OA
ATOM     22  C   UNL     1     104.228  88.943  17.144  1.00  0.00     0.278 C 
ENDBRANCH  18  21
BRANCH  20  23
ATOM     23  O   UNL     1     107.542  87.159  17.333  1.00  0.00    -0.504 OA
ATOM     24  H   UNL     1     107.909  87.992  16.886  1.00  0.00     0.293 HD
ENDBRANCH  20  23
ENDBRANCH  14  15
ENDBRANCH  12  14
ENDBRANCH   9  10
ENDBRANCH   1   9
TORSDOF 10
ENDMDL
MODEL 6
REMARK VINA RESULT:    -3.641      2.698      5.607
REMARK INTER + INTRA:          -7.734
REMARK INTER:                  -5.936
REMARK INTRA:                  -1.798
REMARK UNBOUND:                -2.071
REMARK SMILES COc1cc(CNC(=O)CCCCC=CC(C)C)ccc1O
REMARK SMILES IDX 11 1 12 2 13 3 14 4 15 5 16 6 17 7 18 8 10 9 8 10 9 11 7 12
REMARK SMILES IDX 6 14 5 15 4 16 19 17 3 18 20 19 21 20 2 21 1 22 22 23
REMARK H PARENT 7 13 22 24
REMARK Flexibility Score: inf
ROOT
ATOM      1  C   UNL     1     105.427  83.242  22.706  1.00  0.00     0.010 C 
ENDROOT
BRANCH   1   2
ATOM      2  C   UNL     1     104.023  83.515  23.256  1.00  0.00     0.005 C 
BRANCH   2   3
ATOM      3  C   UNL     1     103.199  84.348  22.265  1.00  0.00     0.027 C 
BRANCH   3   4
ATOM      4  C   UNL     1     102.869  83.560  21.026  1.00  0.00    -0.031 C 
ATOM      5  C   UNL     1     102.361  82.319  21.095  1.00  0.00    -0.028 C 
BRANCH   5   6
ATOM      6  C   UNL     1     102.065  81.521  19.848  1.00  0.00     0.005 C 
ATOM      7  C   UNL     1     102.847  80.202  19.859  1.00  0.00     0.012 C 
ATOM      8  C   UNL     1     102.412  82.337  18.598  1.00  0.00     0.012 C 
ENDBRANCH   5   6
ENDBRANCH   3   4
ENDBRANCH   2   3
ENDBRANCH   1   2
BRANCH   1   9
ATOM      9  C   UNL     1     105.719  81.739  22.665  1.00  0.00     0.100 C 
BRANCH   9  10
ATOM     10  C   UNL     1     106.531  81.396  21.453  1.00  0.00     0.220 C 
ATOM     11  O   UNL     1     107.688  80.916  21.597  1.00  0.00    -0.275 OA
ATOM     12  N   UNL     1     105.980  81.578  20.140  1.00  0.00    -0.352 N 
ATOM     13  H   UNL     1     105.002  81.934  20.048  1.00  0.00     0.163 HD
BRANCH  12  14
ATOM     14  C   UNL     1     106.708  81.222  18.925  1.00  0.00     0.151 C 
BRANCH  14  15
ATOM     15  C   UNL     1     105.950  81.672  17.704  1.00  0.00    -0.025 A 
ATOM     16  C   UNL     1     105.842  83.037  17.395  1.00  0.00     0.056 A 
ATOM     17  C   UNL     1     105.328  80.726  16.877  1.00  0.00     0.009 A 
ATOM     18  C   UNL     1     105.123  83.458  16.257  1.00  0.00     0.160 A 
ATOM     19  C   UNL     1     104.613  81.136  15.751  1.00  0.00     0.050 A 
ATOM     20  C   UNL     1     104.508  82.499  15.439  1.00  0.00     0.157 A 
BRANCH  18  21
ATOM     21  O   UNL     1     104.995  84.813  15.912  1.00  0.00    -0.493 OA
ATOM     22  C   UNL     1     104.359  85.798  16.719  1.00  0.00     0.278 C 
ENDBRANCH  18  21
BRANCH  20  23
ATOM     23  O   UNL     1     103.791  82.909  14.316  1.00  0.00    -0.504 OA
ATOM     24  H   UNL     1     103.909  83.835  13.920  1.00  0.00     0.293 HD
ENDBRANCH  20  23
ENDBRANCH  14  15
ENDBRANCH  12  14
ENDBRANCH   9  10
ENDBRANCH   1   9
TORSDOF 10
ENDMDL
MODEL 7
REMARK VINA RESULT:    -3.637      1.365      2.447
REMARK INTER + INTRA:          -7.728
REMARK INTER:                  -5.705
REMARK INTRA:                  -2.023
REMARK UNBOUND:                -2.071
REMARK SMILES COc1cc(CNC(=O)CCCCC=CC(C)C)ccc1O
REMARK SMILES IDX 11 1 12 2 13 3 14 4 15 5 16 6 17 7 18 8 10 9 8 10 9 11 7 12
REMARK SMILES IDX 6 14 5 15 4 16 19 17 3 18 20 19 21 20 2 21 1 22 22 23
REMARK H PARENT 7 13 22 24
REMARK Flexibility Score: inf
ROOT
ATOM      1  C   UNL     1     104.877  82.295  16.027  1.00  0.00     0.010 C 
ENDROOT
BRANCH   1   2
ATOM      2  C   UNL     1     105.632  82.782  17.270  1.00  0.00     0.005 C 
BRANCH   2   3
ATOM      3  C   UNL     1     105.831  81.638  18.273  1.00  0.00     0.027 C 
BRANCH   3   4
ATOM      4  C   UNL     1     105.507  82.075  19.675  1.00  0.00    -0.031 C 
ATOM      5  C   UNL     1     104.684  83.108  19.919  1.00  0.00    -0.028 C 
BRANCH   5   6
ATOM      6  C   UNL     1     104.391  83.563  21.328  1.00  0.00     0.005 C 
ATOM      7  C   UNL     1     105.578  83.254  22.248  1.00  0.00     0.012 C 
ATOM      8  C   UNL     1     103.118  82.889  21.853  1.00  0.00     0.012 C 
ENDBRANCH   5   6
ENDBRANCH   3   4
ENDBRANCH   2   3
ENDBRANCH   1   2
BRANCH   1   9
ATOM      9  C   UNL     1     103.383  82.132  16.320  1.00  0.00     0.100 C 
BRANCH   9  10
ATOM     10  C   UNL     1     102.743  83.468  16.542  1.00  0.00     0.220 C 
ATOM     11  O   UNL     1     102.845  84.359  15.656  1.00  0.00    -0.275 OA
ATOM     12  N   UNL     1     101.988  83.716  17.737  1.00  0.00    -0.352 N 
ATOM     13  H   UNL     1     101.878  82.946  18.435  1.00  0.00     0.163 HD
BRANCH  12  14
ATOM     14  C   UNL     1     101.306  84.984  17.988  1.00  0.00     0.151 C 
BRANCH  14  15
ATOM     15  C   UNL     1     101.964  85.722  19.124  1.00  0.00    -0.025 A 
ATOM     16  C   UNL     1     103.207  86.348  18.943  1.00  0.00     0.056 A 
ATOM     17  C   UNL     1     101.344  85.769  20.381  1.00  0.00     0.009 A 
ATOM     18  C   UNL     1     103.827  87.028  20.010  1.00  0.00     0.160 A 
ATOM     19  C   UNL     1     101.954  86.440  21.442  1.00  0.00     0.050 A 
ATOM     20  C   UNL     1     103.194  87.069  21.261  1.00  0.00     0.157 A 
BRANCH  18  21
ATOM     21  O   UNL     1     105.068  87.671  19.868  1.00  0.00    -0.493 OA
ATOM     22  C   UNL     1     105.418  88.524  18.784  1.00  0.00     0.278 C 
ENDBRANCH  18  21
BRANCH  20  23
ATOM     23  O   UNL     1     103.805  87.736  22.321  1.00  0.00    -0.504 OA
ATOM     24  H   UNL     1     104.771  88.041  22.271  1.00  0.00     0.293 HD
ENDBRANCH  20  23
ENDBRANCH  14  15
ENDBRANCH  12  14
ENDBRANCH   9  10
ENDBRANCH   1   9
TORSDOF 10
ENDMDL
MODEL 8
REMARK VINA RESULT:    -3.629      2.214      4.300
REMARK INTER + INTRA:          -7.715
REMARK INTER:                  -6.125
REMARK INTRA:                  -1.591
REMARK UNBOUND:                -2.071
REMARK SMILES COc1cc(CNC(=O)CCCCC=CC(C)C)ccc1O
REMARK SMILES IDX 11 1 12 2 13 3 14 4 15 5 16 6 17 7 18 8 10 9 8 10 9 11 7 12
REMARK SMILES IDX 6 14 5 15 4 16 19 17 3 18 20 19 21 20 2 21 1 22 22 23
REMARK H PARENT 7 13 22 24
REMARK Flexibility Score: inf
ROOT
ATOM      1  C   UNL     1     103.700  80.598  16.503  1.00  0.00     0.010 C 
ENDROOT
BRANCH   1   2
ATOM      2  C   UNL     1     103.447  82.101  16.661  1.00  0.00     0.005 C 
BRANCH   2   3
ATOM      3  C   UNL     1     103.783  82.853  15.366  1.00  0.00     0.027 C 
BRANCH   3   4
ATOM      4  C   UNL     1     104.857  83.882  15.591  1.00  0.00    -0.031 C 
ATOM      5  C   UNL     1     104.670  84.927  16.412  1.00  0.00    -0.028 C 
BRANCH   5   6
ATOM      6  C   UNL     1     105.739  85.976  16.606  1.00  0.00     0.005 C 
ATOM      7  C   UNL     1     107.096  85.313  16.870  1.00  0.00     0.012 C 
ATOM      8  C   UNL     1     105.366  86.911  17.763  1.00  0.00     0.012 C 
ENDBRANCH   5   6
ENDBRANCH   3   4
ENDBRANCH   2   3
ENDBRANCH   1   2
BRANCH   1   9
ATOM      9  C   UNL     1     105.185  80.312  16.260  1.00  0.00     0.100 C 
BRANCH   9  10
ATOM     10  C   UNL     1     106.006  80.778  17.423  1.00  0.00     0.220 C 
ATOM     11  O   UNL     1     107.014  81.507  17.219  1.00  0.00    -0.275 OA
ATOM     12  N   UNL     1     105.624  80.428  18.762  1.00  0.00    -0.352 N 
ATOM     13  H   UNL     1     104.758  79.862  18.908  1.00  0.00     0.163 HD
BRANCH  12  14
ATOM     14  C   UNL     1     106.360  80.888  19.936  1.00  0.00     0.151 C 
BRANCH  14  15
ATOM     15  C   UNL     1     105.714  82.120  20.515  1.00  0.00    -0.025 A 
ATOM     16  C   UNL     1     105.654  82.307  21.905  1.00  0.00     0.056 A 
ATOM     17  C   UNL     1     105.150  83.081  19.664  1.00  0.00     0.009 A 
ATOM     18  C   UNL     1     105.039  83.455  22.445  1.00  0.00     0.160 A 
ATOM     19  C   UNL     1     104.537  84.218  20.193  1.00  0.00     0.050 A 
ATOM     20  C   UNL     1     104.480  84.407  21.581  1.00  0.00     0.157 A 
BRANCH  18  21
ATOM     21  O   UNL     1     104.962  83.680  23.830  1.00  0.00    -0.493 OA
ATOM     22  C   UNL     1     104.368  82.786  24.764  1.00  0.00     0.278 C 
ENDBRANCH  18  21
BRANCH  20  23
ATOM     23  O   UNL     1     103.866  85.541  22.110  1.00  0.00    -0.504 OA
ATOM     24  H   UNL     1     103.877  85.736  23.105  1.00  0.00     0.293 HD
ENDBRANCH  20  23
ENDBRANCH  14  15
ENDBRANCH  12  14
ENDBRANCH   9  10
ENDBRANCH   1   9
TORSDOF 10
ENDMDL
MODEL 9
REMARK VINA RESULT:    -3.523      3.003      6.335
REMARK INTER + INTRA:          -7.551
REMARK INTER:                  -5.428
REMARK INTRA:                  -2.122
REMARK UNBOUND:                -2.071
REMARK SMILES COc1cc(CNC(=O)CCCCC=CC(C)C)ccc1O
REMARK SMILES IDX 11 1 12 2 13 3 14 4 15 5 16 6 17 7 18 8 10 9 8 10 9 11 7 12
REMARK SMILES IDX 6 14 5 15 4 16 19 17 3 18 20 19 21 20 2 21 1 22 22 23
REMARK H PARENT 7 13 22 24
REMARK Flexibility Score: inf
ROOT
ATOM      1  C   UNL     1     102.880  82.105  25.494  1.00  0.00     0.010 C 
ENDROOT
BRANCH   1   2
ATOM      2  C   UNL     1     101.944  82.135  24.280  1.00  0.00     0.005 C 
BRANCH   2   3
ATOM      3  C   UNL     1     101.402  83.550  24.041  1.00  0.00     0.027 C 
BRANCH   3   4
ATOM      4  C   UNL     1     101.589  83.976  22.611  1.00  0.00    -0.031 C 
ATOM      5  C   UNL     1     102.660  84.686  22.221  1.00  0.00    -0.028 C 
BRANCH   5   6
ATOM      6  C   UNL     1     102.823  85.140  20.790  1.00  0.00     0.005 C 
ATOM      7  C   UNL     1     104.060  86.034  20.651  1.00  0.00     0.012 C 
ATOM      8  C   UNL     1     101.569  85.886  20.321  1.00  0.00     0.012 C 
ENDBRANCH   5   6
ENDBRANCH   3   4
ENDBRANCH   2   3
ENDBRANCH   1   2
BRANCH   1   9
ATOM      9  C   UNL     1     104.252  82.690  25.146  1.00  0.00     0.100 C 
BRANCH   9  10
ATOM     10  C   UNL     1     104.864  81.946  23.999  1.00  0.00     0.220 C 
ATOM     11  O   UNL     1     105.023  80.698  24.084  1.00  0.00    -0.275 OA
ATOM     12  N   UNL     1     105.231  82.645  22.800  1.00  0.00    -0.352 N 
ATOM     13  H   UNL     1     105.047  83.671  22.736  1.00  0.00     0.163 HD
BRANCH  12  14
ATOM     14  C   UNL     1     105.792  81.965  21.634  1.00  0.00     0.151 C 
BRANCH  14  15
ATOM     15  C   UNL     1     104.823  82.006  20.482  1.00  0.00    -0.025 A 
ATOM     16  C   UNL     1     105.183  82.611  19.268  1.00  0.00     0.056 A 
ATOM     17  C   UNL     1     103.542  81.454  20.625  1.00  0.00     0.009 A 
ATOM     18  C   UNL     1     104.271  82.658  18.194  1.00  0.00     0.160 A 
ATOM     19  C   UNL     1     102.633  81.500  19.566  1.00  0.00     0.050 A 
ATOM     20  C   UNL     1     102.994  82.101  18.352  1.00  0.00     0.157 A 
BRANCH  18  21
ATOM     21  O   UNL     1     104.596  83.250  16.962  1.00  0.00    -0.493 OA
ATOM     22  C   UNL     1     105.851  83.846  16.657  1.00  0.00     0.278 C 
ENDBRANCH  18  21
BRANCH  20  23
ATOM     23  O   UNL     1     102.086  82.149  17.295  1.00  0.00    -0.504 OA
ATOM     24  H   UNL     1     101.087  82.223  17.456  1.00  0.00     0.293 HD
ENDBRANCH  20  23
ENDBRANCH  14  15
ENDBRANCH  12  14
ENDBRANCH   9  10
ENDBRANCH   1   9
TORSDOF 10
ENDMDL
