MODEL 1
REMARK VINA RESULT:    -4.545      0.000      0.000
REMARK INTER + INTRA:          -9.506
REMARK INTER:                  -8.264
REMARK INTRA:                  -1.242
REMARK UNBOUND:                -1.242
REMARK SMILES CCCCCCCCCCCCCCCC(=O)[O-]
REMARK SMILES IDX 9 1 10 2 11 3 12 4 13 5 14 6 15 7 16 8 17 9 18 10 8 11 7 12
REMARK SMILES IDX 6 13 5 14 4 15 3 16 2 17 1 18
REMARK H PARENT
REMARK Flexibility Score: inf
ROOT
ATOM      1  C   UNL     1      18.822  11.665 -13.492  1.00  0.00     0.000 C 
ENDROOT
BRANCH   1   2
ATOM      2  C   UNL     1      18.938  10.237 -14.046  1.00  0.00     0.000 C 
BRANCH   2   3
ATOM      3  C   UNL     1      18.149  10.091 -15.356  1.00  0.00     0.000 C 
BRANCH   3   4
ATOM      4  C   UNL     1      17.416   8.743 -15.456  1.00  0.00     0.000 C 
BRANCH   4   5
ATOM      5  C   UNL     1      15.886   8.905 -15.503  1.00  0.00     0.000 C 
BRANCH   5   6
ATOM      6  C   UNL     1      15.325   9.577 -14.240  1.00  0.00     0.006 C 
BRANCH   6   7
ATOM      7  C   UNL     1      14.391  10.751 -14.561  1.00  0.00     0.053 C 
BRANCH   7   8
ATOM      8  C   UNL     1      15.133  12.047 -14.475  1.00  0.00     0.041 C 
ATOM      9  O   UNL     1      15.452  12.522 -13.354  1.00  0.00    -0.550 OA
ATOM     10  O   UNL     1      15.515  12.707 -15.636  1.00  0.00    -0.550 OA
ENDBRANCH   7   8
ENDBRANCH   6   7
ENDBRANCH   5   6
ENDBRANCH   4   5
ENDBRANCH   3   4
ENDBRANCH   2   3
ENDBRANCH   1   2
BRANCH   1  11
ATOM     11  C   UNL     1      19.002  12.743 -14.576  1.00  0.00     0.000 C 
BRANCH  11  12
ATOM     12  C   UNL     1      20.299  13.570 -14.463  1.00  0.00    -0.000 C 
BRANCH  12  13
ATOM     13  C   UNL     1      21.223  13.176 -13.294  1.00  0.00    -0.000 C 
BRANCH  13  14
ATOM     14  C   UNL     1      22.556  13.949 -13.227  1.00  0.00    -0.000 C 
BRANCH  14  15
ATOM     15  C   UNL     1      22.804  14.927 -14.389  1.00  0.00    -0.000 C 
BRANCH  15  16
ATOM     16  C   UNL     1      22.794  16.399 -13.942  1.00  0.00    -0.000 C 
BRANCH  16  17
ATOM     17  C   UNL     1      22.397  17.357 -15.077  1.00  0.00    -0.003 C 
ATOM     18  C   UNL     1      21.971  18.734 -14.568  1.00  0.00     0.004 C 
ENDBRANCH  16  17
ENDBRANCH  15  16
ENDBRANCH  14  15
ENDBRANCH  13  14
ENDBRANCH  12  13
ENDBRANCH  11  12
ENDBRANCH   1  11
TORSDOF 14
ENDMDL
MODEL 2
REMARK VINA RESULT:    -4.412      3.030      6.984
REMARK INTER + INTRA:          -9.265
REMARK INTER:                  -7.235
REMARK INTRA:                  -2.030
REMARK UNBOUND:                -1.242
REMARK SMILES CCCCCCCCCCCCCCCC(=O)[O-]
REMARK SMILES IDX 9 1 10 2 11 3 12 4 13 5 14 6 15 7 16 8 17 9 18 10 8 11 7 12
REMARK SMILES IDX 6 13 5 14 4 15 3 16 2 17 1 18
REMARK H PARENT
REMARK Flexibility Score: inf
ROOT
ATOM      1  C   UNL     1      15.640  12.378 -14.062  1.00  0.00     0.000 C 
ENDROOT
BRANCH   1   2
ATOM      2  C   UNL     1      15.777  12.849 -15.518  1.00  0.00     0.000 C 
BRANCH   2   3
ATOM      3  C   UNL     1      17.176  12.532 -16.068  1.00  0.00     0.000 C 
BRANCH   3   4
ATOM      4  C   UNL     1      18.128  13.737 -15.989  1.00  0.00     0.000 C 
BRANCH   4   5
ATOM      5  C   UNL     1      19.595  13.318 -15.789  1.00  0.00     0.000 C 
BRANCH   5   6
ATOM      6  C   UNL     1      20.062  13.485 -14.334  1.00  0.00     0.006 C 
BRANCH   6   7
ATOM      7  C   UNL     1      21.503  14.001 -14.232  1.00  0.00     0.053 C 
BRANCH   7   8
ATOM      8  C   UNL     1      22.336  13.065 -13.413  1.00  0.00     0.041 C 
ATOM      9  O   UNL     1      22.713  11.965 -13.896  1.00  0.00    -0.550 OA
ATOM     10  O   UNL     1      22.735  13.429 -12.134  1.00  0.00    -0.550 OA
ENDBRANCH   7   8
ENDBRANCH   6   7
ENDBRANCH   5   6
ENDBRANCH   4   5
ENDBRANCH   3   4
ENDBRANCH   2   3
ENDBRANCH   1   2
BRANCH   1  11
ATOM     11  C   UNL     1      14.529  11.329 -13.875  1.00  0.00     0.000 C 
BRANCH  11  12
ATOM     12  C   UNL     1      14.306  10.395 -15.080  1.00  0.00    -0.000 C 
BRANCH  12  13
ATOM     13  C   UNL     1      14.753   8.935 -14.866  1.00  0.00    -0.000 C 
BRANCH  13  14
ATOM     14  C   UNL     1      15.845   8.438 -15.836  1.00  0.00    -0.000 C 
BRANCH  14  15
ATOM     15  C   UNL     1      17.258   8.983 -15.566  1.00  0.00    -0.000 C 
BRANCH  15  16
ATOM     16  C   UNL     1      17.543   9.188 -14.068  1.00  0.00    -0.000 C 
BRANCH  16  17
ATOM     17  C   UNL     1      18.708  10.159 -13.817  1.00  0.00    -0.003 C 
ATOM     18  C   UNL     1      19.925   9.862 -14.693  1.00  0.00     0.004 C 
ENDBRANCH  16  17
ENDBRANCH  15  16
ENDBRANCH  14  15
ENDBRANCH  13  14
ENDBRANCH  12  13
ENDBRANCH  11  12
ENDBRANCH   1  11
TORSDOF 14
ENDMDL
MODEL 3
REMARK VINA RESULT:    -4.384      3.023      7.505
REMARK INTER + INTRA:          -9.215
REMARK INTER:                  -7.527
REMARK INTRA:                  -1.688
REMARK UNBOUND:                -1.242
REMARK SMILES CCCCCCCCCCCCCCCC(=O)[O-]
REMARK SMILES IDX 9 1 10 2 11 3 12 4 13 5 14 6 15 7 16 8 17 9 18 10 8 11 7 12
REMARK SMILES IDX 6 13 5 14 4 15 3 16 2 17 1 18
REMARK H PARENT
REMARK Flexibility Score: inf
ROOT
ATOM      1  C   UNL     1      18.904  11.751 -13.313  1.00  0.00     0.000 C 
ENDROOT
BRANCH   1   2
ATOM      2  C   UNL     1      19.017  12.543 -14.625  1.00  0.00     0.000 C 
BRANCH   2   3
ATOM      3  C   UNL     1      20.485  12.686 -15.053  1.00  0.00     0.000 C 
BRANCH   3   4
ATOM      4  C   UNL     1      21.466  12.417 -13.900  1.00  0.00     0.000 C 
BRANCH   4   5
ATOM      5  C   UNL     1      22.029  13.713 -13.289  1.00  0.00     0.000 C 
BRANCH   5   6
ATOM      6  C   UNL     1      22.331  14.782 -14.351  1.00  0.00     0.006 C 
BRANCH   6   7
ATOM      7  C   UNL     1      23.019  16.020 -13.763  1.00  0.00     0.053 C 
BRANCH   7   8
ATOM      8  C   UNL     1      22.728  17.227 -14.600  1.00  0.00     0.041 C 
ATOM      9  O   UNL     1      22.417  17.096 -15.813  1.00  0.00    -0.550 OA
ATOM     10  O   UNL     1      22.752  18.491 -14.028  1.00  0.00    -0.550 OA
ENDBRANCH   7   8
ENDBRANCH   6   7
ENDBRANCH   5   6
ENDBRANCH   4   5
ENDBRANCH   3   4
ENDBRANCH   2   3
ENDBRANCH   1   2
BRANCH   1  11
ATOM     11  C   UNL     1      18.291  10.353 -13.510  1.00  0.00     0.000 C 
BRANCH  11  12
ATOM     12  C   UNL     1      18.381   9.799 -14.945  1.00  0.00    -0.000 C 
BRANCH  12  13
ATOM     13  C   UNL     1      17.067   9.215 -15.503  1.00  0.00    -0.000 C 
BRANCH  13  14
ATOM     14  C   UNL     1      15.905   9.141 -14.491  1.00  0.00    -0.000 C 
BRANCH  14  15
ATOM     15  C   UNL     1      14.731  10.095 -14.774  1.00  0.00    -0.000 C 
BRANCH  15  16
ATOM     16  C   UNL     1      14.593  11.202 -13.716  1.00  0.00    -0.000 C 
BRANCH  16  17
ATOM     17  C   UNL     1      15.322  12.494 -14.117  1.00  0.00    -0.003 C 
ATOM     18  C   UNL     1      15.479  12.641 -15.630  1.00  0.00     0.004 C 
ENDBRANCH  16  17
ENDBRANCH  15  16
ENDBRANCH  14  15
ENDBRANCH  13  14
ENDBRANCH  12  13
ENDBRANCH  11  12
ENDBRANCH   1  11
TORSDOF 14
ENDMDL
MODEL 4
REMARK VINA RESULT:    -4.365      0.689      1.539
REMARK INTER + INTRA:          -9.179
REMARK INTER:                  -7.794
REMARK INTRA:                  -1.384
REMARK UNBOUND:                -1.242
REMARK SMILES CCCCCCCCCCCCCCCC(=O)[O-]
REMARK SMILES IDX 9 1 10 2 11 3 12 4 13 5 14 6 15 7 16 8 17 9 18 10 8 11 7 12
REMARK SMILES IDX 6 13 5 14 4 15 3 16 2 17 1 18
REMARK H PARENT
REMARK Flexibility Score: inf
ROOT
ATOM      1  C   UNL     1      18.904  12.522 -14.484  1.00  0.00     0.000 C 
ENDROOT
BRANCH   1   2
ATOM      2  C   UNL     1      18.960  11.596 -13.259  1.00  0.00     0.000 C 
BRANCH   2   3
ATOM      3  C   UNL     1      18.377  10.214 -13.589  1.00  0.00     0.000 C 
BRANCH   3   4
ATOM      4  C   UNL     1      18.266   9.966 -15.102  1.00  0.00     0.000 C 
BRANCH   4   5
ATOM      5  C   UNL     1      16.923   9.328 -15.500  1.00  0.00     0.000 C 
BRANCH   5   6
ATOM      6  C   UNL     1      15.829   9.551 -14.443  1.00  0.00     0.006 C 
BRANCH   6   7
ATOM      7  C   UNL     1      14.749  10.534 -14.911  1.00  0.00     0.053 C 
BRANCH   7   8
ATOM      8  C   UNL     1      15.197  11.945 -14.693  1.00  0.00     0.041 C 
ATOM      9  O   UNL     1      15.256  12.748 -15.661  1.00  0.00    -0.550 OA
ATOM     10  O   UNL     1      15.503  12.387 -13.413  1.00  0.00    -0.550 OA
ENDBRANCH   7   8
ENDBRANCH   6   7
ENDBRANCH   5   6
ENDBRANCH   4   5
ENDBRANCH   3   4
ENDBRANCH   2   3
ENDBRANCH   1   2
BRANCH   1  11
ATOM     11  C   UNL     1      20.162  13.396 -14.632  1.00  0.00     0.000 C 
BRANCH  11  12
ATOM     12  C   UNL     1      21.193  13.250 -13.495  1.00  0.00    -0.000 C 
BRANCH  12  13
ATOM     13  C   UNL     1      22.350  14.267 -13.530  1.00  0.00    -0.000 C 
BRANCH  13  14
ATOM     14  C   UNL     1      22.772  14.728 -14.940  1.00  0.00    -0.000 C 
BRANCH  14  15
ATOM     15  C   UNL     1      22.702  16.247 -15.180  1.00  0.00    -0.000 C 
BRANCH  15  16
ATOM     16  C   UNL     1      21.391  16.684 -15.856  1.00  0.00    -0.000 C 
BRANCH  16  17
ATOM     17  C   UNL     1      21.137  18.194 -15.727  1.00  0.00    -0.003 C 
ATOM     18  C   UNL     1      21.961  18.840 -14.614  1.00  0.00     0.004 C 
ENDBRANCH  16  17
ENDBRANCH  15  16
ENDBRANCH  14  15
ENDBRANCH  13  14
ENDBRANCH  12  13
ENDBRANCH  11  12
ENDBRANCH   1  11
TORSDOF 14
ENDMDL
MODEL 5
REMARK VINA RESULT:    -4.347      3.234      8.018
REMARK INTER + INTRA:          -9.146
REMARK INTER:                  -7.865
REMARK INTRA:                  -1.281
REMARK UNBOUND:                -1.242
REMARK SMILES CCCCCCCCCCCCCCCC(=O)[O-]
REMARK SMILES IDX 9 1 10 2 11 3 12 4 13 5 14 6 15 7 16 8 17 9 18 10 8 11 7 12
REMARK SMILES IDX 6 13 5 14 4 15 3 16 2 17 1 18
REMARK H PARENT
REMARK Flexibility Score: inf
ROOT
ATOM      1  C   UNL     1      18.403  12.390 -14.717  1.00  0.00     0.000 C 
ENDROOT
BRANCH   1   2
ATOM      2  C   UNL     1      19.684  13.237 -14.644  1.00  0.00     0.000 C 
BRANCH   2   3
ATOM      3  C   UNL     1      20.570  12.791 -13.472  1.00  0.00     0.000 C 
BRANCH   3   4
ATOM      4  C   UNL     1      21.892  13.572 -13.400  1.00  0.00     0.000 C 
BRANCH   4   5
ATOM      5  C   UNL     1      22.357  14.074 -14.779  1.00  0.00     0.000 C 
BRANCH   5   6
ATOM      6  C   UNL     1      22.996  15.470 -14.713  1.00  0.00     0.006 C 
BRANCH   6   7
ATOM      7  C   UNL     1      22.010  16.589 -15.070  1.00  0.00     0.053 C 
BRANCH   7   8
ATOM      8  C   UNL     1      22.427  17.876 -14.430  1.00  0.00     0.041 C 
ATOM      9  O   UNL     1      22.109  18.976 -14.954  1.00  0.00    -0.550 OA
ATOM     10  O   UNL     1      23.125  17.862 -13.230  1.00  0.00    -0.550 OA
ENDBRANCH   7   8
ENDBRANCH   6   7
ENDBRANCH   5   6
ENDBRANCH   4   5
ENDBRANCH   3   4
ENDBRANCH   2   3
ENDBRANCH   1   2
BRANCH   1  11
ATOM     11  C   UNL     1      17.426  12.876 -15.803  1.00  0.00     0.000 C 
BRANCH  11  12
ATOM     12  C   UNL     1      15.935  12.781 -15.426  1.00  0.00    -0.000 C 
BRANCH  12  13
ATOM     13  C   UNL     1      15.656  12.435 -13.950  1.00  0.00    -0.000 C 
BRANCH  13  14
ATOM     14  C   UNL     1      14.537  11.398 -13.723  1.00  0.00    -0.000 C 
BRANCH  14  15
ATOM     15  C   UNL     1      14.254  10.469 -14.916  1.00  0.00    -0.000 C 
BRANCH  15  16
ATOM     16  C   UNL     1      14.866   9.069 -14.741  1.00  0.00    -0.000 C 
BRANCH  16  17
ATOM     17  C   UNL     1      16.277   8.963 -15.340  1.00  0.00    -0.003 C 
ATOM     18  C   UNL     1      17.379   9.124 -14.292  1.00  0.00     0.004 C 
ENDBRANCH  16  17
ENDBRANCH  15  16
ENDBRANCH  14  15
ENDBRANCH  13  14
ENDBRANCH  12  13
ENDBRANCH  11  12
ENDBRANCH   1  11
TORSDOF 14
ENDMDL
MODEL 6
REMARK VINA RESULT:    -4.305      2.959      7.904
REMARK INTER + INTRA:          -9.070
REMARK INTER:                  -7.979
REMARK INTRA:                  -1.091
REMARK UNBOUND:                -1.242
REMARK SMILES CCCCCCCCCCCCCCCC(=O)[O-]
REMARK SMILES IDX 9 1 10 2 11 3 12 4 13 5 14 6 15 7 16 8 17 9 18 10 8 11 7 12
REMARK SMILES IDX 6 13 5 14 4 15 3 16 2 17 1 18
REMARK H PARENT
REMARK Flexibility Score: inf
ROOT
ATOM      1  C   UNL     1      19.034  12.005 -13.523  1.00  0.00     0.000 C 
ENDROOT
BRANCH   1   2
ATOM      2  C   UNL     1      20.101  12.893 -14.183  1.00  0.00     0.000 C 
BRANCH   2   3
ATOM      3  C   UNL     1      21.297  13.103 -13.242  1.00  0.00     0.000 C 
BRANCH   3   4
ATOM      4  C   UNL     1      22.548  13.606 -13.981  1.00  0.00     0.000 C 
BRANCH   4   5
ATOM      5  C   UNL     1      22.875  15.075 -13.656  1.00  0.00     0.000 C 
BRANCH   5   6
ATOM      6  C   UNL     1      22.376  16.043 -14.740  1.00  0.00     0.006 C 
BRANCH   6   7
ATOM      7  C   UNL     1      22.802  17.493 -14.478  1.00  0.00     0.053 C 
BRANCH   7   8
ATOM      8  C   UNL     1      21.817  18.444 -15.083  1.00  0.00     0.041 C 
ATOM      9  O   UNL     1      20.833  18.007 -15.734  1.00  0.00    -0.550 OA
ATOM     10  O   UNL     1      21.961  19.811 -14.886  1.00  0.00    -0.550 OA
ENDBRANCH   7   8
ENDBRANCH   6   7
ENDBRANCH   5   6
ENDBRANCH   4   5
ENDBRANCH   3   4
ENDBRANCH   2   3
ENDBRANCH   1   2
BRANCH   1  11
ATOM     11  C   UNL     1      19.091  10.544 -14.004  1.00  0.00     0.000 C 
BRANCH  11  12
ATOM     12  C   UNL     1      18.597  10.314 -15.446  1.00  0.00    -0.000 C 
BRANCH  12  13
ATOM     13  C   UNL     1      17.451   9.293 -15.588  1.00  0.00    -0.000 C 
BRANCH  13  14
ATOM     14  C   UNL     1      16.687   8.984 -14.284  1.00  0.00    -0.000 C 
BRANCH  14  15
ATOM     15  C   UNL     1      15.158   8.884 -14.429  1.00  0.00    -0.000 C 
BRANCH  15  16
ATOM     16  C   UNL     1      14.519  10.190 -14.931  1.00  0.00    -0.000 C 
BRANCH  16  17
ATOM     17  C   UNL     1      14.548  11.304 -13.873  1.00  0.00    -0.003 C 
ATOM     18  C   UNL     1      15.485  12.453 -14.248  1.00  0.00     0.004 C 
ENDBRANCH  16  17
ENDBRANCH  15  16
ENDBRANCH  14  15
ENDBRANCH  13  14
ENDBRANCH  12  13
ENDBRANCH  11  12
ENDBRANCH   1  11
TORSDOF 14
ENDMDL
MODEL 7
REMARK VINA RESULT:    -4.063      2.879      7.079
REMARK INTER + INTRA:          -8.629
REMARK INTER:                  -6.588
REMARK INTRA:                  -2.041
REMARK UNBOUND:                -1.242
REMARK SMILES CCCCCCCCCCCCCCCC(=O)[O-]
REMARK SMILES IDX 9 1 10 2 11 3 12 4 13 5 14 6 15 7 16 8 17 9 18 10 8 11 7 12
REMARK SMILES IDX 6 13 5 14 4 15 3 16 2 17 1 18
REMARK H PARENT
REMARK Flexibility Score: inf
ROOT
ATOM      1  C   UNL     1      18.655  12.377 -14.231  1.00  0.00     0.000 C 
ENDROOT
BRANCH   1   2
ATOM      2  C   UNL     1      19.228  11.109 -13.578  1.00  0.00     0.000 C 
BRANCH   2   3
ATOM      3  C   UNL     1      19.912  10.216 -14.623  1.00  0.00     0.000 C 
BRANCH   3   4
ATOM      4  C   UNL     1      21.413  10.515 -14.764  1.00  0.00     0.000 C 
BRANCH   4   5
ATOM      5  C   UNL     1      21.722  11.444 -15.952  1.00  0.00     0.000 C 
BRANCH   5   6
ATOM      6  C   UNL     1      22.630  12.620 -15.560  1.00  0.00     0.006 C 
BRANCH   6   7
ATOM      7  C   UNL     1      21.839  13.836 -15.063  1.00  0.00     0.053 C 
BRANCH   7   8
ATOM      8  C   UNL     1      22.245  14.186 -13.665  1.00  0.00     0.041 C 
ATOM      9  O   UNL     1      21.977  13.406 -12.714  1.00  0.00    -0.550 OA
ATOM     10  O   UNL     1      22.961  15.350 -13.420  1.00  0.00    -0.550 OA
ENDBRANCH   7   8
ENDBRANCH   6   7
ENDBRANCH   5   6
ENDBRANCH   4   5
ENDBRANCH   3   4
ENDBRANCH   2   3
ENDBRANCH   1   2
BRANCH   1  11
ATOM     11  C   UNL     1      18.021  12.106 -15.607  1.00  0.00     0.000 C 
BRANCH  11  12
ATOM     12  C   UNL     1      16.923  13.104 -16.026  1.00  0.00    -0.000 C 
BRANCH  12  13
ATOM     13  C   UNL     1      15.492  12.715 -15.604  1.00  0.00    -0.000 C 
BRANCH  13  14
ATOM     14  C   UNL     1      15.301  12.473 -14.093  1.00  0.00    -0.000 C 
BRANCH  14  15
ATOM     15  C   UNL     1      14.510  11.204 -13.728  1.00  0.00    -0.000 C 
BRANCH  15  16
ATOM     16  C   UNL     1      14.719  10.060 -14.736  1.00  0.00    -0.000 C 
BRANCH  16  17
ATOM     17  C   UNL     1      15.920   9.171 -14.377  1.00  0.00    -0.003 C 
ATOM     18  C   UNL     1      16.677   8.672 -15.607  1.00  0.00     0.004 C 
ENDBRANCH  16  17
ENDBRANCH  15  16
ENDBRANCH  14  15
ENDBRANCH  13  14
ENDBRANCH  12  13
ENDBRANCH  11  12
ENDBRANCH   1  11
TORSDOF 14
ENDMDL
MODEL 8
REMARK VINA RESULT:    -3.969      2.528      6.743
REMARK INTER + INTRA:          -8.459
REMARK INTER:                  -6.878
REMARK INTRA:                  -1.581
REMARK UNBOUND:                -1.242
REMARK SMILES CCCCCCCCCCCCCCCC(=O)[O-]
REMARK SMILES IDX 9 1 10 2 11 3 12 4 13 5 14 6 15 7 16 8 17 9 18 10 8 11 7 12
REMARK SMILES IDX 6 13 5 14 4 15 3 16 2 17 1 18
REMARK H PARENT
REMARK Flexibility Score: inf
ROOT
ATOM      1  C   UNL     1      17.596   8.745 -15.633  1.00  0.00     0.000 C 
ENDROOT
BRANCH   1   2
ATOM      2  C   UNL     1      18.424   9.946 -16.116  1.00  0.00     0.000 C 
BRANCH   2   3
ATOM      3  C   UNL     1      19.264  10.530 -14.970  1.00  0.00     0.000 C 
BRANCH   3   4
ATOM      4  C   UNL     1      20.774  10.367 -15.202  1.00  0.00     0.000 C 
BRANCH   4   5
ATOM      5  C   UNL     1      21.613  11.300 -14.310  1.00  0.00     0.000 C 
BRANCH   5   6
ATOM      6  C   UNL     1      20.802  12.493 -13.780  1.00  0.00     0.006 C 
BRANCH   6   7
ATOM      7  C   UNL     1      21.662  13.748 -13.580  1.00  0.00     0.053 C 
BRANCH   7   8
ATOM      8  C   UNL     1      21.482  14.692 -14.727  1.00  0.00     0.041 C 
ATOM      9  O   UNL     1      20.462  14.611 -15.460  1.00  0.00    -0.550 OA
ATOM     10  O   UNL     1      22.417  15.693 -14.956  1.00  0.00    -0.550 OA
ENDBRANCH   7   8
ENDBRANCH   6   7
ENDBRANCH   5   6
ENDBRANCH   4   5
ENDBRANCH   3   4
ENDBRANCH   2   3
ENDBRANCH   1   2
BRANCH   1  11
ATOM     11  C   UNL     1      16.965   8.973 -14.248  1.00  0.00     0.000 C 
BRANCH  11  12
ATOM     12  C   UNL     1      15.502   8.507 -14.114  1.00  0.00    -0.000 C 
BRANCH  12  13
ATOM     13  C   UNL     1      14.594   8.859 -15.309  1.00  0.00    -0.000 C 
BRANCH  13  14
ATOM     14  C   UNL     1      14.193  10.345 -15.409  1.00  0.00    -0.000 C 
BRANCH  14  15
ATOM     15  C   UNL     1      14.377  11.160 -14.118  1.00  0.00    -0.000 C 
BRANCH  15  16
ATOM     16  C   UNL     1      15.405  12.295 -14.269  1.00  0.00    -0.000 C 
BRANCH  16  17
ATOM     17  C   UNL     1      15.514  12.802 -15.716  1.00  0.00    -0.003 C 
ATOM     18  C   UNL     1      16.901  13.353 -16.048  1.00  0.00     0.004 C 
ENDBRANCH  16  17
ENDBRANCH  15  16
ENDBRANCH  14  15
ENDBRANCH  13  14
ENDBRANCH  12  13
ENDBRANCH  11  12
ENDBRANCH   1  11
TORSDOF 14
ENDMDL
