MODEL 1
REMARK VINA RESULT:    -0.901      0.000      0.000
REMARK INTER + INTRA:           0.219
REMARK INTER:                  -0.980
REMARK INTRA:                   1.199
REMARK UNBOUND:                 1.199
REMARK SMILES C[C@H]1[C@H](C)CC[C@@]2(C(=O)[O-])CC[C@]3(C)C(=CC[C@@H]4[C@]5(C)CC[C@H](O)C(C)(C)[C@H]5CC[C@]43C)[C@H]12
REMARK SMILES IDX 7 1 6 2 11 3 33 4 5 5 12 6 15 7 2 8 3 9 13 10 16 11 1 12
REMARK SMILES IDX 4 13 14 14 31 15 17 16 18 17 30 18 32 19 19 20 29 21 28 22
REMARK SMILES IDX 21 23 20 24 25 25 22 26 23 27 26 28 27 29 8 30 9 31 10 32
REMARK SMILES IDX 24 33
REMARK H PARENT 24 34
REMARK Flexibility Score: inf
ROOT
ATOM      1  C   UNL     1      36.383 -30.018  11.000  1.00  0.00     0.017 C 
ATOM      2  C   UNL     1      35.214 -29.547  11.919  1.00  0.00     0.014 C 
ATOM      3  C   UNL     1      37.368 -28.891  10.576  1.00  0.00     0.014 C 
ATOM      4  C   UNL     1      37.204 -31.005  11.921  1.00  0.00     0.030 C 
ATOM      5  C   UNL     1      34.278 -30.764  12.273  1.00  0.00     0.004 C 
ATOM      6  C   UNL     1      38.559 -29.375   9.716  1.00  0.00     0.013 C 
ATOM      7  C   UNL     1      38.698 -31.179  11.662  1.00  0.00    -0.063 C 
ATOM      8  C   UNL     1      36.412 -32.315  12.068  1.00  0.00    -0.003 C 
ATOM      9  C   UNL     1      35.080 -31.960  12.843  1.00  0.00    -0.011 C 
ATOM     10  C   UNL     1      39.348 -30.647  10.324  1.00  0.00    -0.006 C 
ATOM     11  C   UNL     1      39.544 -31.521  12.736  1.00  0.00    -0.027 C 
ATOM     12  C   UNL     1      37.135 -33.503  12.792  1.00  0.00     0.008 C 
ATOM     13  C   UNL     1      34.144 -33.200  12.995  1.00  0.00     0.008 C 
ATOM     14  C   UNL     1      39.089 -31.901   9.323  1.00  0.00     0.017 C 
ATOM     15  C   UNL     1      40.883 -30.186  10.575  1.00  0.00    -0.020 C 
ATOM     16  C   UNL     1      41.003 -31.745  12.698  1.00  0.00     0.032 C 
ATOM     17  C   UNL     1      41.500 -31.564  11.247  1.00  0.00     0.006 C 
ATOM     18  C   UNL     1      41.667 -29.752   9.265  1.00  0.00     0.008 C 
ATOM     19  C   UNL     1      40.870 -28.875  11.576  1.00  0.00     0.012 C 
ATOM     20  C   UNL     1      42.988 -31.878  10.897  1.00  0.00    -0.025 C 
ATOM     21  C   UNL     1      43.244 -29.899   9.334  1.00  0.00     0.005 C 
ATOM     22  C   UNL     1      43.791 -30.531  10.686  1.00  0.00     0.003 C 
ATOM     23  C   UNL     1      43.686 -32.683  12.060  1.00  0.00     0.010 C 
ATOM     24  C   UNL     1      42.933 -32.818   9.586  1.00  0.00     0.012 C 
ATOM     25  C   UNL     1      45.408 -30.545  10.813  1.00  0.00    -0.006 C 
ATOM     26  C   UNL     1      45.175 -32.916  11.700  1.00  0.00     0.033 C 
ATOM     27  C   UNL     1      46.013 -31.675  11.786  1.00  0.00     0.120 C 
ATOM     28  C   UNL     1      45.881 -29.127  11.275  1.00  0.00     0.014 C 
ATOM     29  C   UNL     1      46.061 -30.731   9.408  1.00  0.00     0.014 C 
ENDROOT
BRANCH   1  30
ATOM     30  C   UNL     1      35.730 -30.624   9.695  1.00  0.00     0.048 C 
ATOM     31  O   UNL     1      34.592 -30.141   9.370  1.00  0.00    -0.550 OA
ATOM     32  O   UNL     1      36.536 -30.871   8.603  1.00  0.00    -0.550 OA
ENDBRANCH   1  30
BRANCH  27  33
ATOM     33  O   UNL     1      46.064 -31.203  13.125  1.00  0.00    -0.393 OA
ATOM     34  H   UNL     1      46.106 -30.159  13.065  1.00  0.00     0.210 HD
ENDBRANCH  27  33
TORSDOF 2
ENDMDL
MODEL 2
REMARK VINA RESULT:     0.526      1.361      7.933
REMARK INTER + INTRA:           1.771
REMARK INTER:                   1.169
REMARK INTRA:                   0.602
REMARK UNBOUND:                 1.199
REMARK SMILES C[C@H]1[C@H](C)CC[C@@]2(C(=O)[O-])CC[C@]3(C)C(=CC[C@@H]4[C@]5(C)CC[C@H](O)C(C)(C)[C@H]5CC[C@]43C)[C@H]12
REMARK SMILES IDX 7 1 6 2 11 3 33 4 5 5 12 6 15 7 2 8 3 9 13 10 16 11 1 12
REMARK SMILES IDX 4 13 14 14 31 15 17 16 18 17 30 18 32 19 19 20 29 21 28 22
REMARK SMILES IDX 21 23 20 24 25 25 22 26 23 27 26 28 27 29 8 30 9 31 10 32
REMARK SMILES IDX 24 33
REMARK H PARENT 24 34
REMARK Flexibility Score: inf
ROOT
ATOM      1  C   UNL     1      43.916 -31.111  10.013  1.00  0.00     0.017 C 
ATOM      2  C   UNL     1      45.003 -32.023   9.364  1.00  0.00     0.014 C 
ATOM      3  C   UNL     1      42.971 -30.407   8.998  1.00  0.00     0.014 C 
ATOM      4  C   UNL     1      43.020 -32.126  10.827  1.00  0.00     0.030 C 
ATOM      5  C   UNL     1      45.905 -32.670  10.482  1.00  0.00     0.004 C 
ATOM      6  C   UNL     1      41.857 -29.554   9.649  1.00  0.00     0.013 C 
ATOM      7  C   UNL     1      41.553 -31.779  11.069  1.00  0.00    -0.063 C 
ATOM      8  C   UNL     1      43.796 -32.576  12.077  1.00  0.00    -0.003 C 
ATOM      9  C   UNL     1      45.058 -33.381  11.566  1.00  0.00    -0.011 C 
ATOM     10  C   UNL     1      41.019 -30.317  10.801  1.00  0.00    -0.006 C 
ATOM     11  C   UNL     1      40.619 -32.824  11.222  1.00  0.00    -0.027 C 
ATOM     12  C   UNL     1      43.014 -33.443  13.123  1.00  0.00     0.008 C 
ATOM     13  C   UNL     1      45.977 -33.835  12.743  1.00  0.00     0.008 C 
ATOM     14  C   UNL     1      41.361 -29.589  12.212  1.00  0.00     0.017 C 
ATOM     15  C   UNL     1      39.468 -30.351  10.324  1.00  0.00    -0.020 C 
ATOM     16  C   UNL     1      39.169 -32.706  11.472  1.00  0.00     0.032 C 
ATOM     17  C   UNL     1      38.796 -31.210  11.566  1.00  0.00     0.006 C 
ATOM     18  C   UNL     1      38.798 -28.923  10.150  1.00  0.00     0.008 C 
ATOM     19  C   UNL     1      39.396 -31.092   8.853  1.00  0.00     0.012 C 
ATOM     20  C   UNL     1      37.343 -30.801  11.962  1.00  0.00    -0.025 C 
ATOM     21  C   UNL     1      37.221 -28.885  10.305  1.00  0.00     0.005 C 
ATOM     22  C   UNL     1      36.561 -30.280  10.689  1.00  0.00     0.003 C 
ATOM     23  C   UNL     1      36.549 -32.029  12.551  1.00  0.00     0.010 C 
ATOM     24  C   UNL     1      37.509 -29.694  13.125  1.00  0.00     0.012 C 
ATOM     25  C   UNL     1      34.939 -30.273  10.704  1.00  0.00    -0.006 C 
ATOM     26  C   UNL     1      35.096 -31.595  12.869  1.00  0.00     0.033 C 
ATOM     27  C   UNL     1      34.254 -31.382  11.646  1.00  0.00     0.120 C 
ATOM     28  C   UNL     1      34.429 -30.426   9.232  1.00  0.00     0.014 C 
ATOM     29  C   UNL     1      34.408 -28.875  11.154  1.00  0.00     0.014 C 
ENDROOT
BRANCH   1  30
ATOM     30  C   UNL     1      44.677 -29.998  10.837  1.00  0.00     0.048 C 
ATOM     31  O   UNL     1      44.982 -28.941  10.188  1.00  0.00    -0.550 OA
ATOM     32  O   UNL     1      44.270 -29.734  12.129  1.00  0.00    -0.550 OA
ENDBRANCH   1  30
BRANCH  27  33
ATOM     33  O   UNL     1      34.090 -32.602  10.938  1.00  0.00    -0.393 OA
ATOM     34  H   UNL     1      34.013 -33.353  11.665  1.00  0.00     0.210 HD
ENDBRANCH  27  33
TORSDOF 2
ENDMDL
MODEL 3
REMARK VINA RESULT:     1.370      1.649      3.097
REMARK INTER + INTRA:           2.689
REMARK INTER:                   1.593
REMARK INTRA:                   1.096
REMARK UNBOUND:                 1.199
REMARK SMILES C[C@H]1[C@H](C)CC[C@@]2(C(=O)[O-])CC[C@]3(C)C(=CC[C@@H]4[C@]5(C)CC[C@H](O)C(C)(C)[C@H]5CC[C@]43C)[C@H]12
REMARK SMILES IDX 7 1 6 2 11 3 33 4 5 5 12 6 15 7 2 8 3 9 13 10 16 11 1 12
REMARK SMILES IDX 4 13 14 14 31 15 17 16 18 17 30 18 32 19 19 20 29 21 28 22
REMARK SMILES IDX 21 23 20 24 25 25 22 26 23 27 26 28 27 29 8 30 9 31 10 32
REMARK SMILES IDX 24 33
REMARK H PARENT 24 34
REMARK Flexibility Score: inf
ROOT
ATOM      1  C   UNL     1      36.221 -30.985  11.844  1.00  0.00     0.017 C 
ATOM      2  C   UNL     1      34.957 -31.894  11.749  1.00  0.00     0.014 C 
ATOM      3  C   UNL     1      37.140 -31.278  13.064  1.00  0.00     0.014 C 
ATOM      4  C   UNL     1      37.051 -31.371  10.556  1.00  0.00     0.030 C 
ATOM      5  C   UNL     1      34.098 -31.500  10.488  1.00  0.00     0.004 C 
ATOM      6  C   UNL     1      38.423 -30.415  13.118  1.00  0.00     0.013 C 
ATOM      7  C   UNL     1      38.569 -31.210  10.587  1.00  0.00    -0.063 C 
ATOM      8  C   UNL     1      36.357 -30.766   9.323  1.00  0.00    -0.003 C 
ATOM      9  C   UNL     1      34.950 -31.478   9.196  1.00  0.00    -0.011 C 
ATOM     10  C   UNL     1      39.266 -30.386  11.740  1.00  0.00    -0.006 C 
ATOM     11  C   UNL     1      39.362 -32.051   9.780  1.00  0.00    -0.027 C 
ATOM     12  C   UNL     1      37.121 -30.873   7.957  1.00  0.00     0.008 C 
ATOM     13  C   UNL     1      34.108 -30.899   8.016  1.00  0.00     0.008 C 
ATOM     14  C   UNL     1      39.178 -28.875  11.150  1.00  0.00     0.017 C 
ATOM     15  C   UNL     1      40.738 -30.986  12.065  1.00  0.00    -0.020 C 
ATOM     16  C   UNL     1      40.833 -32.053   9.655  1.00  0.00     0.032 C 
ATOM     17  C   UNL     1      41.414 -30.942  10.557  1.00  0.00     0.006 C 
ATOM     18  C   UNL     1      41.574 -30.151  13.124  1.00  0.00     0.008 C 
ATOM     19  C   UNL     1      40.551 -32.499  12.694  1.00  0.00     0.012 C 
ATOM     20  C   UNL     1      42.944 -30.633  10.511  1.00  0.00    -0.025 C 
ATOM     21  C   UNL     1      43.150 -30.295  13.016  1.00  0.00     0.005 C 
ATOM     22  C   UNL     1      43.650 -31.201  11.809  1.00  0.00     0.003 C 
ATOM     23  C   UNL     1      43.620 -31.306   9.256  1.00  0.00     0.010 C 
ATOM     24  C   UNL     1      43.055 -29.031  10.356  1.00  0.00     0.012 C 
ATOM     25  C   UNL     1      45.250 -31.466  11.788  1.00  0.00    -0.006 C 
ATOM     26  C   UNL     1      45.144 -31.029   9.286  1.00  0.00     0.033 C 
ATOM     27  C   UNL     1      45.873 -31.803  10.344  1.00  0.00     0.120 C 
ATOM     28  C   UNL     1      45.575 -32.616  12.797  1.00  0.00     0.014 C 
ATOM     29  C   UNL     1      46.012 -30.227  12.355  1.00  0.00     0.014 C 
ENDROOT
BRANCH   1  30
ATOM     30  C   UNL     1      35.710 -29.493  11.953  1.00  0.00     0.048 C 
ATOM     31  O   UNL     1      35.549 -28.881  10.843  1.00  0.00    -0.550 OA
ATOM     32  O   UNL     1      34.729 -29.194  12.876  1.00  0.00    -0.550 OA
ENDBRANCH   1  30
BRANCH  27  33
ATOM     33  O   UNL     1      45.793 -33.197  10.081  1.00  0.00    -0.393 OA
ATOM     34  H   UNL     1      45.471 -33.644  10.971  1.00  0.00     0.210 HD
ENDBRANCH  27  33
TORSDOF 2
ENDMDL
