MODEL 1
REMARK VINA RESULT:    -6.049      0.000      0.000
REMARK INTER + INTRA:          -7.247
REMARK INTER:                  -7.109
REMARK INTRA:                  -0.137
REMARK UNBOUND:                -0.137
REMARK SMILES O=C([O-])C=Cc1ccc(O)c(O)c1
REMARK SMILES IDX 6 1 13 2 7 3 11 4 8 5 9 6 5 7 4 8 2 9 1 10 3 11 12 12 10 14
REMARK H PARENT 12 13 10 15
REMARK Flexibility Score: inf
ROOT
ATOM      1  C   UNL     1      46.880  43.725  77.948  1.00  0.00    -0.022 A 
ATOM      2  C   UNL     1      45.632  44.254  78.317  1.00  0.00     0.058 A 
ATOM      3  C   UNL     1      47.827  43.451  78.954  1.00  0.00     0.012 A 
ATOM      4  C   UNL     1      45.340  44.532  79.660  1.00  0.00     0.157 A 
ATOM      5  C   UNL     1      47.536  43.727  80.294  1.00  0.00     0.051 A 
ATOM      6  C   UNL     1      46.295  44.270  80.650  1.00  0.00     0.157 A 
ENDROOT
BRANCH   1   7
ATOM      7  C   UNL     1      47.134  43.439  76.514  1.00  0.00     0.010 C 
ATOM      8  C   UNL     1      47.856  42.398  76.079  1.00  0.00     0.025 C 
BRANCH   8   9
ATOM      9  C   UNL     1      48.092  42.160  74.646  1.00  0.00     0.064 C 
ATOM     10  O   UNL     1      48.780  42.981  73.984  1.00  0.00    -0.545 OA
ATOM     11  O   UNL     1      47.568  41.041  74.009  1.00  0.00    -0.545 OA
ENDBRANCH   8   9
ENDBRANCH   1   7
BRANCH   4  12
ATOM     12  O   UNL     1      44.104  45.067  80.019  1.00  0.00    -0.504 OA
ATOM     13  H   UNL     1      44.025  45.988  80.433  1.00  0.00     0.293 HD
ENDBRANCH   4  12
BRANCH   6  14
ATOM     14  O   UNL     1      46.003  44.548  81.984  1.00  0.00    -0.504 OA
ATOM     15  H   UNL     1      45.399  43.946  82.531  1.00  0.00     0.293 HD
ENDBRANCH   6  14
TORSDOF 4
ENDMDL
MODEL 2
REMARK VINA RESULT:    -5.669      0.885      1.917
REMARK INTER + INTRA:          -6.800
REMARK INTER:                  -6.670
REMARK INTRA:                  -0.129
REMARK UNBOUND:                -0.137
REMARK SMILES O=C([O-])C=Cc1ccc(O)c(O)c1
REMARK SMILES IDX 6 1 13 2 7 3 11 4 8 5 9 6 5 7 4 8 2 9 1 10 3 11 12 12 10 14
REMARK H PARENT 12 13 10 15
REMARK Flexibility Score: inf
ROOT
ATOM      1  C   UNL     1      46.663  43.526  77.918  1.00  0.00    -0.022 A 
ATOM      2  C   UNL     1      47.515  43.063  78.935  1.00  0.00     0.058 A 
ATOM      3  C   UNL     1      45.569  44.342  78.267  1.00  0.00     0.012 A 
ATOM      4  C   UNL     1      47.268  43.383  80.277  1.00  0.00     0.157 A 
ATOM      5  C   UNL     1      45.323  44.661  79.606  1.00  0.00     0.051 A 
ATOM      6  C   UNL     1      46.169  44.181  80.614  1.00  0.00     0.157 A 
ENDROOT
BRANCH   1   7
ATOM      7  C   UNL     1      46.975  43.168  76.511  1.00  0.00     0.010 C 
ATOM      8  C   UNL     1      47.362  41.945  76.123  1.00  0.00     0.025 C 
BRANCH   8   9
ATOM      9  C   UNL     1      47.673  41.638  74.718  1.00  0.00     0.064 C 
ATOM     10  O   UNL     1      48.509  42.345  74.097  1.00  0.00    -0.545 OA
ATOM     11  O   UNL     1      47.058  40.577  74.063  1.00  0.00    -0.545 OA
ENDBRANCH   8   9
ENDBRANCH   1   7
BRANCH   4  12
ATOM     12  O   UNL     1      48.112  42.912  81.283  1.00  0.00    -0.504 OA
ATOM     13  H   UNL     1      47.910  43.073  82.262  1.00  0.00     0.293 HD
ENDBRANCH   4  12
BRANCH   6  14
ATOM     14  O   UNL     1      45.925  44.496  81.949  1.00  0.00    -0.504 OA
ATOM     15  H   UNL     1      46.654  44.864  82.549  1.00  0.00     0.293 HD
ENDBRANCH   6  14
TORSDOF 4
ENDMDL
MODEL 3
REMARK VINA RESULT:    -5.667     13.730     14.703
REMARK INTER + INTRA:          -6.798
REMARK INTER:                  -6.673
REMARK INTRA:                  -0.125
REMARK UNBOUND:                -0.137
REMARK SMILES O=C([O-])C=Cc1ccc(O)c(O)c1
REMARK SMILES IDX 6 1 13 2 7 3 11 4 8 5 9 6 5 7 4 8 2 9 1 10 3 11 12 12 10 14
REMARK H PARENT 12 13 10 15
REMARK Flexibility Score: inf
ROOT
ATOM      1  C   UNL     1      36.350  36.439  71.399  1.00  0.00    -0.022 A 
ATOM      2  C   UNL     1      36.538  36.019  72.727  1.00  0.00     0.058 A 
ATOM      3  C   UNL     1      36.315  37.820  71.121  1.00  0.00     0.012 A 
ATOM      4  C   UNL     1      36.661  36.956  73.763  1.00  0.00     0.157 A 
ATOM      5  C   UNL     1      36.438  38.753  72.154  1.00  0.00     0.051 A 
ATOM      6  C   UNL     1      36.609  38.325  73.477  1.00  0.00     0.157 A 
ENDROOT
BRANCH   1   7
ATOM      7  C   UNL     1      36.236  35.408  70.338  1.00  0.00     0.010 C 
ATOM      8  C   UNL     1      35.069  34.932  69.885  1.00  0.00     0.025 C 
BRANCH   8   9
ATOM      9  C   UNL     1      35.003  33.900  68.838  1.00  0.00     0.064 C 
ATOM     10  O   UNL     1      35.054  34.239  67.627  1.00  0.00    -0.545 OA
ATOM     11  O   UNL     1      34.887  32.554  69.164  1.00  0.00    -0.545 OA
ENDBRANCH   8   9
ENDBRANCH   1   7
BRANCH   4  12
ATOM     12  O   UNL     1      36.837  36.533  75.080  1.00  0.00    -0.504 OA
ATOM     13  H   UNL     1      36.477  37.069  75.862  1.00  0.00     0.293 HD
ENDBRANCH   4  12
BRANCH   6  14
ATOM     14  O   UNL     1      36.730  39.253  74.509  1.00  0.00    -0.504 OA
ATOM     15  H   UNL     1      36.177  39.180  75.356  1.00  0.00     0.293 HD
ENDBRANCH   6  14
TORSDOF 4
ENDMDL
MODEL 4
REMARK VINA RESULT:    -5.588      2.037      3.051
REMARK INTER + INTRA:          -6.706
REMARK INTER:                  -6.577
REMARK INTRA:                  -0.128
REMARK UNBOUND:                -0.137
REMARK SMILES O=C([O-])C=Cc1ccc(O)c(O)c1
REMARK SMILES IDX 6 1 13 2 7 3 11 4 8 5 9 6 5 7 4 8 2 9 1 10 3 11 12 12 10 14
REMARK H PARENT 12 13 10 15
REMARK Flexibility Score: inf
ROOT
ATOM      1  C   UNL     1      47.190  43.808  78.972  1.00  0.00    -0.022 A 
ATOM      2  C   UNL     1      47.388  43.503  80.329  1.00  0.00     0.058 A 
ATOM      3  C   UNL     1      45.949  44.338  78.567  1.00  0.00     0.012 A 
ATOM      4  C   UNL     1      46.360  43.696  81.263  1.00  0.00     0.157 A 
ATOM      5  C   UNL     1      44.925  44.531  79.499  1.00  0.00     0.051 A 
ATOM      6  C   UNL     1      45.125  44.209  80.847  1.00  0.00     0.157 A 
ENDROOT
BRANCH   1   7
ATOM      7  C   UNL     1      48.314  43.595  78.026  1.00  0.00     0.010 C 
ATOM      8  C   UNL     1      49.359  44.426  77.913  1.00  0.00     0.025 C 
BRANCH   8   9
ATOM      9  C   UNL     1      50.446  44.181  76.952  1.00  0.00     0.064 C 
ATOM     10  O   UNL     1      50.195  43.601  75.863  1.00  0.00    -0.545 OA
ATOM     11  O   UNL     1      51.749  44.581  77.226  1.00  0.00    -0.545 OA
ENDBRANCH   8   9
ENDBRANCH   1   7
BRANCH   4  12
ATOM     12  O   UNL     1      46.558  43.382  82.607  1.00  0.00    -0.504 OA
ATOM     13  H   UNL     1      45.892  42.821  83.124  1.00  0.00     0.293 HD
ENDBRANCH   4  12
BRANCH   6  14
ATOM     14  O   UNL     1      44.105  44.398  81.778  1.00  0.00    -0.504 OA
ATOM     15  H   UNL     1      43.143  44.161  81.565  1.00  0.00     0.293 HD
ENDBRANCH   6  14
TORSDOF 4
ENDMDL
MODEL 5
REMARK VINA RESULT:    -5.585      2.341      3.173
REMARK INTER + INTRA:          -6.701
REMARK INTER:                  -6.574
REMARK INTRA:                  -0.127
REMARK UNBOUND:                -0.137
REMARK SMILES O=C([O-])C=Cc1ccc(O)c(O)c1
REMARK SMILES IDX 6 1 13 2 7 3 11 4 8 5 9 6 5 7 4 8 2 9 1 10 3 11 12 12 10 14
REMARK H PARENT 12 13 10 15
REMARK Flexibility Score: inf
ROOT
ATOM      1  C   UNL     1      48.312  42.879  76.698  1.00  0.00    -0.022 A 
ATOM      2  C   UNL     1      47.566  43.235  77.834  1.00  0.00     0.058 A 
ATOM      3  C   UNL     1      49.561  43.494  76.483  1.00  0.00     0.012 A 
ATOM      4  C   UNL     1      48.042  44.206  78.727  1.00  0.00     0.157 A 
ATOM      5  C   UNL     1      50.035  44.461  77.374  1.00  0.00     0.051 A 
ATOM      6  C   UNL     1      49.277  44.821  78.496  1.00  0.00     0.157 A 
ENDROOT
BRANCH   1   7
ATOM      7  C   UNL     1      47.768  41.838  75.789  1.00  0.00     0.010 C 
ATOM      8  C   UNL     1      47.751  40.531  76.080  1.00  0.00     0.025 C 
BRANCH   8   9
ATOM      9  C   UNL     1      47.213  39.532  75.144  1.00  0.00     0.064 C 
ATOM     10  O   UNL     1      47.638  38.348  75.185  1.00  0.00    -0.545 OA
ATOM     11  O   UNL     1      46.239  39.874  74.212  1.00  0.00    -0.545 OA
ENDBRANCH   8   9
ENDBRANCH   1   7
BRANCH   4  12
ATOM     12  O   UNL     1      47.292  44.562  79.848  1.00  0.00    -0.504 OA
ATOM     13  H   UNL     1      47.636  45.234  80.523  1.00  0.00     0.293 HD
ENDBRANCH   4  12
BRANCH   6  14
ATOM     14  O   UNL     1      49.747  45.787  79.385  1.00  0.00    -0.504 OA
ATOM     15  H   UNL     1      50.428  45.561  80.100  1.00  0.00     0.293 HD
ENDBRANCH   6  14
TORSDOF 4
ENDMDL
MODEL 6
REMARK VINA RESULT:    -5.553     16.283     18.402
REMARK INTER + INTRA:          -6.664
REMARK INTER:                  -6.540
REMARK INTRA:                  -0.124
REMARK UNBOUND:                -0.137
REMARK SMILES O=C([O-])C=Cc1ccc(O)c(O)c1
REMARK SMILES IDX 6 1 13 2 7 3 11 4 8 5 9 6 5 7 4 8 2 9 1 10 3 11 12 12 10 14
REMARK H PARENT 12 13 10 15
REMARK Flexibility Score: inf
ROOT
ATOM      1  C   UNL     1      34.936  33.866  68.968  1.00  0.00    -0.022 A 
ATOM      2  C   UNL     1      34.637  32.559  69.388  1.00  0.00     0.058 A 
ATOM      3  C   UNL     1      35.005  34.137  67.587  1.00  0.00     0.012 A 
ATOM      4  C   UNL     1      34.435  31.534  68.452  1.00  0.00     0.157 A 
ATOM      5  C   UNL     1      34.804  33.116  66.654  1.00  0.00     0.051 A 
ATOM      6  C   UNL     1      34.522  31.812  67.083  1.00  0.00     0.157 A 
ENDROOT
BRANCH   1   7
ATOM      7  C   UNL     1      35.130  34.916  69.999  1.00  0.00     0.010 C 
ATOM      8  C   UNL     1      36.330  35.364  70.389  1.00  0.00     0.025 C 
BRANCH   8   9
ATOM      9  C   UNL     1      36.475  36.399  71.424  1.00  0.00     0.064 C 
ATOM     10  O   UNL     1      36.724  36.062  72.611  1.00  0.00    -0.545 OA
ATOM     11  O   UNL     1      36.342  37.748  71.113  1.00  0.00    -0.545 OA
ENDBRANCH   8   9
ENDBRANCH   1   7
BRANCH   4  12
ATOM     12  O   UNL     1      34.148  30.237  68.875  1.00  0.00    -0.504 OA
ATOM     13  H   UNL     1      33.220  29.974  69.186  1.00  0.00     0.293 HD
ENDBRANCH   4  12
BRANCH   6  14
ATOM     14  O   UNL     1      34.323  30.792  66.155  1.00  0.00    -0.504 OA
ATOM     15  H   UNL     1      34.697  30.849  65.215  1.00  0.00     0.293 HD
ENDBRANCH   6  14
TORSDOF 4
ENDMDL
MODEL 7
REMARK VINA RESULT:    -5.457     15.658     17.880
REMARK INTER + INTRA:          -6.552
REMARK INTER:                  -6.425
REMARK INTRA:                  -0.126
REMARK UNBOUND:                -0.137
REMARK SMILES O=C([O-])C=Cc1ccc(O)c(O)c1
REMARK SMILES IDX 6 1 13 2 7 3 11 4 8 5 9 6 5 7 4 8 2 9 1 10 3 11 12 12 10 14
REMARK H PARENT 12 13 10 15
REMARK Flexibility Score: inf
ROOT
ATOM      1  C   UNL     1      35.352  33.957  69.190  1.00  0.00    -0.022 A 
ATOM      2  C   UNL     1      36.197  33.830  68.074  1.00  0.00     0.058 A 
ATOM      3  C   UNL     1      34.541  32.866  69.557  1.00  0.00     0.012 A 
ATOM      4  C   UNL     1      36.214  32.648  67.320  1.00  0.00     0.157 A 
ATOM      5  C   UNL     1      34.559  31.687  68.805  1.00  0.00     0.051 A 
ATOM      6  C   UNL     1      35.392  31.575  67.685  1.00  0.00     0.157 A 
ENDROOT
BRANCH   1   7
ATOM      7  C   UNL     1      35.380  35.226  69.961  1.00  0.00     0.010 C 
ATOM      8  C   UNL     1      36.423  35.625  70.700  1.00  0.00     0.025 C 
BRANCH   8   9
ATOM      9  C   UNL     1      36.402  36.886  71.457  1.00  0.00     0.064 C 
ATOM     10  O   UNL     1      36.629  36.872  72.695  1.00  0.00    -0.545 OA
ATOM     11  O   UNL     1      36.136  38.097  70.828  1.00  0.00    -0.545 OA
ENDBRANCH   8   9
ENDBRANCH   1   7
BRANCH   4  12
ATOM     12  O   UNL     1      37.047  32.532  66.208  1.00  0.00    -0.504 OA
ATOM     13  H   UNL     1      37.014  31.719  65.604  1.00  0.00     0.293 HD
ENDBRANCH   4  12
BRANCH   6  14
ATOM     14  O   UNL     1      35.410  30.403  66.933  1.00  0.00    -0.504 OA
ATOM     15  H   UNL     1      36.209  30.151  66.362  1.00  0.00     0.293 HD
ENDBRANCH   6  14
TORSDOF 4
ENDMDL
MODEL 8
REMARK VINA RESULT:    -5.411      2.780      3.851
REMARK INTER + INTRA:          -6.498
REMARK INTER:                  -6.366
REMARK INTRA:                  -0.132
REMARK UNBOUND:                -0.137
REMARK SMILES O=C([O-])C=Cc1ccc(O)c(O)c1
REMARK SMILES IDX 6 1 13 2 7 3 11 4 8 5 9 6 5 7 4 8 2 9 1 10 3 11 12 12 10 14
REMARK H PARENT 12 13 10 15
REMARK Flexibility Score: inf
ROOT
ATOM      1  C   UNL     1      48.349  42.778  76.691  1.00  0.00    -0.022 A 
ATOM      2  C   UNL     1      49.658  43.284  76.630  1.00  0.00     0.058 A 
ATOM      3  C   UNL     1      47.463  43.298  77.655  1.00  0.00     0.012 A 
ATOM      4  C   UNL     1      50.087  44.272  77.529  1.00  0.00     0.157 A 
ATOM      5  C   UNL     1      47.891  44.283  78.551  1.00  0.00     0.051 A 
ATOM      6  C   UNL     1      49.203  44.770  78.492  1.00  0.00     0.157 A 
ENDROOT
BRANCH   1   7
ATOM      7  C   UNL     1      47.942  41.741  75.710  1.00  0.00     0.010 C 
ATOM      8  C   UNL     1      47.572  40.499  76.050  1.00  0.00     0.025 C 
BRANCH   8   9
ATOM      9  C   UNL     1      47.187  39.500  75.041  1.00  0.00     0.064 C 
ATOM     10  O   UNL     1      46.279  39.771  74.212  1.00  0.00    -0.545 OA
ATOM     11  O   UNL     1      47.810  38.258  74.987  1.00  0.00    -0.545 OA
ENDBRANCH   8   9
ENDBRANCH   1   7
BRANCH   4  12
ATOM     12  O   UNL     1      51.391  44.763  77.469  1.00  0.00    -0.504 OA
ATOM     13  H   UNL     1      52.191  44.142  77.465  1.00  0.00     0.293 HD
ENDBRANCH   4  12
BRANCH   6  14
ATOM     14  O   UNL     1      49.632  45.750  79.385  1.00  0.00    -0.504 OA
ATOM     15  H   UNL     1      49.860  45.528  80.347  1.00  0.00     0.293 HD
ENDBRANCH   6  14
TORSDOF 4
ENDMDL
MODEL 9
REMARK VINA RESULT:    -5.389     13.980     15.031
REMARK INTER + INTRA:          -6.472
REMARK INTER:                  -6.345
REMARK INTRA:                  -0.127
REMARK UNBOUND:                -0.137
REMARK SMILES O=C([O-])C=Cc1ccc(O)c(O)c1
REMARK SMILES IDX 6 1 13 2 7 3 11 4 8 5 9 6 5 7 4 8 2 9 1 10 3 11 12 12 10 14
REMARK H PARENT 12 13 10 15
REMARK Flexibility Score: inf
ROOT
ATOM      1  C   UNL     1      36.333  36.038  71.234  1.00  0.00    -0.022 A 
ATOM      2  C   UNL     1      36.130  37.339  70.745  1.00  0.00     0.058 A 
ATOM      3  C   UNL     1      36.704  35.867  72.582  1.00  0.00     0.012 A 
ATOM      4  C   UNL     1      36.319  38.453  71.575  1.00  0.00     0.157 A 
ATOM      5  C   UNL     1      36.892  36.978  73.410  1.00  0.00     0.051 A 
ATOM      6  C   UNL     1      36.703  38.273  72.909  1.00  0.00     0.157 A 
ENDROOT
BRANCH   1   7
ATOM      7  C   UNL     1      36.108  34.892  70.316  1.00  0.00     0.010 C 
ATOM      8  C   UNL     1      34.974  34.699  69.630  1.00  0.00     0.025 C 
BRANCH   8   9
ATOM      9  C   UNL     1      34.791  33.542  68.740  1.00  0.00     0.064 C 
ATOM     10  O   UNL     1      34.506  33.729  67.528  1.00  0.00    -0.545 OA
ATOM     11  O   UNL     1      34.929  32.243  69.215  1.00  0.00    -0.545 OA
ENDBRANCH   8   9
ENDBRANCH   1   7
BRANCH   4  12
ATOM     12  O   UNL     1      36.127  39.743  71.082  1.00  0.00    -0.504 OA
ATOM     13  H   UNL     1      36.281  39.965  70.105  1.00  0.00     0.293 HD
ENDBRANCH   4  12
BRANCH   6  14
ATOM     14  O   UNL     1      36.892  39.382  73.731  1.00  0.00    -0.504 OA
ATOM     15  H   UNL     1      37.294  39.293  74.657  1.00  0.00     0.293 HD
ENDBRANCH   6  14
TORSDOF 4
ENDMDL
