MODEL 1
REMARK VINA RESULT:    -4.550      0.000      0.000
REMARK INTER + INTRA:          -6.749
REMARK INTER:                  -6.146
REMARK INTRA:                  -0.603
REMARK UNBOUND:                -0.603
REMARK SMILES COc1ccc(-c2cc(=O)c3c(OC)c(OC)c(OC)c(OC)c3o2)cc1
REMARK SMILES IDX 7 1 8 2 9 3 10 4 11 5 24 6 25 7 21 8 18 9 15 10 12 11 6 12
REMARK SMILES IDX 3 13 4 14 27 15 5 16 26 17 2 18 1 19 22 20 23 21 13 22 14 23
REMARK SMILES IDX 19 24 20 25 16 26 17 27
REMARK H PARENT
REMARK Flexibility Score: inf
ROOT
ATOM      1  C   UNL     1     101.135 110.380 117.486  1.00  0.00     0.138 A 
ATOM      2  C   UNL     1     101.564 109.750 116.314  1.00  0.00     0.100 A 
ATOM      3  C   UNL     1     101.381 110.389 115.092  1.00  0.00     0.197 A 
ATOM      4  O   UNL     1     101.775 109.802 114.048  1.00  0.00    -0.289 OA
ATOM      5  C   UNL     1     100.765 111.664 115.045  1.00  0.00     0.115 A 
ATOM      6  C   UNL     1     100.338 112.230 116.270  1.00  0.00     0.188 A 
ATOM      7  O   UNL     1     100.540 111.566 117.408  1.00  0.00    -0.452 OA
ATOM      8  C   UNL     1      99.713 113.498 116.294  1.00  0.00     0.209 A 
ATOM      9  C   UNL     1      99.510 114.203 115.080  1.00  0.00     0.211 A 
ATOM     10  C   UNL     1      99.953 113.645 113.851  1.00  0.00     0.208 A 
ATOM     11  C   UNL     1     100.583 112.373 113.834  1.00  0.00     0.179 A 
ENDROOT
BRANCH   1  12
ATOM     12  C   UNL     1     101.323 109.750 118.817  1.00  0.00     0.018 A 
ATOM     13  C   UNL     1     101.638 108.588 121.371  1.00  0.00     0.118 A 
ATOM     14  C   UNL     1     100.369 108.650 120.768  1.00  0.00     0.047 A 
ATOM     15  C   UNL     1     102.742 109.111 120.689  1.00  0.00     0.047 A 
ATOM     16  C   UNL     1     100.216 109.228 119.505  1.00  0.00     0.016 A 
ATOM     17  C   UNL     1     102.589 109.691 119.427  1.00  0.00     0.016 A 
BRANCH  13  18
ATOM     18  O   UNL     1     101.844 108.021 122.637  1.00  0.00    -0.497 OA
ATOM     19  C   UNL     1     100.924 107.150 123.287  1.00  0.00     0.278 C 
ENDBRANCH  13  18
ENDBRANCH   1  12
BRANCH   8  20
ATOM     20  O   UNL     1      99.295 114.105 117.495  1.00  0.00    -0.490 OA
ATOM     21  C   UNL     1     100.070 114.910 118.375  1.00  0.00     0.278 C 
ENDBRANCH   8  20
BRANCH  11  22
ATOM     22  O   UNL     1     101.046 111.768 112.646  1.00  0.00    -0.492 OA
ATOM     23  C   UNL     1     102.193 112.112 111.875  1.00  0.00     0.278 C 
ENDBRANCH  11  22
BRANCH   9  24
ATOM     24  O   UNL     1      98.875 115.460 115.041  1.00  0.00    -0.490 OA
ATOM     25  C   UNL     1      99.467 116.747 115.197  1.00  0.00     0.279 C 
ENDBRANCH   9  24
BRANCH  10  26
ATOM     26  O   UNL     1      99.784 114.307 112.618  1.00  0.00    -0.490 OA
ATOM     27  C   UNL     1     100.616 115.302 112.030  1.00  0.00     0.278 C 
ENDBRANCH  10  26
TORSDOF 6
ENDMDL
MODEL 2
REMARK VINA RESULT:    -4.538      7.399      9.581
REMARK INTER + INTRA:          -6.733
REMARK INTER:                  -6.048
REMARK INTRA:                  -0.685
REMARK UNBOUND:                -0.603
REMARK SMILES COc1ccc(-c2cc(=O)c3c(OC)c(OC)c(OC)c(OC)c3o2)cc1
REMARK SMILES IDX 7 1 8 2 9 3 10 4 11 5 24 6 25 7 21 8 18 9 15 10 12 11 6 12
REMARK SMILES IDX 3 13 4 14 27 15 5 16 26 17 2 18 1 19 22 20 23 21 13 22 14 23
REMARK SMILES IDX 19 24 20 25 16 26 17 27
REMARK H PARENT
REMARK Flexibility Score: inf
ROOT
ATOM      1  C   UNL     1     109.049 109.081 113.997  1.00  0.00     0.138 A 
ATOM      2  C   UNL     1     108.257 109.053 112.846  1.00  0.00     0.100 A 
ATOM      3  C   UNL     1     106.883 109.236 112.959  1.00  0.00     0.197 A 
ATOM      4  O   UNL     1     106.188 109.205 111.908  1.00  0.00    -0.289 OA
ATOM      5  C   UNL     1     106.300 109.447 114.233  1.00  0.00     0.115 A 
ATOM      6  C   UNL     1     107.162 109.442 115.356  1.00  0.00     0.188 A 
ATOM      7  O   UNL     1     108.471 109.260 115.181  1.00  0.00    -0.452 OA
ATOM      8  C   UNL     1     106.646 109.644 116.657  1.00  0.00     0.209 A 
ATOM      9  C   UNL     1     105.253 109.848 116.835  1.00  0.00     0.211 A 
ATOM     10  C   UNL     1     104.388 109.870 115.708  1.00  0.00     0.208 A 
ATOM     11  C   UNL     1     104.914 109.670 114.404  1.00  0.00     0.179 A 
ENDROOT
BRANCH   1  12
ATOM     12  C   UNL     1     110.521 108.911 113.929  1.00  0.00     0.018 A 
ATOM     13  C   UNL     1     113.330 108.646 113.803  1.00  0.00     0.118 A 
ATOM     14  C   UNL     1     112.730 109.388 114.835  1.00  0.00     0.047 A 
ATOM     15  C   UNL     1     112.517 108.042 112.838  1.00  0.00     0.047 A 
ATOM     16  C   UNL     1     111.340 109.520 114.893  1.00  0.00     0.016 A 
ATOM     17  C   UNL     1     111.127 108.174 112.895  1.00  0.00     0.016 A 
BRANCH  13  18
ATOM     18  O   UNL     1     114.720 108.487 113.698  1.00  0.00    -0.497 OA
ATOM     19  C   UNL     1     115.378 107.878 112.592  1.00  0.00     0.278 C 
ENDBRANCH  13  18
ENDBRANCH   1  12
BRANCH   8  20
ATOM     20  O   UNL     1     107.474 109.670 117.796  1.00  0.00    -0.490 OA
ATOM     21  C   UNL     1     107.877 108.569 118.601  1.00  0.00     0.278 C 
ENDBRANCH   8  20
BRANCH  11  22
ATOM     22  O   UNL     1     104.105 109.683 113.247  1.00  0.00    -0.492 OA
ATOM     23  C   UNL     1     103.100 108.747 112.869  1.00  0.00     0.278 C 
ENDBRANCH  11  22
BRANCH   9  24
ATOM     24  O   UNL     1     104.681 110.034 118.109  1.00  0.00    -0.490 OA
ATOM     25  C   UNL     1     104.156 109.044 118.988  1.00  0.00     0.279 C 
ENDBRANCH   9  24
BRANCH  10  26
ATOM     26  O   UNL     1     102.999 110.077 115.828  1.00  0.00    -0.490 OA
ATOM     27  C   UNL     1     102.288 111.311 115.823  1.00  0.00     0.278 C 
ENDBRANCH  10  26
TORSDOF 6
ENDMDL
MODEL 3
REMARK VINA RESULT:    -4.495      6.759      8.773
REMARK INTER + INTRA:          -6.676
REMARK INTER:                  -5.965
REMARK INTRA:                  -0.711
REMARK UNBOUND:                -0.603
REMARK SMILES COc1ccc(-c2cc(=O)c3c(OC)c(OC)c(OC)c(OC)c3o2)cc1
REMARK SMILES IDX 7 1 8 2 9 3 10 4 11 5 24 6 25 7 21 8 18 9 15 10 12 11 6 12
REMARK SMILES IDX 3 13 4 14 27 15 5 16 26 17 2 18 1 19 22 20 23 21 13 22 14 23
REMARK SMILES IDX 19 24 20 25 16 26 17 27
REMARK H PARENT
REMARK Flexibility Score: inf
ROOT
ATOM      1  C   UNL     1     108.337 109.424 114.198  1.00  0.00     0.138 A 
ATOM      2  C   UNL     1     107.654 109.225 112.996  1.00  0.00     0.100 A 
ATOM      3  C   UNL     1     106.269 109.355 112.971  1.00  0.00     0.197 A 
ATOM      4  O   UNL     1     105.673 109.169 111.875  1.00  0.00    -0.289 OA
ATOM      5  C   UNL     1     105.567 109.685 114.156  1.00  0.00     0.115 A 
ATOM      6  C   UNL     1     106.325 109.851 115.341  1.00  0.00     0.188 A 
ATOM      7  O   UNL     1     107.650 109.712 115.299  1.00  0.00    -0.452 OA
ATOM      8  C   UNL     1     105.687 110.178 116.559  1.00  0.00     0.209 A 
ATOM      9  C   UNL     1     104.277 110.335 116.593  1.00  0.00     0.211 A 
ATOM     10  C   UNL     1     103.516 110.185 115.403  1.00  0.00     0.208 A 
ATOM     11  C   UNL     1     104.164 109.860 114.181  1.00  0.00     0.179 A 
ENDROOT
BRANCH   1  12
ATOM     12  C   UNL     1     109.815 109.318 114.276  1.00  0.00     0.018 A 
ATOM     13  C   UNL     1     112.633 109.173 114.415  1.00  0.00     0.118 A 
ATOM     14  C   UNL     1     111.926 110.089 115.214  1.00  0.00     0.047 A 
ATOM     15  C   UNL     1     111.921 108.335 113.549  1.00  0.00     0.047 A 
ATOM     16  C   UNL     1     110.532 110.160 115.141  1.00  0.00     0.016 A 
ATOM     17  C   UNL     1     110.528 108.406 113.475  1.00  0.00     0.016 A 
BRANCH  13  18
ATOM     18  O   UNL     1     114.030 109.065 114.449  1.00  0.00    -0.497 OA
ATOM     19  C   UNL     1     114.805 108.360 113.484  1.00  0.00     0.278 C 
ENDBRANCH  13  18
ENDBRANCH   1  12
BRANCH   8  20
ATOM     20  O   UNL     1     106.408 110.376 117.753  1.00  0.00    -0.490 OA
ATOM     21  C   UNL     1     106.777 109.396 118.716  1.00  0.00     0.278 C 
ENDBRANCH   8  20
BRANCH  11  22
ATOM     22  O   UNL     1     103.462 109.700 112.967  1.00  0.00    -0.492 OA
ATOM     23  C   UNL     1     102.798 110.698 112.199  1.00  0.00     0.278 C 
ENDBRANCH  11  22
BRANCH   9  24
ATOM     24  O   UNL     1     103.586 110.641 117.782  1.00  0.00    -0.490 OA
ATOM     25  C   UNL     1     103.013 109.735 118.721  1.00  0.00     0.279 C 
ENDBRANCH   9  24
BRANCH  10  26
ATOM     26  O   UNL     1     102.115 110.338 115.379  1.00  0.00    -0.490 OA
ATOM     27  C   UNL     1     101.116 109.330 115.494  1.00  0.00     0.278 C 
ENDBRANCH  10  26
TORSDOF 6
ENDMDL
MODEL 4
REMARK VINA RESULT:    -4.481      8.250     10.612
REMARK INTER + INTRA:          -6.655
REMARK INTER:                  -5.980
REMARK INTRA:                  -0.676
REMARK UNBOUND:                -0.603
REMARK SMILES COc1ccc(-c2cc(=O)c3c(OC)c(OC)c(OC)c(OC)c3o2)cc1
REMARK SMILES IDX 7 1 8 2 9 3 10 4 11 5 24 6 25 7 21 8 18 9 15 10 12 11 6 12
REMARK SMILES IDX 3 13 4 14 27 15 5 16 26 17 2 18 1 19 22 20 23 21 13 22 14 23
REMARK SMILES IDX 19 24 20 25 16 26 17 27
REMARK H PARENT
REMARK Flexibility Score: inf
ROOT
ATOM      1  C   UNL     1     109.922 108.732 113.591  1.00  0.00     0.138 A 
ATOM      2  C   UNL     1     109.022 108.948 112.544  1.00  0.00     0.100 A 
ATOM      3  C   UNL     1     107.682 109.183 112.835  1.00  0.00     0.197 A 
ATOM      4  O   UNL     1     106.888 109.374 111.875  1.00  0.00    -0.289 OA
ATOM      5  C   UNL     1     107.243 109.198 114.182  1.00  0.00     0.115 A 
ATOM      6  C   UNL     1     108.208 108.951 115.188  1.00  0.00     0.188 A 
ATOM      7  O   UNL     1     109.477 108.731 114.843  1.00  0.00    -0.452 OA
ATOM      8  C   UNL     1     107.837 108.949 116.552  1.00  0.00     0.209 A 
ATOM      9  C   UNL     1     106.487 109.193 116.912  1.00  0.00     0.211 A 
ATOM     10  C   UNL     1     105.519 109.459 115.906  1.00  0.00     0.208 A 
ATOM     11  C   UNL     1     105.900 109.462 114.538  1.00  0.00     0.179 A 
ENDROOT
BRANCH   1  12
ATOM     12  C   UNL     1     111.365 108.497 113.335  1.00  0.00     0.018 A 
ATOM     13  C   UNL     1     114.099 107.994 112.838  1.00  0.00     0.118 A 
ATOM     14  C   UNL     1     113.124 107.631 111.892  1.00  0.00     0.047 A 
ATOM     15  C   UNL     1     113.696 108.607 114.029  1.00  0.00     0.047 A 
ATOM     16  C   UNL     1     111.771 107.879 112.142  1.00  0.00     0.016 A 
ATOM     17  C   UNL     1     112.344 108.854 114.281  1.00  0.00     0.016 A 
BRANCH  13  18
ATOM     18  O   UNL     1     115.468 107.764 112.636  1.00  0.00    -0.497 OA
ATOM     19  C   UNL     1     116.115 106.516 112.862  1.00  0.00     0.278 C 
ENDBRANCH  13  18
ENDBRANCH   1  12
BRANCH   8  20
ATOM     20  O   UNL     1     108.772 108.731 117.583  1.00  0.00    -0.490 OA
ATOM     21  C   UNL     1     109.195 107.484 118.121  1.00  0.00     0.278 C 
ENDBRANCH   8  20
BRANCH  11  22
ATOM     22  O   UNL     1     104.985 109.721 113.494  1.00  0.00    -0.492 OA
ATOM     23  C   UNL     1     103.895 108.912 113.062  1.00  0.00     0.278 C 
ENDBRANCH  11  22
BRANCH   9  24
ATOM     24  O   UNL     1     106.056 109.184 118.253  1.00  0.00    -0.490 OA
ATOM     25  C   UNL     1     105.571 108.080 119.012  1.00  0.00     0.279 C 
ENDBRANCH   9  24
BRANCH  10  26
ATOM     26  O   UNL     1     104.167 109.716 116.209  1.00  0.00    -0.490 OA
ATOM     27  C   UNL     1     103.556 110.963 116.528  1.00  0.00     0.278 C 
ENDBRANCH  10  26
TORSDOF 6
ENDMDL
MODEL 5
REMARK VINA RESULT:    -4.452      8.340     10.703
REMARK INTER + INTRA:          -6.617
REMARK INTER:                  -5.943
REMARK INTRA:                  -0.674
REMARK UNBOUND:                -0.603
REMARK SMILES COc1ccc(-c2cc(=O)c3c(OC)c(OC)c(OC)c(OC)c3o2)cc1
REMARK SMILES IDX 7 1 8 2 9 3 10 4 11 5 24 6 25 7 21 8 18 9 15 10 12 11 6 12
REMARK SMILES IDX 3 13 4 14 27 15 5 16 26 17 2 18 1 19 22 20 23 21 13 22 14 23
REMARK SMILES IDX 19 24 20 25 16 26 17 27
REMARK H PARENT
REMARK Flexibility Score: inf
ROOT
ATOM      1  C   UNL     1     110.554 109.331 115.114  1.00  0.00     0.138 A 
ATOM      2  C   UNL     1     110.592 109.489 116.502  1.00  0.00     0.100 A 
ATOM      3  C   UNL     1     109.422 109.804 117.184  1.00  0.00     0.197 A 
ATOM      4  O   UNL     1     109.480 109.942 118.436  1.00  0.00    -0.289 OA
ATOM      5  C   UNL     1     108.208 109.962 116.471  1.00  0.00     0.115 A 
ATOM      6  C   UNL     1     108.250 109.808 115.064  1.00  0.00     0.188 A 
ATOM      7  O   UNL     1     109.405 109.508 114.470  1.00  0.00    -0.452 OA
ATOM      8  C   UNL     1     107.075 109.956 114.292  1.00  0.00     0.209 A 
ATOM      9  C   UNL     1     105.849 110.266 114.933  1.00  0.00     0.211 A 
ATOM     10  C   UNL     1     105.800 110.404 116.346  1.00  0.00     0.208 A 
ATOM     11  C   UNL     1     106.983 110.251 117.116  1.00  0.00     0.179 A 
ENDROOT
BRANCH   1  12
ATOM     12  C   UNL     1     111.770 108.976 114.341  1.00  0.00     0.018 A 
ATOM     13  C   UNL     1     114.061 108.246 112.860  1.00  0.00     0.118 A 
ATOM     14  C   UNL     1     112.775 108.061 112.321  1.00  0.00     0.047 A 
ATOM     15  C   UNL     1     114.189 108.795 114.140  1.00  0.00     0.047 A 
ATOM     16  C   UNL     1     111.643 108.421 113.057  1.00  0.00     0.016 A 
ATOM     17  C   UNL     1     113.058 109.154 114.878  1.00  0.00     0.016 A 
BRANCH  13  18
ATOM     18  O   UNL     1     115.227 107.898 112.163  1.00  0.00    -0.497 OA
ATOM     19  C   UNL     1     115.712 106.567 112.021  1.00  0.00     0.278 C 
ENDBRANCH  13  18
ENDBRANCH   1  12
BRANCH   8  20
ATOM     20  O   UNL     1     107.072 109.787 112.894  1.00  0.00    -0.490 OA
ATOM     21  C   UNL     1     107.303 110.777 111.899  1.00  0.00     0.278 C 
ENDBRANCH   8  20
BRANCH  11  22
ATOM     22  O   UNL     1     106.997 110.376 118.523  1.00  0.00    -0.492 OA
ATOM     23  C   UNL     1     106.777 111.547 119.302  1.00  0.00     0.278 C 
ENDBRANCH  11  22
BRANCH   9  24
ATOM     24  O   UNL     1     104.651 110.444 114.212  1.00  0.00    -0.490 OA
ATOM     25  C   UNL     1     103.723 109.448 113.793  1.00  0.00     0.279 C 
ENDBRANCH   9  24
BRANCH  10  26
ATOM     26  O   UNL     1     104.606 110.703 117.034  1.00  0.00    -0.490 OA
ATOM     27  C   UNL     1     103.644 109.797 117.565  1.00  0.00     0.278 C 
ENDBRANCH  10  26
TORSDOF 6
ENDMDL
MODEL 6
REMARK VINA RESULT:    -4.417      5.451      8.057
REMARK INTER + INTRA:          -6.570
REMARK INTER:                  -5.928
REMARK INTRA:                  -0.641
REMARK UNBOUND:                -0.603
REMARK SMILES COc1ccc(-c2cc(=O)c3c(OC)c(OC)c(OC)c(OC)c3o2)cc1
REMARK SMILES IDX 7 1 8 2 9 3 10 4 11 5 24 6 25 7 21 8 18 9 15 10 12 11 6 12
REMARK SMILES IDX 3 13 4 14 27 15 5 16 26 17 2 18 1 19 22 20 23 21 13 22 14 23
REMARK SMILES IDX 19 24 20 25 16 26 17 27
REMARK H PARENT
REMARK Flexibility Score: inf
ROOT
ATOM      1  C   UNL     1     106.379 108.863 113.599  1.00  0.00     0.138 A 
ATOM      2  C   UNL     1     105.440 109.020 112.577  1.00  0.00     0.100 A 
ATOM      3  C   UNL     1     104.156 109.453 112.893  1.00  0.00     0.197 A 
ATOM      4  O   UNL     1     103.324 109.586 111.955  1.00  0.00    -0.289 OA
ATOM      5  C   UNL     1     103.813 109.728 114.240  1.00  0.00     0.115 A 
ATOM      6  C   UNL     1     104.811 109.526 115.224  1.00  0.00     0.188 A 
ATOM      7  O   UNL     1     106.022 109.108 114.856  1.00  0.00    -0.452 OA
ATOM      8  C   UNL     1     104.534 109.778 116.587  1.00  0.00     0.209 A 
ATOM      9  C   UNL     1     103.246 110.233 116.969  1.00  0.00     0.211 A 
ATOM     10  C   UNL     1     102.248 110.453 115.982  1.00  0.00     0.208 A 
ATOM     11  C   UNL     1     102.534 110.200 114.614  1.00  0.00     0.179 A 
ENDROOT
BRANCH   1  12
ATOM     12  C   UNL     1     107.768 108.423 113.315  1.00  0.00     0.018 A 
ATOM     13  C   UNL     1     110.394 107.572 112.717  1.00  0.00     0.118 A 
ATOM     14  C   UNL     1     109.743 108.508 111.893  1.00  0.00     0.047 A 
ATOM     15  C   UNL     1     109.722 107.067 113.835  1.00  0.00     0.047 A 
ATOM     16  C   UNL     1     108.442 108.925 112.190  1.00  0.00     0.016 A 
ATOM     17  C   UNL     1     108.421 107.483 114.132  1.00  0.00     0.016 A 
BRANCH  13  18
ATOM     18  O   UNL     1     111.696 107.120 112.461  1.00  0.00    -0.497 OA
ATOM     19  C   UNL     1     112.773 107.959 112.056  1.00  0.00     0.278 C 
ENDBRANCH  13  18
ENDBRANCH   1  12
BRANCH   8  20
ATOM     20  O   UNL     1     105.507 109.613 117.592  1.00  0.00    -0.490 OA
ATOM     21  C   UNL     1     105.806 108.430 118.324  1.00  0.00     0.278 C 
ENDBRANCH   8  20
BRANCH  11  22
ATOM     22  O   UNL     1     101.584 110.401 113.588  1.00  0.00    -0.492 OA
ATOM     23  C   UNL     1     101.121 111.636 113.051  1.00  0.00     0.278 C 
ENDBRANCH  11  22
BRANCH   9  24
ATOM     24  O   UNL     1     102.908 110.482 118.314  1.00  0.00    -0.490 OA
ATOM     25  C   UNL     1     102.328 109.582 119.253  1.00  0.00     0.279 C 
ENDBRANCH   9  24
BRANCH  10  26
ATOM     26  O   UNL     1     100.955 110.912 116.306  1.00  0.00    -0.490 OA
ATOM     27  C   UNL     1     100.542 112.239 116.616  1.00  0.00     0.278 C 
ENDBRANCH  10  26
TORSDOF 6
ENDMDL
MODEL 7
REMARK VINA RESULT:    -4.412      7.371     10.172
REMARK INTER + INTRA:          -6.563
REMARK INTER:                  -5.949
REMARK INTRA:                  -0.614
REMARK UNBOUND:                -0.603
REMARK SMILES COc1ccc(-c2cc(=O)c3c(OC)c(OC)c(OC)c(OC)c3o2)cc1
REMARK SMILES IDX 7 1 8 2 9 3 10 4 11 5 24 6 25 7 21 8 18 9 15 10 12 11 6 12
REMARK SMILES IDX 3 13 4 14 27 15 5 16 26 17 2 18 1 19 22 20 23 21 13 22 14 23
REMARK SMILES IDX 19 24 20 25 16 26 17 27
REMARK H PARENT
REMARK Flexibility Score: inf
ROOT
ATOM      1  C   UNL     1     106.645 109.168 114.119  1.00  0.00     0.138 A 
ATOM      2  C   UNL     1     107.362 109.084 112.923  1.00  0.00     0.100 A 
ATOM      3  C   UNL     1     108.741 108.903 112.967  1.00  0.00     0.197 A 
ATOM      4  O   UNL     1     109.368 108.831 111.876  1.00  0.00    -0.289 OA
ATOM      5  C   UNL     1     109.402 108.808 114.216  1.00  0.00     0.115 A 
ATOM      6  C   UNL     1     108.612 108.923 115.386  1.00  0.00     0.188 A 
ATOM      7  O   UNL     1     107.296 109.097 115.275  1.00  0.00    -0.452 OA
ATOM      8  C   UNL     1     109.210 108.840 116.664  1.00  0.00     0.209 A 
ATOM      9  C   UNL     1     110.610 108.645 116.773  1.00  0.00     0.211 A 
ATOM     10  C   UNL     1     111.403 108.512 115.602  1.00  0.00     0.208 A 
ATOM     11  C   UNL     1     110.797 108.593 114.321  1.00  0.00     0.179 A 
ENDROOT
BRANCH   1  12
ATOM     12  C   UNL     1     105.171 109.340 114.127  1.00  0.00     0.018 A 
ATOM     13  C   UNL     1     102.369 109.697 114.091  1.00  0.00     0.118 A 
ATOM     14  C   UNL     1     103.030 109.132 112.986  1.00  0.00     0.047 A 
ATOM     15  C   UNL     1     103.119 110.082 115.208  1.00  0.00     0.047 A 
ATOM     16  C   UNL     1     104.417 108.959 113.005  1.00  0.00     0.016 A 
ATOM     17  C   UNL     1     104.506 109.910 115.228  1.00  0.00     0.016 A 
BRANCH  13  18
ATOM     18  O   UNL     1     100.981 109.894 114.120  1.00  0.00    -0.497 OA
ATOM     19  C   UNL     1     100.333 111.102 113.735  1.00  0.00     0.278 C 
ENDBRANCH  13  18
ENDBRANCH   1  12
BRANCH   8  20
ATOM     20  O   UNL     1     108.455 108.926 117.850  1.00  0.00    -0.490 OA
ATOM     21  C   UNL     1     108.125 110.097 118.587  1.00  0.00     0.278 C 
ENDBRANCH   8  20
BRANCH  11  22
ATOM     22  O   UNL     1     111.531 108.467 113.121  1.00  0.00    -0.492 OA
ATOM     23  C   UNL     1     112.067 107.282 112.541  1.00  0.00     0.278 C 
ENDBRANCH  11  22
BRANCH   9  24
ATOM     24  O   UNL     1     111.262 108.575 118.021  1.00  0.00    -0.490 OA
ATOM     25  C   UNL     1     111.406 107.441 118.872  1.00  0.00     0.279 C 
ENDBRANCH   9  24
BRANCH  10  26
ATOM     26  O   UNL     1     112.797 108.308 115.654  1.00  0.00    -0.490 OA
ATOM     27  C   UNL     1     113.503 107.084 115.828  1.00  0.00     0.278 C 
ENDBRANCH  10  26
TORSDOF 6
ENDMDL
MODEL 8
REMARK VINA RESULT:    -4.282      5.021      7.159
REMARK INTER + INTRA:          -6.388
REMARK INTER:                  -5.715
REMARK INTRA:                  -0.672
REMARK UNBOUND:                -0.603
REMARK SMILES COc1ccc(-c2cc(=O)c3c(OC)c(OC)c(OC)c(OC)c3o2)cc1
REMARK SMILES IDX 7 1 8 2 9 3 10 4 11 5 24 6 25 7 21 8 18 9 15 10 12 11 6 12
REMARK SMILES IDX 3 13 4 14 27 15 5 16 26 17 2 18 1 19 22 20 23 21 13 22 14 23
REMARK SMILES IDX 19 24 20 25 16 26 17 27
REMARK H PARENT
REMARK Flexibility Score: inf
ROOT
ATOM      1  C   UNL     1     106.015 108.602 115.914  1.00  0.00     0.138 A 
ATOM      2  C   UNL     1     105.614 108.767 117.242  1.00  0.00     0.100 A 
ATOM      3  C   UNL     1     104.424 109.433 117.516  1.00  0.00     0.197 A 
ATOM      4  O   UNL     1     104.082 109.573 118.722  1.00  0.00    -0.289 OA
ATOM      5  C   UNL     1     103.634 109.937 116.453  1.00  0.00     0.115 A 
ATOM      6  C   UNL     1     104.114 109.750 115.135  1.00  0.00     0.188 A 
ATOM      7  O   UNL     1     105.264 109.104 114.939  1.00  0.00    -0.452 OA
ATOM      8  C   UNL     1     103.377 110.230 114.029  1.00  0.00     0.209 A 
ATOM      9  C   UNL     1     102.150 110.907 114.244  1.00  0.00     0.211 A 
ATOM     10  C   UNL     1     101.656 111.082 115.565  1.00  0.00     0.208 A 
ATOM     11  C   UNL     1     102.400 110.594 116.672  1.00  0.00     0.179 A 
ENDROOT
BRANCH   1  12
ATOM     12  C   UNL     1     107.265 107.882 115.567  1.00  0.00     0.018 A 
ATOM     13  C   UNL     1     109.614 106.460 114.907  1.00  0.00     0.118 A 
ATOM     14  C   UNL     1     108.437 106.275 114.161  1.00  0.00     0.047 A 
ATOM     15  C   UNL     1     109.606 107.356 115.982  1.00  0.00     0.047 A 
ATOM     16  C   UNL     1     107.275 106.978 114.492  1.00  0.00     0.016 A 
ATOM     17  C   UNL     1     108.444 108.059 116.314  1.00  0.00     0.016 A 
BRANCH  13  18
ATOM     18  O   UNL     1     110.804 105.777 114.618  1.00  0.00    -0.497 OA
ATOM     19  C   UNL     1     112.089 106.389 114.562  1.00  0.00     0.278 C 
ENDBRANCH  13  18
ENDBRANCH   1  12
BRANCH   8  20
ATOM     20  O   UNL     1     103.810 110.042 112.701  1.00  0.00    -0.490 OA
ATOM     21  C   UNL     1     103.606 108.902 111.875  1.00  0.00     0.278 C 
ENDBRANCH   8  20
BRANCH  11  22
ATOM     22  O   UNL     1     101.961 110.736 118.006  1.00  0.00    -0.492 OA
ATOM     23  C   UNL     1     100.846 110.111 118.634  1.00  0.00     0.278 C 
ENDBRANCH  11  22
BRANCH   9  24
ATOM     24  O   UNL     1     101.383 111.425 113.182  1.00  0.00    -0.490 OA
ATOM     25  C   UNL     1     101.450 112.724 112.602  1.00  0.00     0.279 C 
ENDBRANCH   9  24
BRANCH  10  26
ATOM     26  O   UNL     1     100.439 111.740 115.835  1.00  0.00    -0.490 OA
ATOM     27  C   UNL     1     100.232 113.106 116.177  1.00  0.00     0.278 C 
ENDBRANCH  10  26
TORSDOF 6
ENDMDL
MODEL 9
REMARK VINA RESULT:    -4.233      7.633      9.958
REMARK INTER + INTRA:          -6.321
REMARK INTER:                  -5.667
REMARK INTRA:                  -0.655
REMARK UNBOUND:                -0.603
REMARK SMILES COc1ccc(-c2cc(=O)c3c(OC)c(OC)c(OC)c(OC)c3o2)cc1
REMARK SMILES IDX 7 1 8 2 9 3 10 4 11 5 24 6 25 7 21 8 18 9 15 10 12 11 6 12
REMARK SMILES IDX 3 13 4 14 27 15 5 16 26 17 2 18 1 19 22 20 23 21 13 22 14 23
REMARK SMILES IDX 19 24 20 25 16 26 17 27
REMARK H PARENT
REMARK Flexibility Score: inf
ROOT
ATOM      1  C   UNL     1     106.943 107.534 117.333  1.00  0.00     0.138 A 
ATOM      2  C   UNL     1     106.473 107.513 116.017  1.00  0.00     0.100 A 
ATOM      3  C   UNL     1     107.386 107.483 114.969  1.00  0.00     0.197 A 
ATOM      4  O   UNL     1     106.940 107.465 113.789  1.00  0.00    -0.289 OA
ATOM      5  C   UNL     1     108.777 107.475 115.241  1.00  0.00     0.115 A 
ATOM      6  C   UNL     1     109.178 107.519 116.598  1.00  0.00     0.188 A 
ATOM      7  O   UNL     1     108.253 107.548 117.557  1.00  0.00    -0.452 OA
ATOM      8  C   UNL     1     110.550 107.516 116.940  1.00  0.00     0.209 A 
ATOM      9  C   UNL     1     111.528 107.475 115.914  1.00  0.00     0.211 A 
ATOM     10  C   UNL     1     111.129 107.413 114.552  1.00  0.00     0.208 A 
ATOM     11  C   UNL     1     109.749 107.413 114.215  1.00  0.00     0.179 A 
ENDROOT
BRANCH   1  12
ATOM     12  C   UNL     1     106.011 107.547 118.488  1.00  0.00     0.018 A 
ATOM     13  C   UNL     1     104.220 107.517 120.671  1.00  0.00     0.118 A 
ATOM     14  C   UNL     1     105.134 106.465 120.485  1.00  0.00     0.047 A 
ATOM     15  C   UNL     1     104.208 108.577 119.759  1.00  0.00     0.047 A 
ATOM     16  C   UNL     1     106.018 106.481 119.402  1.00  0.00     0.016 A 
ATOM     17  C   UNL     1     105.090 108.594 118.675  1.00  0.00     0.016 A 
BRANCH  13  18
ATOM     18  O   UNL     1     103.311 107.545 121.739  1.00  0.00    -0.497 OA
ATOM     19  C   UNL     1     102.120 106.768 121.802  1.00  0.00     0.278 C 
ENDBRANCH  13  18
ENDBRANCH   1  12
BRANCH   8  20
ATOM     20  O   UNL     1     110.988 107.535 118.278  1.00  0.00    -0.490 OA
ATOM     21  C   UNL     1     111.130 106.428 119.160  1.00  0.00     0.278 C 
ENDBRANCH   8  20
BRANCH  11  22
ATOM     22  O   UNL     1     109.291 107.352 112.881  1.00  0.00    -0.492 OA
ATOM     23  C   UNL     1     109.381 108.357 111.876  1.00  0.00     0.278 C 
ENDBRANCH  11  22
BRANCH   9  24
ATOM     24  O   UNL     1     112.909 107.490 116.194  1.00  0.00    -0.490 OA
ATOM     25  C   UNL     1     113.763 106.381 116.457  1.00  0.00     0.279 C 
ENDBRANCH   9  24
BRANCH  10  26
ATOM     26  O   UNL     1     112.059 107.362 113.494  1.00  0.00    -0.490 OA
ATOM     27  C   UNL     1     112.664 106.214 112.907  1.00  0.00     0.278 C 
ENDBRANCH  10  26
TORSDOF 6
ENDMDL
