MODEL 1
REMARK VINA RESULT:    -5.260      0.000      0.000
REMARK INTER + INTRA:         -10.625
REMARK INTER:                  -9.257
REMARK INTRA:                  -1.368
REMARK UNBOUND:                -1.368
REMARK SMILES CCCCCCCCCCCCCCC(=O)[O-]
REMARK SMILES IDX 9 1 10 2 11 3 12 4 13 5 14 6 15 7 16 8 17 9 8 10 7 11 6 12
REMARK SMILES IDX 5 13 4 14 3 15 2 16 1 17
REMARK H PARENT
REMARK Flexibility Score: inf
ROOT
ATOM      1  C   UNL     1      18.322   9.181 -19.277  1.00  0.00     0.000 C 
ENDROOT
BRANCH   1   2
ATOM      2  C   UNL     1      19.306   9.351 -20.440  1.00  0.00     0.000 C 
BRANCH   2   3
ATOM      3  C   UNL     1      19.833  10.792 -20.511  1.00  0.00     0.000 C 
BRANCH   3   4
ATOM      4  C   UNL     1      19.478  11.476 -21.849  1.00  0.00     0.000 C 
BRANCH   4   5
ATOM      5  C   UNL     1      18.313  12.474 -21.740  1.00  0.00     0.006 C 
BRANCH   5   6
ATOM      6  C   UNL     1      17.775  12.610 -20.311  1.00  0.00     0.053 C 
BRANCH   6   7
ATOM      7  C   UNL     1      17.303  14.008 -20.062  1.00  0.00     0.041 C 
ATOM      8  O   UNL     1      17.102  14.408 -18.884  1.00  0.00    -0.550 OA
ATOM      9  O   UNL     1      17.131  14.885 -21.124  1.00  0.00    -0.550 OA
ENDBRANCH   6   7
ENDBRANCH   5   6
ENDBRANCH   4   5
ENDBRANCH   3   4
ENDBRANCH   2   3
ENDBRANCH   1   2
BRANCH   1  10
ATOM     10  C   UNL     1      16.968   8.654 -19.775  1.00  0.00     0.000 C 
BRANCH  10  11
ATOM     11  C   UNL     1      16.630   9.126 -21.201  1.00  0.00    -0.000 C 
BRANCH  11  12
ATOM     12  C   UNL     1      15.501   8.339 -21.896  1.00  0.00    -0.000 C 
BRANCH  12  13
ATOM     13  C   UNL     1      15.349   6.872 -21.443  1.00  0.00    -0.000 C 
BRANCH  13  14
ATOM     14  C   UNL     1      14.149   6.599 -20.520  1.00  0.00    -0.000 C 
BRANCH  14  15
ATOM     15  C   UNL     1      13.014   7.617 -20.699  1.00  0.00    -0.000 C 
BRANCH  15  16
ATOM     16  C   UNL     1      12.461   8.067 -19.343  1.00  0.00    -0.003 C 
ATOM     17  C   UNL     1      13.100   7.286 -18.198  1.00  0.00     0.004 C 
ENDBRANCH  15  16
ENDBRANCH  14  15
ENDBRANCH  13  14
ENDBRANCH  12  13
ENDBRANCH  11  12
ENDBRANCH  10  11
ENDBRANCH   1  10
TORSDOF 13
ENDMDL
MODEL 2
REMARK VINA RESULT:    -5.145      0.600      1.444
REMARK INTER + INTRA:         -10.423
REMARK INTER:                  -9.114
REMARK INTRA:                  -1.308
REMARK UNBOUND:                -1.368
REMARK SMILES CCCCCCCCCCCCCCC(=O)[O-]
REMARK SMILES IDX 9 1 10 2 11 3 12 4 13 5 14 6 15 7 16 8 17 9 8 10 7 11 6 12
REMARK SMILES IDX 5 13 4 14 3 15 2 16 1 17
REMARK H PARENT
REMARK Flexibility Score: inf
ROOT
ATOM      1  C   UNL     1      19.355   8.984 -20.149  1.00  0.00     0.000 C 
ENDROOT
BRANCH   1   2
ATOM      2  C   UNL     1      19.886  10.415 -20.286  1.00  0.00     0.000 C 
BRANCH   2   3
ATOM      3  C   UNL     1      19.840  10.884 -21.748  1.00  0.00     0.000 C 
BRANCH   3   4
ATOM      4  C   UNL     1      18.522  11.613 -22.085  1.00  0.00     0.000 C 
BRANCH   4   5
ATOM      5  C   UNL     1      17.854  12.272 -20.867  1.00  0.00     0.006 C 
BRANCH   5   6
ATOM      6  C   UNL     1      18.535  13.581 -20.448  1.00  0.00     0.053 C 
BRANCH   6   7
ATOM      7  C   UNL     1      17.516  14.582 -20.005  1.00  0.00     0.041 C 
ATOM      8  O   UNL     1      17.075  15.439 -20.816  1.00  0.00    -0.550 OA
ATOM      9  O   UNL     1      17.016  14.540 -18.710  1.00  0.00    -0.550 OA
ENDBRANCH   6   7
ENDBRANCH   5   6
ENDBRANCH   4   5
ENDBRANCH   3   4
ENDBRANCH   2   3
ENDBRANCH   1   2
BRANCH   1  10
ATOM     10  C   UNL     1      18.294   8.893 -19.042  1.00  0.00     0.000 C 
BRANCH  10  11
ATOM     11  C   UNL     1      16.856   8.906 -19.590  1.00  0.00    -0.000 C 
BRANCH  11  12
ATOM     12  C   UNL     1      16.740   8.718 -21.116  1.00  0.00    -0.000 C 
BRANCH  12  13
ATOM     13  C   UNL     1      15.383   8.177 -21.610  1.00  0.00    -0.000 C 
BRANCH  13  14
ATOM     14  C   UNL     1      15.206   6.654 -21.480  1.00  0.00    -0.000 C 
BRANCH  14  15
ATOM     15  C   UNL     1      14.132   6.263 -20.455  1.00  0.00    -0.000 C 
BRANCH  15  16
ATOM     16  C   UNL     1      13.355   7.495 -19.977  1.00  0.00    -0.003 C 
ATOM     17  C   UNL     1      13.133   7.457 -18.467  1.00  0.00     0.004 C 
ENDBRANCH  15  16
ENDBRANCH  14  15
ENDBRANCH  13  14
ENDBRANCH  12  13
ENDBRANCH  11  12
ENDBRANCH  10  11
ENDBRANCH   1  10
TORSDOF 13
ENDMDL
MODEL 3
REMARK VINA RESULT:    -5.128      3.407      5.401
REMARK INTER + INTRA:         -10.392
REMARK INTER:                  -9.659
REMARK INTRA:                  -0.733
REMARK UNBOUND:                -1.368
REMARK SMILES CCCCCCCCCCCCCCC(=O)[O-]
REMARK SMILES IDX 9 1 10 2 11 3 12 4 13 5 14 6 15 7 16 8 17 9 8 10 7 11 6 12
REMARK SMILES IDX 5 13 4 14 3 15 2 16 1 17
REMARK H PARENT
REMARK Flexibility Score: inf
ROOT
ATOM      1  C   UNL     1      13.415   7.445 -20.368  1.00  0.00     0.000 C 
ENDROOT
BRANCH   1   2
ATOM      2  C   UNL     1      14.534   6.503 -20.825  1.00  0.00     0.000 C 
BRANCH   2   3
ATOM      3  C   UNL     1      15.794   7.290 -21.215  1.00  0.00     0.000 C 
BRANCH   3   4
ATOM      4  C   UNL     1      15.458   8.583 -21.987  1.00  0.00     0.000 C 
BRANCH   4   5
ATOM      5  C   UNL     1      16.439   9.736 -21.716  1.00  0.00     0.006 C 
BRANCH   5   6
ATOM      6  C   UNL     1      17.621   9.318 -20.834  1.00  0.00     0.053 C 
BRANCH   6   7
ATOM      7  C   UNL     1      17.617  10.093 -19.554  1.00  0.00     0.041 C 
ATOM      8  O   UNL     1      17.475   9.498 -18.453  1.00  0.00    -0.550 OA
ATOM      9  O   UNL     1      17.818  11.467 -19.572  1.00  0.00    -0.550 OA
ENDBRANCH   6   7
ENDBRANCH   5   6
ENDBRANCH   4   5
ENDBRANCH   3   4
ENDBRANCH   2   3
ENDBRANCH   1   2
BRANCH   1  10
ATOM     10  C   UNL     1      13.278   7.434 -18.838  1.00  0.00     0.000 C 
BRANCH  10  11
ATOM     11  C   UNL     1      12.200   8.407 -18.327  1.00  0.00    -0.000 C 
BRANCH  11  12
ATOM     12  C   UNL     1      11.501   9.237 -19.422  1.00  0.00    -0.000 C 
BRANCH  12  13
ATOM     13  C   UNL     1      10.713  10.462 -18.916  1.00  0.00    -0.000 C 
BRANCH  13  14
ATOM     14  C   UNL     1      10.564  11.604 -19.935  1.00  0.00    -0.000 C 
BRANCH  14  15
ATOM     15  C   UNL     1       9.554  12.672 -19.491  1.00  0.00    -0.000 C 
BRANCH  15  16
ATOM     16  C   UNL     1       8.483  12.895 -20.564  1.00  0.00    -0.003 C 
ATOM     17  C   UNL     1       8.341  14.377 -20.904  1.00  0.00     0.004 C 
ENDBRANCH  15  16
ENDBRANCH  14  15
ENDBRANCH  13  14
ENDBRANCH  12  13
ENDBRANCH  11  12
ENDBRANCH  10  11
ENDBRANCH   1  10
TORSDOF 13
ENDMDL
MODEL 4
REMARK VINA RESULT:    -5.105      1.260      2.323
REMARK INTER + INTRA:         -10.353
REMARK INTER:                  -8.983
REMARK INTRA:                  -1.370
REMARK UNBOUND:                -1.368
REMARK SMILES CCCCCCCCCCCCCCC(=O)[O-]
REMARK SMILES IDX 9 1 10 2 11 3 12 4 13 5 14 6 15 7 16 8 17 9 8 10 7 11 6 12
REMARK SMILES IDX 5 13 4 14 3 15 2 16 1 17
REMARK H PARENT
REMARK Flexibility Score: inf
ROOT
ATOM      1  C   UNL     1      19.752  10.526 -20.456  1.00  0.00     0.000 C 
ENDROOT
BRANCH   1   2
ATOM      2  C   UNL     1      19.399  10.945 -21.888  1.00  0.00     0.000 C 
BRANCH   2   3
ATOM      3  C   UNL     1      18.551  12.226 -21.895  1.00  0.00     0.000 C 
BRANCH   3   4
ATOM      4  C   UNL     1      17.572  12.284 -20.703  1.00  0.00     0.000 C 
BRANCH   4   5
ATOM      5  C   UNL     1      17.578  13.633 -19.966  1.00  0.00     0.006 C 
BRANCH   5   6
ATOM      6  C   UNL     1      18.992  14.159 -19.696  1.00  0.00     0.053 C 
BRANCH   6   7
ATOM      7  C   UNL     1      18.934  15.449 -18.940  1.00  0.00     0.041 C 
ATOM      8  O   UNL     1      19.998  16.030 -18.595  1.00  0.00    -0.550 OA
ATOM      9  O   UNL     1      17.708  16.035 -18.657  1.00  0.00    -0.550 OA
ENDBRANCH   6   7
ENDBRANCH   5   6
ENDBRANCH   4   5
ENDBRANCH   3   4
ENDBRANCH   2   3
ENDBRANCH   1   2
BRANCH   1  10
ATOM     10  C   UNL     1      19.282   9.092 -20.171  1.00  0.00     0.000 C 
BRANCH  10  11
ATOM     11  C   UNL     1      18.155   9.028 -19.125  1.00  0.00    -0.000 C 
BRANCH  11  12
ATOM     12  C   UNL     1      16.813   8.477 -19.647  1.00  0.00    -0.000 C 
BRANCH  12  13
ATOM     13  C   UNL     1      16.598   8.609 -21.169  1.00  0.00    -0.000 C 
BRANCH  13  14
ATOM     14  C   UNL     1      15.506   7.694 -21.751  1.00  0.00    -0.000 C 
BRANCH  14  15
ATOM     15  C   UNL     1      14.928   6.720 -20.715  1.00  0.00    -0.000 C 
BRANCH  15  16
ATOM     16  C   UNL     1      13.473   7.070 -20.384  1.00  0.00    -0.003 C 
ATOM     17  C   UNL     1      13.301   7.368 -18.897  1.00  0.00     0.004 C 
ENDBRANCH  15  16
ENDBRANCH  14  15
ENDBRANCH  13  14
ENDBRANCH  12  13
ENDBRANCH  11  12
ENDBRANCH  10  11
ENDBRANCH   1  10
TORSDOF 13
ENDMDL
MODEL 5
REMARK VINA RESULT:    -5.045      1.504      2.849
REMARK INTER + INTRA:         -10.247
REMARK INTER:                  -9.260
REMARK INTRA:                  -0.988
REMARK UNBOUND:                -1.368
REMARK SMILES CCCCCCCCCCCCCCC(=O)[O-]
REMARK SMILES IDX 9 1 10 2 11 3 12 4 13 5 14 6 15 7 16 8 17 9 8 10 7 11 6 12
REMARK SMILES IDX 5 13 4 14 3 15 2 16 1 17
REMARK H PARENT
REMARK Flexibility Score: inf
ROOT
ATOM      1  C   UNL     1      16.507   8.316 -21.451  1.00  0.00     0.000 C 
ENDROOT
BRANCH   1   2
ATOM      2  C   UNL     1      16.838   8.172 -19.961  1.00  0.00     0.000 C 
BRANCH   2   3
ATOM      3  C   UNL     1      17.661   9.369 -19.461  1.00  0.00     0.000 C 
BRANCH   3   4
ATOM      4  C   UNL     1      18.921   9.609 -20.318  1.00  0.00     0.000 C 
BRANCH   4   5
ATOM      5  C   UNL     1      19.004  11.027 -20.909  1.00  0.00     0.006 C 
BRANCH   5   6
ATOM      6  C   UNL     1      17.688  11.804 -20.781  1.00  0.00     0.053 C 
BRANCH   6   7
ATOM      7  C   UNL     1      17.885  13.030 -19.948  1.00  0.00     0.041 C 
ATOM      8  O   UNL     1      16.890  13.669 -19.514  1.00  0.00    -0.550 OA
ATOM      9  O   UNL     1      19.167  13.443 -19.609  1.00  0.00    -0.550 OA
ENDBRANCH   6   7
ENDBRANCH   5   6
ENDBRANCH   4   5
ENDBRANCH   3   4
ENDBRANCH   2   3
ENDBRANCH   1   2
BRANCH   1  10
ATOM     10  C   UNL     1      15.309   7.435 -21.836  1.00  0.00     0.000 C 
BRANCH  10  11
ATOM     11  C   UNL     1      14.743   6.641 -20.644  1.00  0.00    -0.000 C 
BRANCH  11  12
ATOM     12  C   UNL     1      13.336   7.073 -20.184  1.00  0.00    -0.000 C 
BRANCH  12  13
ATOM     13  C   UNL     1      13.148   7.173 -18.656  1.00  0.00    -0.000 C 
BRANCH  13  14
ATOM     14  C   UNL     1      12.409   8.434 -18.175  1.00  0.00    -0.000 C 
BRANCH  14  15
ATOM     15  C   UNL     1      11.585   9.103 -19.284  1.00  0.00    -0.000 C 
BRANCH  15  16
ATOM     16  C   UNL     1      10.803  10.304 -18.740  1.00  0.00    -0.003 C 
ATOM     17  C   UNL     1      10.407  11.260 -19.861  1.00  0.00     0.004 C 
ENDBRANCH  15  16
ENDBRANCH  14  15
ENDBRANCH  13  14
ENDBRANCH  12  13
ENDBRANCH  11  12
ENDBRANCH  10  11
ENDBRANCH   1  10
TORSDOF 13
ENDMDL
MODEL 6
REMARK VINA RESULT:    -5.013      4.064      6.208
REMARK INTER + INTRA:         -10.191
REMARK INTER:                  -9.606
REMARK INTRA:                  -0.585
REMARK UNBOUND:                -1.368
REMARK SMILES CCCCCCCCCCCCCCC(=O)[O-]
REMARK SMILES IDX 9 1 10 2 11 3 12 4 13 5 14 6 15 7 16 8 17 9 8 10 7 11 6 12
REMARK SMILES IDX 5 13 4 14 3 15 2 16 1 17
REMARK H PARENT
REMARK Flexibility Score: inf
ROOT
ATOM      1  C   UNL     1      13.014   7.243 -18.908  1.00  0.00     0.000 C 
ENDROOT
BRANCH   1   2
ATOM      2  C   UNL     1      13.486   7.539 -20.336  1.00  0.00     0.000 C 
BRANCH   2   3
ATOM      3  C   UNL     1      14.679   6.650 -20.718  1.00  0.00     0.000 C 
BRANCH   3   4
ATOM      4  C   UNL     1      15.633   7.350 -21.710  1.00  0.00     0.000 C 
BRANCH   4   5
ATOM      5  C   UNL     1      16.282   8.625 -21.145  1.00  0.00     0.006 C 
BRANCH   5   6
ATOM      6  C   UNL     1      16.902   8.414 -19.759  1.00  0.00     0.053 C 
BRANCH   6   7
ATOM      7  C   UNL     1      17.968   9.433 -19.504  1.00  0.00     0.041 C 
ATOM      8  O   UNL     1      17.663  10.646 -19.358  1.00  0.00    -0.550 OA
ATOM      9  O   UNL     1      19.294   9.037 -19.380  1.00  0.00    -0.550 OA
ENDBRANCH   6   7
ENDBRANCH   5   6
ENDBRANCH   4   5
ENDBRANCH   3   4
ENDBRANCH   2   3
ENDBRANCH   1   2
BRANCH   1  10
ATOM     10  C   UNL     1      12.176   8.405 -18.354  1.00  0.00     0.000 C 
BRANCH  10  11
ATOM     11  C   UNL     1      11.507   9.241 -19.460  1.00  0.00    -0.000 C 
BRANCH  11  12
ATOM     12  C   UNL     1      10.761  10.497 -18.965  1.00  0.00    -0.000 C 
BRANCH  12  13
ATOM     13  C   UNL     1      10.321  11.478 -20.071  1.00  0.00    -0.000 C 
BRANCH  13  14
ATOM     14  C   UNL     1       9.575  12.727 -19.571  1.00  0.00    -0.000 C 
BRANCH  14  15
ATOM     15  C   UNL     1       8.543  13.249 -20.581  1.00  0.00    -0.000 C 
BRANCH  15  16
ATOM     16  C   UNL     1       8.369  14.766 -20.454  1.00  0.00    -0.003 C 
ATOM     17  C   UNL     1       9.008  15.290 -19.171  1.00  0.00     0.004 C 
ENDBRANCH  15  16
ENDBRANCH  14  15
ENDBRANCH  13  14
ENDBRANCH  12  13
ENDBRANCH  11  12
ENDBRANCH  10  11
ENDBRANCH   1  10
TORSDOF 13
ENDMDL
MODEL 7
REMARK VINA RESULT:    -5.009      3.802      6.014
REMARK INTER + INTRA:         -10.184
REMARK INTER:                  -9.430
REMARK INTRA:                  -0.755
REMARK UNBOUND:                -1.368
REMARK SMILES CCCCCCCCCCCCCCC(=O)[O-]
REMARK SMILES IDX 9 1 10 2 11 3 12 4 13 5 14 6 15 7 16 8 17 9 8 10 7 11 6 12
REMARK SMILES IDX 5 13 4 14 3 15 2 16 1 17
REMARK H PARENT
REMARK Flexibility Score: inf
ROOT
ATOM      1  C   UNL     1      13.411   7.464 -18.886  1.00  0.00     0.000 C 
ENDROOT
BRANCH   1   2
ATOM      2  C   UNL     1      13.490   7.393 -20.415  1.00  0.00     0.000 C 
BRANCH   2   3
ATOM      3  C   UNL     1      14.786   6.704 -20.869  1.00  0.00     0.000 C 
BRANCH   3   4
ATOM      4  C   UNL     1      15.662   7.627 -21.741  1.00  0.00     0.000 C 
BRANCH   4   5
ATOM      5  C   UNL     1      16.383   8.727 -20.943  1.00  0.00     0.006 C 
BRANCH   5   6
ATOM      6  C   UNL     1      16.964   8.218 -19.618  1.00  0.00     0.053 C 
BRANCH   6   7
ATOM      7  C   UNL     1      17.611   9.339 -18.867  1.00  0.00     0.041 C 
ATOM      8  O   UNL     1      18.202   9.114 -17.778  1.00  0.00    -0.550 OA
ATOM      9  O   UNL     1      17.604  10.625 -19.393  1.00  0.00    -0.550 OA
ENDBRANCH   6   7
ENDBRANCH   5   6
ENDBRANCH   4   5
ENDBRANCH   3   4
ENDBRANCH   2   3
ENDBRANCH   1   2
BRANCH   1  10
ATOM     10  C   UNL     1      12.123   8.168 -18.434  1.00  0.00     0.000 C 
BRANCH  10  11
ATOM     11  C   UNL     1      11.612   9.197 -19.459  1.00  0.00    -0.000 C 
BRANCH  11  12
ATOM     12  C   UNL     1      10.794  10.359 -18.861  1.00  0.00    -0.000 C 
BRANCH  12  13
ATOM     13  C   UNL     1      10.503  11.524 -19.829  1.00  0.00    -0.000 C 
BRANCH  13  14
ATOM     14  C   UNL     1      10.013  12.819 -19.158  1.00  0.00    -0.000 C 
BRANCH  14  15
ATOM     15  C   UNL     1      10.049  12.747 -17.625  1.00  0.00    -0.000 C 
BRANCH  15  16
ATOM     16  C   UNL     1       9.728  14.111 -17.004  1.00  0.00    -0.003 C 
ATOM     17  C   UNL     1       9.317  15.122 -18.071  1.00  0.00     0.004 C 
ENDBRANCH  15  16
ENDBRANCH  14  15
ENDBRANCH  13  14
ENDBRANCH  12  13
ENDBRANCH  11  12
ENDBRANCH  10  11
ENDBRANCH   1  10
TORSDOF 13
ENDMDL
MODEL 8
REMARK VINA RESULT:    -4.943      3.909      6.697
REMARK INTER + INTRA:         -10.068
REMARK INTER:                  -9.213
REMARK INTRA:                  -0.854
REMARK UNBOUND:                -1.368
REMARK SMILES CCCCCCCCCCCCCCC(=O)[O-]
REMARK SMILES IDX 9 1 10 2 11 3 12 4 13 5 14 6 15 7 16 8 17 9 8 10 7 11 6 12
REMARK SMILES IDX 5 13 4 14 3 15 2 16 1 17
REMARK H PARENT
REMARK Flexibility Score: inf
ROOT
ATOM      1  C   UNL     1      13.346   7.175 -18.851  1.00  0.00     0.000 C 
ENDROOT
BRANCH   1   2
ATOM      2  C   UNL     1      12.211   8.098 -18.393  1.00  0.00     0.000 C 
BRANCH   2   3
ATOM      3  C   UNL     1      11.843   9.108 -19.490  1.00  0.00     0.000 C 
BRANCH   3   4
ATOM      4  C   UNL     1      10.808  10.144 -19.005  1.00  0.00     0.000 C 
BRANCH   4   5
ATOM      5  C   UNL     1      10.461  11.209 -20.059  1.00  0.00     0.006 C 
BRANCH   5   6
ATOM      6  C   UNL     1       9.724  12.417 -19.467  1.00  0.00     0.053 C 
BRANCH   6   7
ATOM      7  C   UNL     1       8.693  12.921 -20.426  1.00  0.00     0.041 C 
ATOM      8  O   UNL     1       7.964  12.110 -21.057  1.00  0.00    -0.550 OA
ATOM      9  O   UNL     1       8.503  14.287 -20.589  1.00  0.00    -0.550 OA
ENDBRANCH   6   7
ENDBRANCH   5   6
ENDBRANCH   4   5
ENDBRANCH   3   4
ENDBRANCH   2   3
ENDBRANCH   1   2
BRANCH   1  10
ATOM     10  C   UNL     1      13.512   7.225 -20.378  1.00  0.00     0.000 C 
BRANCH  10  11
ATOM     11  C   UNL     1      14.775   6.492 -20.866  1.00  0.00    -0.000 C 
BRANCH  11  12
ATOM     12  C   UNL     1      15.593   7.248 -21.933  1.00  0.00    -0.000 C 
BRANCH  12  13
ATOM     13  C   UNL     1      15.798   8.752 -21.659  1.00  0.00    -0.000 C 
BRANCH  13  14
ATOM     14  C   UNL     1      17.114   9.108 -20.946  1.00  0.00    -0.000 C 
BRANCH  14  15
ATOM     15  C   UNL     1      17.069   8.832 -19.436  1.00  0.00    -0.000 C 
BRANCH  15  16
ATOM     16  C   UNL     1      18.483   8.687 -18.862  1.00  0.00    -0.003 C 
ATOM     17  C   UNL     1      19.542   8.986 -19.919  1.00  0.00     0.004 C 
ENDBRANCH  15  16
ENDBRANCH  14  15
ENDBRANCH  13  14
ENDBRANCH  12  13
ENDBRANCH  11  12
ENDBRANCH  10  11
ENDBRANCH   1  10
TORSDOF 13
ENDMDL
MODEL 9
REMARK VINA RESULT:    -4.893      2.865      6.629
REMARK INTER + INTRA:          -9.979
REMARK INTER:                  -8.806
REMARK INTRA:                  -1.173
REMARK UNBOUND:                -1.368
REMARK SMILES CCCCCCCCCCCCCCC(=O)[O-]
REMARK SMILES IDX 9 1 10 2 11 3 12 4 13 5 14 6 15 7 16 8 17 9 8 10 7 11 6 12
REMARK SMILES IDX 5 13 4 14 3 15 2 16 1 17
REMARK H PARENT
REMARK Flexibility Score: inf
ROOT
ATOM      1  C   UNL     1      17.924   9.481 -19.257  1.00  0.00     0.000 C 
ENDROOT
BRANCH   1   2
ATOM      2  C   UNL     1      16.741   8.607 -19.689  1.00  0.00     0.000 C 
BRANCH   2   3
ATOM      3  C   UNL     1      16.621   8.557 -21.220  1.00  0.00     0.000 C 
BRANCH   3   4
ATOM      4  C   UNL     1      15.642   7.462 -21.693  1.00  0.00     0.000 C 
BRANCH   4   5
ATOM      5  C   UNL     1      14.814   6.843 -20.554  1.00  0.00     0.006 C 
BRANCH   5   6
ATOM      6  C   UNL     1      13.314   7.133 -20.682  1.00  0.00     0.053 C 
BRANCH   6   7
ATOM      7  C   UNL     1      12.804   7.796 -19.442  1.00  0.00     0.041 C 
ATOM      8  O   UNL     1      11.867   8.636 -19.512  1.00  0.00    -0.550 OA
ATOM      9  O   UNL     1      13.328   7.453 -18.203  1.00  0.00    -0.550 OA
ENDBRANCH   6   7
ENDBRANCH   5   6
ENDBRANCH   4   5
ENDBRANCH   3   4
ENDBRANCH   2   3
ENDBRANCH   1   2
BRANCH   1  10
ATOM     10  C   UNL     1      19.149   9.228 -20.149  1.00  0.00     0.000 C 
BRANCH  10  11
ATOM     11  C   UNL     1      19.799  10.528 -20.655  1.00  0.00    -0.000 C 
BRANCH  11  12
ATOM     12  C   UNL     1      19.122  11.156 -21.890  1.00  0.00    -0.000 C 
BRANCH  12  13
ATOM     13  C   UNL     1      18.265  12.407 -21.603  1.00  0.00    -0.000 C 
BRANCH  13  14
ATOM     14  C   UNL     1      18.475  13.033 -20.214  1.00  0.00    -0.000 C 
BRANCH  14  15
ATOM     15  C   UNL     1      17.572  14.249 -19.965  1.00  0.00    -0.000 C 
BRANCH  15  16
ATOM     16  C   UNL     1      18.385  15.438 -19.440  1.00  0.00    -0.003 C 
ATOM     17  C   UNL     1      19.812  15.023 -19.094  1.00  0.00     0.004 C 
ENDBRANCH  15  16
ENDBRANCH  14  15
ENDBRANCH  13  14
ENDBRANCH  12  13
ENDBRANCH  11  12
ENDBRANCH  10  11
ENDBRANCH   1  10
TORSDOF 13
ENDMDL
