MODEL 1
REMARK VINA RESULT:    -4.460      0.000      0.000
REMARK INTER + INTRA:          -4.946
REMARK INTER:                  -4.851
REMARK INTRA:                  -0.094
REMARK UNBOUND:                -0.094
REMARK SMILES C=C(C)[C@H]1CC[C@@H](C)[C@H](O)C1
REMARK SMILES IDX 8 1 7 2 6 3 5 4 4 5 11 6 9 7 10 8 2 10 1 11 3 12
REMARK H PARENT 10 9
REMARK Flexibility Score: inf
ROOT
ATOM      1  C   UNL     1      35.222   4.961   6.290  1.00  0.00     0.010 C 
ATOM      2  C   UNL     1      34.857   6.105   5.334  1.00  0.00     0.015 C 
ATOM      3  C   UNL     1      36.093   6.547   4.527  1.00  0.00     0.006 C 
ATOM      4  C   UNL     1      35.733   7.604   3.465  1.00  0.00     0.008 C 
ATOM      5  C   UNL     1      34.562   8.525   3.891  1.00  0.00     0.017 C 
ATOM      6  C   UNL     1      34.485   8.665   5.423  1.00  0.00     0.040 C 
ATOM      7  C   UNL     1      34.224   7.302   6.107  1.00  0.00     0.117 C 
ENDROOT
BRANCH   7   8
ATOM      8  O   UNL     1      32.836   7.109   6.220  1.00  0.00    -0.393 OA
ATOM      9  H   UNL     1      32.401   7.942   5.900  1.00  0.00     0.210 HD
ENDBRANCH   7   8
BRANCH   5  10
ATOM     10  C   UNL     1      34.650   9.887   3.214  1.00  0.00    -0.077 C 
ATOM     11  C   UNL     1      35.196  10.929   3.860  1.00  0.00     0.008 C 
ATOM     12  C   UNL     1      34.120  10.100   1.818  1.00  0.00     0.039 C 
ENDBRANCH   5  10
TORSDOF 2
ENDMDL
MODEL 2
REMARK VINA RESULT:    -4.410      2.112      2.739
REMARK INTER + INTRA:          -4.891
REMARK INTER:                  -4.793
REMARK INTRA:                  -0.098
REMARK UNBOUND:                -0.094
REMARK SMILES C=C(C)[C@H]1CC[C@@H](C)[C@H](O)C1
REMARK SMILES IDX 8 1 7 2 6 3 5 4 4 5 11 6 9 7 10 8 2 10 1 11 3 12
REMARK H PARENT 10 9
REMARK Flexibility Score: inf
ROOT
ATOM      1  C   UNL     1      35.869   8.788   7.735  1.00  0.00     0.010 C 
ATOM      2  C   UNL     1      35.136   9.136   6.433  1.00  0.00     0.015 C 
ATOM      3  C   UNL     1      35.565   8.183   5.302  1.00  0.00     0.006 C 
ATOM      4  C   UNL     1      34.752   8.421   4.015  1.00  0.00     0.008 C 
ATOM      5  C   UNL     1      34.318   9.897   3.830  1.00  0.00     0.017 C 
ATOM      6  C   UNL     1      35.305  10.863   4.513  1.00  0.00     0.040 C 
ATOM      7  C   UNL     1      35.367  10.627   6.041  1.00  0.00     0.117 C 
ENDROOT
BRANCH   7   8
ATOM      8  O   UNL     1      34.400  11.434   6.665  1.00  0.00    -0.393 OA
ATOM      9  H   UNL     1      34.518  12.354   6.312  1.00  0.00     0.210 HD
ENDBRANCH   7   8
BRANCH   5  10
ATOM     10  C   UNL     1      34.133  10.244   2.358  1.00  0.00    -0.077 C 
ATOM     11  C   UNL     1      34.103  11.526   1.964  1.00  0.00     0.008 C 
ATOM     12  C   UNL     1      33.970   9.164   1.317  1.00  0.00     0.039 C 
ENDBRANCH   5  10
TORSDOF 2
ENDMDL
MODEL 3
REMARK VINA RESULT:    -4.391     14.030     15.419
REMARK INTER + INTRA:          -4.871
REMARK INTER:                  -4.776
REMARK INTRA:                  -0.095
REMARK UNBOUND:                -0.094
REMARK SMILES C=C(C)[C@H]1CC[C@@H](C)[C@H](O)C1
REMARK SMILES IDX 8 1 7 2 6 3 5 4 4 5 11 6 9 7 10 8 2 10 1 11 3 12
REMARK H PARENT 10 9
REMARK Flexibility Score: inf
ROOT
ATOM      1  C   UNL     1      37.022   2.916  -9.967  1.00  0.00     0.010 C 
ATOM      2  C   UNL     1      38.187   2.632  -9.010  1.00  0.00     0.015 C 
ATOM      3  C   UNL     1      38.628   3.925  -8.299  1.00  0.00     0.006 C 
ATOM      4  C   UNL     1      39.708   3.651  -7.234  1.00  0.00     0.008 C 
ATOM      5  C   UNL     1      40.636   2.463  -7.594  1.00  0.00     0.017 C 
ATOM      6  C   UNL     1      40.749   2.282  -9.120  1.00  0.00     0.040 C 
ATOM      7  C   UNL     1      39.378   1.958  -9.759  1.00  0.00     0.117 C 
ENDROOT
BRANCH   7   8
ATOM      8  O   UNL     1      39.199   0.565  -9.771  1.00  0.00    -0.393 OA
ATOM      9  H   UNL     1      39.924   0.174  -9.216  1.00  0.00     0.210 HD
ENDBRANCH   7   8
BRANCH   5  10
ATOM     10  C   UNL     1      42.008   2.612  -6.950  1.00  0.00    -0.077 C 
ATOM     11  C   UNL     1      42.984   3.279  -7.587  1.00  0.00     0.008 C 
ATOM     12  C   UNL     1      42.306   2.011  -5.600  1.00  0.00     0.039 C 
ENDBRANCH   5  10
TORSDOF 2
ENDMDL
MODEL 4
REMARK VINA RESULT:    -4.336      1.834      2.575
REMARK INTER + INTRA:          -4.810
REMARK INTER:                  -4.711
REMARK INTRA:                  -0.099
REMARK UNBOUND:                -0.094
REMARK SMILES C=C(C)[C@H]1CC[C@@H](C)[C@H](O)C1
REMARK SMILES IDX 8 1 7 2 6 3 5 4 4 5 11 6 9 7 10 8 2 10 1 11 3 12
REMARK H PARENT 10 9
REMARK Flexibility Score: inf
ROOT
ATOM      1  C   UNL     1      36.181   6.196   6.370  1.00  0.00     0.010 C 
ATOM      2  C   UNL     1      36.046   7.510   5.590  1.00  0.00     0.015 C 
ATOM      3  C   UNL     1      35.152   8.502   6.357  1.00  0.00     0.006 C 
ATOM      4  C   UNL     1      35.102   9.879   5.664  1.00  0.00     0.008 C 
ATOM      5  C   UNL     1      35.232   9.793   4.123  1.00  0.00     0.017 C 
ATOM      6  C   UNL     1      34.702   8.449   3.587  1.00  0.00     0.040 C 
ATOM      7  C   UNL     1      35.509   7.254   4.148  1.00  0.00     0.117 C 
ENDROOT
BRANCH   7   8
ATOM      8  O   UNL     1      36.585   6.987   3.285  1.00  0.00    -0.393 OA
ATOM      9  H   UNL     1      36.372   7.415   2.415  1.00  0.00     0.210 HD
ENDBRANCH   7   8
BRANCH   5  10
ATOM     10  C   UNL     1      34.549  10.971   3.439  1.00  0.00    -0.077 C 
ATOM     11  C   UNL     1      34.447  11.009   2.102  1.00  0.00     0.008 C 
ATOM     12  C   UNL     1      33.984  12.117   4.240  1.00  0.00     0.039 C 
ENDBRANCH   5  10
TORSDOF 2
ENDMDL
MODEL 5
REMARK VINA RESULT:    -4.305     14.853     16.343
REMARK INTER + INTRA:          -4.776
REMARK INTER:                  -4.677
REMARK INTRA:                  -0.099
REMARK UNBOUND:                -0.094
REMARK SMILES C=C(C)[C@H]1CC[C@@H](C)[C@H](O)C1
REMARK SMILES IDX 8 1 7 2 6 3 5 4 4 5 11 6 9 7 10 8 2 10 1 11 3 12
REMARK H PARENT 10 9
REMARK Flexibility Score: inf
ROOT
ATOM      1  C   UNL     1      41.138   3.807 -11.273  1.00  0.00     0.010 C 
ATOM      2  C   UNL     1      41.526   3.016 -10.017  1.00  0.00     0.015 C 
ATOM      3  C   UNL     1      40.563   3.339  -8.859  1.00  0.00     0.006 C 
ATOM      4  C   UNL     1      40.844   2.464  -7.621  1.00  0.00     0.008 C 
ATOM      5  C   UNL     1      42.339   2.084  -7.468  1.00  0.00     0.017 C 
ATOM      6  C   UNL     1      43.257   3.149  -8.097  1.00  0.00     0.040 C 
ATOM      7  C   UNL     1      43.009   3.288  -9.618  1.00  0.00     0.117 C 
ENDROOT
BRANCH   7   8
ATOM      8  O   UNL     1      43.851   2.394 -10.300  1.00  0.00    -0.393 OA
ATOM      9  H   UNL     1      44.240   2.890 -11.067  1.00  0.00     0.210 HD
ENDBRANCH   7   8
BRANCH   5  10
ATOM     10  C   UNL     1      42.703   1.831  -6.010  1.00  0.00    -0.077 C 
ATOM     11  C   UNL     1      43.988   1.701  -5.647  1.00  0.00     0.008 C 
ATOM     12  C   UNL     1      41.637   1.711  -4.950  1.00  0.00     0.039 C 
ENDBRANCH   5  10
TORSDOF 2
ENDMDL
MODEL 6
REMARK VINA RESULT:    -4.205     14.015     15.434
REMARK INTER + INTRA:          -4.668
REMARK INTER:                  -4.570
REMARK INTRA:                  -0.097
REMARK UNBOUND:                -0.094
REMARK SMILES C=C(C)[C@H]1CC[C@@H](C)[C@H](O)C1
REMARK SMILES IDX 8 1 7 2 6 3 5 4 4 5 11 6 9 7 10 8 2 10 1 11 3 12
REMARK H PARENT 10 9
REMARK Flexibility Score: inf
ROOT
ATOM      1  C   UNL     1      38.153   3.988 -10.064  1.00  0.00     0.010 C 
ATOM      2  C   UNL     1      39.489   3.862  -9.319  1.00  0.00     0.015 C 
ATOM      3  C   UNL     1      40.413   2.860 -10.036  1.00  0.00     0.006 C 
ATOM      4  C   UNL     1      41.810   2.807  -9.388  1.00  0.00     0.008 C 
ATOM      5  C   UNL     1      41.787   3.075  -7.862  1.00  0.00     0.017 C 
ATOM      6  C   UNL     1      40.443   2.655  -7.237  1.00  0.00     0.040 C 
ATOM      7  C   UNL     1      39.263   3.464  -7.828  1.00  0.00     0.117 C 
ENDROOT
BRANCH   7   8
ATOM      8  O   UNL     1      39.074   4.622  -7.055  1.00  0.00    -0.393 OA
ATOM      9  H   UNL     1      39.794   4.635  -6.371  1.00  0.00     0.210 HD
ENDBRANCH   7   8
BRANCH   5  10
ATOM     10  C   UNL     1      42.959   2.400  -7.159  1.00  0.00    -0.077 C 
ATOM     11  C   UNL     1      44.025   1.992  -7.865  1.00  0.00     0.008 C 
ATOM     12  C   UNL     1      42.946   2.166  -5.670  1.00  0.00     0.039 C 
ENDBRANCH   5  10
TORSDOF 2
ENDMDL
MODEL 7
REMARK VINA RESULT:    -4.186     14.853     15.953
REMARK INTER + INTRA:          -4.647
REMARK INTER:                  -4.549
REMARK INTRA:                  -0.098
REMARK UNBOUND:                -0.094
REMARK SMILES C=C(C)[C@H]1CC[C@@H](C)[C@H](O)C1
REMARK SMILES IDX 8 1 7 2 6 3 5 4 4 5 11 6 9 7 10 8 2 10 1 11 3 12
REMARK H PARENT 10 9
REMARK Flexibility Score: inf
ROOT
ATOM      1  C   UNL     1      41.887   1.844  -5.392  1.00  0.00     0.010 C 
ATOM      2  C   UNL     1      41.831   1.965  -6.920  1.00  0.00     0.015 C 
ATOM      3  C   UNL     1      43.043   2.758  -7.443  1.00  0.00     0.006 C 
ATOM      4  C   UNL     1      43.087   2.785  -8.983  1.00  0.00     0.008 C 
ATOM      5  C   UNL     1      41.681   2.758  -9.636  1.00  0.00     0.017 C 
ATOM      6  C   UNL     1      40.621   3.387  -8.712  1.00  0.00     0.040 C 
ATOM      7  C   UNL     1      40.487   2.605  -7.384  1.00  0.00     0.117 C 
ENDROOT
BRANCH   7   8
ATOM      8  O   UNL     1      39.516   1.601  -7.543  1.00  0.00    -0.393 OA
ATOM      9  H   UNL     1      39.238   1.615  -8.496  1.00  0.00     0.210 HD
ENDBRANCH   7   8
BRANCH   5  10
ATOM     10  C   UNL     1      41.690   3.426 -11.005  1.00  0.00    -0.077 C 
ATOM     11  C   UNL     1      40.558   3.937 -11.514  1.00  0.00     0.008 C 
ATOM     12  C   UNL     1      42.955   3.518 -11.820  1.00  0.00     0.039 C 
ENDBRANCH   5  10
TORSDOF 2
ENDMDL
MODEL 8
REMARK VINA RESULT:    -4.165      2.094      4.385
REMARK INTER + INTRA:          -4.624
REMARK INTER:                  -4.526
REMARK INTRA:                  -0.098
REMARK UNBOUND:                -0.094
REMARK SMILES C=C(C)[C@H]1CC[C@@H](C)[C@H](O)C1
REMARK SMILES IDX 8 1 7 2 6 3 5 4 4 5 11 6 9 7 10 8 2 10 1 11 3 12
REMARK H PARENT 10 9
REMARK Flexibility Score: inf
ROOT
ATOM      1  C   UNL     1      33.988   9.874   1.718  1.00  0.00     0.010 C 
ATOM      2  C   UNL     1      34.118   9.870   3.247  1.00  0.00     0.015 C 
ATOM      3  C   UNL     1      34.761  11.180   3.736  1.00  0.00     0.006 C 
ATOM      4  C   UNL     1      34.786  11.264   5.275  1.00  0.00     0.008 C 
ATOM      5  C   UNL     1      34.929   9.882   5.961  1.00  0.00     0.017 C 
ATOM      6  C   UNL     1      35.679   8.882   5.060  1.00  0.00     0.040 C 
ATOM      7  C   UNL     1      34.916   8.624   3.739  1.00  0.00     0.117 C 
ENDROOT
BRANCH   7   8
ATOM      8  O   UNL     1      34.036   7.544   3.926  1.00  0.00    -0.393 OA
ATOM      9  H   UNL     1      34.577   6.785   4.269  1.00  0.00     0.210 HD
ENDBRANCH   7   8
BRANCH   5  10
ATOM     10  C   UNL     1      35.595  10.003   7.326  1.00  0.00    -0.077 C 
ATOM     11  C   UNL     1      36.187   8.937   7.887  1.00  0.00     0.008 C 
ATOM     12  C   UNL     1      35.595  11.309   8.080  1.00  0.00     0.039 C 
ENDBRANCH   5  10
TORSDOF 2
ENDMDL
MODEL 9
REMARK VINA RESULT:    -4.133      2.773      3.701
REMARK INTER + INTRA:          -4.589
REMARK INTER:                  -4.495
REMARK INTRA:                  -0.094
REMARK UNBOUND:                -0.094
REMARK SMILES C=C(C)[C@H]1CC[C@@H](C)[C@H](O)C1
REMARK SMILES IDX 8 1 7 2 6 3 5 4 4 5 11 6 9 7 10 8 2 10 1 11 3 12
REMARK H PARENT 10 9
REMARK Flexibility Score: inf
ROOT
ATOM      1  C   UNL     1      36.742  10.054   7.657  1.00  0.00     0.010 C 
ATOM      2  C   UNL     1      36.335  10.440   6.229  1.00  0.00     0.015 C 
ATOM      3  C   UNL     1      34.988  11.188   6.237  1.00  0.00     0.006 C 
ATOM      4  C   UNL     1      34.614  11.704   4.833  1.00  0.00     0.008 C 
ATOM      5  C   UNL     1      35.131  10.796   3.689  1.00  0.00     0.017 C 
ATOM      6  C   UNL     1      35.263   9.332   4.150  1.00  0.00     0.040 C 
ATOM      7  C   UNL     1      36.286   9.188   5.301  1.00  0.00     0.117 C 
ENDROOT
BRANCH   7   8
ATOM      8  O   UNL     1      37.559   8.958   4.752  1.00  0.00    -0.393 OA
ATOM      9  H   UNL     1      37.985   9.846   4.626  1.00  0.00     0.210 HD
ENDBRANCH   7   8
BRANCH   5  10
ATOM     10  C   UNL     1      34.254  10.910   2.448  1.00  0.00    -0.077 C 
ATOM     11  C   UNL     1      33.707  12.089   2.113  1.00  0.00     0.008 C 
ATOM     12  C   UNL     1      33.972   9.709   1.580  1.00  0.00     0.039 C 
ENDBRANCH   5  10
TORSDOF 2
ENDMDL
