MODEL 1
REMARK VINA RESULT:    -4.300      0.000      0.000
REMARK INTER + INTRA:          -5.543
REMARK INTER:                  -5.305
REMARK INTRA:                  -0.238
REMARK UNBOUND:                -0.238
REMARK SMILES CCCCCC(=O)[O-]
REMARK SMILES IDX 4 1 5 2 6 3 7 4 8 5 3 6 2 7 1 8
REMARK H PARENT
REMARK Flexibility Score: inf
ROOT
ATOM      1  C   UNL     1       3.681  14.309   2.674  1.00  0.00     0.006 C 
ENDROOT
BRANCH   1   2
ATOM      2  C   UNL     1       4.516  14.784   3.874  1.00  0.00     0.053 C 
BRANCH   2   3
ATOM      3  C   UNL     1       5.457  15.887   3.500  1.00  0.00     0.041 C 
ATOM      4  O   UNL     1       5.147  16.705   2.594  1.00  0.00    -0.550 OA
ATOM      5  O   UNL     1       6.691  15.994   4.130  1.00  0.00    -0.550 OA
ENDBRANCH   2   3
ENDBRANCH   1   2
BRANCH   1   6
ATOM      6  C   UNL     1       4.258  13.079   1.949  1.00  0.00     0.000 C 
BRANCH   6   7
ATOM      7  C   UNL     1       4.990  13.444   0.650  1.00  0.00    -0.003 C 
ATOM      8  C   UNL     1       6.495  13.560   0.882  1.00  0.00     0.004 C 
ENDBRANCH   6   7
ENDBRANCH   1   6
TORSDOF 4
ENDMDL
MODEL 2
REMARK VINA RESULT:    -4.298      1.297      1.627
REMARK INTER + INTRA:          -5.540
REMARK INTER:                  -5.414
REMARK INTRA:                  -0.126
REMARK UNBOUND:                -0.238
REMARK SMILES CCCCCC(=O)[O-]
REMARK SMILES IDX 4 1 5 2 6 3 7 4 8 5 3 6 2 7 1 8
REMARK H PARENT
REMARK Flexibility Score: inf
ROOT
ATOM      1  C   UNL     1       3.130  14.952   3.078  1.00  0.00     0.006 C 
ENDROOT
BRANCH   1   2
ATOM      2  C   UNL     1       4.227  14.598   4.095  1.00  0.00     0.053 C 
BRANCH   2   3
ATOM      3  C   UNL     1       4.857  15.821   4.687  1.00  0.00     0.041 C 
ATOM      4  O   UNL     1       5.948  16.256   4.232  1.00  0.00    -0.550 OA
ATOM      5  O   UNL     1       4.256  16.462   5.762  1.00  0.00    -0.550 OA
ENDBRANCH   2   3
ENDBRANCH   1   2
BRANCH   1   6
ATOM      6  C   UNL     1       3.081  14.021   1.852  1.00  0.00     0.000 C 
BRANCH   6   7
ATOM      7  C   UNL     1       4.294  13.085   1.767  1.00  0.00    -0.003 C 
ATOM      8  C   UNL     1       5.170  13.429   0.564  1.00  0.00     0.004 C 
ENDBRANCH   6   7
ENDBRANCH   1   6
TORSDOF 4
ENDMDL
MODEL 3
REMARK VINA RESULT:    -4.219      2.353      3.487
REMARK INTER + INTRA:          -5.443
REMARK INTER:                  -5.312
REMARK INTRA:                  -0.132
REMARK UNBOUND:                -0.238
REMARK SMILES CCCCCC(=O)[O-]
REMARK SMILES IDX 4 1 5 2 6 3 7 4 8 5 3 6 2 7 1 8
REMARK H PARENT
REMARK Flexibility Score: inf
ROOT
ATOM      1  C   UNL     1       5.219  13.486   0.620  1.00  0.00     0.006 C 
ENDROOT
BRANCH   1   2
ATOM      2  C   UNL     1       4.226  13.169   1.751  1.00  0.00     0.053 C 
BRANCH   2   3
ATOM      3  C   UNL     1       2.990  14.010   1.663  1.00  0.00     0.041 C 
ATOM      4  O   UNL     1       2.698  14.807   2.594  1.00  0.00    -0.550 OA
ATOM      5  O   UNL     1       2.144  13.892   0.568  1.00  0.00    -0.550 OA
ENDBRANCH   2   3
ENDBRANCH   1   2
BRANCH   1   6
ATOM      6  C   UNL     1       6.633  13.855   1.106  1.00  0.00     0.000 C 
BRANCH   6   7
ATOM      7  C   UNL     1       6.625  14.612   2.441  1.00  0.00    -0.003 C 
ATOM      8  C   UNL     1       8.022  14.655   3.056  1.00  0.00     0.004 C 
ENDBRANCH   6   7
ENDBRANCH   1   6
TORSDOF 4
ENDMDL
MODEL 4
REMARK VINA RESULT:    -4.212      1.070      2.394
REMARK INTER + INTRA:          -5.434
REMARK INTER:                  -5.223
REMARK INTRA:                  -0.212
REMARK UNBOUND:                -0.238
REMARK SMILES CCCCCC(=O)[O-]
REMARK SMILES IDX 4 1 5 2 6 3 7 4 8 5 3 6 2 7 1 8
REMARK H PARENT
REMARK Flexibility Score: inf
ROOT
ATOM      1  C   UNL     1       6.204  14.513   0.964  1.00  0.00     0.006 C 
ENDROOT
BRANCH   1   2
ATOM      2  C   UNL     1       6.673  14.455   2.427  1.00  0.00     0.053 C 
BRANCH   2   3
ATOM      3  C   UNL     1       6.342  15.712   3.171  1.00  0.00     0.041 C 
ATOM      4  O   UNL     1       7.131  16.157   4.046  1.00  0.00    -0.550 OA
ATOM      5  O   UNL     1       5.148  16.376   2.920  1.00  0.00    -0.550 OA
ENDBRANCH   2   3
ENDBRANCH   1   2
BRANCH   1   6
ATOM      6  C   UNL     1       5.159  13.445   0.591  1.00  0.00     0.000 C 
BRANCH   6   7
ATOM      7  C   UNL     1       4.249  13.068   1.769  1.00  0.00    -0.003 C 
ATOM      8  C   UNL     1       2.882  13.736   1.642  1.00  0.00     0.004 C 
ENDBRANCH   6   7
ENDBRANCH   1   6
TORSDOF 4
ENDMDL
MODEL 5
REMARK VINA RESULT:    -4.211      2.625      3.403
REMARK INTER + INTRA:          -5.433
REMARK INTER:                  -5.386
REMARK INTRA:                  -0.048
REMARK UNBOUND:                -0.238
REMARK SMILES CCCCCC(=O)[O-]
REMARK SMILES IDX 4 1 5 2 6 3 7 4 8 5 3 6 2 7 1 8
REMARK H PARENT
REMARK Flexibility Score: inf
ROOT
ATOM      1  C   UNL     1       4.066  13.146   1.765  1.00  0.00     0.006 C 
ENDROOT
BRANCH   1   2
ATOM      2  C   UNL     1       2.877  13.810   1.054  1.00  0.00     0.053 C 
BRANCH   2   3
ATOM      3  C   UNL     1       1.794  14.196   2.014  1.00  0.00     0.041 C 
ATOM      4  O   UNL     1       0.612  13.801   1.829  1.00  0.00    -0.550 OA
ATOM      5  O   UNL     1       2.084  15.017   3.096  1.00  0.00    -0.550 OA
ENDBRANCH   2   3
ENDBRANCH   1   2
BRANCH   1   6
ATOM      6  C   UNL     1       5.364  13.118   0.936  1.00  0.00     0.000 C 
BRANCH   6   7
ATOM      7  C   UNL     1       6.509  13.898   1.597  1.00  0.00    -0.003 C 
ATOM      8  C   UNL     1       7.775  13.841   0.746  1.00  0.00     0.004 C 
ENDBRANCH   6   7
ENDBRANCH   1   6
TORSDOF 4
ENDMDL
MODEL 6
REMARK VINA RESULT:    -4.186      1.317      2.164
REMARK INTER + INTRA:          -5.403
REMARK INTER:                  -5.227
REMARK INTRA:                  -0.176
REMARK UNBOUND:                -0.238
REMARK SMILES CCCCCC(=O)[O-]
REMARK SMILES IDX 4 1 5 2 6 3 7 4 8 5 3 6 2 7 1 8
REMARK H PARENT
REMARK Flexibility Score: inf
ROOT
ATOM      1  C   UNL     1       5.650  14.182   1.847  1.00  0.00     0.006 C 
ENDROOT
BRANCH   1   2
ATOM      2  C   UNL     1       5.337  15.591   2.375  1.00  0.00     0.053 C 
BRANCH   2   3
ATOM      3  C   UNL     1       5.882  15.807   3.753  1.00  0.00     0.041 C 
ATOM      4  O   UNL     1       5.117  15.762   4.753  1.00  0.00    -0.550 OA
ATOM      5  O   UNL     1       7.230  16.089   3.932  1.00  0.00    -0.550 OA
ENDBRANCH   2   3
ENDBRANCH   1   2
BRANCH   1   6
ATOM      6  C   UNL     1       4.445  13.224   1.849  1.00  0.00     0.000 C 
BRANCH   6   7
ATOM      7  C   UNL     1       3.103  13.956   1.993  1.00  0.00    -0.003 C 
ATOM      8  C   UNL     1       2.341  13.972   0.670  1.00  0.00     0.004 C 
ENDBRANCH   6   7
ENDBRANCH   1   6
TORSDOF 4
ENDMDL
MODEL 7
REMARK VINA RESULT:    -4.171      1.815      3.096
REMARK INTER + INTRA:          -5.385
REMARK INTER:                  -5.155
REMARK INTRA:                  -0.230
REMARK UNBOUND:                -0.238
REMARK SMILES CCCCCC(=O)[O-]
REMARK SMILES IDX 4 1 5 2 6 3 7 4 8 5 3 6 2 7 1 8
REMARK H PARENT
REMARK Flexibility Score: inf
ROOT
ATOM      1  C   UNL     1       4.242  13.188   1.892  1.00  0.00     0.006 C 
ENDROOT
BRANCH   1   2
ATOM      2  C   UNL     1       5.114  13.359   0.638  1.00  0.00     0.053 C 
BRANCH   2   3
ATOM      3  C   UNL     1       5.883  14.644   0.662  1.00  0.00     0.041 C 
ATOM      4  O   UNL     1       5.297  15.738   0.445  1.00  0.00    -0.550 OA
ATOM      5  O   UNL     1       7.253  14.632   0.893  1.00  0.00    -0.550 OA
ENDBRANCH   2   3
ENDBRANCH   1   2
BRANCH   1   6
ATOM      6  C   UNL     1       2.802  13.710   1.738  1.00  0.00     0.000 C 
BRANCH   6   7
ATOM      7  C   UNL     1       2.450  14.796   2.764  1.00  0.00    -0.003 C 
ATOM      8  C   UNL     1       3.639  15.099   3.672  1.00  0.00     0.004 C 
ENDBRANCH   6   7
ENDBRANCH   1   6
TORSDOF 4
ENDMDL
MODEL 8
REMARK VINA RESULT:    -4.036      2.250      3.381
REMARK INTER + INTRA:          -5.217
REMARK INTER:                  -5.054
REMARK INTRA:                  -0.163
REMARK UNBOUND:                -0.238
REMARK SMILES CCCCCC(=O)[O-]
REMARK SMILES IDX 4 1 5 2 6 3 7 4 8 5 3 6 2 7 1 8
REMARK H PARENT
REMARK Flexibility Score: inf
ROOT
ATOM      1  C   UNL     1       5.206  13.877   0.264  1.00  0.00     0.006 C 
ENDROOT
BRANCH   1   2
ATOM      2  C   UNL     1       6.320  14.874   0.620  1.00  0.00     0.053 C 
BRANCH   2   3
ATOM      3  C   UNL     1       7.505  14.194   1.234  1.00  0.00     0.041 C 
ATOM      4  O   UNL     1       7.818  14.426   2.433  1.00  0.00    -0.550 OA
ATOM      5  O   UNL     1       8.282  13.329   0.476  1.00  0.00    -0.550 OA
ENDBRANCH   2   3
ENDBRANCH   1   2
BRANCH   1   6
ATOM      6  C   UNL     1       4.656  13.087   1.467  1.00  0.00     0.000 C 
BRANCH   6   7
ATOM      7  C   UNL     1       3.268  13.570   1.911  1.00  0.00    -0.003 C 
ATOM      8  C   UNL     1       2.424  13.994   0.711  1.00  0.00     0.004 C 
ENDBRANCH   6   7
ENDBRANCH   1   6
TORSDOF 4
ENDMDL
MODEL 9
REMARK VINA RESULT:    -4.008      4.093      4.849
REMARK INTER + INTRA:          -5.183
REMARK INTER:                  -5.140
REMARK INTRA:                  -0.044
REMARK UNBOUND:                -0.238
REMARK SMILES CCCCCC(=O)[O-]
REMARK SMILES IDX 4 1 5 2 6 3 7 4 8 5 3 6 2 7 1 8
REMARK H PARENT
REMARK Flexibility Score: inf
ROOT
ATOM      1  C   UNL     1       1.752  13.914   1.820  1.00  0.00     0.006 C 
ENDROOT
BRANCH   1   2
ATOM      2  C   UNL     1       0.821  14.633   2.809  1.00  0.00     0.053 C 
BRANCH   2   3
ATOM      3  C   UNL     1      -0.541  14.012   2.849  1.00  0.00     0.041 C 
ATOM      4  O   UNL     1      -1.227  14.054   3.904  1.00  0.00    -0.550 OA
ATOM      5  O   UNL     1      -1.041  13.357   1.730  1.00  0.00    -0.550 OA
ENDBRANCH   2   3
ENDBRANCH   1   2
BRANCH   1   6
ATOM      6  C   UNL     1       3.237  14.301   1.953  1.00  0.00     0.000 C 
BRANCH   6   7
ATOM      7  C   UNL     1       4.172  13.084   1.944  1.00  0.00    -0.003 C 
ATOM      8  C   UNL     1       5.186  13.180   0.807  1.00  0.00     0.004 C 
ENDBRANCH   6   7
ENDBRANCH   1   6
TORSDOF 4
ENDMDL
