MODEL 1
REMARK VINA RESULT:    -3.765      0.000      0.000
REMARK INTER + INTRA:          -6.497
REMARK INTER:                  -6.076
REMARK INTRA:                  -0.421
REMARK UNBOUND:                -0.421
REMARK SMILES CCCCCCCCCCCCO
REMARK SMILES IDX 7 1 6 2 5 3 4 4 3 5 2 6 1 7 8 8 9 9 10 10 11 11 12 12 13 13
REMARK H PARENT 13 14
REMARK Flexibility Score: inf
ROOT
ATOM      1  C   UNL     1     165.788 165.279 169.439  1.00  0.00     0.000 C 
ENDROOT
BRANCH   1   2
ATOM      2  C   UNL     1     164.446 165.737 170.030  1.00  0.00    -0.000 C 
BRANCH   2   3
ATOM      3  C   UNL     1     163.726 164.570 170.722  1.00  0.00    -0.000 C 
BRANCH   3   4
ATOM      4  C   UNL     1     162.225 164.516 170.388  1.00  0.00    -0.000 C 
BRANCH   4   5
ATOM      5  C   UNL     1     161.753 163.098 170.022  1.00  0.00    -0.000 C 
BRANCH   5   6
ATOM      6  C   UNL     1     160.989 163.059 168.689  1.00  0.00    -0.003 C 
ATOM      7  C   UNL     1     161.235 164.298 167.827  1.00  0.00     0.004 C 
ENDBRANCH   5   6
ENDBRANCH   4   5
ENDBRANCH   3   4
ENDBRANCH   2   3
ENDBRANCH   1   2
BRANCH   1   8
ATOM      8  C   UNL     1     165.902 165.544 167.927  1.00  0.00     0.000 C 
BRANCH   8   9
ATOM      9  C   UNL     1     167.190 165.018 167.267  1.00  0.00     0.000 C 
BRANCH   9  10
ATOM     10  C   UNL     1     167.144 165.076 165.731  1.00  0.00     0.002 C 
BRANCH  10  11
ATOM     11  C   UNL     1     168.514 165.391 165.110  1.00  0.00     0.028 C 
BRANCH  11  12
ATOM     12  C   UNL     1     169.474 166.064 166.099  1.00  0.00     0.156 C 
BRANCH  12  13
ATOM     13  O   UNL     1     170.764 166.120 165.555  1.00  0.00    -0.396 OA
ATOM     14  H   UNL     1     170.658 166.113 164.569  1.00  0.00     0.210 HD
ENDBRANCH  12  13
ENDBRANCH  11  12
ENDBRANCH  10  11
ENDBRANCH   9  10
ENDBRANCH   8   9
ENDBRANCH   1   8
TORSDOF 11
ENDMDL
MODEL 2
REMARK VINA RESULT:    -3.688      8.315      9.085
REMARK INTER + INTRA:          -6.372
REMARK INTER:                  -5.161
REMARK INTRA:                  -1.211
REMARK UNBOUND:                -0.421
REMARK SMILES CCCCCCCCCCCCO
REMARK SMILES IDX 7 1 6 2 5 3 4 4 3 5 2 6 1 7 8 8 9 9 10 10 11 11 12 12 13 13
REMARK H PARENT 13 14
REMARK Flexibility Score: inf
ROOT
ATOM      1  C   UNL     1     162.352 171.173 170.046  1.00  0.00     0.000 C 
ENDROOT
BRANCH   1   2
ATOM      2  C   UNL     1     161.173 171.772 170.828  1.00  0.00    -0.000 C 
BRANCH   2   3
ATOM      3  C   UNL     1     159.898 170.942 170.616  1.00  0.00    -0.000 C 
BRANCH   3   4
ATOM      4  C   UNL     1     158.765 171.749 169.961  1.00  0.00    -0.000 C 
BRANCH   4   5
ATOM      5  C   UNL     1     158.949 171.899 168.441  1.00  0.00    -0.000 C 
BRANCH   5   6
ATOM      6  C   UNL     1     158.805 173.356 167.973  1.00  0.00    -0.003 C 
ATOM      7  C   UNL     1     158.586 174.333 169.128  1.00  0.00     0.004 C 
ENDBRANCH   5   6
ENDBRANCH   4   5
ENDBRANCH   3   4
ENDBRANCH   2   3
ENDBRANCH   1   2
BRANCH   1   8
ATOM      8  C   UNL     1     163.157 172.229 169.267  1.00  0.00     0.000 C 
BRANCH   8   9
ATOM      9  C   UNL     1     162.459 173.592 169.101  1.00  0.00     0.000 C 
BRANCH   9  10
ATOM     10  C   UNL     1     162.435 174.080 167.643  1.00  0.00     0.002 C 
BRANCH  10  11
ATOM     11  C   UNL     1     163.560 173.464 166.796  1.00  0.00     0.028 C 
BRANCH  11  12
ATOM     12  C   UNL     1     164.185 174.466 165.818  1.00  0.00     0.156 C 
BRANCH  12  13
ATOM     13  O   UNL     1     165.562 174.573 166.053  1.00  0.00    -0.396 OA
ATOM     14  H   UNL     1     165.673 175.180 166.830  1.00  0.00     0.210 HD
ENDBRANCH  12  13
ENDBRANCH  11  12
ENDBRANCH  10  11
ENDBRANCH   9  10
ENDBRANCH   8   9
ENDBRANCH   1   8
TORSDOF 11
ENDMDL
MODEL 3
REMARK VINA RESULT:    -3.651      8.862      9.805
REMARK INTER + INTRA:          -6.312
REMARK INTER:                  -5.311
REMARK INTRA:                  -1.001
REMARK UNBOUND:                -0.421
REMARK SMILES CCCCCCCCCCCCO
REMARK SMILES IDX 7 1 6 2 5 3 4 4 3 5 2 6 1 7 8 8 9 9 10 10 11 11 12 12 13 13
REMARK H PARENT 13 14
REMARK Flexibility Score: inf
ROOT
ATOM      1  C   UNL     1     159.475 174.360 168.086  1.00  0.00     0.000 C 
ENDROOT
BRANCH   1   2
ATOM      2  C   UNL     1     158.468 173.200 168.051  1.00  0.00    -0.000 C 
BRANCH   2   3
ATOM      3  C   UNL     1     159.150 171.873 168.414  1.00  0.00    -0.000 C 
BRANCH   3   4
ATOM      4  C   UNL     1     159.144 171.595 169.927  1.00  0.00    -0.000 C 
BRANCH   4   5
ATOM      5  C   UNL     1     160.551 171.319 170.483  1.00  0.00    -0.000 C 
BRANCH   5   6
ATOM      6  C   UNL     1     161.652 171.548 169.435  1.00  0.00    -0.003 C 
ATOM      7  C   UNL     1     163.045 171.666 170.054  1.00  0.00     0.004 C 
ENDBRANCH   5   6
ENDBRANCH   4   5
ENDBRANCH   3   4
ENDBRANCH   2   3
ENDBRANCH   1   2
BRANCH   1   8
ATOM      8  C   UNL     1     159.811 174.908 166.687  1.00  0.00     0.000 C 
BRANCH   8   9
ATOM      9  C   UNL     1     161.299 175.227 166.450  1.00  0.00     0.000 C 
BRANCH   9  10
ATOM     10  C   UNL     1     162.221 174.609 167.514  1.00  0.00     0.002 C 
BRANCH  10  11
ATOM     11  C   UNL     1     163.378 173.807 166.897  1.00  0.00     0.028 C 
BRANCH  11  12
ATOM     12  C   UNL     1     164.064 174.546 165.741  1.00  0.00     0.156 C 
BRANCH  12  13
ATOM     13  O   UNL     1     165.448 174.595 165.956  1.00  0.00    -0.396 OA
ATOM     14  H   UNL     1     165.593 174.425 166.923  1.00  0.00     0.210 HD
ENDBRANCH  12  13
ENDBRANCH  11  12
ENDBRANCH  10  11
ENDBRANCH   9  10
ENDBRANCH   8   9
ENDBRANCH   1   8
TORSDOF 11
ENDMDL
MODEL 4
REMARK VINA RESULT:    -3.592      3.804      7.147
REMARK INTER + INTRA:          -6.218
REMARK INTER:                  -5.706
REMARK INTRA:                  -0.513
REMARK UNBOUND:                -0.421
REMARK SMILES CCCCCCCCCCCCO
REMARK SMILES IDX 7 1 6 2 5 3 4 4 3 5 2 6 1 7 8 8 9 9 10 10 11 11 12 12 13 13
REMARK H PARENT 13 14
REMARK Flexibility Score: inf
ROOT
ATOM      1  C   UNL     1     164.960 165.819 168.425  1.00  0.00     0.000 C 
ENDROOT
BRANCH   1   2
ATOM      2  C   UNL     1     166.427 165.391 168.585  1.00  0.00    -0.000 C 
BRANCH   2   3
ATOM      3  C   UNL     1     166.777 165.184 170.066  1.00  0.00    -0.000 C 
BRANCH   3   4
ATOM      4  C   UNL     1     167.769 166.234 170.595  1.00  0.00    -0.000 C 
BRANCH   4   5
ATOM      5  C   UNL     1     168.677 166.799 169.489  1.00  0.00    -0.000 C 
BRANCH   5   6
ATOM      6  C   UNL     1     169.570 167.945 169.990  1.00  0.00    -0.003 C 
ATOM      7  C   UNL     1     170.382 168.598 168.872  1.00  0.00     0.004 C 
ENDBRANCH   5   6
ENDBRANCH   4   5
ENDBRANCH   3   4
ENDBRANCH   2   3
ENDBRANCH   1   2
BRANCH   1   8
ATOM      8  C   UNL     1     164.104 165.515 169.668  1.00  0.00     0.000 C 
BRANCH   8   9
ATOM      9  C   UNL     1     162.913 164.570 169.427  1.00  0.00     0.000 C 
BRANCH   9  10
ATOM     10  C   UNL     1     162.085 164.954 168.188  1.00  0.00     0.002 C 
BRANCH  10  11
ATOM     11  C   UNL     1     161.053 163.879 167.812  1.00  0.00     0.028 C 
BRANCH  11  12
ATOM     12  C   UNL     1     161.017 162.715 168.810  1.00  0.00     0.156 C 
BRANCH  12  13
ATOM     13  O   UNL     1     160.585 161.546 168.170  1.00  0.00    -0.396 OA
ATOM     14  H   UNL     1     161.400 161.083 167.842  1.00  0.00     0.210 HD
ENDBRANCH  12  13
ENDBRANCH  11  12
ENDBRANCH  10  11
ENDBRANCH   9  10
ENDBRANCH   8   9
ENDBRANCH   1   8
TORSDOF 11
ENDMDL
MODEL 5
REMARK VINA RESULT:    -3.587      9.502     10.977
REMARK INTER + INTRA:          -6.210
REMARK INTER:                  -5.310
REMARK INTRA:                  -0.900
REMARK UNBOUND:                -0.421
REMARK SMILES CCCCCCCCCCCCO
REMARK SMILES IDX 7 1 6 2 5 3 4 4 3 5 2 6 1 7 8 8 9 9 10 10 11 11 12 12 13 13
REMARK H PARENT 13 14
REMARK Flexibility Score: inf
ROOT
ATOM      1  C   UNL     1     163.201 173.663 167.942  1.00  0.00     0.000 C 
ENDROOT
BRANCH   1   2
ATOM      2  C   UNL     1     163.649 174.017 166.516  1.00  0.00    -0.000 C 
BRANCH   2   3
ATOM      3  C   UNL     1     162.736 175.093 165.908  1.00  0.00    -0.000 C 
BRANCH   3   4
ATOM      4  C   UNL     1     161.603 175.517 166.856  1.00  0.00    -0.000 C 
BRANCH   4   5
ATOM      5  C   UNL     1     160.215 175.418 166.200  1.00  0.00    -0.000 C 
BRANCH   5   6
ATOM      6  C   UNL     1     159.229 174.585 167.034  1.00  0.00    -0.003 C 
ATOM      7  C   UNL     1     158.267 175.447 167.852  1.00  0.00     0.004 C 
ENDBRANCH   5   6
ENDBRANCH   4   5
ENDBRANCH   3   4
ENDBRANCH   2   3
ENDBRANCH   1   2
BRANCH   1   8
ATOM      8  C   UNL     1     163.430 172.182 168.295  1.00  0.00     0.000 C 
BRANCH   8   9
ATOM      9  C   UNL     1     162.401 171.575 169.266  1.00  0.00     0.000 C 
BRANCH   9  10
ATOM     10  C   UNL     1     161.062 172.332 169.271  1.00  0.00     0.002 C 
BRANCH  10  11
ATOM     11  C   UNL     1     159.923 171.512 169.898  1.00  0.00     0.028 C 
BRANCH  11  12
ATOM     12  C   UNL     1     158.575 171.738 169.203  1.00  0.00     0.156 C 
BRANCH  12  13
ATOM     13  O   UNL     1     158.599 171.187 167.915  1.00  0.00    -0.396 OA
ATOM     14  H   UNL     1     159.269 170.455 167.931  1.00  0.00     0.210 HD
ENDBRANCH  12  13
ENDBRANCH  11  12
ENDBRANCH  10  11
ENDBRANCH   9  10
ENDBRANCH   8   9
ENDBRANCH   1   8
TORSDOF 11
ENDMDL
MODEL 6
REMARK VINA RESULT:    -3.566      8.869     10.841
REMARK INTER + INTRA:          -6.175
REMARK INTER:                  -4.721
REMARK INTRA:                  -1.454
REMARK UNBOUND:                -0.421
REMARK SMILES CCCCCCCCCCCCO
REMARK SMILES IDX 7 1 6 2 5 3 4 4 3 5 2 6 1 7 8 8 9 9 10 10 11 11 12 12 13 13
REMARK H PARENT 13 14
REMARK Flexibility Score: inf
ROOT
ATOM      1  C   UNL     1     161.774 175.226 169.981  1.00  0.00     0.000 C 
ENDROOT
BRANCH   1   2
ATOM      2  C   UNL     1     161.248 175.313 168.540  1.00  0.00    -0.000 C 
BRANCH   2   3
ATOM      3  C   UNL     1     161.999 174.337 167.623  1.00  0.00    -0.000 C 
BRANCH   3   4
ATOM      4  C   UNL     1     163.145 173.607 168.344  1.00  0.00    -0.000 C 
BRANCH   4   5
ATOM      5  C   UNL     1     163.036 172.077 168.229  1.00  0.00    -0.000 C 
BRANCH   5   6
ATOM      6  C   UNL     1     163.172 171.375 169.589  1.00  0.00    -0.003 C 
ATOM      7  C   UNL     1     164.125 172.100 170.540  1.00  0.00     0.004 C 
ENDBRANCH   5   6
ENDBRANCH   4   5
ENDBRANCH   3   4
ENDBRANCH   2   3
ENDBRANCH   1   2
BRANCH   1   8
ATOM      8  C   UNL     1     160.695 174.794 170.991  1.00  0.00     0.000 C 
BRANCH   8   9
ATOM      9  C   UNL     1     160.722 173.305 171.380  1.00  0.00     0.000 C 
BRANCH   9  10
ATOM     10  C   UNL     1     159.377 172.597 171.142  1.00  0.00     0.002 C 
BRANCH  10  11
ATOM     11  C   UNL     1     159.436 171.595 169.978  1.00  0.00     0.028 C 
BRANCH  11  12
ATOM     12  C   UNL     1     158.838 172.154 168.681  1.00  0.00     0.156 C 
BRANCH  12  13
ATOM     13  O   UNL     1     158.555 171.109 167.792  1.00  0.00    -0.396 OA
ATOM     14  H   UNL     1     157.575 170.960 167.829  1.00  0.00     0.210 HD
ENDBRANCH  12  13
ENDBRANCH  11  12
ENDBRANCH  10  11
ENDBRANCH   9  10
ENDBRANCH   8   9
ENDBRANCH   1   8
TORSDOF 11
ENDMDL
MODEL 7
REMARK VINA RESULT:    -3.493      8.863     10.617
REMARK INTER + INTRA:          -6.059
REMARK INTER:                  -5.187
REMARK INTRA:                  -0.871
REMARK UNBOUND:                -0.421
REMARK SMILES CCCCCCCCCCCCO
REMARK SMILES IDX 7 1 6 2 5 3 4 4 3 5 2 6 1 7 8 8 9 9 10 10 11 11 12 12 13 13
REMARK H PARENT 13 14
REMARK Flexibility Score: inf
ROOT
ATOM      1  C   UNL     1     162.971 174.235 166.814  1.00  0.00     0.000 C 
ENDROOT
BRANCH   1   2
ATOM      2  C   UNL     1     163.161 173.592 168.196  1.00  0.00    -0.000 C 
BRANCH   2   3
ATOM      3  C   UNL     1     163.221 172.061 168.083  1.00  0.00    -0.000 C 
BRANCH   3   4
ATOM      4  C   UNL     1     162.863 171.354 169.401  1.00  0.00    -0.000 C 
BRANCH   4   5
ATOM      5  C   UNL     1     162.990 172.281 170.623  1.00  0.00    -0.000 C 
BRANCH   5   6
ATOM      6  C   UNL     1     164.285 172.037 171.413  1.00  0.00    -0.003 C 
ATOM      7  C   UNL     1     165.304 173.164 171.246  1.00  0.00     0.004 C 
ENDBRANCH   5   6
ENDBRANCH   4   5
ENDBRANCH   3   4
ENDBRANCH   2   3
ENDBRANCH   1   2
BRANCH   1   8
ATOM      8  C   UNL     1     161.632 174.983 166.676  1.00  0.00     0.000 C 
BRANCH   8   9
ATOM      9  C   UNL     1     160.665 174.815 167.862  1.00  0.00     0.000 C 
BRANCH   9  10
ATOM     10  C   UNL     1     159.288 174.272 167.441  1.00  0.00     0.002 C 
BRANCH  10  11
ATOM     11  C   UNL     1     158.606 173.464 168.557  1.00  0.00     0.028 C 
BRANCH  11  12
ATOM     12  C   UNL     1     159.206 172.063 168.728  1.00  0.00     0.156 C 
BRANCH  12  13
ATOM     13  O   UNL     1     158.558 171.155 167.881  1.00  0.00    -0.396 OA
ATOM     14  H   UNL     1     159.061 170.301 167.939  1.00  0.00     0.210 HD
ENDBRANCH  12  13
ENDBRANCH  11  12
ENDBRANCH  10  11
ENDBRANCH   9  10
ENDBRANCH   8   9
ENDBRANCH   1   8
TORSDOF 11
ENDMDL
MODEL 8
REMARK VINA RESULT:    -3.493      8.046     10.095
REMARK INTER + INTRA:          -6.058
REMARK INTER:                  -4.740
REMARK INTRA:                  -1.318
REMARK UNBOUND:                -0.421
REMARK SMILES CCCCCCCCCCCCO
REMARK SMILES IDX 7 1 6 2 5 3 4 4 3 5 2 6 1 7 8 8 9 9 10 10 11 11 12 12 13 13
REMARK H PARENT 13 14
REMARK Flexibility Score: inf
ROOT
ATOM      1  C   UNL     1     168.157 157.401 168.174  1.00  0.00     0.000 C 
ENDROOT
BRANCH   1   2
ATOM      2  C   UNL     1     169.574 156.937 167.807  1.00  0.00    -0.000 C 
BRANCH   2   3
ATOM      3  C   UNL     1     170.276 156.310 169.021  1.00  0.00    -0.000 C 
BRANCH   3   4
ATOM      4  C   UNL     1     171.557 157.061 169.420  1.00  0.00    -0.000 C 
BRANCH   4   5
ATOM      5  C   UNL     1     172.169 157.849 168.249  1.00  0.00    -0.000 C 
BRANCH   5   6
ATOM      6  C   UNL     1     172.377 159.334 168.585  1.00  0.00    -0.003 C 
ATOM      7  C   UNL     1     172.332 159.615 170.088  1.00  0.00     0.004 C 
ENDBRANCH   5   6
ENDBRANCH   4   5
ENDBRANCH   3   4
ENDBRANCH   2   3
ENDBRANCH   1   2
BRANCH   1   8
ATOM      8  C   UNL     1     168.007 158.934 168.178  1.00  0.00     0.000 C 
BRANCH   8   9
ATOM      9  C   UNL     1     168.703 159.656 169.346  1.00  0.00     0.000 C 
BRANCH   9  10
ATOM     10  C   UNL     1     168.211 159.180 170.723  1.00  0.00     0.002 C 
BRANCH  10  11
ATOM     11  C   UNL     1     166.683 159.260 170.864  1.00  0.00     0.028 C 
BRANCH  11  12
ATOM     12  C   UNL     1     166.078 158.005 171.506  1.00  0.00     0.156 C 
BRANCH  12  13
ATOM     13  O   UNL     1     165.538 157.172 170.518  1.00  0.00    -0.396 OA
ATOM     14  H   UNL     1     166.204 157.131 169.784  1.00  0.00     0.210 HD
ENDBRANCH  12  13
ENDBRANCH  11  12
ENDBRANCH  10  11
ENDBRANCH   9  10
ENDBRANCH   8   9
ENDBRANCH   1   8
TORSDOF 11
ENDMDL
MODEL 9
REMARK VINA RESULT:    -3.477      8.670      9.753
REMARK INTER + INTRA:          -6.032
REMARK INTER:                  -4.716
REMARK INTRA:                  -1.316
REMARK UNBOUND:                -0.421
REMARK SMILES CCCCCCCCCCCCO
REMARK SMILES IDX 7 1 6 2 5 3 4 4 3 5 2 6 1 7 8 8 9 9 10 10 11 11 12 12 13 13
REMARK H PARENT 13 14
REMARK Flexibility Score: inf
ROOT
ATOM      1  C   UNL     1     162.230 174.580 169.055  1.00  0.00     0.000 C 
ENDROOT
BRANCH   1   2
ATOM      2  C   UNL     1     160.855 175.206 168.775  1.00  0.00    -0.000 C 
BRANCH   2   3
ATOM      3  C   UNL     1     160.355 174.825 167.374  1.00  0.00    -0.000 C 
BRANCH   3   4
ATOM      4  C   UNL     1     158.949 174.203 167.393  1.00  0.00    -0.000 C 
BRANCH   4   5
ATOM      5  C   UNL     1     158.646 173.468 168.710  1.00  0.00    -0.000 C 
BRANCH   5   6
ATOM      6  C   UNL     1     158.919 171.958 168.617  1.00  0.00    -0.003 C 
ATOM      7  C   UNL     1     159.507 171.380 169.904  1.00  0.00     0.004 C 
ENDBRANCH   5   6
ENDBRANCH   4   5
ENDBRANCH   3   4
ENDBRANCH   2   3
ENDBRANCH   1   2
BRANCH   1   8
ATOM      8  C   UNL     1     162.692 173.620 167.944  1.00  0.00     0.000 C 
BRANCH   8   9
ATOM      9  C   UNL     1     163.048 172.198 168.415  1.00  0.00     0.000 C 
BRANCH   9  10
ATOM     10  C   UNL     1     163.017 172.049 169.946  1.00  0.00     0.002 C 
BRANCH  10  11
ATOM     11  C   UNL     1     164.423 171.968 170.559  1.00  0.00     0.028 C 
BRANCH  11  12
ATOM     12  C   UNL     1     164.827 173.254 171.291  1.00  0.00     0.156 C 
BRANCH  12  13
ATOM     13  O   UNL     1     165.645 174.040 170.467  1.00  0.00    -0.396 OA
ATOM     14  H   UNL     1     166.101 174.693 171.058  1.00  0.00     0.210 HD
ENDBRANCH  12  13
ENDBRANCH  11  12
ENDBRANCH  10  11
ENDBRANCH   9  10
ENDBRANCH   8   9
ENDBRANCH   1   8
TORSDOF 11
ENDMDL
