MODEL 1
REMARK VINA RESULT:    -2.895      0.000      0.000
REMARK INTER + INTRA:          -2.895
REMARK INTER:                  -2.895
REMARK INTRA:                   0.000
REMARK UNBOUND:                 0.000
REMARK SMILES c1cc[nH]c1
REMARK SMILES IDX 1 1 5 2 4 3 3 4 2 5
REMARK H PARENT 4 6
REMARK Flexibility Score: inf
ROOT
ATOM      1  C   UNL     1      49.580  33.633  30.160  1.00  0.00     0.019 A 
ATOM      2  C   UNL     1      50.880  33.885  30.544  1.00  0.00     0.082 A 
ATOM      3  N   UNL     1      51.424  32.779  31.081  1.00  0.00    -0.368 N 
ATOM      4  C   UNL     1      50.483  31.819  31.046  1.00  0.00     0.082 A 
ATOM      5  C   UNL     1      49.326  32.314  30.481  1.00  0.00     0.019 A 
ATOM      6  H   UNL     1      52.394  32.683  31.456  1.00  0.00     0.165 HD
ENDROOT
TORSDOF 0
ENDMDL
MODEL 2
REMARK VINA RESULT:    -2.865     17.520     18.201
REMARK INTER + INTRA:          -2.865
REMARK INTER:                  -2.865
REMARK INTRA:                   0.000
REMARK UNBOUND:                 0.000
REMARK SMILES c1cc[nH]c1
REMARK SMILES IDX 1 1 5 2 4 3 3 4 2 5
REMARK H PARENT 4 6
REMARK Flexibility Score: inf
ROOT
ATOM      1  C   UNL     1      53.129  46.814  43.670  1.00  0.00     0.019 A 
ATOM      2  C   UNL     1      52.134  46.508  42.765  1.00  0.00     0.082 A 
ATOM      3  N   UNL     1      52.572  45.578  41.898  1.00  0.00    -0.368 N 
ATOM      4  C   UNL     1      53.840  45.285  42.239  1.00  0.00     0.082 A 
ATOM      5  C   UNL     1      54.217  46.034  43.334  1.00  0.00     0.019 A 
ATOM      6  H   UNL     1      52.031  45.161  41.108  1.00  0.00     0.165 HD
ENDROOT
TORSDOF 0
ENDMDL
MODEL 3
REMARK VINA RESULT:    -2.851      8.246      8.688
REMARK INTER + INTRA:          -2.851
REMARK INTER:                  -2.851
REMARK INTRA:                   0.000
REMARK UNBOUND:                 0.000
REMARK SMILES c1cc[nH]c1
REMARK SMILES IDX 1 1 5 2 4 3 3 4 2 5
REMARK H PARENT 4 6
REMARK Flexibility Score: inf
ROOT
ATOM      1  C   UNL     1      57.033  28.513  25.561  1.00  0.00     0.019 A 
ATOM      2  C   UNL     1      56.685  29.842  25.447  1.00  0.00     0.082 A 
ATOM      3  N   UNL     1      56.531  30.383  26.670  1.00  0.00    -0.368 N 
ATOM      4  C   UNL     1      56.777  29.411  27.566  1.00  0.00     0.082 A 
ATOM      5  C   UNL     1      57.091  28.237  26.912  1.00  0.00     0.019 A 
ATOM      6  H   UNL     1      56.270  31.371  26.883  1.00  0.00     0.165 HD
ENDROOT
TORSDOF 0
ENDMDL
MODEL 4
REMARK VINA RESULT:    -2.835      8.167      8.677
REMARK INTER + INTRA:          -2.835
REMARK INTER:                  -2.835
REMARK INTRA:                   0.000
REMARK UNBOUND:                 0.000
REMARK SMILES c1cc[nH]c1
REMARK SMILES IDX 1 1 5 2 4 3 3 4 2 5
REMARK H PARENT 4 6
REMARK Flexibility Score: inf
ROOT
ATOM      1  C   UNL     1      57.045  28.246  26.967  1.00  0.00     0.019 A 
ATOM      2  C   UNL     1      56.641  29.407  27.592  1.00  0.00     0.082 A 
ATOM      3  N   UNL     1      56.366  30.351  26.674  1.00  0.00    -0.368 N 
ATOM      4  C   UNL     1      56.590  29.806  25.466  1.00  0.00     0.082 A 
ATOM      5  C   UNL     1      57.014  28.501  25.610  1.00  0.00     0.019 A 
ATOM      6  H   UNL     1      56.039  31.324  26.864  1.00  0.00     0.165 HD
ENDROOT
TORSDOF 0
ENDMDL
MODEL 5
REMARK VINA RESULT:    -2.697      8.668      9.104
REMARK INTER + INTRA:          -2.697
REMARK INTER:                  -2.697
REMARK INTRA:                   0.000
REMARK UNBOUND:                 0.000
REMARK SMILES c1cc[nH]c1
REMARK SMILES IDX 1 1 5 2 4 3 3 4 2 5
REMARK H PARENT 4 6
REMARK Flexibility Score: inf
ROOT
ATOM      1  C   UNL     1      56.750  29.122  27.231  1.00  0.00     0.019 A 
ATOM      2  C   UNL     1      56.513  29.884  26.106  1.00  0.00     0.082 A 
ATOM      3  N   UNL     1      56.814  29.178  25.001  1.00  0.00    -0.368 N 
ATOM      4  C   UNL     1      57.243  27.970  25.408  1.00  0.00     0.082 A 
ATOM      5  C   UNL     1      57.216  27.901  26.785  1.00  0.00     0.019 A 
ATOM      6  H   UNL     1      56.731  29.506  24.014  1.00  0.00     0.165 HD
ENDROOT
TORSDOF 0
ENDMDL
MODEL 6
REMARK VINA RESULT:    -2.642     11.438     12.139
REMARK INTER + INTRA:          -2.642
REMARK INTER:                  -2.642
REMARK INTRA:                   0.000
REMARK UNBOUND:                 0.000
REMARK SMILES c1cc[nH]c1
REMARK SMILES IDX 1 1 5 2 4 3 3 4 2 5
REMARK H PARENT 4 6
REMARK Flexibility Score: inf
ROOT
ATOM      1  C   UNL     1      61.579  35.141  34.422  1.00  0.00     0.019 A 
ATOM      2  C   UNL     1      61.122  33.912  33.996  1.00  0.00     0.082 A 
ATOM      3  N   UNL     1      61.689  33.594  32.817  1.00  0.00    -0.368 N 
ATOM      4  C   UNL     1      62.505  34.610  32.485  1.00  0.00     0.082 A 
ATOM      5  C   UNL     1      62.460  35.587  33.457  1.00  0.00     0.019 A 
ATOM      6  H   UNL     1      61.526  32.724  32.265  1.00  0.00     0.165 HD
ENDROOT
TORSDOF 0
ENDMDL
MODEL 7
REMARK VINA RESULT:    -2.622     16.339     17.053
REMARK INTER + INTRA:          -2.622
REMARK INTER:                  -2.622
REMARK INTRA:                   0.000
REMARK UNBOUND:                 0.000
REMARK SMILES c1cc[nH]c1
REMARK SMILES IDX 1 1 5 2 4 3 3 4 2 5
REMARK H PARENT 4 6
REMARK Flexibility Score: inf
ROOT
ATOM      1  C   UNL     1      55.538  45.335  42.448  1.00  0.00     0.019 A 
ATOM      2  C   UNL     1      54.227  44.931  42.311  1.00  0.00     0.082 A 
ATOM      3  N   UNL     1      54.168  43.592  42.203  1.00  0.00    -0.368 N 
ATOM      4  C   UNL     1      55.431  43.134  42.270  1.00  0.00     0.082 A 
ATOM      5  C   UNL     1      56.307  44.188  42.421  1.00  0.00     0.019 A 
ATOM      6  H   UNL     1      53.305  43.016  42.089  1.00  0.00     0.165 HD
ENDROOT
TORSDOF 0
ENDMDL
MODEL 8
REMARK VINA RESULT:    -2.523     16.808     17.233
REMARK INTER + INTRA:          -2.523
REMARK INTER:                  -2.523
REMARK INTRA:                   0.000
REMARK UNBOUND:                 0.000
REMARK SMILES c1cc[nH]c1
REMARK SMILES IDX 1 1 5 2 4 3 3 4 2 5
REMARK H PARENT 4 6
REMARK Flexibility Score: inf
ROOT
ATOM      1  C   UNL     1      54.989  43.324  42.533  1.00  0.00     0.019 A 
ATOM      2  C   UNL     1      54.676  44.667  42.537  1.00  0.00     0.082 A 
ATOM      3  N   UNL     1      55.775  45.396  42.274  1.00  0.00    -0.368 N 
ATOM      4  C   UNL     1      56.791  44.531  42.102  1.00  0.00     0.082 A 
ATOM      5  C   UNL     1      56.338  43.237  42.256  1.00  0.00     0.019 A 
ATOM      6  H   UNL     1      55.830  46.437  42.215  1.00  0.00     0.165 HD
ENDROOT
TORSDOF 0
ENDMDL
MODEL 9
REMARK VINA RESULT:    -2.499     17.322     17.491
REMARK INTER + INTRA:          -2.499
REMARK INTER:                  -2.499
REMARK INTRA:                   0.000
REMARK UNBOUND:                 0.000
REMARK SMILES c1cc[nH]c1
REMARK SMILES IDX 1 1 5 2 4 3 3 4 2 5
REMARK H PARENT 4 6
REMARK Flexibility Score: inf
ROOT
ATOM      1  C   UNL     1      59.455  43.245  40.973  1.00  0.00     0.019 A 
ATOM      2  C   UNL     1      59.414  44.463  40.326  1.00  0.00     0.082 A 
ATOM      3  N   UNL     1      58.327  45.153  40.716  1.00  0.00    -0.368 N 
ATOM      4  C   UNL     1      57.671  44.388  41.607  1.00  0.00     0.082 A 
ATOM      5  C   UNL     1      58.343  43.198  41.789  1.00  0.00     0.019 A 
ATOM      6  H   UNL     1      58.045  46.103  40.388  1.00  0.00     0.165 HD
ENDROOT
TORSDOF 0
ENDMDL
