MODEL 1
REMARK VINA RESULT:    -2.924      0.000      0.000
REMARK INTER + INTRA:         -10.460
REMARK INTER:                  -6.343
REMARK INTRA:                  -4.117
REMARK UNBOUND:                -4.117
REMARK SMILES CCCCCCCCCCCCCCCCCCCCCC(=O)[O-]
REMARK SMILES IDX 12 1 11 2 10 3 9 4 8 5 7 6 6 7 5 8 4 9 3 10 2 11 1 12 13 13
REMARK SMILES IDX 14 14 15 15 16 16 17 17 18 18 19 19 20 20 21 21 22 22 23 23
REMARK SMILES IDX 24 24
REMARK H PARENT
REMARK Flexibility Score: inf
ROOT
ATOM      1  C   UNL     1      43.873  34.407  49.906  1.00  0.00     0.000 C 
ENDROOT
BRANCH   1   2
ATOM      2  C   UNL     1      42.486  35.069  49.771  1.00  0.00     0.000 C 
BRANCH   2   3
ATOM      3  C   UNL     1      41.652  34.473  48.626  1.00  0.00     0.000 C 
BRANCH   3   4
ATOM      4  C   UNL     1      40.848  35.563  47.908  1.00  0.00    -0.000 C 
BRANCH   4   5
ATOM      5  C   UNL     1      40.787  35.300  46.396  1.00  0.00    -0.000 C 
BRANCH   5   6
ATOM      6  C   UNL     1      41.393  33.943  46.005  1.00  0.00    -0.000 C 
BRANCH   6   7
ATOM      7  C   UNL     1      42.576  34.077  45.035  1.00  0.00    -0.000 C 
BRANCH   7   8
ATOM      8  C   UNL     1      43.909  33.870  45.764  1.00  0.00    -0.000 C 
BRANCH   8   9
ATOM      9  C   UNL     1      44.813  35.101  45.625  1.00  0.00    -0.000 C 
BRANCH   9  10
ATOM     10  C   UNL     1      44.712  36.000  46.863  1.00  0.00    -0.000 C 
BRANCH  10  11
ATOM     11  C   UNL     1      43.926  37.280  46.553  1.00  0.00    -0.003 C 
ATOM     12  C   UNL     1      43.608  38.052  47.833  1.00  0.00     0.004 C 
ENDBRANCH  10  11
ENDBRANCH   9  10
ENDBRANCH   8   9
ENDBRANCH   7   8
ENDBRANCH   6   7
ENDBRANCH   5   6
ENDBRANCH   4   5
ENDBRANCH   3   4
ENDBRANCH   2   3
ENDBRANCH   1   2
BRANCH   1  13
ATOM     13  C   UNL     1      43.919  32.945  49.418  1.00  0.00     0.000 C 
BRANCH  13  14
ATOM     14  C   UNL     1      45.293  32.465  48.920  1.00  0.00     0.000 C 
BRANCH  14  15
ATOM     15  C   UNL     1      46.451  33.463  49.124  1.00  0.00     0.000 C 
BRANCH  15  16
ATOM     16  C   UNL     1      47.401  33.586  47.911  1.00  0.00     0.000 C 
BRANCH  16  17
ATOM     17  C   UNL     1      47.189  32.462  46.879  1.00  0.00     0.000 C 
BRANCH  17  18
ATOM     18  C   UNL     1      48.459  31.615  46.668  1.00  0.00     0.000 C 
BRANCH  18  19
ATOM     19  C   UNL     1      48.237  30.106  46.893  1.00  0.00     0.000 C 
BRANCH  19  20
ATOM     20  C   UNL     1      48.439  29.701  48.361  1.00  0.00     0.006 C 
BRANCH  20  21
ATOM     21  C   UNL     1      47.130  29.190  48.978  1.00  0.00     0.053 C 
BRANCH  21  22
ATOM     22  C   UNL     1      47.065  29.511  50.441  1.00  0.00     0.041 C 
ATOM     23  O   UNL     1      46.456  28.743  51.235  1.00  0.00    -0.550 OA
ATOM     24  O   UNL     1      47.692  30.651  50.932  1.00  0.00    -0.550 OA
ENDBRANCH  21  22
ENDBRANCH  20  21
ENDBRANCH  19  20
ENDBRANCH  18  19
ENDBRANCH  17  18
ENDBRANCH  16  17
ENDBRANCH  15  16
ENDBRANCH  14  15
ENDBRANCH  13  14
ENDBRANCH   1  13
TORSDOF 20
ENDMDL
MODEL 2
REMARK VINA RESULT:    -2.921      4.792      8.886
REMARK INTER + INTRA:         -10.453
REMARK INTER:                  -8.226
REMARK INTRA:                  -2.228
REMARK UNBOUND:                -4.117
REMARK SMILES CCCCCCCCCCCCCCCCCCCCCC(=O)[O-]
REMARK SMILES IDX 12 1 11 2 10 3 9 4 8 5 7 6 6 7 5 8 4 9 3 10 2 11 1 12 13 13
REMARK SMILES IDX 14 14 15 15 16 16 17 17 18 18 19 19 20 20 21 21 22 22 23 23
REMARK SMILES IDX 24 24
REMARK H PARENT
REMARK Flexibility Score: inf
ROOT
ATOM      1  C   UNL     1      47.064  29.451  50.843  1.00  0.00     0.000 C 
ENDROOT
BRANCH   1   2
ATOM      2  C   UNL     1      48.395  30.226  50.747  1.00  0.00     0.000 C 
BRANCH   2   3
ATOM      3  C   UNL     1      48.190  31.726  50.478  1.00  0.00     0.000 C 
BRANCH   3   4
ATOM      4  C   UNL     1      49.287  32.558  51.154  1.00  0.00    -0.000 C 
BRANCH   4   5
ATOM      5  C   UNL     1      49.706  31.935  52.493  1.00  0.00    -0.000 C 
BRANCH   5   6
ATOM      6  C   UNL     1      50.663  32.833  53.292  1.00  0.00    -0.000 C 
BRANCH   6   7
ATOM      7  C   UNL     1      50.109  33.216  54.672  1.00  0.00    -0.000 C 
BRANCH   7   8
ATOM      8  C   UNL     1      49.167  32.130  55.205  1.00  0.00    -0.000 C 
BRANCH   8   9
ATOM      9  C   UNL     1      49.876  31.239  56.233  1.00  0.00    -0.000 C 
BRANCH   9  10
ATOM     10  C   UNL     1      50.977  32.015  56.966  1.00  0.00    -0.000 C 
BRANCH  10  11
ATOM     11  C   UNL     1      51.953  31.062  57.667  1.00  0.00    -0.003 C 
ATOM     12  C   UNL     1      51.711  29.616  57.238  1.00  0.00     0.004 C 
ENDBRANCH  10  11
ENDBRANCH   9  10
ENDBRANCH   8   9
ENDBRANCH   7   8
ENDBRANCH   6   7
ENDBRANCH   5   6
ENDBRANCH   4   5
ENDBRANCH   3   4
ENDBRANCH   2   3
ENDBRANCH   1   2
BRANCH   1  13
ATOM     13  C   UNL     1      45.864  30.184  50.213  1.00  0.00     0.000 C 
BRANCH  13  14
ATOM     14  C   UNL     1      45.419  29.651  48.840  1.00  0.00     0.000 C 
BRANCH  14  15
ATOM     15  C   UNL     1      46.123  30.293  47.626  1.00  0.00     0.000 C 
BRANCH  15  16
ATOM     16  C   UNL     1      45.163  30.981  46.631  1.00  0.00     0.000 C 
BRANCH  16  17
ATOM     17  C   UNL     1      45.043  32.497  46.878  1.00  0.00     0.000 C 
BRANCH  17  18
ATOM     18  C   UNL     1      46.090  33.010  47.885  1.00  0.00     0.000 C 
BRANCH  18  19
ATOM     19  C   UNL     1      45.474  33.692  49.123  1.00  0.00     0.000 C 
BRANCH  19  20
ATOM     20  C   UNL     1      44.011  33.279  49.345  1.00  0.00     0.006 C 
BRANCH  20  21
ATOM     21  C   UNL     1      43.143  34.493  49.702  1.00  0.00     0.053 C 
BRANCH  21  22
ATOM     22  C   UNL     1      42.190  34.816  48.591  1.00  0.00     0.041 C 
ATOM     23  O   UNL     1      42.532  34.644  47.388  1.00  0.00    -0.550 OA
ATOM     24  O   UNL     1      40.917  35.293  48.882  1.00  0.00    -0.550 OA
ENDBRANCH  21  22
ENDBRANCH  20  21
ENDBRANCH  19  20
ENDBRANCH  18  19
ENDBRANCH  17  18
ENDBRANCH  16  17
ENDBRANCH  15  16
ENDBRANCH  14  15
ENDBRANCH  13  14
ENDBRANCH   1  13
TORSDOF 20
ENDMDL
MODEL 3
REMARK VINA RESULT:    -2.866      3.141      7.293
REMARK INTER + INTRA:         -10.334
REMARK INTER:                  -6.454
REMARK INTRA:                  -3.880
REMARK UNBOUND:                -4.117
REMARK SMILES CCCCCCCCCCCCCCCCCCCCCC(=O)[O-]
REMARK SMILES IDX 12 1 11 2 10 3 9 4 8 5 7 6 6 7 5 8 4 9 3 10 2 11 1 12 13 13
REMARK SMILES IDX 14 14 15 15 16 16 17 17 18 18 19 19 20 20 21 21 22 22 23 23
REMARK SMILES IDX 24 24
REMARK H PARENT
REMARK Flexibility Score: inf
ROOT
ATOM      1  C   UNL     1      45.713  29.787  49.913  1.00  0.00     0.000 C 
ENDROOT
BRANCH   1   2
ATOM      2  C   UNL     1      46.627  28.904  50.786  1.00  0.00     0.000 C 
BRANCH   2   3
ATOM      3  C   UNL     1      46.474  27.405  50.478  1.00  0.00     0.000 C 
BRANCH   3   4
ATOM      4  C   UNL     1      47.609  26.914  49.571  1.00  0.00    -0.000 C 
BRANCH   4   5
ATOM      5  C   UNL     1      48.708  27.978  49.437  1.00  0.00    -0.000 C 
BRANCH   5   6
ATOM      6  C   UNL     1      49.088  28.257  47.975  1.00  0.00    -0.000 C 
BRANCH   6   7
ATOM      7  C   UNL     1      49.533  29.709  47.742  1.00  0.00    -0.000 C 
BRANCH   7   8
ATOM      8  C   UNL     1      49.618  30.476  49.067  1.00  0.00    -0.000 C 
BRANCH   8   9
ATOM      9  C   UNL     1      48.797  31.770  49.011  1.00  0.00    -0.000 C 
BRANCH   9  10
ATOM     10  C   UNL     1      48.460  32.269  50.421  1.00  0.00    -0.000 C 
BRANCH  10  11
ATOM     11  C   UNL     1      49.157  31.418  51.490  1.00  0.00    -0.003 C 
ATOM     12  C   UNL     1      50.032  32.283  52.395  1.00  0.00     0.004 C 
ENDBRANCH  10  11
ENDBRANCH   9  10
ENDBRANCH   8   9
ENDBRANCH   7   8
ENDBRANCH   6   7
ENDBRANCH   5   6
ENDBRANCH   4   5
ENDBRANCH   3   4
ENDBRANCH   2   3
ENDBRANCH   1   2
BRANCH   1  13
ATOM     13  C   UNL     1      44.919  29.006  48.846  1.00  0.00     0.000 C 
BRANCH  13  14
ATOM     14  C   UNL     1      45.389  29.217  47.397  1.00  0.00     0.000 C 
BRANCH  14  15
ATOM     15  C   UNL     1      45.942  30.623  47.083  1.00  0.00     0.000 C 
BRANCH  15  16
ATOM     16  C   UNL     1      45.006  31.490  46.212  1.00  0.00     0.000 C 
BRANCH  16  17
ATOM     17  C   UNL     1      44.470  32.722  46.966  1.00  0.00     0.000 C 
BRANCH  17  18
ATOM     18  C   UNL     1      45.555  33.399  47.826  1.00  0.00     0.000 C 
BRANCH  18  19
ATOM     19  C   UNL     1      45.209  33.451  49.327  1.00  0.00     0.000 C 
BRANCH  19  20
ATOM     20  C   UNL     1      43.695  33.371  49.577  1.00  0.00     0.006 C 
BRANCH  20  21
ATOM     21  C   UNL     1      43.130  34.740  49.980  1.00  0.00     0.053 C 
BRANCH  21  22
ATOM     22  C   UNL     1      42.256  35.299  48.898  1.00  0.00     0.041 C 
ATOM     23  O   UNL     1      41.001  35.286  49.023  1.00  0.00    -0.550 OA
ATOM     24  O   UNL     1      42.828  35.850  47.756  1.00  0.00    -0.550 OA
ENDBRANCH  21  22
ENDBRANCH  20  21
ENDBRANCH  19  20
ENDBRANCH  18  19
ENDBRANCH  17  18
ENDBRANCH  16  17
ENDBRANCH  15  16
ENDBRANCH  14  15
ENDBRANCH  13  14
ENDBRANCH   1  13
TORSDOF 20
ENDMDL
MODEL 4
REMARK VINA RESULT:    -2.795      3.224      7.036
REMARK INTER + INTRA:         -10.180
REMARK INTER:                  -6.976
REMARK INTRA:                  -3.204
REMARK UNBOUND:                -4.117
REMARK SMILES CCCCCCCCCCCCCCCCCCCCCC(=O)[O-]
REMARK SMILES IDX 12 1 11 2 10 3 9 4 8 5 7 6 6 7 5 8 4 9 3 10 2 11 1 12 13 13
REMARK SMILES IDX 14 14 15 15 16 16 17 17 18 18 19 19 20 20 21 21 22 22 23 23
REMARK SMILES IDX 24 24
REMARK H PARENT
REMARK Flexibility Score: inf
ROOT
ATOM      1  C   UNL     1      41.586  34.368  46.273  1.00  0.00     0.000 C 
ENDROOT
BRANCH   1   2
ATOM      2  C   UNL     1      42.600  35.221  45.481  1.00  0.00     0.000 C 
BRANCH   2   3
ATOM      3  C   UNL     1      44.020  34.633  45.511  1.00  0.00     0.000 C 
BRANCH   3   4
ATOM      4  C   UNL     1      43.978  33.104  45.624  1.00  0.00    -0.000 C 
BRANCH   4   5
ATOM      5  C   UNL     1      44.434  32.641  47.016  1.00  0.00    -0.000 C 
BRANCH   5   6
ATOM      6  C   UNL     1      45.820  33.183  47.397  1.00  0.00    -0.000 C 
BRANCH   6   7
ATOM      7  C   UNL     1      46.313  32.656  48.753  1.00  0.00    -0.000 C 
BRANCH   7   8
ATOM      8  C   UNL     1      45.200  31.895  49.484  1.00  0.00    -0.000 C 
BRANCH   8   9
ATOM      9  C   UNL     1      45.644  30.470  49.836  1.00  0.00    -0.000 C 
BRANCH   9  10
ATOM     10  C   UNL     1      46.848  30.045  48.988  1.00  0.00    -0.000 C 
BRANCH  10  11
ATOM     11  C   UNL     1      46.512  28.822  48.124  1.00  0.00    -0.003 C 
ATOM     12  C   UNL     1      45.174  29.005  47.411  1.00  0.00     0.004 C 
ENDBRANCH  10  11
ENDBRANCH   9  10
ENDBRANCH   8   9
ENDBRANCH   7   8
ENDBRANCH   6   7
ENDBRANCH   5   6
ENDBRANCH   4   5
ENDBRANCH   3   4
ENDBRANCH   2   3
ENDBRANCH   1   2
BRANCH   1  13
ATOM     13  C   UNL     1      40.604  35.193  47.127  1.00  0.00     0.000 C 
BRANCH  13  14
ATOM     14  C   UNL     1      40.965  35.302  48.618  1.00  0.00     0.000 C 
BRANCH  14  15
ATOM     15  C   UNL     1      42.223  34.519  49.048  1.00  0.00     0.000 C 
BRANCH  15  16
ATOM     16  C   UNL     1      42.991  35.157  50.227  1.00  0.00     0.000 C 
BRANCH  16  17
ATOM     17  C   UNL     1      44.399  35.637  49.824  1.00  0.00     0.000 C 
BRANCH  17  18
ATOM     18  C   UNL     1      44.375  36.527  48.567  1.00  0.00     0.000 C 
BRANCH  18  19
ATOM     19  C   UNL     1      44.250  38.032  48.879  1.00  0.00     0.000 C 
BRANCH  19  20
ATOM     20  C   UNL     1      45.068  38.439  50.114  1.00  0.00     0.006 C 
BRANCH  20  21
ATOM     21  C   UNL     1      44.387  39.586  50.873  1.00  0.00     0.053 C 
BRANCH  21  22
ATOM     22  C   UNL     1      44.209  39.239  52.320  1.00  0.00     0.041 C 
ATOM     23  O   UNL     1      44.363  40.120  53.210  1.00  0.00    -0.550 OA
ATOM     24  O   UNL     1      43.857  37.945  52.688  1.00  0.00    -0.550 OA
ENDBRANCH  21  22
ENDBRANCH  20  21
ENDBRANCH  19  20
ENDBRANCH  18  19
ENDBRANCH  17  18
ENDBRANCH  16  17
ENDBRANCH  15  16
ENDBRANCH  14  15
ENDBRANCH  13  14
ENDBRANCH   1  13
TORSDOF 20
ENDMDL
MODEL 5
REMARK VINA RESULT:    -2.794      2.032      3.362
REMARK INTER + INTRA:         -10.177
REMARK INTER:                  -6.620
REMARK INTRA:                  -3.558
REMARK UNBOUND:                -4.117
REMARK SMILES CCCCCCCCCCCCCCCCCCCCCC(=O)[O-]
REMARK SMILES IDX 12 1 11 2 10 3 9 4 8 5 7 6 6 7 5 8 4 9 3 10 2 11 1 12 13 13
REMARK SMILES IDX 14 14 15 15 16 16 17 17 18 18 19 19 20 20 21 21 22 22 23 23
REMARK SMILES IDX 24 24
REMARK H PARENT
REMARK Flexibility Score: inf
ROOT
ATOM      1  C   UNL     1      43.881  33.071  46.025  1.00  0.00     0.000 C 
ENDROOT
BRANCH   1   2
ATOM      2  C   UNL     1      43.830  34.403  45.248  1.00  0.00     0.000 C 
BRANCH   2   3
ATOM      3  C   UNL     1      42.446  35.072  45.307  1.00  0.00     0.000 C 
BRANCH   3   4
ATOM      4  C   UNL     1      41.459  34.217  46.110  1.00  0.00    -0.000 C 
BRANCH   4   5
ATOM      5  C   UNL     1      40.522  35.097  46.950  1.00  0.00    -0.000 C 
BRANCH   5   6
ATOM      6  C   UNL     1      41.189  35.619  48.232  1.00  0.00    -0.000 C 
BRANCH   6   7
ATOM      7  C   UNL     1      42.003  34.539  48.961  1.00  0.00    -0.000 C 
BRANCH   7   8
ATOM      8  C   UNL     1      43.379  35.075  49.375  1.00  0.00    -0.000 C 
BRANCH   8   9
ATOM      9  C   UNL     1      43.688  36.404  48.674  1.00  0.00    -0.000 C 
BRANCH   9  10
ATOM     10  C   UNL     1      45.045  36.959  49.123  1.00  0.00    -0.000 C 
BRANCH  10  11
ATOM     11  C   UNL     1      46.199  36.121  48.560  1.00  0.00    -0.003 C 
ATOM     12  C   UNL     1      46.358  36.344  47.058  1.00  0.00     0.004 C 
ENDBRANCH  10  11
ENDBRANCH   9  10
ENDBRANCH   8   9
ENDBRANCH   7   8
ENDBRANCH   6   7
ENDBRANCH   5   6
ENDBRANCH   4   5
ENDBRANCH   3   4
ENDBRANCH   2   3
ENDBRANCH   1   2
BRANCH   1  13
ATOM     13  C   UNL     1      45.137  32.904  46.902  1.00  0.00     0.000 C 
BRANCH  13  14
ATOM     14  C   UNL     1      45.005  31.885  48.047  1.00  0.00     0.000 C 
BRANCH  14  15
ATOM     15  C   UNL     1      45.622  32.322  49.391  1.00  0.00     0.000 C 
BRANCH  15  16
ATOM     16  C   UNL     1      47.133  32.636  49.320  1.00  0.00     0.000 C 
BRANCH  16  17
ATOM     17  C   UNL     1      48.008  31.414  49.655  1.00  0.00     0.000 C 
BRANCH  17  18
ATOM     18  C   UNL     1      47.444  30.597  50.834  1.00  0.00     0.000 C 
BRANCH  18  19
ATOM     19  C   UNL     1      47.364  29.083  50.554  1.00  0.00     0.000 C 
BRANCH  19  20
ATOM     20  C   UNL     1      46.029  28.681  49.909  1.00  0.00     0.006 C 
BRANCH  20  21
ATOM     21  C   UNL     1      46.203  28.401  48.410  1.00  0.00     0.053 C 
BRANCH  21  22
ATOM     22  C   UNL     1      44.935  27.869  47.813  1.00  0.00     0.041 C 
ATOM     23  O   UNL     1      43.944  27.610  48.550  1.00  0.00    -0.550 OA
ATOM     24  O   UNL     1      44.840  27.675  46.440  1.00  0.00    -0.550 OA
ENDBRANCH  21  22
ENDBRANCH  20  21
ENDBRANCH  19  20
ENDBRANCH  18  19
ENDBRANCH  17  18
ENDBRANCH  16  17
ENDBRANCH  15  16
ENDBRANCH  14  15
ENDBRANCH  13  14
ENDBRANCH   1  13
TORSDOF 20
ENDMDL
MODEL 6
REMARK VINA RESULT:    -2.727      1.547      3.616
REMARK INTER + INTRA:         -10.032
REMARK INTER:                  -6.757
REMARK INTRA:                  -3.275
REMARK UNBOUND:                -4.117
REMARK SMILES CCCCCCCCCCCCCCCCCCCCCC(=O)[O-]
REMARK SMILES IDX 12 1 11 2 10 3 9 4 8 5 7 6 6 7 5 8 4 9 3 10 2 11 1 12 13 13
REMARK SMILES IDX 14 14 15 15 16 16 17 17 18 18 19 19 20 20 21 21 22 22 23 23
REMARK SMILES IDX 24 24
REMARK H PARENT
REMARK Flexibility Score: inf
ROOT
ATOM      1  C   UNL     1      41.316  34.108  46.330  1.00  0.00     0.000 C 
ENDROOT
BRANCH   1   2
ATOM      2  C   UNL     1      40.824  35.240  47.255  1.00  0.00     0.000 C 
BRANCH   2   3
ATOM      3  C   UNL     1      41.299  35.067  48.707  1.00  0.00     0.000 C 
BRANCH   3   4
ATOM      4  C   UNL     1      42.472  34.083  48.786  1.00  0.00    -0.000 C 
BRANCH   4   5
ATOM      5  C   UNL     1      43.357  34.374  50.008  1.00  0.00    -0.000 C 
BRANCH   5   6
ATOM      6  C   UNL     1      43.881  35.818  50.030  1.00  0.00    -0.000 C 
BRANCH   6   7
ATOM      7  C   UNL     1      45.083  36.029  49.096  1.00  0.00    -0.000 C 
BRANCH   7   8
ATOM      8  C   UNL     1      44.665  36.777  47.825  1.00  0.00    -0.000 C 
BRANCH   8   9
ATOM      9  C   UNL     1      43.634  37.869  48.139  1.00  0.00    -0.000 C 
BRANCH   9  10
ATOM     10  C   UNL     1      44.309  39.241  48.262  1.00  0.00    -0.000 C 
BRANCH  10  11
ATOM     11  C   UNL     1      43.981  39.900  49.608  1.00  0.00    -0.003 C 
ATOM     12  C   UNL     1      44.910  39.392  50.709  1.00  0.00     0.004 C 
ENDBRANCH  10  11
ENDBRANCH   9  10
ENDBRANCH   8   9
ENDBRANCH   7   8
ENDBRANCH   6   7
ENDBRANCH   5   6
ENDBRANCH   4   5
ENDBRANCH   3   4
ENDBRANCH   2   3
ENDBRANCH   1   2
BRANCH   1  13
ATOM     13  C   UNL     1      42.122  34.600  45.111  1.00  0.00     0.000 C 
BRANCH  13  14
ATOM     14  C   UNL     1      43.644  34.407  45.212  1.00  0.00     0.000 C 
BRANCH  14  15
ATOM     15  C   UNL     1      44.137  32.957  45.023  1.00  0.00     0.000 C 
BRANCH  15  16
ATOM     16  C   UNL     1      44.581  32.266  46.332  1.00  0.00     0.000 C 
BRANCH  16  17
ATOM     17  C   UNL     1      45.642  33.078  47.099  1.00  0.00     0.000 C 
BRANCH  17  18
ATOM     18  C   UNL     1      46.562  32.181  47.950  1.00  0.00     0.000 C 
BRANCH  18  19
ATOM     19  C   UNL     1      46.114  32.054  49.419  1.00  0.00     0.000 C 
BRANCH  19  20
ATOM     20  C   UNL     1      45.659  30.629  49.767  1.00  0.00     0.006 C 
BRANCH  20  21
ATOM     21  C   UNL     1      46.734  29.888  50.573  1.00  0.00     0.053 C 
BRANCH  21  22
ATOM     22  C   UNL     1      47.068  28.572  49.938  1.00  0.00     0.041 C 
ATOM     23  O   UNL     1      47.965  28.500  49.054  1.00  0.00    -0.550 OA
ATOM     24  O   UNL     1      46.398  27.419  50.333  1.00  0.00    -0.550 OA
ENDBRANCH  21  22
ENDBRANCH  20  21
ENDBRANCH  19  20
ENDBRANCH  18  19
ENDBRANCH  17  18
ENDBRANCH  16  17
ENDBRANCH  15  16
ENDBRANCH  14  15
ENDBRANCH  13  14
ENDBRANCH   1  13
TORSDOF 20
ENDMDL
MODEL 7
REMARK VINA RESULT:    -2.718      3.633      7.417
REMARK INTER + INTRA:         -10.012
REMARK INTER:                  -7.144
REMARK INTRA:                  -2.868
REMARK UNBOUND:                -4.117
REMARK SMILES CCCCCCCCCCCCCCCCCCCCCC(=O)[O-]
REMARK SMILES IDX 12 1 11 2 10 3 9 4 8 5 7 6 6 7 5 8 4 9 3 10 2 11 1 12 13 13
REMARK SMILES IDX 14 14 15 15 16 16 17 17 18 18 19 19 20 20 21 21 22 22 23 23
REMARK SMILES IDX 24 24
REMARK H PARENT
REMARK Flexibility Score: inf
ROOT
ATOM      1  C   UNL     1      40.927  35.365  46.300  1.00  0.00     0.000 C 
ENDROOT
BRANCH   1   2
ATOM      2  C   UNL     1      40.862  35.589  47.825  1.00  0.00     0.000 C 
BRANCH   2   3
ATOM      3  C   UNL     1      41.607  34.502  48.617  1.00  0.00     0.000 C 
BRANCH   3   4
ATOM      4  C   UNL     1      42.455  35.122  49.734  1.00  0.00    -0.000 C 
BRANCH   4   5
ATOM      5  C   UNL     1      43.637  34.211  50.100  1.00  0.00    -0.000 C 
BRANCH   5   6
ATOM      6  C   UNL     1      44.813  34.343  49.120  1.00  0.00    -0.000 C 
BRANCH   6   7
ATOM      7  C   UNL     1      44.981  33.109  48.222  1.00  0.00    -0.000 C 
BRANCH   7   8
ATOM      8  C   UNL     1      46.033  32.152  48.795  1.00  0.00    -0.000 C 
BRANCH   8   9
ATOM      9  C   UNL     1      45.378  31.054  49.643  1.00  0.00    -0.000 C 
BRANCH   9  10
ATOM     10  C   UNL     1      45.270  29.743  48.855  1.00  0.00    -0.000 C 
BRANCH  10  11
ATOM     11  C   UNL     1      45.552  28.533  49.755  1.00  0.00    -0.003 C 
ATOM     12  C   UNL     1      46.536  28.892  50.866  1.00  0.00     0.004 C 
ENDBRANCH  10  11
ENDBRANCH   9  10
ENDBRANCH   8   9
ENDBRANCH   7   8
ENDBRANCH   6   7
ENDBRANCH   5   6
ENDBRANCH   4   5
ENDBRANCH   3   4
ENDBRANCH   2   3
ENDBRANCH   1   2
BRANCH   1  13
ATOM     13  C   UNL     1      41.767  34.142  45.881  1.00  0.00     0.000 C 
BRANCH  13  14
ATOM     14  C   UNL     1      43.172  34.466  45.346  1.00  0.00     0.000 C 
BRANCH  14  15
ATOM     15  C   UNL     1      43.471  35.966  45.150  1.00  0.00     0.000 C 
BRANCH  15  16
ATOM     16  C   UNL     1      44.350  36.585  46.259  1.00  0.00     0.000 C 
BRANCH  16  17
ATOM     17  C   UNL     1      43.832  37.959  46.726  1.00  0.00     0.000 C 
BRANCH  17  18
ATOM     18  C   UNL     1      43.608  38.013  48.250  1.00  0.00     0.000 C 
BRANCH  18  19
ATOM     19  C   UNL     1      44.915  37.982  49.066  1.00  0.00     0.000 C 
BRANCH  19  20
ATOM     20  C   UNL     1      44.799  38.773  50.378  1.00  0.00     0.006 C 
BRANCH  20  21
ATOM     21  C   UNL     1      44.407  40.232  50.110  1.00  0.00     0.053 C 
BRANCH  21  22
ATOM     22  C   UNL     1      43.429  40.721  51.135  1.00  0.00     0.041 C 
ATOM     23  O   UNL     1      42.580  41.605  50.836  1.00  0.00    -0.550 OA
ATOM     24  O   UNL     1      43.443  40.190  52.420  1.00  0.00    -0.550 OA
ENDBRANCH  21  22
ENDBRANCH  20  21
ENDBRANCH  19  20
ENDBRANCH  18  19
ENDBRANCH  17  18
ENDBRANCH  16  17
ENDBRANCH  15  16
ENDBRANCH  14  15
ENDBRANCH  13  14
ENDBRANCH   1  13
TORSDOF 20
ENDMDL
MODEL 8
REMARK VINA RESULT:    -2.714      2.529      7.090
REMARK INTER + INTRA:         -10.003
REMARK INTER:                  -6.521
REMARK INTRA:                  -3.482
REMARK UNBOUND:                -4.117
REMARK SMILES CCCCCCCCCCCCCCCCCCCCCC(=O)[O-]
REMARK SMILES IDX 12 1 11 2 10 3 9 4 8 5 7 6 6 7 5 8 4 9 3 10 2 11 1 12 13 13
REMARK SMILES IDX 14 14 15 15 16 16 17 17 18 18 19 19 20 20 21 21 22 22 23 23
REMARK SMILES IDX 24 24
REMARK H PARENT
REMARK Flexibility Score: inf
ROOT
ATOM      1  C   UNL     1      44.277  33.066  49.711  1.00  0.00     0.000 C 
ENDROOT
BRANCH   1   2
ATOM      2  C   UNL     1      44.483  32.436  48.317  1.00  0.00     0.000 C 
BRANCH   2   3
ATOM      3  C   UNL     1      45.964  32.377  47.906  1.00  0.00     0.000 C 
BRANCH   3   4
ATOM      4  C   UNL     1      46.835  33.178  48.881  1.00  0.00    -0.000 C 
BRANCH   4   5
ATOM      5  C   UNL     1      48.105  32.400  49.254  1.00  0.00    -0.000 C 
BRANCH   5   6
ATOM      6  C   UNL     1      47.938  31.569  50.535  1.00  0.00    -0.000 C 
BRANCH   6   7
ATOM      7  C   UNL     1      48.325  30.095  50.344  1.00  0.00    -0.000 C 
BRANCH   7   8
ATOM      8  C   UNL     1      48.555  29.776  48.862  1.00  0.00    -0.000 C 
BRANCH   8   9
ATOM      9  C   UNL     1      47.414  28.921  48.296  1.00  0.00    -0.000 C 
BRANCH   9  10
ATOM     10  C   UNL     1      46.449  28.489  49.407  1.00  0.00    -0.000 C 
BRANCH  10  11
ATOM     11  C   UNL     1      44.996  28.801  49.030  1.00  0.00    -0.003 C 
ATOM     12  C   UNL     1      44.340  27.607  48.339  1.00  0.00     0.004 C 
ENDBRANCH  10  11
ENDBRANCH   9  10
ENDBRANCH   8   9
ENDBRANCH   7   8
ENDBRANCH   6   7
ENDBRANCH   5   6
ENDBRANCH   4   5
ENDBRANCH   3   4
ENDBRANCH   2   3
ENDBRANCH   1   2
BRANCH   1  13
ATOM     13  C   UNL     1      43.230  34.196  49.739  1.00  0.00     0.000 C 
BRANCH  13  14
ATOM     14  C   UNL     1      42.145  34.111  48.652  1.00  0.00     0.000 C 
BRANCH  14  15
ATOM     15  C   UNL     1      41.260  35.365  48.506  1.00  0.00     0.000 C 
BRANCH  15  16
ATOM     16  C   UNL     1      40.845  35.680  47.052  1.00  0.00     0.000 C 
BRANCH  16  17
ATOM     17  C   UNL     1      41.026  34.473  46.111  1.00  0.00     0.000 C 
BRANCH  17  18
ATOM     18  C   UNL     1      42.013  34.769  44.965  1.00  0.00     0.000 C 
BRANCH  18  19
ATOM     19  C   UNL     1      43.490  34.562  45.353  1.00  0.00     0.000 C 
BRANCH  19  20
ATOM     20  C   UNL     1      44.225  35.892  45.575  1.00  0.00     0.006 C 
BRANCH  20  21
ATOM     21  C   UNL     1      45.249  35.774  46.712  1.00  0.00     0.053 C 
BRANCH  21  22
ATOM     22  C   UNL     1      44.911  36.706  47.836  1.00  0.00     0.041 C 
ATOM     23  O   UNL     1      43.934  37.497  47.737  1.00  0.00    -0.550 OA
ATOM     24  O   UNL     1      45.666  36.691  49.004  1.00  0.00    -0.550 OA
ENDBRANCH  21  22
ENDBRANCH  20  21
ENDBRANCH  19  20
ENDBRANCH  18  19
ENDBRANCH  17  18
ENDBRANCH  16  17
ENDBRANCH  15  16
ENDBRANCH  14  15
ENDBRANCH  13  14
ENDBRANCH   1  13
TORSDOF 20
ENDMDL
MODEL 9
REMARK VINA RESULT:    -2.682      2.751      6.765
REMARK INTER + INTRA:          -9.935
REMARK INTER:                  -5.895
REMARK INTRA:                  -4.040
REMARK UNBOUND:                -4.117
REMARK SMILES CCCCCCCCCCCCCCCCCCCCCC(=O)[O-]
REMARK SMILES IDX 12 1 11 2 10 3 9 4 8 5 7 6 6 7 5 8 4 9 3 10 2 11 1 12 13 13
REMARK SMILES IDX 14 14 15 15 16 16 17 17 18 18 19 19 20 20 21 21 22 22 23 23
REMARK SMILES IDX 24 24
REMARK H PARENT
REMARK Flexibility Score: inf
ROOT
ATOM      1  C   UNL     1      43.671  33.518  49.228  1.00  0.00     0.000 C 
ENDROOT
BRANCH   1   2
ATOM      2  C   UNL     1      45.120  33.964  48.939  1.00  0.00     0.000 C 
BRANCH   2   3
ATOM      3  C   UNL     1      45.614  33.515  47.554  1.00  0.00     0.000 C 
BRANCH   3   4
ATOM      4  C   UNL     1      44.831  32.290  47.064  1.00  0.00    -0.000 C 
BRANCH   4   5
ATOM      5  C   UNL     1      45.776  31.226  46.487  1.00  0.00    -0.000 C 
BRANCH   5   6
ATOM      6  C   UNL     1      46.088  30.103  47.488  1.00  0.00    -0.000 C 
BRANCH   6   7
ATOM      7  C   UNL     1      45.032  29.984  48.597  1.00  0.00    -0.000 C 
BRANCH   7   8
ATOM      8  C   UNL     1      45.619  30.375  49.959  1.00  0.00    -0.000 C 
BRANCH   8   9
ATOM      9  C   UNL     1      46.899  29.584  50.256  1.00  0.00    -0.000 C 
BRANCH   9  10
ATOM     10  C   UNL     1      47.999  30.504  50.802  1.00  0.00    -0.000 C 
BRANCH  10  11
ATOM     11  C   UNL     1      47.893  31.910  50.201  1.00  0.00    -0.003 C 
ATOM     12  C   UNL     1      48.820  32.064  48.997  1.00  0.00     0.004 C 
ENDBRANCH  10  11
ENDBRANCH   9  10
ENDBRANCH   8   9
ENDBRANCH   7   8
ENDBRANCH   6   7
ENDBRANCH   5   6
ENDBRANCH   4   5
ENDBRANCH   3   4
ENDBRANCH   2   3
ENDBRANCH   1   2
BRANCH   1  13
ATOM     13  C   UNL     1      42.722  34.674  49.600  1.00  0.00     0.000 C 
BRANCH  13  14
ATOM     14  C   UNL     1      41.523  34.866  48.655  1.00  0.00     0.000 C 
BRANCH  14  15
ATOM     15  C   UNL     1      41.633  34.138  47.299  1.00  0.00     0.000 C 
BRANCH  15  16
ATOM     16  C   UNL     1      42.283  34.981  46.180  1.00  0.00     0.000 C 
BRANCH  16  17
ATOM     17  C   UNL     1      41.741  36.423  46.135  1.00  0.00     0.000 C 
BRANCH  17  18
ATOM     18  C   UNL     1      42.870  37.471  46.107  1.00  0.00     0.000 C 
BRANCH  18  19
ATOM     19  C   UNL     1      44.009  37.179  47.104  1.00  0.00     0.000 C 
BRANCH  19  20
ATOM     20  C   UNL     1      43.875  38.000  48.396  1.00  0.00     0.006 C 
BRANCH  20  21
ATOM     21  C   UNL     1      44.968  37.622  49.405  1.00  0.00     0.053 C 
BRANCH  21  22
ATOM     22  C   UNL     1      46.331  37.904  48.849  1.00  0.00     0.041 C 
ATOM     23  O   UNL     1      46.675  39.086  48.572  1.00  0.00    -0.550 OA
ATOM     24  O   UNL     1      47.231  36.862  48.650  1.00  0.00    -0.550 OA
ENDBRANCH  21  22
ENDBRANCH  20  21
ENDBRANCH  19  20
ENDBRANCH  18  19
ENDBRANCH  17  18
ENDBRANCH  16  17
ENDBRANCH  15  16
ENDBRANCH  14  15
ENDBRANCH  13  14
ENDBRANCH   1  13
TORSDOF 20
ENDMDL
