MODEL 1
REMARK VINA RESULT:    -3.922      0.000      0.000
REMARK INTER + INTRA:          -5.909
REMARK INTER:                  -5.985
REMARK INTRA:                   0.076
REMARK UNBOUND:                 0.076
REMARK SMILES CC1=CCC[C@@H](C)C(=O)C[C@H](C(C)C)C(=O)C1
REMARK SMILES IDX 8 1 9 2 6 3 7 4 5 5 4 6 3 7 2 8 1 9 10 11 11 12 15 13 16 14
REMARK SMILES IDX 17 15 12 17 13 18 14 19
REMARK H PARENT
REMARK Flexibility Score: 70.00
ROOT
ATOM      1  C   UNL     1     -18.133  -5.347   8.109  1.00  0.00     0.136 C 
ATOM      2  O   UNL     1     -18.885  -5.944   8.866  1.00  0.00    -0.299 OA
ENDROOT
BRANCH   1   3
ATOM      3  C   UNL     1     -18.569  -5.079   6.680  1.00  0.00     0.053 C 
ATOM      4  C   UNL     1     -17.845  -6.027   5.714  1.00  0.00     0.016 C 
BRANCH   3   5
ATOM      5  C   UNL     1     -18.311  -3.603   6.302  1.00  0.00     0.015 C 
BRANCH   5   6
ATOM      6  C   UNL     1     -17.525  -3.484   4.982  1.00  0.00     0.028 C 
BRANCH   6   7
ATOM      7  C   UNL     1     -16.523  -2.356   4.986  1.00  0.00    -0.028 C 
ATOM      8  C   UNL     1     -15.243  -2.442   5.426  1.00  0.00    -0.070 CG0
ATOM      9  C   UNL     1     -14.423  -1.176   5.444  1.00  0.00     0.039 C 
ATOM     10  G   UNL     1     -14.585  -3.748   5.855  1.00  0.00     0.000 G0
ENDBRANCH   6   7
ENDBRANCH   5   6
ENDBRANCH   3   5
ENDBRANCH   1   3
BRANCH   1  11
ATOM     11  C   UNL     1     -16.792  -4.878   8.627  1.00  0.00     0.087 C 
BRANCH  11  12
ATOM     12  C   UNL     1     -15.622  -5.301   7.698  1.00  0.00     0.066 C 
BRANCH  12  13
ATOM     13  C   UNL     1     -14.755  -4.105   7.323  1.00  0.00     0.140 C 
ATOM     14  O   UNL     1     -14.174  -3.468   8.190  1.00  0.00    -0.299 OA
BRANCH  13  15
ATOM     15  C   UNL     1     -14.562  -3.739   5.873  1.00  0.00     0.106 CG0
ATOM     16  G   UNL     1     -15.255  -2.444   5.464  1.00  0.00     0.000 G0
ENDBRANCH  13  15
ENDBRANCH  12  13
BRANCH  12  17
ATOM     17  C   UNL     1     -14.769  -6.483   8.267  1.00  0.00    -0.006 C 
ATOM     18  C   UNL     1     -15.607  -7.696   8.710  1.00  0.00     0.008 C 
ATOM     19  C   UNL     1     -13.693  -6.933   7.267  1.00  0.00     0.008 C 
ENDBRANCH  12  17
ENDBRANCH  11  12
ENDBRANCH   1  11
TORSDOF 1
ENDMDL
MODEL 2
REMARK VINA RESULT:    -3.826     18.523     20.601
REMARK INTER + INTRA:          -5.764
REMARK INTER:                  -5.891
REMARK INTRA:                   0.128
REMARK UNBOUND:                 0.076
REMARK SMILES CC1=CCC[C@@H](C)C(=O)C[C@H](C(C)C)C(=O)C1
REMARK SMILES IDX 8 1 9 2 6 3 7 4 5 5 4 6 3 7 2 8 1 9 10 11 11 12 15 13 16 14
REMARK SMILES IDX 17 15 12 17 13 18 14 19
REMARK H PARENT
REMARK Flexibility Score: 70.00
ROOT
ATOM      1  C   UNL     1      -1.138   5.030  14.210  1.00  0.00     0.136 C 
ATOM      2  O   UNL     1      -0.570   3.987  14.501  1.00  0.00    -0.299 OA
ENDROOT
BRANCH   1   3
ATOM      3  C   UNL     1      -1.510   5.299  12.763  1.00  0.00     0.053 C 
ATOM      4  C   UNL     1      -0.378   6.053  12.052  1.00  0.00     0.016 C 
BRANCH   3   5
ATOM      5  C   UNL     1      -2.835   6.089  12.683  1.00  0.00     0.015 C 
BRANCH   5   6
ATOM      6  C   UNL     1      -2.604   7.542  12.224  1.00  0.00     0.028 C 
BRANCH   6   7
ATOM      7  C   UNL     1      -2.946   8.561  13.282  1.00  0.00    -0.028 C 
ATOM      8  C   UNL     1      -2.097   9.022  14.235  1.00  0.00    -0.070 CG0
ATOM      9  C   UNL     1      -2.654   9.968  15.269  1.00  0.00     0.039 C 
ATOM     10  G   UNL     1      -0.615   8.672  14.284  1.00  0.00     0.000 G0
ENDBRANCH   6   7
ENDBRANCH   5   6
ENDBRANCH   3   5
ENDBRANCH   1   3
BRANCH   1  11
ATOM     11  C   UNL     1      -1.466   6.017  15.307  1.00  0.00     0.087 C 
BRANCH  11  12
ATOM     12  C   UNL     1      -0.193   6.663  15.918  1.00  0.00     0.066 C 
BRANCH  12  13
ATOM     13  C   UNL     1      -0.141   8.158  15.633  1.00  0.00     0.140 C 
ATOM     14  O   UNL     1       0.316   8.931  16.463  1.00  0.00    -0.299 OA
BRANCH  13  15
ATOM     15  C   UNL     1      -0.600   8.687  14.296  1.00  0.00     0.106 CG0
ATOM     16  G   UNL     1      -2.091   8.997  14.232  1.00  0.00     0.000 G0
ENDBRANCH  13  15
ENDBRANCH  12  13
BRANCH  12  17
ATOM     17  C   UNL     1      -0.007   6.354  17.441  1.00  0.00    -0.006 C 
ATOM     18  C   UNL     1      -1.232   6.715  18.302  1.00  0.00     0.008 C 
ATOM     19  C   UNL     1       0.375   4.884  17.674  1.00  0.00     0.008 C 
ENDBRANCH  12  17
ENDBRANCH  11  12
ENDBRANCH   1  11
TORSDOF 1
ENDMDL
MODEL 3
REMARK VINA RESULT:    -3.813      2.020      4.523
REMARK INTER + INTRA:          -5.743
REMARK INTER:                  -5.854
REMARK INTRA:                   0.111
REMARK UNBOUND:                 0.076
REMARK SMILES CC1=CCC[C@@H](C)C(=O)C[C@H](C(C)C)C(=O)C1
REMARK SMILES IDX 8 1 9 2 6 3 7 4 5 5 4 6 3 7 2 8 1 9 10 11 11 12 15 13 16 14
REMARK SMILES IDX 17 15 12 17 13 18 14 19
REMARK H PARENT
REMARK Flexibility Score: 70.00
ROOT
ATOM      1  C   UNL     1     -16.261  -1.903   4.039  1.00  0.00     0.136 C 
ATOM      2  O   UNL     1     -16.458  -0.742   4.370  1.00  0.00    -0.299 OA
ENDROOT
BRANCH   1   3
ATOM      3  C   UNL     1     -17.381  -2.695   3.389  1.00  0.00     0.053 C 
ATOM      4  C   UNL     1     -18.132  -1.824   2.373  1.00  0.00     0.016 C 
BRANCH   3   5
ATOM      5  C   UNL     1     -18.346  -3.249   4.461  1.00  0.00     0.015 C 
BRANCH   5   6
ATOM      6  C   UNL     1     -17.922  -4.653   4.936  1.00  0.00     0.028 C 
BRANCH   6   7
ATOM      7  C   UNL     1     -17.723  -4.741   6.429  1.00  0.00    -0.028 C 
ATOM      8  C   UNL     1     -16.526  -4.706   7.066  1.00  0.00    -0.070 CG0
ATOM      9  C   UNL     1     -16.524  -4.909   8.561  1.00  0.00     0.039 C 
ATOM     10  G   UNL     1     -15.204  -4.427   6.362  1.00  0.00     0.000 G0
ENDBRANCH   6   7
ENDBRANCH   5   6
ENDBRANCH   3   5
ENDBRANCH   1   3
BRANCH   1  11
ATOM     11  C   UNL     1     -14.897  -2.511   4.276  1.00  0.00     0.087 C 
BRANCH  11  12
ATOM     12  C   UNL     1     -14.287  -2.077   5.637  1.00  0.00     0.066 C 
BRANCH  12  13
ATOM     13  C   UNL     1     -14.525  -3.132   6.710  1.00  0.00     0.140 C 
ATOM     14  O   UNL     1     -14.229  -2.906   7.875  1.00  0.00    -0.299 OA
BRANCH  13  15
ATOM     15  C   UNL     1     -15.183  -4.440   6.348  1.00  0.00     0.106 CG0
ATOM     16  G   UNL     1     -16.509  -4.683   7.059  1.00  0.00     0.000 G0
ENDBRANCH  13  15
ENDBRANCH  12  13
BRANCH  12  17
ATOM     17  C   UNL     1     -12.779  -1.671   5.543  1.00  0.00    -0.006 C 
ATOM     18  C   UNL     1     -12.089  -2.140   4.248  1.00  0.00     0.008 C 
ATOM     19  C   UNL     1     -12.593  -0.155   5.710  1.00  0.00     0.008 C 
ENDBRANCH  12  17
ENDBRANCH  11  12
ENDBRANCH   1  11
TORSDOF 1
ENDMDL
MODEL 4
REMARK VINA RESULT:    -3.730      2.462      5.094
REMARK INTER + INTRA:          -5.616
REMARK INTER:                  -5.746
REMARK INTRA:                   0.130
REMARK UNBOUND:                 0.076
REMARK SMILES CC1=CCC[C@@H](C)C(=O)C[C@H](C(C)C)C(=O)C1
REMARK SMILES IDX 8 1 9 2 6 3 7 4 5 5 4 6 3 7 2 8 1 9 10 11 11 12 15 13 16 14
REMARK SMILES IDX 17 15 12 17 13 18 14 19
REMARK H PARENT
REMARK Flexibility Score: 70.00
ROOT
ATOM      1  C   UNL     1     -14.584  -3.449   7.096  1.00  0.00     0.136 C 
ATOM      2  O   UNL     1     -14.173  -2.919   8.119  1.00  0.00    -0.299 OA
ENDROOT
BRANCH   1   3
ATOM      3  C   UNL     1     -15.426  -4.707   7.193  1.00  0.00     0.053 C 
ATOM      4  C   UNL     1     -16.318  -4.659   8.441  1.00  0.00     0.016 C 
BRANCH   3   5
ATOM      5  C   UNL     1     -14.526  -5.962   7.207  1.00  0.00     0.015 C 
BRANCH   5   6
ATOM      6  C   UNL     1     -14.450  -6.623   5.816  1.00  0.00     0.028 C 
BRANCH   6   7
ATOM      7  C   UNL     1     -13.037  -6.873   5.352  1.00  0.00    -0.028 C 
ATOM      8  C   UNL     1     -12.303  -6.036   4.578  1.00  0.00    -0.070 CG0
ATOM      9  C   UNL     1     -10.941  -6.507   4.134  1.00  0.00     0.039 C 
ATOM     10  G   UNL     1     -12.762  -4.639   4.176  1.00  0.00     0.000 G0
ENDBRANCH   6   7
ENDBRANCH   5   6
ENDBRANCH   3   5
ENDBRANCH   1   3
BRANCH   1  11
ATOM     11  C   UNL     1     -14.251  -2.822   5.761  1.00  0.00     0.087 C 
BRANCH  11  12
ATOM     12  C   UNL     1     -12.746  -2.459   5.640  1.00  0.00     0.066 C 
BRANCH  12  13
ATOM     13  C   UNL     1     -11.987  -3.510   4.841  1.00  0.00     0.140 C 
ATOM     14  O   UNL     1     -10.766  -3.482   4.785  1.00  0.00    -0.299 OA
BRANCH  13  15
ATOM     15  C   UNL     1     -12.738  -4.630   4.164  1.00  0.00     0.106 CG0
ATOM     16  G   UNL     1     -12.289  -6.023   4.589  1.00  0.00     0.000 G0
ENDBRANCH  13  15
ENDBRANCH  12  13
BRANCH  12  17
ATOM     17  C   UNL     1     -12.495  -1.016   5.089  1.00  0.00    -0.006 C 
ATOM     18  C   UNL     1     -13.785  -0.212   4.841  1.00  0.00     0.008 C 
ATOM     19  C   UNL     1     -11.556  -0.218   6.007  1.00  0.00     0.008 C 
ENDBRANCH  12  17
ENDBRANCH  11  12
ENDBRANCH   1  11
TORSDOF 1
ENDMDL
MODEL 5
REMARK VINA RESULT:    -3.725      2.453      4.387
REMARK INTER + INTRA:          -5.608
REMARK INTER:                  -5.328
REMARK INTRA:                  -0.281
REMARK UNBOUND:                 0.076
REMARK SMILES CC1=CCC[C@@H](C)C(=O)C[C@H](C(C)C)C(=O)C1
REMARK SMILES IDX 8 1 9 2 6 3 7 4 5 5 4 6 3 7 2 8 1 9 10 11 11 12 15 13 16 14
REMARK SMILES IDX 17 15 12 17 13 18 14 19
REMARK H PARENT
REMARK Flexibility Score: 70.00
ROOT
ATOM      1  C   UNL     1     -14.661  -3.186   7.261  1.00  0.00     0.136 C 
ATOM      2  O   UNL     1     -13.900  -3.368   8.201  1.00  0.00    -0.299 OA
ENDROOT
BRANCH   1   3
ATOM      3  C   UNL     1     -15.603  -4.298   6.835  1.00  0.00     0.053 C 
ATOM      4  C   UNL     1     -14.905  -5.241   5.846  1.00  0.00     0.016 C 
BRANCH   3   5
ATOM      5  C   UNL     1     -16.893  -3.710   6.220  1.00  0.00     0.015 C 
BRANCH   5   6
ATOM      6  C   UNL     1     -17.101  -4.190   4.770  1.00  0.00     0.028 C 
BRANCH   6   7
ATOM      7  C   UNL     1     -17.776  -3.163   3.895  1.00  0.00    -0.028 C 
ATOM      8  C   UNL     1     -17.143  -2.198   3.182  1.00  0.00    -0.070 CG0
ATOM      9  C   UNL     1     -17.999  -1.199   2.444  1.00  0.00     0.039 C 
ATOM     10  G   UNL     1     -15.628  -2.103   3.052  1.00  0.00     0.000 G0
ENDBRANCH   6   7
ENDBRANCH   5   6
ENDBRANCH   3   5
ENDBRANCH   1   3
BRANCH   1  11
ATOM     11  C   UNL     1     -14.651  -1.847   6.558  1.00  0.00     0.087 C 
BRANCH  11  12
ATOM     12  C   UNL     1     -14.047  -1.937   5.130  1.00  0.00     0.066 C 
BRANCH  12  13
ATOM     13  C   UNL     1     -14.950  -1.262   4.106  1.00  0.00     0.140 C 
ATOM     14  O   UNL     1     -15.096  -0.048   4.115  1.00  0.00    -0.299 OA
BRANCH  13  15
ATOM     15  C   UNL     1     -15.622  -2.085   3.035  1.00  0.00     0.106 CG0
ATOM     16  G   UNL     1     -17.133  -2.202   3.201  1.00  0.00     0.000 G0
ENDBRANCH  13  15
ENDBRANCH  12  13
BRANCH  12  17
ATOM     17  C   UNL     1     -12.575  -1.415   5.042  1.00  0.00    -0.006 C 
ATOM     18  C   UNL     1     -12.269  -0.251   6.003  1.00  0.00     0.008 C 
ATOM     19  C   UNL     1     -11.561  -2.549   5.264  1.00  0.00     0.008 C 
ENDBRANCH  12  17
ENDBRANCH  11  12
ENDBRANCH   1  11
TORSDOF 1
ENDMDL
MODEL 6
REMARK VINA RESULT:    -3.724      2.208      3.574
REMARK INTER + INTRA:          -5.607
REMARK INTER:                  -5.445
REMARK INTRA:                  -0.162
REMARK UNBOUND:                 0.076
REMARK SMILES CC1=CCC[C@@H](C)C(=O)C[C@H](C(C)C)C(=O)C1
REMARK SMILES IDX 8 1 9 2 6 3 7 4 5 5 4 6 3 7 2 8 1 9 10 11 11 12 15 13 16 14
REMARK SMILES IDX 17 15 12 17 13 18 14 19
REMARK H PARENT
REMARK Flexibility Score: 70.00
ROOT
ATOM      1  C   UNL     1     -14.740  -3.344   7.033  1.00  0.00     0.136 C 
ATOM      2  O   UNL     1     -13.584  -2.975   7.188  1.00  0.00    -0.299 OA
ENDROOT
BRANCH   1   3
ATOM      3  C   UNL     1     -15.622  -2.635   6.022  1.00  0.00     0.053 C 
ATOM      4  C   UNL     1     -16.972  -3.353   5.894  1.00  0.00     0.016 C 
BRANCH   3   5
ATOM      5  C   UNL     1     -14.913  -2.544   4.653  1.00  0.00     0.015 C 
BRANCH   5   6
ATOM      6  C   UNL     1     -14.717  -3.936   4.021  1.00  0.00     0.028 C 
BRANCH   6   7
ATOM      7  C   UNL     1     -13.274  -4.375   3.984  1.00  0.00    -0.028 C 
ATOM      8  C   UNL     1     -12.779  -5.503   4.550  1.00  0.00    -0.070 CG0
ATOM      9  C   UNL     1     -11.287  -5.719   4.491  1.00  0.00     0.039 C 
ATOM     10  G   UNL     1     -13.650  -6.574   5.196  1.00  0.00     0.000 G0
ENDBRANCH   6   7
ENDBRANCH   5   6
ENDBRANCH   3   5
ENDBRANCH   1   3
BRANCH   1  11
ATOM     11  C   UNL     1     -15.251  -4.512   7.847  1.00  0.00     0.087 C 
BRANCH  11  12
ATOM     12  C   UNL     1     -15.357  -5.813   7.007  1.00  0.00     0.066 C 
BRANCH  12  13
ATOM     13  C   UNL     1     -13.977  -6.347   6.642  1.00  0.00     0.140 C 
ATOM     14  O   UNL     1     -13.167  -6.615   7.517  1.00  0.00    -0.299 OA
BRANCH  13  15
ATOM     15  C   UNL     1     -13.627  -6.606   5.198  1.00  0.00     0.106 CG0
ATOM     16  G   UNL     1     -12.799  -5.499   4.554  1.00  0.00     0.000 G0
ENDBRANCH  13  15
ENDBRANCH  12  13
BRANCH  12  17
ATOM     17  C   UNL     1     -16.250  -6.913   7.670  1.00  0.00    -0.006 C 
ATOM     18  C   UNL     1     -17.260  -6.359   8.693  1.00  0.00     0.008 C 
ATOM     19  C   UNL     1     -16.988  -7.751   6.615  1.00  0.00     0.008 C 
ENDBRANCH  12  17
ENDBRANCH  11  12
ENDBRANCH   1  11
TORSDOF 1
ENDMDL
MODEL 7
REMARK VINA RESULT:    -3.706      2.242      4.702
REMARK INTER + INTRA:          -5.580
REMARK INTER:                  -5.737
REMARK INTRA:                   0.157
REMARK UNBOUND:                 0.076
REMARK SMILES CC1=CCC[C@@H](C)C(=O)C[C@H](C(C)C)C(=O)C1
REMARK SMILES IDX 8 1 9 2 6 3 7 4 5 5 4 6 3 7 2 8 1 9 10 11 11 12 15 13 16 14
REMARK SMILES IDX 17 15 12 17 13 18 14 19
REMARK H PARENT
REMARK Flexibility Score: 70.00
ROOT
ATOM      1  C   UNL     1     -13.547  -2.048   5.976  1.00  0.00     0.136 C 
ATOM      2  O   UNL     1     -13.185  -1.943   7.140  1.00  0.00    -0.299 OA
ENDROOT
BRANCH   1   3
ATOM      3  C   UNL     1     -13.017  -1.075   4.939  1.00  0.00     0.053 C 
ATOM      4  C   UNL     1     -12.042  -0.082   5.586  1.00  0.00     0.016 C 
BRANCH   3   5
ATOM      5  C   UNL     1     -14.182  -0.333   4.246  1.00  0.00     0.015 C 
BRANCH   5   6
ATOM      6  C   UNL     1     -14.528  -0.964   2.883  1.00  0.00     0.028 C 
BRANCH   6   7
ATOM      7  C   UNL     1     -15.989  -0.846   2.526  1.00  0.00    -0.028 C 
ATOM      8  C   UNL     1     -16.956  -1.735   2.862  1.00  0.00    -0.070 CG0
ATOM      9  C   UNL     1     -18.345  -1.493   2.327  1.00  0.00     0.039 C 
ATOM     10  G   UNL     1     -16.723  -2.928   3.782  1.00  0.00     0.000 G0
ENDBRANCH   6   7
ENDBRANCH   5   6
ENDBRANCH   3   5
ENDBRANCH   1   3
BRANCH   1  11
ATOM     11  C   UNL     1     -14.505  -3.157   5.603  1.00  0.00     0.087 C 
BRANCH  11  12
ATOM     12  C   UNL     1     -15.893  -2.987   6.277  1.00  0.00     0.066 C 
BRANCH  12  13
ATOM     13  C   UNL     1     -16.965  -2.636   5.253  1.00  0.00     0.140 C 
ATOM     14  O   UNL     1     -17.990  -2.067   5.600  1.00  0.00    -0.299 OA
BRANCH  13  15
ATOM     15  C   UNL     1     -16.737  -2.935   3.792  1.00  0.00     0.106 CG0
ATOM     16  G   UNL     1     -16.967  -1.742   2.872  1.00  0.00     0.000 G0
ENDBRANCH  13  15
ENDBRANCH  12  13
BRANCH  12  17
ATOM     17  C   UNL     1     -16.311  -4.209   7.161  1.00  0.00    -0.006 C 
ATOM     18  C   UNL     1     -17.271  -5.186   6.457  1.00  0.00     0.008 C 
ATOM     19  C   UNL     1     -15.083  -4.973   7.681  1.00  0.00     0.008 C 
ENDBRANCH  12  17
ENDBRANCH  11  12
ENDBRANCH   1  11
TORSDOF 1
ENDMDL
MODEL 8
REMARK VINA RESULT:    -3.699      1.679      2.059
REMARK INTER + INTRA:          -5.569
REMARK INTER:                  -5.569
REMARK INTRA:                  -0.000
REMARK UNBOUND:                 0.076
REMARK SMILES CC1=CCC[C@@H](C)C(=O)C[C@H](C(C)C)C(=O)C1
REMARK SMILES IDX 8 1 9 2 6 3 7 4 5 5 4 6 3 7 2 8 1 9 10 11 11 12 15 13 16 14
REMARK SMILES IDX 17 15 12 17 13 18 14 19
REMARK H PARENT
REMARK Flexibility Score: 70.00
ROOT
ATOM      1  C   UNL     1     -17.618  -3.099   5.877  1.00  0.00     0.136 C 
ATOM      2  O   UNL     1     -17.610  -1.881   5.986  1.00  0.00    -0.299 OA
ENDROOT
BRANCH   1   3
ATOM      3  C   UNL     1     -18.005  -3.729   4.551  1.00  0.00     0.053 C 
ATOM      4  C   UNL     1     -17.738  -5.240   4.578  1.00  0.00     0.016 C 
BRANCH   3   5
ATOM      5  C   UNL     1     -17.243  -3.054   3.388  1.00  0.00     0.015 C 
BRANCH   5   6
ATOM      6  C   UNL     1     -15.730  -3.340   3.459  1.00  0.00     0.028 C 
BRANCH   6   7
ATOM      7  C   UNL     1     -14.921  -2.153   3.919  1.00  0.00    -0.028 C 
ATOM      8  C   UNL     1     -14.109  -2.127   5.005  1.00  0.00    -0.070 CG0
ATOM      9  C   UNL     1     -13.459  -0.814   5.361  1.00  0.00     0.039 C 
ATOM     10  G   UNL     1     -13.786  -3.356   5.846  1.00  0.00     0.000 G0
ENDBRANCH   6   7
ENDBRANCH   5   6
ENDBRANCH   3   5
ENDBRANCH   1   3
BRANCH   1  11
ATOM     11  C   UNL     1     -17.225  -3.944   7.068  1.00  0.00     0.087 C 
BRANCH  11  12
ATOM     12  C   UNL     1     -15.838  -4.616   6.881  1.00  0.00     0.066 C 
BRANCH  12  13
ATOM     13  C   UNL     1     -14.711  -3.598   7.004  1.00  0.00     0.140 C 
ATOM     14  O   UNL     1     -14.529  -3.002   8.056  1.00  0.00    -0.299 OA
BRANCH  13  15
ATOM     15  C   UNL     1     -13.775  -3.366   5.844  1.00  0.00     0.106 CG0
ATOM     16  G   UNL     1     -14.108  -2.130   5.017  1.00  0.00     0.000 G0
ENDBRANCH  13  15
ENDBRANCH  12  13
BRANCH  12  17
ATOM     17  C   UNL     1     -15.612  -5.851   7.815  1.00  0.00    -0.006 C 
ATOM     18  C   UNL     1     -16.801  -6.829   7.850  1.00  0.00     0.008 C 
ATOM     19  C   UNL     1     -14.328  -6.609   7.446  1.00  0.00     0.008 C 
ENDBRANCH  12  17
ENDBRANCH  11  12
ENDBRANCH   1  11
TORSDOF 1
ENDMDL
MODEL 9
REMARK VINA RESULT:    -3.572      1.951      3.567
REMARK INTER + INTRA:          -5.376
REMARK INTER:                  -5.417
REMARK INTRA:                   0.041
REMARK UNBOUND:                 0.076
REMARK SMILES CC1=CCC[C@@H](C)C(=O)C[C@H](C(C)C)C(=O)C1
REMARK SMILES IDX 8 1 9 2 6 3 7 4 5 5 4 6 3 7 2 8 1 9 10 11 11 12 15 13 16 14
REMARK SMILES IDX 17 15 12 17 13 18 14 19
REMARK H PARENT
REMARK Flexibility Score: 70.00
ROOT
ATOM      1  C   UNL     1     -15.032  -7.260   6.005  1.00  0.00     0.136 C 
ATOM      2  O   UNL     1     -15.274  -8.186   6.767  1.00  0.00    -0.299 OA
ENDROOT
BRANCH   1   3
ATOM      3  C   UNL     1     -13.943  -7.418   4.959  1.00  0.00     0.053 C 
ATOM      4  C   UNL     1     -13.357  -8.835   5.007  1.00  0.00     0.016 C 
BRANCH   3   5
ATOM      5  C   UNL     1     -12.839  -6.356   5.163  1.00  0.00     0.015 C 
BRANCH   5   6
ATOM      6  C   UNL     1     -13.062  -5.124   4.264  1.00  0.00     0.028 C 
BRANCH   6   7
ATOM      7  C   UNL     1     -12.590  -3.837   4.893  1.00  0.00    -0.028 C 
ATOM      8  C   UNL     1     -13.354  -2.997   5.634  1.00  0.00    -0.070 CG0
ATOM      9  C   UNL     1     -12.728  -1.704   6.095  1.00  0.00     0.039 C 
ATOM     10  G   UNL     1     -14.783  -3.311   6.061  1.00  0.00     0.000 G0
ENDBRANCH   6   7
ENDBRANCH   5   6
ENDBRANCH   3   5
ENDBRANCH   1   3
BRANCH   1  11
ATOM     11  C   UNL     1     -15.841  -5.987   6.118  1.00  0.00     0.087 C 
BRANCH  11  12
ATOM     12  C   UNL     1     -15.678  -5.309   7.506  1.00  0.00     0.066 C 
BRANCH  12  13
ATOM     13  C   UNL     1     -14.884  -4.014   7.397  1.00  0.00     0.140 C 
ATOM     14  O   UNL     1     -14.281  -3.575   8.366  1.00  0.00    -0.299 OA
BRANCH  13  15
ATOM     15  C   UNL     1     -14.787  -3.298   6.073  1.00  0.00     0.106 CG0
ATOM     16  G   UNL     1     -13.359  -2.993   5.636  1.00  0.00     0.000 G0
ENDBRANCH  13  15
ENDBRANCH  12  13
BRANCH  12  17
ATOM     17  C   UNL     1     -17.033  -5.099   8.259  1.00  0.00    -0.006 C 
ATOM     18  C   UNL     1     -18.148  -4.503   7.380  1.00  0.00     0.008 C 
ATOM     19  C   UNL     1     -17.525  -6.404   8.906  1.00  0.00     0.008 C 
ENDBRANCH  12  17
ENDBRANCH  11  12
ENDBRANCH   1  11
TORSDOF 1
ENDMDL
