MODEL 1
REMARK VINA RESULT:    -4.285      0.000      0.000
REMARK INTER + INTRA:          -4.730
REMARK INTER:                  -4.661
REMARK INTRA:                  -0.069
REMARK UNBOUND:                -0.069
REMARK SMILES CCc1cccc(O)c1
REMARK SMILES IDX 3 1 9 2 7 3 6 4 5 5 4 6 2 7 1 8 8 9
REMARK H PARENT 8 10
REMARK Flexibility Score: inf
ROOT
ATOM      1  C   UNL     1     -23.365  26.680   8.429  1.00  0.00    -0.045 A 
ATOM      2  C   UNL     1     -22.599  25.668   7.826  1.00  0.00     0.049 A 
ATOM      3  C   UNL     1     -21.868  24.771   8.613  1.00  0.00     0.115 A 
ATOM      4  C   UNL     1     -21.893  24.888  10.010  1.00  0.00     0.046 A 
ATOM      5  C   UNL     1     -22.643  25.901  10.614  1.00  0.00     0.004 A 
ATOM      6  C   UNL     1     -23.373  26.797   9.829  1.00  0.00     0.004 A 
ENDROOT
BRANCH   1   7
ATOM      7  C   UNL     1     -24.125  27.663   7.580  1.00  0.00     0.032 C 
ATOM      8  C   UNL     1     -23.850  29.094   8.033  1.00  0.00     0.009 C 
ENDBRANCH   1   7
BRANCH   3   9
ATOM      9  O   UNL     1     -21.119  23.769   7.998  1.00  0.00    -0.508 OA
ATOM     10  H   UNL     1     -21.008  23.734   6.991  1.00  0.00     0.293 HD
ENDBRANCH   3   9
TORSDOF 2
ENDMDL
MODEL 2
REMARK VINA RESULT:    -3.967      2.023      2.385
REMARK INTER + INTRA:          -4.384
REMARK INTER:                  -4.334
REMARK INTRA:                  -0.050
REMARK UNBOUND:                -0.069
REMARK SMILES CCc1cccc(O)c1
REMARK SMILES IDX 3 1 9 2 7 3 6 4 5 5 4 6 2 7 1 8 8 9
REMARK H PARENT 8 10
REMARK Flexibility Score: inf
ROOT
ATOM      1  C   UNL     1     -23.445  25.613   8.475  1.00  0.00    -0.045 A 
ATOM      2  C   UNL     1     -22.711  25.919   9.633  1.00  0.00     0.049 A 
ATOM      3  C   UNL     1     -22.639  25.002  10.688  1.00  0.00     0.115 A 
ATOM      4  C   UNL     1     -23.311  23.774  10.591  1.00  0.00     0.046 A 
ATOM      5  C   UNL     1     -24.053  23.471   9.446  1.00  0.00     0.004 A 
ATOM      6  C   UNL     1     -24.125  24.387   8.393  1.00  0.00     0.004 A 
ENDROOT
BRANCH   1   7
ATOM      7  C   UNL     1     -23.548  26.615   7.356  1.00  0.00     0.032 C 
ATOM      8  C   UNL     1     -24.012  27.968   7.884  1.00  0.00     0.009 C 
ENDBRANCH   1   7
BRANCH   3   9
ATOM      9  O   UNL     1     -21.902  25.319  11.826  1.00  0.00    -0.508 OA
ATOM     10  H   UNL     1     -21.249  24.659  12.235  1.00  0.00     0.293 HD
ENDBRANCH   3   9
TORSDOF 2
ENDMDL
MODEL 3
REMARK VINA RESULT:    -3.904      1.783      3.973
REMARK INTER + INTRA:          -4.315
REMARK INTER:                  -4.269
REMARK INTRA:                  -0.046
REMARK UNBOUND:                -0.069
REMARK SMILES CCc1cccc(O)c1
REMARK SMILES IDX 3 1 9 2 7 3 6 4 5 5 4 6 2 7 1 8 8 9
REMARK H PARENT 8 10
REMARK Flexibility Score: inf
ROOT
ATOM      1  C   UNL     1     -22.291  24.614  11.518  1.00  0.00    -0.045 A 
ATOM      2  C   UNL     1     -21.754  24.011  10.368  1.00  0.00     0.049 A 
ATOM      3  C   UNL     1     -21.902  24.619   9.116  1.00  0.00     0.115 A 
ATOM      4  C   UNL     1     -22.598  25.832   9.008  1.00  0.00     0.046 A 
ATOM      5  C   UNL     1     -23.146  26.428  10.147  1.00  0.00     0.004 A 
ATOM      6  C   UNL     1     -22.998  25.822  11.397  1.00  0.00     0.004 A 
ENDROOT
BRANCH   1   7
ATOM      7  C   UNL     1     -22.159  23.942  12.858  1.00  0.00     0.032 C 
ATOM      8  C   UNL     1     -20.701  23.919  13.309  1.00  0.00     0.009 C 
ENDBRANCH   1   7
BRANCH   3   9
ATOM      9  O   UNL     1     -21.358  24.010   7.987  1.00  0.00    -0.508 OA
ATOM     10  H   UNL     1     -21.398  24.452   7.076  1.00  0.00     0.293 HD
ENDBRANCH   3   9
TORSDOF 2
ENDMDL
MODEL 4
REMARK VINA RESULT:    -3.764      2.554      4.568
REMARK INTER + INTRA:          -4.164
REMARK INTER:                  -4.113
REMARK INTRA:                  -0.051
REMARK UNBOUND:                -0.069
REMARK SMILES CCc1cccc(O)c1
REMARK SMILES IDX 3 1 9 2 7 3 6 4 5 5 4 6 2 7 1 8 8 9
REMARK H PARENT 8 10
REMARK Flexibility Score: inf
ROOT
ATOM      1  C   UNL     1     -22.841  24.288  11.557  1.00  0.00    -0.045 A 
ATOM      2  C   UNL     1     -22.686  25.668  11.348  1.00  0.00     0.049 A 
ATOM      3  C   UNL     1     -23.099  26.253  10.145  1.00  0.00     0.115 A 
ATOM      4  C   UNL     1     -23.662  25.454   9.140  1.00  0.00     0.046 A 
ATOM      5  C   UNL     1     -23.806  24.078   9.337  1.00  0.00     0.004 A 
ATOM      6  C   UNL     1     -23.394  23.494  10.538  1.00  0.00     0.004 A 
ENDROOT
BRANCH   1   7
ATOM      7  C   UNL     1     -22.367  23.656  12.838  1.00  0.00     0.032 C 
ATOM      8  C   UNL     1     -20.843  23.582  12.871  1.00  0.00     0.009 C 
ENDBRANCH   1   7
BRANCH   3   9
ATOM      9  O   UNL     1     -22.943  27.624   9.958  1.00  0.00    -0.508 OA
ATOM     10  H   UNL     1     -23.598  28.160   9.399  1.00  0.00     0.293 HD
ENDBRANCH   3   9
TORSDOF 2
ENDMDL
MODEL 5
REMARK VINA RESULT:    -3.734     22.743     23.815
REMARK INTER + INTRA:          -4.131
REMARK INTER:                  -4.080
REMARK INTRA:                  -0.051
REMARK UNBOUND:                -0.069
REMARK SMILES CCc1cccc(O)c1
REMARK SMILES IDX 3 1 9 2 7 3 6 4 5 5 4 6 2 7 1 8 8 9
REMARK H PARENT 8 10
REMARK Flexibility Score: inf
ROOT
ATOM      1  C   UNL     1      -5.056  42.573   7.998  1.00  0.00    -0.045 A 
ATOM      2  C   UNL     1      -6.348  42.931   8.423  1.00  0.00     0.049 A 
ATOM      3  C   UNL     1      -7.443  42.770   7.567  1.00  0.00     0.115 A 
ATOM      4  C   UNL     1      -7.250  42.258   6.276  1.00  0.00     0.046 A 
ATOM      5  C   UNL     1      -5.966  41.914   5.844  1.00  0.00     0.004 A 
ATOM      6  C   UNL     1      -4.872  42.074   6.698  1.00  0.00     0.004 A 
ENDROOT
BRANCH   1   7
ATOM      7  C   UNL     1      -3.875  42.777   8.909  1.00  0.00     0.032 C 
ATOM      8  C   UNL     1      -4.334  42.984  10.349  1.00  0.00     0.009 C 
ENDBRANCH   1   7
BRANCH   3   9
ATOM      9  O   UNL     1      -8.717  43.124   8.006  1.00  0.00    -0.508 OA
ATOM     10  H   UNL     1      -8.854  43.838   8.713  1.00  0.00     0.293 HD
ENDBRANCH   3   9
TORSDOF 2
ENDMDL
MODEL 6
REMARK VINA RESULT:    -3.480     11.563     13.214
REMARK INTER + INTRA:          -3.854
REMARK INTER:                  -3.779
REMARK INTRA:                  -0.075
REMARK UNBOUND:                -0.069
REMARK SMILES CCc1cccc(O)c1
REMARK SMILES IDX 3 1 9 2 7 3 6 4 5 5 4 6 2 7 1 8 8 9
REMARK H PARENT 8 10
REMARK Flexibility Score: inf
ROOT
ATOM      1  C   UNL     1     -18.867  28.153  21.677  1.00  0.00    -0.045 A 
ATOM      2  C   UNL     1     -19.486  27.056  21.055  1.00  0.00     0.049 A 
ATOM      3  C   UNL     1     -20.297  27.246  19.930  1.00  0.00     0.115 A 
ATOM      4  C   UNL     1     -20.499  28.540  19.427  1.00  0.00     0.046 A 
ATOM      5  C   UNL     1     -19.896  29.635  20.051  1.00  0.00     0.004 A 
ATOM      6  C   UNL     1     -19.086  29.446  21.174  1.00  0.00     0.004 A 
ENDROOT
BRANCH   1   7
ATOM      7  C   UNL     1     -18.022  27.949  22.906  1.00  0.00     0.032 C 
ATOM      8  C   UNL     1     -17.294  29.237  23.280  1.00  0.00     0.009 C 
ENDBRANCH   1   7
BRANCH   3   9
ATOM      9  O   UNL     1     -20.898  26.147  19.321  1.00  0.00    -0.508 OA
ATOM     10  H   UNL     1     -20.802  25.974  18.327  1.00  0.00     0.293 HD
ENDBRANCH   3   9
TORSDOF 2
ENDMDL
MODEL 7
REMARK VINA RESULT:    -3.441     11.231     12.548
REMARK INTER + INTRA:          -3.811
REMARK INTER:                  -3.747
REMARK INTRA:                  -0.064
REMARK UNBOUND:                -0.069
REMARK SMILES CCc1cccc(O)c1
REMARK SMILES IDX 3 1 9 2 7 3 6 4 5 5 4 6 2 7 1 8 8 9
REMARK H PARENT 8 10
REMARK Flexibility Score: inf
ROOT
ATOM      1  C   UNL     1     -21.716  30.483  21.150  1.00  0.00    -0.045 A 
ATOM      2  C   UNL     1     -22.496  29.629  20.352  1.00  0.00     0.049 A 
ATOM      3  C   UNL     1     -21.885  28.694  19.509  1.00  0.00     0.115 A 
ATOM      4  C   UNL     1     -20.486  28.615  19.454  1.00  0.00     0.046 A 
ATOM      5  C   UNL     1     -19.705  29.470  20.235  1.00  0.00     0.004 A 
ATOM      6  C   UNL     1     -20.315  30.405  21.077  1.00  0.00     0.004 A 
ENDROOT
BRANCH   1   7
ATOM      7  C   UNL     1     -22.374  31.510  22.031  1.00  0.00     0.032 C 
ATOM      8  C   UNL     1     -21.974  32.920  21.608  1.00  0.00     0.009 C 
ENDBRANCH   1   7
BRANCH   3   9
ATOM      9  O   UNL     1     -22.675  27.851  18.730  1.00  0.00    -0.508 OA
ATOM     10  H   UNL     1     -23.619  27.604  19.007  1.00  0.00     0.293 HD
ENDBRANCH   3   9
TORSDOF 2
ENDMDL
MODEL 8
REMARK VINA RESULT:    -3.391     12.999     14.381
REMARK INTER + INTRA:          -3.757
REMARK INTER:                  -3.711
REMARK INTRA:                  -0.047
REMARK UNBOUND:                -0.069
REMARK SMILES CCc1cccc(O)c1
REMARK SMILES IDX 3 1 9 2 7 3 6 4 5 5 4 6 2 7 1 8 8 9
REMARK H PARENT 8 10
REMARK Flexibility Score: inf
ROOT
ATOM      1  C   UNL     1     -19.501  29.606  21.240  1.00  0.00    -0.045 A 
ATOM      2  C   UNL     1     -18.436  28.891  21.814  1.00  0.00     0.049 A 
ATOM      3  C   UNL     1     -17.926  29.264  23.063  1.00  0.00     0.115 A 
ATOM      4  C   UNL     1     -18.474  30.364  23.739  1.00  0.00     0.046 A 
ATOM      5  C   UNL     1     -19.523  31.087  23.166  1.00  0.00     0.004 A 
ATOM      6  C   UNL     1     -20.033  30.714  21.919  1.00  0.00     0.004 A 
ENDROOT
BRANCH   1   7
ATOM      7  C   UNL     1     -20.027  29.223  19.882  1.00  0.00     0.032 C 
ATOM      8  C   UNL     1     -20.360  27.735  19.833  1.00  0.00     0.009 C 
ENDBRANCH   1   7
BRANCH   3   9
ATOM      9  O   UNL     1     -16.875  28.540  23.620  1.00  0.00    -0.508 OA
ATOM     10  H   UNL     1     -16.291  28.931  24.350  1.00  0.00     0.293 HD
ENDBRANCH   3   9
TORSDOF 2
ENDMDL
MODEL 9
REMARK VINA RESULT:    -3.336      3.389      5.505
REMARK INTER + INTRA:          -3.698
REMARK INTER:                  -3.651
REMARK INTRA:                  -0.047
REMARK UNBOUND:                -0.069
REMARK SMILES CCc1cccc(O)c1
REMARK SMILES IDX 3 1 9 2 7 3 6 4 5 5 4 6 2 7 1 8 8 9
REMARK H PARENT 8 10
REMARK Flexibility Score: inf
ROOT
ATOM      1  C   UNL     1     -21.759  23.623  13.209  1.00  0.00    -0.045 A 
ATOM      2  C   UNL     1     -21.344  24.354  12.083  1.00  0.00     0.049 A 
ATOM      3  C   UNL     1     -22.289  24.921  11.221  1.00  0.00     0.115 A 
ATOM      4  C   UNL     1     -23.657  24.751  11.477  1.00  0.00     0.046 A 
ATOM      5  C   UNL     1     -24.075  24.014  12.588  1.00  0.00     0.004 A 
ATOM      6  C   UNL     1     -23.132  23.447  13.449  1.00  0.00     0.004 A 
ENDROOT
BRANCH   1   7
ATOM      7  C   UNL     1     -20.741  22.986  14.117  1.00  0.00     0.032 C 
ATOM      8  C   UNL     1     -19.702  24.009  14.565  1.00  0.00     0.009 C 
ENDBRANCH   1   7
BRANCH   3   9
ATOM      9  O   UNL     1     -21.859  25.648  10.113  1.00  0.00    -0.508 OA
ATOM     10  H   UNL     1     -22.470  26.307   9.643  1.00  0.00     0.293 HD
ENDBRANCH   3   9
TORSDOF 2
ENDMDL
