MODEL 1
REMARK VINA RESULT:    -4.762      0.000      0.000
REMARK INTER + INTRA:          -5.283
REMARK INTER:                  -5.180
REMARK INTRA:                  -0.103
REMARK UNBOUND:                -0.103
REMARK SMILES Cc1ccc(C(C)C)cc1O
REMARK SMILES IDX 1 1 2 2 10 3 9 4 5 5 4 6 3 7 11 8 6 10 7 11 8 12
REMARK H PARENT 11 9
REMARK Flexibility Score: inf
ROOT
ATOM      1  C   UNL     1      -8.887  22.808 -10.848  1.00  0.00     0.048 C 
ATOM      2  C   UNL     1      -7.635  22.242 -10.237  1.00  0.00    -0.009 A 
ATOM      3  C   UNL     1      -7.709  21.149  -9.356  1.00  0.00     0.118 A 
ATOM      4  C   UNL     1      -6.537  20.626  -8.790  1.00  0.00     0.050 A 
ATOM      5  C   UNL     1      -5.283  21.182  -9.094  1.00  0.00    -0.042 A 
ATOM      6  C   UNL     1      -5.220  22.276  -9.977  1.00  0.00     0.004 A 
ATOM      7  C   UNL     1      -6.384  22.800 -10.542  1.00  0.00     0.007 A 
ENDROOT
BRANCH   3   8
ATOM      8  O   UNL     1      -8.946  20.585  -9.045  1.00  0.00    -0.508 OA
ATOM      9  H   UNL     1      -9.138  20.198  -8.129  1.00  0.00     0.293 HD
ENDBRANCH   3   8
BRANCH   5  10
ATOM     10  C   UNL     1      -4.025  20.604  -8.474  1.00  0.00     0.013 C 
ATOM     11  C   UNL     1      -3.779  21.186  -7.077  1.00  0.00     0.012 C 
ATOM     12  C   UNL     1      -4.084  19.071  -8.430  1.00  0.00     0.012 C 
ENDBRANCH   5  10
TORSDOF 2
ENDMDL
MODEL 2
REMARK VINA RESULT:    -4.370      1.638      2.347
REMARK INTER + INTRA:          -4.856
REMARK INTER:                  -4.731
REMARK INTRA:                  -0.125
REMARK UNBOUND:                -0.103
REMARK SMILES Cc1ccc(C(C)C)cc1O
REMARK SMILES IDX 1 1 2 2 10 3 9 4 5 5 4 6 3 7 11 8 6 10 7 11 8 12
REMARK H PARENT 11 9
REMARK Flexibility Score: inf
ROOT
ATOM      1  C   UNL     1     -10.148  21.797  -7.177  1.00  0.00     0.048 C 
ATOM      2  C   UNL     1      -8.755  21.457  -7.626  1.00  0.00    -0.009 A 
ATOM      3  C   UNL     1      -8.518  21.040  -8.948  1.00  0.00     0.118 A 
ATOM      4  C   UNL     1      -7.215  20.725  -9.361  1.00  0.00     0.050 A 
ATOM      5  C   UNL     1      -6.136  20.820  -8.465  1.00  0.00    -0.042 A 
ATOM      6  C   UNL     1      -6.383  21.238  -7.145  1.00  0.00     0.004 A 
ATOM      7  C   UNL     1      -7.679  21.552  -6.730  1.00  0.00     0.007 A 
ENDROOT
BRANCH   3   8
ATOM      8  O   UNL     1      -9.579  20.941  -9.849  1.00  0.00    -0.508 OA
ATOM      9  H   UNL     1     -10.288  21.662  -9.916  1.00  0.00     0.293 HD
ENDBRANCH   3   8
BRANCH   5  10
ATOM     10  C   UNL     1      -4.733  20.475  -8.928  1.00  0.00     0.013 C 
ATOM     11  C   UNL     1      -3.765  21.637  -8.674  1.00  0.00     0.012 C 
ATOM     12  C   UNL     1      -4.233  19.186  -8.263  1.00  0.00     0.012 C 
ENDBRANCH   5  10
TORSDOF 2
ENDMDL
MODEL 3
REMARK VINA RESULT:    -4.338      1.837      4.375
REMARK INTER + INTRA:          -4.821
REMARK INTER:                  -4.694
REMARK INTRA:                  -0.126
REMARK UNBOUND:                -0.103
REMARK SMILES Cc1ccc(C(C)C)cc1O
REMARK SMILES IDX 1 1 2 2 10 3 9 4 5 5 4 6 3 7 11 8 6 10 7 11 8 12
REMARK H PARENT 11 9
REMARK Flexibility Score: inf
ROOT
ATOM      1  C   UNL     1      -6.319  19.714  -9.524  1.00  0.00     0.048 C 
ATOM      2  C   UNL     1      -6.836  21.101  -9.780  1.00  0.00    -0.009 A 
ATOM      3  C   UNL     1      -8.152  21.445  -9.421  1.00  0.00     0.118 A 
ATOM      4  C   UNL     1      -8.628  22.742  -9.662  1.00  0.00     0.050 A 
ATOM      5  C   UNL     1      -7.803  23.710 -10.260  1.00  0.00    -0.042 A 
ATOM      6  C   UNL     1      -6.488  23.356 -10.616  1.00  0.00     0.004 A 
ATOM      7  C   UNL     1      -6.011  22.066 -10.378  1.00  0.00     0.007 A 
ENDROOT
BRANCH   3   8
ATOM      8  O   UNL     1      -8.983  20.496  -8.825  1.00  0.00    -0.508 OA
ATOM      9  H   UNL     1      -9.615  20.742  -8.073  1.00  0.00     0.293 HD
ENDBRANCH   3   8
BRANCH   5  10
ATOM     10  C   UNL     1      -8.333  25.108 -10.514  1.00  0.00     0.013 C 
ATOM     11  C   UNL     1      -9.351  25.516  -9.442  1.00  0.00     0.012 C 
ATOM     12  C   UNL     1      -7.189  26.126 -10.603  1.00  0.00     0.012 C 
ENDBRANCH   5  10
TORSDOF 2
ENDMDL
MODEL 4
REMARK VINA RESULT:    -4.330      1.602      2.548
REMARK INTER + INTRA:          -4.812
REMARK INTER:                  -4.686
REMARK INTRA:                  -0.127
REMARK UNBOUND:                -0.103
REMARK SMILES Cc1ccc(C(C)C)cc1O
REMARK SMILES IDX 1 1 2 2 10 3 9 4 5 5 4 6 3 7 11 8 6 10 7 11 8 12
REMARK H PARENT 11 9
REMARK Flexibility Score: inf
ROOT
ATOM      1  C   UNL     1     -10.531  21.711  -9.894  1.00  0.00     0.048 C 
ATOM      2  C   UNL     1      -9.033  21.806  -9.815  1.00  0.00    -0.009 A 
ATOM      3  C   UNL     1      -8.345  22.784 -10.554  1.00  0.00     0.118 A 
ATOM      4  C   UNL     1      -6.946  22.867 -10.475  1.00  0.00     0.050 A 
ATOM      5  C   UNL     1      -6.220  21.981  -9.662  1.00  0.00    -0.042 A 
ATOM      6  C   UNL     1      -6.918  21.006  -8.926  1.00  0.00     0.004 A 
ATOM      7  C   UNL     1      -8.310  20.920  -9.003  1.00  0.00     0.007 A 
ENDROOT
BRANCH   3   8
ATOM      8  O   UNL     1      -9.052  23.672 -11.366  1.00  0.00    -0.508 OA
ATOM      9  H   UNL     1      -9.108  24.660 -11.150  1.00  0.00     0.293 HD
ENDBRANCH   3   8
BRANCH   5  10
ATOM     10  C   UNL     1      -4.708  22.085  -9.587  1.00  0.00     0.013 C 
ATOM     11  C   UNL     1      -4.261  23.542  -9.425  1.00  0.00     0.012 C 
ATOM     12  C   UNL     1      -4.149  21.208  -8.460  1.00  0.00     0.012 C 
ENDBRANCH   5  10
TORSDOF 2
ENDMDL
MODEL 5
REMARK VINA RESULT:    -4.273      2.086      4.609
REMARK INTER + INTRA:          -4.751
REMARK INTER:                  -4.625
REMARK INTRA:                  -0.126
REMARK UNBOUND:                -0.103
REMARK SMILES Cc1ccc(C(C)C)cc1O
REMARK SMILES IDX 1 1 2 2 10 3 9 4 5 5 4 6 3 7 11 8 6 10 7 11 8 12
REMARK H PARENT 11 9
REMARK Flexibility Score: inf
ROOT
ATOM      1  C   UNL     1      -4.142  19.004  -8.393  1.00  0.00     0.048 C 
ATOM      2  C   UNL     1      -4.965  20.160  -8.889  1.00  0.00    -0.009 A 
ATOM      3  C   UNL     1      -4.435  21.462  -8.879  1.00  0.00     0.118 A 
ATOM      4  C   UNL     1      -5.208  22.537  -9.344  1.00  0.00     0.050 A 
ATOM      5  C   UNL     1      -6.512  22.328  -9.823  1.00  0.00    -0.042 A 
ATOM      6  C   UNL     1      -7.033  21.021  -9.829  1.00  0.00     0.004 A 
ATOM      7  C   UNL     1      -6.267  19.949  -9.367  1.00  0.00     0.007 A 
ENDROOT
BRANCH   3   8
ATOM      8  O   UNL     1      -3.141  21.686  -8.407  1.00  0.00    -0.508 OA
ATOM      9  H   UNL     1      -2.823  21.298  -7.527  1.00  0.00     0.293 HD
ENDBRANCH   3   8
BRANCH   5  10
ATOM     10  C   UNL     1      -7.334  23.501 -10.323  1.00  0.00     0.013 C 
ATOM     11  C   UNL     1      -8.633  23.025 -10.983  1.00  0.00     0.012 C 
ATOM     12  C   UNL     1      -7.624  24.495  -9.191  1.00  0.00     0.012 C 
ENDBRANCH   5  10
TORSDOF 2
ENDMDL
MODEL 6
REMARK VINA RESULT:    -4.199      1.856      2.547
REMARK INTER + INTRA:          -4.669
REMARK INTER:                  -4.548
REMARK INTRA:                  -0.121
REMARK UNBOUND:                -0.103
REMARK SMILES Cc1ccc(C(C)C)cc1O
REMARK SMILES IDX 1 1 2 2 10 3 9 4 5 5 4 6 3 7 11 8 6 10 7 11 8 12
REMARK H PARENT 11 9
REMARK Flexibility Score: inf
ROOT
ATOM      1  C   UNL     1      -8.611  25.601 -10.785  1.00  0.00     0.048 C 
ATOM      2  C   UNL     1      -7.934  24.369 -10.255  1.00  0.00    -0.009 A 
ATOM      3  C   UNL     1      -8.276  23.101 -10.756  1.00  0.00     0.118 A 
ATOM      4  C   UNL     1      -7.639  21.954 -10.258  1.00  0.00     0.050 A 
ATOM      5  C   UNL     1      -6.657  22.057  -9.258  1.00  0.00    -0.042 A 
ATOM      6  C   UNL     1      -6.322  23.330  -8.762  1.00  0.00     0.004 A 
ATOM      7  C   UNL     1      -6.954  24.474  -9.256  1.00  0.00     0.007 A 
ENDROOT
BRANCH   3   8
ATOM      8  O   UNL     1      -9.249  22.982 -11.750  1.00  0.00    -0.508 OA
ATOM      9  H   UNL     1      -9.182  22.280 -12.477  1.00  0.00     0.293 HD
ENDBRANCH   3   8
BRANCH   5  10
ATOM     10  C   UNL     1      -5.978  20.808  -8.730  1.00  0.00     0.013 C 
ATOM     11  C   UNL     1      -6.366  19.576  -9.556  1.00  0.00     0.012 C 
ATOM     12  C   UNL     1      -4.455  20.983  -8.684  1.00  0.00     0.012 C 
ENDBRANCH   5  10
TORSDOF 2
ENDMDL
MODEL 7
REMARK VINA RESULT:    -4.167      1.445      4.174
REMARK INTER + INTRA:          -4.635
REMARK INTER:                  -4.519
REMARK INTRA:                  -0.116
REMARK UNBOUND:                -0.103
REMARK SMILES Cc1ccc(C(C)C)cc1O
REMARK SMILES IDX 1 1 2 2 10 3 9 4 5 5 4 6 3 7 11 8 6 10 7 11 8 12
REMARK H PARENT 11 9
REMARK Flexibility Score: inf
ROOT
ATOM      1  C   UNL     1      -4.108  19.216  -8.393  1.00  0.00     0.048 C 
ATOM      2  C   UNL     1      -4.933  20.380  -8.866  1.00  0.00    -0.009 A 
ATOM      3  C   UNL     1      -6.193  20.164  -9.452  1.00  0.00     0.118 A 
ATOM      4  C   UNL     1      -6.958  21.256  -9.891  1.00  0.00     0.050 A 
ATOM      5  C   UNL     1      -6.479  22.569  -9.752  1.00  0.00    -0.042 A 
ATOM      6  C   UNL     1      -5.217  22.775  -9.165  1.00  0.00     0.004 A 
ATOM      7  C   UNL     1      -4.452  21.691  -8.728  1.00  0.00     0.007 A 
ENDROOT
BRANCH   3   8
ATOM      8  O   UNL     1      -6.683  18.866  -9.596  1.00  0.00    -0.508 OA
ATOM      9  H   UNL     1      -6.062  18.067  -9.648  1.00  0.00     0.293 HD
ENDBRANCH   3   8
BRANCH   5  10
ATOM     10  C   UNL     1      -7.318  23.738 -10.232  1.00  0.00     0.013 C 
ATOM     11  C   UNL     1      -8.578  23.253 -10.960  1.00  0.00     0.012 C 
ATOM     12  C   UNL     1      -7.678  24.674  -9.071  1.00  0.00     0.012 C 
ENDBRANCH   5  10
TORSDOF 2
ENDMDL
MODEL 8
REMARK VINA RESULT:    -4.126      1.403      4.119
REMARK INTER + INTRA:          -4.591
REMARK INTER:                  -4.465
REMARK INTRA:                  -0.125
REMARK UNBOUND:                -0.103
REMARK SMILES Cc1ccc(C(C)C)cc1O
REMARK SMILES IDX 1 1 2 2 10 3 9 4 5 5 4 6 3 7 11 8 6 10 7 11 8 12
REMARK H PARENT 11 9
REMARK Flexibility Score: inf
ROOT
ATOM      1  C   UNL     1      -4.095  19.340  -8.422  1.00  0.00     0.048 C 
ATOM      2  C   UNL     1      -5.078  20.411  -8.806  1.00  0.00    -0.009 A 
ATOM      3  C   UNL     1      -6.287  20.069  -9.437  1.00  0.00     0.118 A 
ATOM      4  C   UNL     1      -7.200  21.073  -9.792  1.00  0.00     0.050 A 
ATOM      5  C   UNL     1      -6.922  22.424  -9.522  1.00  0.00    -0.042 A 
ATOM      6  C   UNL     1      -5.709  22.756  -8.890  1.00  0.00     0.004 A 
ATOM      7  C   UNL     1      -4.797  21.759  -8.536  1.00  0.00     0.007 A 
ENDROOT
BRANCH   3   8
ATOM      8  O   UNL     1      -6.578  18.732  -9.711  1.00  0.00    -0.508 OA
ATOM      9  H   UNL     1      -7.463  18.455 -10.119  1.00  0.00     0.293 HD
ENDBRANCH   3   8
BRANCH   5  10
ATOM     10  C   UNL     1      -7.920  23.498  -9.912  1.00  0.00     0.013 C 
ATOM     11  C   UNL     1      -7.209  24.797 -10.309  1.00  0.00     0.012 C 
ATOM     12  C   UNL     1      -8.846  23.010 -11.034  1.00  0.00     0.012 C 
ENDBRANCH   5  10
TORSDOF 2
ENDMDL
MODEL 9
REMARK VINA RESULT:    -4.110      2.245      4.621
REMARK INTER + INTRA:          -4.573
REMARK INTER:                  -4.446
REMARK INTRA:                  -0.126
REMARK UNBOUND:                -0.103
REMARK SMILES Cc1ccc(C(C)C)cc1O
REMARK SMILES IDX 1 1 2 2 10 3 9 4 5 5 4 6 3 7 11 8 6 10 7 11 8 12
REMARK H PARENT 11 9
REMARK Flexibility Score: inf
ROOT
ATOM      1  C   UNL     1      -4.115  19.547  -8.533  1.00  0.00     0.048 C 
ATOM      2  C   UNL     1      -5.467  20.197  -8.451  1.00  0.00    -0.009 A 
ATOM      3  C   UNL     1      -5.824  20.950  -7.320  1.00  0.00     0.118 A 
ATOM      4  C   UNL     1      -7.088  21.555  -7.250  1.00  0.00     0.050 A 
ATOM      5  C   UNL     1      -8.009  21.416  -8.303  1.00  0.00    -0.042 A 
ATOM      6  C   UNL     1      -7.642  20.660  -9.431  1.00  0.00     0.004 A 
ATOM      7  C   UNL     1      -6.385  20.056  -9.504  1.00  0.00     0.007 A 
ENDROOT
BRANCH   3   8
ATOM      8  O   UNL     1      -4.921  21.098  -6.266  1.00  0.00    -0.508 OA
ATOM      9  H   UNL     1      -4.374  21.942  -6.150  1.00  0.00     0.293 HD
ENDBRANCH   3   8
BRANCH   5  10
ATOM     10  C   UNL     1      -9.371  22.076  -8.212  1.00  0.00     0.013 C 
ATOM     11  C   UNL     1     -10.165  21.890  -9.511  1.00  0.00     0.012 C 
ATOM     12  C   UNL     1     -10.160  21.553  -7.005  1.00  0.00     0.012 C 
ENDBRANCH   5  10
TORSDOF 2
ENDMDL
