MODEL 1
REMARK VINA RESULT:    -3.367      0.000      0.000
REMARK INTER + INTRA:          -9.085
REMARK INTER:                  -6.319
REMARK INTRA:                  -2.766
REMARK UNBOUND:                -2.766
REMARK SMILES CCCCCCCCC=CCCCCCCCC(=O)[O-]
REMARK SMILES IDX 10 1 9 2 11 3 12 4 13 5 14 6 15 7 16 8 17 9 18 10 19 11
REMARK SMILES IDX 20 12 8 13 7 14 6 15 5 16 4 17 3 18 2 19 1 20
REMARK H PARENT
REMARK Flexibility Score: inf
ROOT
ATOM      1  C   UNL     1      17.138 -12.603  -2.690  1.00  0.00    -0.031 C 
ATOM      2  C   UNL     1      16.797 -13.866  -2.990  1.00  0.00    -0.031 C 
ENDROOT
BRANCH   1   3
ATOM      3  C   UNL     1      16.866 -11.469  -3.638  1.00  0.00     0.027 C 
BRANCH   3   4
ATOM      4  C   UNL     1      16.444 -10.203  -2.879  1.00  0.00     0.004 C 
BRANCH   4   5
ATOM      5  C   UNL     1      16.410 -10.456  -1.365  1.00  0.00     0.000 C 
BRANCH   5   6
ATOM      6  C   UNL     1      15.166  -9.856  -0.691  1.00  0.00     0.000 C 
BRANCH   6   7
ATOM      7  C   UNL     1      15.138  -8.321  -0.761  1.00  0.00     0.000 C 
BRANCH   7   8
ATOM      8  C   UNL     1      13.758  -7.817  -1.209  1.00  0.00     0.006 C 
BRANCH   8   9
ATOM      9  C   UNL     1      13.605  -7.821  -2.736  1.00  0.00     0.053 C 
BRANCH   9  10
ATOM     10  C   UNL     1      12.191  -7.558  -3.153  1.00  0.00     0.041 C 
ATOM     11  O   UNL     1      11.797  -6.380  -3.355  1.00  0.00    -0.550 OA
ATOM     12  O   UNL     1      11.297  -8.614  -3.286  1.00  0.00    -0.550 OA
ENDBRANCH   9  10
ENDBRANCH   8   9
ENDBRANCH   7   8
ENDBRANCH   6   7
ENDBRANCH   5   6
ENDBRANCH   4   5
ENDBRANCH   3   4
ENDBRANCH   1   3
BRANCH   2  13
ATOM     13  C   UNL     1      17.050 -14.999  -2.034  1.00  0.00     0.027 C 
BRANCH  13  14
ATOM     14  C   UNL     1      16.901 -14.535  -0.577  1.00  0.00     0.004 C 
BRANCH  14  15
ATOM     15  C   UNL     1      15.473 -14.725  -0.039  1.00  0.00     0.000 C 
BRANCH  15  16
ATOM     16  C   UNL     1      14.715 -13.398   0.111  1.00  0.00     0.000 C 
BRANCH  16  17
ATOM     17  C   UNL     1      13.379 -13.441  -0.646  1.00  0.00    -0.000 C 
BRANCH  17  18
ATOM     18  C   UNL     1      13.435 -12.715  -2.003  1.00  0.00    -0.000 C 
BRANCH  18  19
ATOM     19  C   UNL     1      13.148 -13.604  -3.226  1.00  0.00    -0.003 C 
ATOM     20  C   UNL     1      13.134 -15.095  -2.891  1.00  0.00     0.004 C 
ENDBRANCH  18  19
ENDBRANCH  17  18
ENDBRANCH  16  17
ENDBRANCH  15  16
ENDBRANCH  14  15
ENDBRANCH  13  14
ENDBRANCH   2  13
TORSDOF 15
ENDMDL
MODEL 2
REMARK VINA RESULT:    -3.352      1.652      3.295
REMARK INTER + INTRA:          -9.058
REMARK INTER:                  -6.220
REMARK INTRA:                  -2.838
REMARK UNBOUND:                -2.766
REMARK SMILES CCCCCCCCC=CCCCCCCCC(=O)[O-]
REMARK SMILES IDX 10 1 9 2 11 3 12 4 13 5 14 6 15 7 16 8 17 9 18 10 19 11
REMARK SMILES IDX 20 12 8 13 7 14 6 15 5 16 4 17 3 18 2 19 1 20
REMARK H PARENT
REMARK Flexibility Score: inf
ROOT
ATOM      1  C   UNL     1      15.903 -10.795  -2.508  1.00  0.00    -0.031 C 
ATOM      2  C   UNL     1      16.628 -11.538  -3.359  1.00  0.00    -0.031 C 
ENDROOT
BRANCH   1   3
ATOM      3  C   UNL     1      16.488  -9.596  -1.815  1.00  0.00     0.027 C 
BRANCH   3   4
ATOM      4  C   UNL     1      15.487  -8.989  -0.821  1.00  0.00     0.004 C 
BRANCH   4   5
ATOM      5  C   UNL     1      14.634 -10.084  -0.164  1.00  0.00     0.000 C 
BRANCH   5   6
ATOM      6  C   UNL     1      13.126  -9.809  -0.278  1.00  0.00     0.000 C 
BRANCH   6   7
ATOM      7  C   UNL     1      12.481 -10.538  -1.468  1.00  0.00     0.000 C 
BRANCH   7   8
ATOM      8  C   UNL     1      11.555  -9.596  -2.252  1.00  0.00     0.006 C 
BRANCH   8   9
ATOM      9  C   UNL     1      11.674  -8.140  -1.782  1.00  0.00     0.053 C 
BRANCH   9  10
ATOM     10  C   UNL     1      12.261  -7.261  -2.844  1.00  0.00     0.041 C 
ATOM     11  O   UNL     1      13.401  -7.510  -3.316  1.00  0.00    -0.550 OA
ATOM     12  O   UNL     1      11.561  -6.146  -3.288  1.00  0.00    -0.550 OA
ENDBRANCH   9  10
ENDBRANCH   8   9
ENDBRANCH   7   8
ENDBRANCH   6   7
ENDBRANCH   5   6
ENDBRANCH   4   5
ENDBRANCH   3   4
ENDBRANCH   1   3
BRANCH   2  13
ATOM     13  C   UNL     1      16.039 -12.726  -4.067  1.00  0.00     0.027 C 
BRANCH  13  14
ATOM     14  C   UNL     1      14.757 -13.204  -3.369  1.00  0.00     0.004 C 
BRANCH  14  15
ATOM     15  C   UNL     1      14.993 -14.434  -2.476  1.00  0.00     0.000 C 
BRANCH  15  16
ATOM     16  C   UNL     1      14.797 -14.130  -0.984  1.00  0.00     0.000 C 
BRANCH  16  17
ATOM     17  C   UNL     1      16.106 -14.333  -0.207  1.00  0.00    -0.000 C 
BRANCH  17  18
ATOM     18  C   UNL     1      16.682 -13.019   0.353  1.00  0.00    -0.000 C 
BRANCH  18  19
ATOM     19  C   UNL     1      18.086 -12.655  -0.160  1.00  0.00    -0.003 C 
ATOM     20  C   UNL     1      18.670 -11.417   0.519  1.00  0.00     0.004 C 
ENDBRANCH  18  19
ENDBRANCH  17  18
ENDBRANCH  16  17
ENDBRANCH  15  16
ENDBRANCH  14  15
ENDBRANCH  13  14
ENDBRANCH   2  13
TORSDOF 15
ENDMDL
MODEL 3
REMARK VINA RESULT:    -3.348      4.898      7.738
REMARK INTER + INTRA:          -9.050
REMARK INTER:                  -6.871
REMARK INTRA:                  -2.179
REMARK UNBOUND:                -2.766
REMARK SMILES CCCCCCCCC=CCCCCCCCC(=O)[O-]
REMARK SMILES IDX 10 1 9 2 11 3 12 4 13 5 14 6 15 7 16 8 17 9 18 10 19 11
REMARK SMILES IDX 20 12 8 13 7 14 6 15 5 16 4 17 3 18 2 19 1 20
REMARK H PARENT
REMARK Flexibility Score: inf
ROOT
ATOM      1  C   UNL     1      16.855 -13.851  -3.036  1.00  0.00    -0.031 C 
ATOM      2  C   UNL     1      17.190 -12.605  -2.670  1.00  0.00    -0.031 C 
ENDROOT
BRANCH   1   3
ATOM      3  C   UNL     1      17.138 -15.034  -2.152  1.00  0.00     0.027 C 
BRANCH   3   4
ATOM      4  C   UNL     1      17.150 -14.628  -0.672  1.00  0.00     0.004 C 
BRANCH   4   5
ATOM      5  C   UNL     1      16.031 -15.339   0.102  1.00  0.00     0.000 C 
BRANCH   5   6
ATOM      6  C   UNL     1      16.515 -16.616   0.806  1.00  0.00     0.000 C 
BRANCH   6   7
ATOM      7  C   UNL     1      16.071 -17.896   0.080  1.00  0.00     0.000 C 
BRANCH   7   8
ATOM      8  C   UNL     1      17.210 -18.925   0.033  1.00  0.00     0.006 C 
BRANCH   8   9
ATOM      9  C   UNL     1      18.561 -18.281  -0.305  1.00  0.00     0.053 C 
BRANCH   9  10
ATOM     10  C   UNL     1      19.452 -19.222  -1.056  1.00  0.00     0.041 C 
ATOM     11  O   UNL     1      20.673 -19.311  -0.763  1.00  0.00    -0.550 OA
ATOM     12  O   UNL     1      18.940 -19.978  -2.103  1.00  0.00    -0.550 OA
ENDBRANCH   9  10
ENDBRANCH   8   9
ENDBRANCH   7   8
ENDBRANCH   6   7
ENDBRANCH   5   6
ENDBRANCH   4   5
ENDBRANCH   3   4
ENDBRANCH   1   3
BRANCH   2  13
ATOM     13  C   UNL     1      16.890 -11.419  -3.545  1.00  0.00     0.027 C 
BRANCH  13  14
ATOM     14  C   UNL     1      16.688 -10.150  -2.704  1.00  0.00     0.004 C 
BRANCH  14  15
ATOM     15  C   UNL     1      15.856 -10.406  -1.436  1.00  0.00     0.000 C 
BRANCH  15  16
ATOM     16  C   UNL     1      14.398 -10.769  -1.749  1.00  0.00     0.000 C 
BRANCH  16  17
ATOM     17  C   UNL     1      14.002 -12.086  -1.064  1.00  0.00    -0.000 C 
BRANCH  17  18
ATOM     18  C   UNL     1      12.844 -12.809  -1.777  1.00  0.00    -0.000 C 
BRANCH  18  19
ATOM     19  C   UNL     1      13.261 -13.657  -2.992  1.00  0.00    -0.003 C 
ATOM     20  C   UNL     1      13.419 -15.140  -2.661  1.00  0.00     0.004 C 
ENDBRANCH  18  19
ENDBRANCH  17  18
ENDBRANCH  16  17
ENDBRANCH  15  16
ENDBRANCH  14  15
ENDBRANCH  13  14
ENDBRANCH   2  13
TORSDOF 15
ENDMDL
MODEL 4
REMARK VINA RESULT:    -3.254      6.051      9.698
REMARK INTER + INTRA:          -8.874
REMARK INTER:                  -7.656
REMARK INTRA:                  -1.218
REMARK UNBOUND:                -2.766
REMARK SMILES CCCCCCCCC=CCCCCCCCC(=O)[O-]
REMARK SMILES IDX 10 1 9 2 11 3 12 4 13 5 14 6 15 7 16 8 17 9 18 10 19 11
REMARK SMILES IDX 20 12 8 13 7 14 6 15 5 16 4 17 3 18 2 19 1 20
REMARK H PARENT
REMARK Flexibility Score: inf
ROOT
ATOM      1  C   UNL     1      18.388 -18.106  -0.135  1.00  0.00    -0.031 C 
ATOM      2  C   UNL     1      17.490 -17.173  -0.485  1.00  0.00    -0.031 C 
ENDROOT
BRANCH   1   3
ATOM      3  C   UNL     1      18.670 -19.296  -1.009  1.00  0.00     0.027 C 
BRANCH   3   4
ATOM      4  C   UNL     1      18.529 -20.606  -0.223  1.00  0.00     0.004 C 
BRANCH   4   5
ATOM      5  C   UNL     1      19.268 -21.753  -0.929  1.00  0.00     0.000 C 
BRANCH   5   6
ATOM      6  C   UNL     1      18.358 -22.549  -1.878  1.00  0.00     0.000 C 
BRANCH   6   7
ATOM      7  C   UNL     1      18.461 -22.071  -3.335  1.00  0.00     0.000 C 
BRANCH   7   8
ATOM      8  C   UNL     1      17.119 -21.503  -3.822  1.00  0.00     0.006 C 
BRANCH   8   9
ATOM      9  C   UNL     1      15.983 -21.756  -2.821  1.00  0.00     0.053 C 
BRANCH   9  10
ATOM     10  C   UNL     1      14.641 -21.470  -3.421  1.00  0.00     0.041 C 
ATOM     11  O   UNL     1      14.105 -20.341  -3.269  1.00  0.00    -0.550 OA
ATOM     12  O   UNL     1      13.966 -22.463  -4.121  1.00  0.00    -0.550 OA
ENDBRANCH   9  10
ENDBRANCH   8   9
ENDBRANCH   7   8
ENDBRANCH   6   7
ENDBRANCH   5   6
ENDBRANCH   4   5
ENDBRANCH   3   4
ENDBRANCH   1   3
BRANCH   2  13
ATOM     13  C   UNL     1      17.222 -15.973   0.380  1.00  0.00     0.027 C 
BRANCH  13  14
ATOM     14  C   UNL     1      17.113 -14.696  -0.467  1.00  0.00     0.004 C 
BRANCH  14  15
ATOM     15  C   UNL     1      16.491 -14.954  -1.850  1.00  0.00     0.000 C 
BRANCH  15  16
ATOM     16  C   UNL     1      17.115 -14.085  -2.951  1.00  0.00     0.000 C 
BRANCH  16  17
ATOM     17  C   UNL     1      16.155 -12.962  -3.372  1.00  0.00    -0.000 C 
BRANCH  17  18
ATOM     18  C   UNL     1      16.874 -11.626  -3.639  1.00  0.00    -0.000 C 
BRANCH  18  19
ATOM     19  C   UNL     1      16.501 -10.486  -2.674  1.00  0.00    -0.003 C 
ATOM     20  C   UNL     1      16.785 -10.824  -1.211  1.00  0.00     0.004 C 
ENDBRANCH  18  19
ENDBRANCH  17  18
ENDBRANCH  16  17
ENDBRANCH  15  16
ENDBRANCH  14  15
ENDBRANCH  13  14
ENDBRANCH   2  13
TORSDOF 15
ENDMDL
MODEL 5
REMARK VINA RESULT:    -3.177      1.536      3.884
REMARK INTER + INTRA:          -8.729
REMARK INTER:                  -6.058
REMARK INTRA:                  -2.671
REMARK UNBOUND:                -2.766
REMARK SMILES CCCCCCCCC=CCCCCCCCC(=O)[O-]
REMARK SMILES IDX 10 1 9 2 11 3 12 4 13 5 14 6 15 7 16 8 17 9 18 10 19 11
REMARK SMILES IDX 20 12 8 13 7 14 6 15 5 16 4 17 3 18 2 19 1 20
REMARK H PARENT
REMARK Flexibility Score: inf
ROOT
ATOM      1  C   UNL     1      14.810 -13.992  -2.992  1.00  0.00    -0.031 C 
ATOM      2  C   UNL     1      16.112 -14.151  -2.705  1.00  0.00    -0.031 C 
ENDROOT
BRANCH   1   3
ATOM      3  C   UNL     1      13.791 -15.034  -2.624  1.00  0.00     0.027 C 
BRANCH   3   4
ATOM      4  C   UNL     1      12.385 -14.616  -3.077  1.00  0.00     0.004 C 
BRANCH   4   5
ATOM      5  C   UNL     1      12.286 -13.091  -3.224  1.00  0.00     0.000 C 
BRANCH   5   6
ATOM      6  C   UNL     1      10.833 -12.592  -3.268  1.00  0.00     0.000 C 
BRANCH   6   7
ATOM      7  C   UNL     1      10.578 -11.427  -2.299  1.00  0.00     0.000 C 
BRANCH   7   8
ATOM      8  C   UNL     1      10.558 -10.086  -3.047  1.00  0.00     0.006 C 
BRANCH   8   9
ATOM      9  C   UNL     1      11.508  -9.057  -2.420  1.00  0.00     0.053 C 
BRANCH   9  10
ATOM     10  C   UNL     1      11.465  -7.747  -3.145  1.00  0.00     0.041 C 
ATOM     11  O   UNL     1      12.533  -7.166  -3.472  1.00  0.00    -0.550 OA
ATOM     12  O   UNL     1      10.243  -7.150  -3.431  1.00  0.00    -0.550 OA
ENDBRANCH   9  10
ENDBRANCH   8   9
ENDBRANCH   7   8
ENDBRANCH   6   7
ENDBRANCH   5   6
ENDBRANCH   4   5
ENDBRANCH   3   4
ENDBRANCH   1   3
BRANCH   2  13
ATOM     13  C   UNL     1      17.129 -13.101  -3.055  1.00  0.00     0.027 C 
BRANCH  13  14
ATOM     14  C   UNL     1      16.455 -11.860  -3.660  1.00  0.00     0.004 C 
BRANCH  14  15
ATOM     15  C   UNL     1      16.854 -10.560  -2.941  1.00  0.00     0.000 C 
BRANCH  15  16
ATOM     16  C   UNL     1      16.169 -10.404  -1.576  1.00  0.00     0.000 C 
BRANCH  16  17
ATOM     17  C   UNL     1      14.669 -10.720  -1.676  1.00  0.00    -0.000 C 
BRANCH  17  18
ATOM     18  C   UNL     1      13.978 -10.795  -0.302  1.00  0.00    -0.000 C 
BRANCH  18  19
ATOM     19  C   UNL     1      13.528 -12.205   0.121  1.00  0.00    -0.003 C 
ATOM     20  C   UNL     1      14.692 -13.105   0.535  1.00  0.00     0.004 C 
ENDBRANCH  18  19
ENDBRANCH  17  18
ENDBRANCH  16  17
ENDBRANCH  15  16
ENDBRANCH  14  15
ENDBRANCH  13  14
ENDBRANCH   2  13
TORSDOF 15
ENDMDL
MODEL 6
REMARK VINA RESULT:    -3.169      1.828      4.376
REMARK INTER + INTRA:          -8.715
REMARK INTER:                  -5.810
REMARK INTRA:                  -2.905
REMARK UNBOUND:                -2.766
REMARK SMILES CCCCCCCCC=CCCCCCCCC(=O)[O-]
REMARK SMILES IDX 10 1 9 2 11 3 12 4 13 5 14 6 15 7 16 8 17 9 18 10 19 11
REMARK SMILES IDX 20 12 8 13 7 14 6 15 5 16 4 17 3 18 2 19 1 20
REMARK H PARENT
REMARK Flexibility Score: inf
ROOT
ATOM      1  C   UNL     1      17.734 -13.208  -1.782  1.00  0.00    -0.031 C 
ATOM      2  C   UNL     1      17.598 -13.626  -0.514  1.00  0.00    -0.031 C 
ENDROOT
BRANCH   1   3
ATOM      3  C   UNL     1      17.023 -13.892  -2.916  1.00  0.00     0.027 C 
BRANCH   3   4
ATOM      4  C   UNL     1      16.129 -12.907  -3.682  1.00  0.00     0.004 C 
BRANCH   4   5
ATOM      5  C   UNL     1      14.652 -13.099  -3.308  1.00  0.00     0.000 C 
BRANCH   5   6
ATOM      6  C   UNL     1      14.415 -14.359  -2.460  1.00  0.00     0.000 C 
BRANCH   6   7
ATOM      7  C   UNL     1      13.680 -14.057  -1.145  1.00  0.00     0.000 C 
BRANCH   7   8
ATOM      8  C   UNL     1      14.077 -12.677  -0.598  1.00  0.00     0.006 C 
BRANCH   8   9
ATOM      9  C   UNL     1      12.934 -12.009   0.178  1.00  0.00     0.053 C 
BRANCH   9  10
ATOM     10  C   UNL     1      12.320 -10.884  -0.598  1.00  0.00     0.041 C 
ATOM     11  O   UNL     1      12.000  -9.814  -0.019  1.00  0.00    -0.550 OA
ATOM     12  O   UNL     1      12.070 -11.032  -1.957  1.00  0.00    -0.550 OA
ENDBRANCH   9  10
ENDBRANCH   8   9
ENDBRANCH   7   8
ENDBRANCH   6   7
ENDBRANCH   5   6
ENDBRANCH   4   5
ENDBRANCH   3   4
ENDBRANCH   1   3
BRANCH   2  13
ATOM     13  C   UNL     1      18.293 -12.930   0.624  1.00  0.00     0.027 C 
BRANCH  13  14
ATOM     14  C   UNL     1      18.295 -11.407   0.421  1.00  0.00     0.004 C 
BRANCH  14  15
ATOM     15  C   UNL     1      16.953 -10.758   0.799  1.00  0.00     0.000 C 
BRANCH  15  16
ATOM     16  C   UNL     1      16.638  -9.515  -0.045  1.00  0.00     0.000 C 
BRANCH  16  17
ATOM     17  C   UNL     1      16.722  -9.835  -1.545  1.00  0.00    -0.000 C 
BRANCH  17  18
ATOM     18  C   UNL     1      15.411  -9.536  -2.296  1.00  0.00    -0.000 C 
BRANCH  18  19
ATOM     19  C   UNL     1      14.653  -8.289  -1.806  1.00  0.00    -0.003 C 
ATOM     20  C   UNL     1      13.575  -7.822  -2.784  1.00  0.00     0.004 C 
ENDBRANCH  18  19
ENDBRANCH  17  18
ENDBRANCH  16  17
ENDBRANCH  15  16
ENDBRANCH  14  15
ENDBRANCH  13  14
ENDBRANCH   2  13
TORSDOF 15
ENDMDL
MODEL 7
REMARK VINA RESULT:    -3.154      5.213      8.268
REMARK INTER + INTRA:          -8.686
REMARK INTER:                  -6.247
REMARK INTRA:                  -2.439
REMARK UNBOUND:                -2.766
REMARK SMILES CCCCCCCCC=CCCCCCCCC(=O)[O-]
REMARK SMILES IDX 10 1 9 2 11 3 12 4 13 5 14 6 15 7 16 8 17 9 18 10 19 11
REMARK SMILES IDX 20 12 8 13 7 14 6 15 5 16 4 17 3 18 2 19 1 20
REMARK H PARENT
REMARK Flexibility Score: inf
ROOT
ATOM      1  C   UNL     1      15.086 -14.274  -2.489  1.00  0.00    -0.031 C 
ATOM      2  C   UNL     1      15.242 -13.115  -3.148  1.00  0.00    -0.031 C 
ENDROOT
BRANCH   1   3
ATOM      3  C   UNL     1      13.763 -14.669  -1.894  1.00  0.00     0.027 C 
BRANCH   3   4
ATOM      4  C   UNL     1      13.952 -15.359  -0.536  1.00  0.00     0.004 C 
BRANCH   4   5
ATOM      5  C   UNL     1      14.788 -16.639  -0.681  1.00  0.00     0.000 C 
BRANCH   5   6
ATOM      6  C   UNL     1      15.948 -16.707   0.324  1.00  0.00     0.000 C 
BRANCH   6   7
ATOM      7  C   UNL     1      17.323 -16.741  -0.362  1.00  0.00     0.000 C 
BRANCH   7   8
ATOM      8  C   UNL     1      17.932 -18.150  -0.302  1.00  0.00     0.006 C 
BRANCH   8   9
ATOM      9  C   UNL     1      19.195 -18.200   0.568  1.00  0.00     0.053 C 
BRANCH   9  10
ATOM     10  C   UNL     1      20.205 -19.164   0.025  1.00  0.00     0.041 C 
ATOM     11  O   UNL     1      20.838 -18.894  -1.029  1.00  0.00    -0.550 OA
ATOM     12  O   UNL     1      20.422 -20.378   0.665  1.00  0.00    -0.550 OA
ENDBRANCH   9  10
ENDBRANCH   8   9
ENDBRANCH   7   8
ENDBRANCH   6   7
ENDBRANCH   5   6
ENDBRANCH   4   5
ENDBRANCH   3   4
ENDBRANCH   1   3
BRANCH   2  13
ATOM     13  C   UNL     1      16.559 -12.728  -3.761  1.00  0.00     0.027 C 
BRANCH  13  14
ATOM     14  C   UNL     1      16.940 -11.288  -3.385  1.00  0.00     0.004 C 
BRANCH  14  15
ATOM     15  C   UNL     1      15.803 -10.544  -2.665  1.00  0.00     0.000 C 
BRANCH  15  16
ATOM     16  C   UNL     1      16.298  -9.728  -1.462  1.00  0.00     0.000 C 
BRANCH  16  17
ATOM     17  C   UNL     1      17.044 -10.623  -0.462  1.00  0.00    -0.000 C 
BRANCH  17  18
ATOM     18  C   UNL     1      16.120 -11.628   0.250  1.00  0.00    -0.000 C 
BRANCH  18  19
ATOM     19  C   UNL     1      16.736 -13.018   0.491  1.00  0.00    -0.003 C 
ATOM     20  C   UNL     1      18.003 -13.260  -0.329  1.00  0.00     0.004 C 
ENDBRANCH  18  19
ENDBRANCH  17  18
ENDBRANCH  16  17
ENDBRANCH  15  16
ENDBRANCH  14  15
ENDBRANCH  13  14
ENDBRANCH   2  13
TORSDOF 15
ENDMDL
MODEL 8
REMARK VINA RESULT:    -3.149      1.550      2.557
REMARK INTER + INTRA:          -8.676
REMARK INTER:                  -6.505
REMARK INTRA:                  -2.171
REMARK UNBOUND:                -2.766
REMARK SMILES CCCCCCCCC=CCCCCCCCC(=O)[O-]
REMARK SMILES IDX 10 1 9 2 11 3 12 4 13 5 14 6 15 7 16 8 17 9 18 10 19 11
REMARK SMILES IDX 20 12 8 13 7 14 6 15 5 16 4 17 3 18 2 19 1 20
REMARK H PARENT
REMARK Flexibility Score: inf
ROOT
ATOM      1  C   UNL     1      17.477 -13.649  -0.551  1.00  0.00    -0.031 C 
ATOM      2  C   UNL     1      17.865 -13.287  -1.783  1.00  0.00    -0.031 C 
ENDROOT
BRANCH   1   3
ATOM      3  C   UNL     1      18.230 -13.206   0.673  1.00  0.00     0.027 C 
BRANCH   3   4
ATOM      4  C   UNL     1      18.596 -11.718   0.589  1.00  0.00     0.004 C 
BRANCH   4   5
ATOM      5  C   UNL     1      17.337 -10.839   0.627  1.00  0.00     0.000 C 
BRANCH   5   6
ATOM      6  C   UNL     1      17.130 -10.043  -0.671  1.00  0.00     0.000 C 
BRANCH   6   7
ATOM      7  C   UNL     1      15.827  -9.229  -0.664  1.00  0.00     0.000 C 
BRANCH   7   8
ATOM      8  C   UNL     1      15.219  -9.153  -2.073  1.00  0.00     0.006 C 
BRANCH   8   9
ATOM      9  C   UNL     1      13.714  -8.858  -2.040  1.00  0.00     0.053 C 
BRANCH   9  10
ATOM     10  C   UNL     1      13.408  -7.475  -2.528  1.00  0.00     0.041 C 
ATOM     11  O   UNL     1      13.753  -6.472  -1.850  1.00  0.00    -0.550 OA
ATOM     12  O   UNL     1      12.711  -7.295  -3.716  1.00  0.00    -0.550 OA
ENDBRANCH   9  10
ENDBRANCH   8   9
ENDBRANCH   7   8
ENDBRANCH   6   7
ENDBRANCH   5   6
ENDBRANCH   4   5
ENDBRANCH   3   4
ENDBRANCH   1   3
BRANCH   2  13
ATOM     13  C   UNL     1      17.101 -13.714  -3.006  1.00  0.00     0.027 C 
BRANCH  13  14
ATOM     14  C   UNL     1      16.174 -12.590  -3.497  1.00  0.00     0.004 C 
BRANCH  14  15
ATOM     15  C   UNL     1      14.685 -12.947  -3.356  1.00  0.00     0.000 C 
BRANCH  15  16
ATOM     16  C   UNL     1      14.149 -12.702  -1.938  1.00  0.00     0.000 C 
BRANCH  16  17
ATOM     17  C   UNL     1      13.872 -14.031  -1.220  1.00  0.00    -0.000 C 
BRANCH  17  18
ATOM     18  C   UNL     1      13.835 -15.236  -2.179  1.00  0.00    -0.000 C 
BRANCH  18  19
ATOM     19  C   UNL     1      12.436 -15.829  -2.421  1.00  0.00    -0.003 C 
ATOM     20  C   UNL     1      11.772 -15.297  -3.691  1.00  0.00     0.004 C 
ENDBRANCH  18  19
ENDBRANCH  17  18
ENDBRANCH  16  17
ENDBRANCH  15  16
ENDBRANCH  14  15
ENDBRANCH  13  14
ENDBRANCH   2  13
TORSDOF 15
ENDMDL
