MODEL 1
REMARK VINA RESULT:    -4.072      0.000      0.000
REMARK INTER + INTRA:          -5.575
REMARK INTER:                  -5.262
REMARK INTRA:                  -0.313
REMARK UNBOUND:                -0.313
REMARK SMILES CCCCCCC(=O)[O-]
REMARK SMILES IDX 5 1 6 2 7 3 8 4 9 5 4 6 3 7 2 8 1 9
REMARK H PARENT
REMARK Flexibility Score: inf
ROOT
ATOM      1  C   UNL     1     104.470 106.101 232.154  1.00  0.00     0.006 C 
ENDROOT
BRANCH   1   2
ATOM      2  C   UNL     1     104.905 107.454 231.582  1.00  0.00     0.053 C 
BRANCH   2   3
ATOM      3  C   UNL     1     103.970 107.890 230.499  1.00  0.00     0.041 C 
ATOM      4  O   UNL     1     102.744 108.048 230.746  1.00  0.00    -0.550 OA
ATOM      5  O   UNL     1     104.441 108.073 229.205  1.00  0.00    -0.550 OA
ENDBRANCH   2   3
ENDBRANCH   1   2
BRANCH   1   6
ATOM      6  C   UNL     1     104.615 106.078 233.683  1.00  0.00     0.000 C 
BRANCH   6   7
ATOM      7  C   UNL     1     103.260 106.064 234.414  1.00  0.00    -0.000 C 
BRANCH   7   8
ATOM      8  C   UNL     1     102.037 105.860 233.503  1.00  0.00    -0.003 C 
ATOM      9  C   UNL     1     100.886 106.813 233.824  1.00  0.00     0.004 C 
ENDBRANCH   7   8
ENDBRANCH   6   7
ENDBRANCH   1   6
TORSDOF 5
ENDMDL
MODEL 2
REMARK VINA RESULT:    -4.056      3.405      3.735
REMARK INTER + INTRA:          -5.555
REMARK INTER:                  -5.386
REMARK INTRA:                  -0.170
REMARK UNBOUND:                -0.313
REMARK SMILES CCCCCCC(=O)[O-]
REMARK SMILES IDX 5 1 6 2 7 3 8 4 9 5 4 6 3 7 2 8 1 9
REMARK H PARENT
REMARK Flexibility Score: inf
ROOT
ATOM      1  C   UNL     1     105.147 106.086 233.744  1.00  0.00     0.006 C 
ENDROOT
BRANCH   1   2
ATOM      2  C   UNL     1     105.487 105.188 232.550  1.00  0.00     0.053 C 
BRANCH   2   3
ATOM      3  C   UNL     1     106.603 104.256 232.898  1.00  0.00     0.041 C 
ATOM      4  O   UNL     1     107.621 104.684 233.505  1.00  0.00    -0.550 OA
ATOM      5  O   UNL     1     106.544 102.924 232.508  1.00  0.00    -0.550 OA
ENDBRANCH   2   3
ENDBRANCH   1   2
BRANCH   1   6
ATOM      6  C   UNL     1     103.642 106.046 234.051  1.00  0.00     0.000 C 
BRANCH   6   7
ATOM      7  C   UNL     1     102.786 105.717 232.814  1.00  0.00    -0.000 C 
BRANCH   7   8
ATOM      8  C   UNL     1     101.590 106.659 232.589  1.00  0.00    -0.003 C 
ATOM      9  C   UNL     1     100.739 106.857 233.842  1.00  0.00     0.004 C 
ENDBRANCH   7   8
ENDBRANCH   6   7
ENDBRANCH   1   6
TORSDOF 5
ENDMDL
MODEL 3
REMARK VINA RESULT:    -3.902      2.919      4.851
REMARK INTER + INTRA:          -5.356
REMARK INTER:                  -5.183
REMARK INTRA:                  -0.173
REMARK UNBOUND:                -0.313
REMARK SMILES CCCCCCC(=O)[O-]
REMARK SMILES IDX 5 1 6 2 7 3 8 4 9 5 4 6 3 7 2 8 1 9
REMARK H PARENT
REMARK Flexibility Score: inf
ROOT
ATOM      1  C   UNL     1     104.989 107.537 231.286  1.00  0.00     0.006 C 
ENDROOT
BRANCH   1   2
ATOM      2  C   UNL     1     104.188 106.381 231.893  1.00  0.00     0.053 C 
BRANCH   2   3
ATOM      3  C   UNL     1     104.593 106.151 233.314  1.00  0.00     0.041 C 
ATOM      4  O   UNL     1     105.808 105.985 233.607  1.00  0.00    -0.550 OA
ATOM      5  O   UNL     1     103.628 106.070 234.309  1.00  0.00    -0.550 OA
ENDBRANCH   2   3
ENDBRANCH   1   2
BRANCH   1   6
ATOM      6  C   UNL     1     105.713 107.093 230.006  1.00  0.00     0.000 C 
BRANCH   6   7
ATOM      7  C   UNL     1     104.777 107.004 228.787  1.00  0.00    -0.000 C 
BRANCH   7   8
ATOM      8  C   UNL     1     104.813 105.658 228.042  1.00  0.00    -0.003 C 
ATOM      9  C   UNL     1     103.644 105.477 227.074  1.00  0.00     0.004 C 
ENDBRANCH   7   8
ENDBRANCH   6   7
ENDBRANCH   1   6
TORSDOF 5
ENDMDL
MODEL 4
REMARK VINA RESULT:    -3.888      2.668      4.276
REMARK INTER + INTRA:          -5.338
REMARK INTER:                  -5.180
REMARK INTRA:                  -0.158
REMARK UNBOUND:                -0.313
REMARK SMILES CCCCCCC(=O)[O-]
REMARK SMILES IDX 5 1 6 2 7 3 8 4 9 5 4 6 3 7 2 8 1 9
REMARK H PARENT
REMARK Flexibility Score: inf
ROOT
ATOM      1  C   UNL     1     103.516 105.913 234.074  1.00  0.00     0.006 C 
ENDROOT
BRANCH   1   2
ATOM      2  C   UNL     1     102.685 105.971 232.789  1.00  0.00     0.053 C 
BRANCH   2   3
ATOM      3  C   UNL     1     101.243 106.204 233.107  1.00  0.00     0.041 C 
ATOM      4  O   UNL     1     100.353 105.915 232.263  1.00  0.00    -0.550 OA
ATOM      5  O   UNL     1     100.882 106.786 234.316  1.00  0.00    -0.550 OA
ENDBRANCH   2   3
ENDBRANCH   1   2
BRANCH   1   6
ATOM      6  C   UNL     1     104.991 106.233 233.791  1.00  0.00     0.000 C 
BRANCH   6   7
ATOM      7  C   UNL     1     105.584 105.380 232.655  1.00  0.00    -0.000 C 
BRANCH   7   8
ATOM      8  C   UNL     1     106.681 104.393 233.093  1.00  0.00    -0.003 C 
ATOM      9  C   UNL     1     106.537 103.014 232.450  1.00  0.00     0.004 C 
ENDBRANCH   7   8
ENDBRANCH   6   7
ENDBRANCH   1   6
TORSDOF 5
ENDMDL
MODEL 5
REMARK VINA RESULT:    -3.882      2.507      3.121
REMARK INTER + INTRA:          -5.331
REMARK INTER:                  -4.973
REMARK INTRA:                  -0.357
REMARK UNBOUND:                -0.313
REMARK SMILES CCCCCCC(=O)[O-]
REMARK SMILES IDX 5 1 6 2 7 3 8 4 9 5 4 6 3 7 2 8 1 9
REMARK H PARENT
REMARK Flexibility Score: inf
ROOT
ATOM      1  C   UNL     1     103.983 106.627 231.059  1.00  0.00     0.006 C 
ENDROOT
BRANCH   1   2
ATOM      2  C   UNL     1     104.948 107.084 232.158  1.00  0.00     0.053 C 
BRANCH   2   3
ATOM      3  C   UNL     1     105.023 106.063 233.248  1.00  0.00     0.041 C 
ATOM      4  O   UNL     1     104.228 106.119 234.224  1.00  0.00    -0.550 OA
ATOM      5  O   UNL     1     106.002 105.078 233.213  1.00  0.00    -0.550 OA
ENDBRANCH   2   3
ENDBRANCH   1   2
BRANCH   1   6
ATOM      6  C   UNL     1     102.651 107.389 231.146  1.00  0.00     0.000 C 
BRANCH   6   7
ATOM      7  C   UNL     1     101.427 106.456 231.163  1.00  0.00    -0.000 C 
BRANCH   7   8
ATOM      8  C   UNL     1     101.089 105.859 232.540  1.00  0.00    -0.003 C 
ATOM      9  C   UNL     1     100.772 106.921 233.592  1.00  0.00     0.004 C 
ENDBRANCH   7   8
ENDBRANCH   6   7
ENDBRANCH   1   6
TORSDOF 5
ENDMDL
MODEL 6
REMARK VINA RESULT:    -3.859      2.673      4.171
REMARK INTER + INTRA:          -5.300
REMARK INTER:                  -4.972
REMARK INTRA:                  -0.328
REMARK UNBOUND:                -0.313
REMARK SMILES CCCCCCC(=O)[O-]
REMARK SMILES IDX 5 1 6 2 7 3 8 4 9 5 4 6 3 7 2 8 1 9
REMARK H PARENT
REMARK Flexibility Score: inf
ROOT
ATOM      1  C   UNL     1     102.357 107.005 231.379  1.00  0.00     0.006 C 
ENDROOT
BRANCH   1   2
ATOM      2  C   UNL     1     101.117 106.283 231.916  1.00  0.00     0.053 C 
BRANCH   2   3
ATOM      3  C   UNL     1     100.909 106.604 233.361  1.00  0.00     0.041 C 
ATOM      4  O   UNL     1     101.792 106.309 234.210  1.00  0.00    -0.550 OA
ATOM      5  O   UNL     1      99.718 107.183 233.781  1.00  0.00    -0.550 OA
ENDBRANCH   2   3
ENDBRANCH   1   2
BRANCH   1   6
ATOM      6  C   UNL     1     103.251 106.043 230.581  1.00  0.00     0.000 C 
BRANCH   6   7
ATOM      7  C   UNL     1     104.705 106.016 231.087  1.00  0.00    -0.000 C 
BRANCH   7   8
ATOM      8  C   UNL     1     104.960 106.840 232.361  1.00  0.00    -0.003 C 
ATOM      9  C   UNL     1     105.300 105.976 233.575  1.00  0.00     0.004 C 
ENDBRANCH   7   8
ENDBRANCH   6   7
ENDBRANCH   1   6
TORSDOF 5
ENDMDL
MODEL 7
REMARK VINA RESULT:    -3.843      2.840      4.052
REMARK INTER + INTRA:          -5.280
REMARK INTER:                  -5.119
REMARK INTRA:                  -0.161
REMARK UNBOUND:                -0.313
REMARK SMILES CCCCCCC(=O)[O-]
REMARK SMILES IDX 5 1 6 2 7 3 8 4 9 5 4 6 3 7 2 8 1 9
REMARK H PARENT
REMARK Flexibility Score: inf
ROOT
ATOM      1  C   UNL     1     104.812 106.981 228.832  1.00  0.00     0.006 C 
ENDROOT
BRANCH   1   2
ATOM      2  C   UNL     1     104.626 105.482 228.579  1.00  0.00     0.053 C 
BRANCH   2   3
ATOM      3  C   UNL     1     104.330 105.226 227.136  1.00  0.00     0.041 C 
ATOM      4  O   UNL     1     103.263 105.655 226.622  1.00  0.00    -0.550 OA
ATOM      5  O   UNL     1     105.209 104.471 226.369  1.00  0.00    -0.550 OA
ENDBRANCH   2   3
ENDBRANCH   1   2
BRANCH   1   6
ATOM      6  C   UNL     1     105.759 107.226 230.016  1.00  0.00     0.000 C 
BRANCH   6   7
ATOM      7  C   UNL     1     105.027 107.727 231.276  1.00  0.00    -0.000 C 
BRANCH   7   8
ATOM      8  C   UNL     1     104.382 106.621 232.130  1.00  0.00    -0.003 C 
ATOM      9  C   UNL     1     105.270 106.162 233.285  1.00  0.00     0.004 C 
ENDBRANCH   7   8
ENDBRANCH   6   7
ENDBRANCH   1   6
TORSDOF 5
ENDMDL
MODEL 8
REMARK VINA RESULT:    -3.835      3.389      4.460
REMARK INTER + INTRA:          -5.269
REMARK INTER:                  -4.881
REMARK INTRA:                  -0.389
REMARK UNBOUND:                -0.313
REMARK SMILES CCCCCCC(=O)[O-]
REMARK SMILES IDX 5 1 6 2 7 3 8 4 9 5 4 6 3 7 2 8 1 9
REMARK H PARENT
REMARK Flexibility Score: inf
ROOT
ATOM      1  C   UNL     1     104.676 105.636 227.947  1.00  0.00     0.006 C 
ENDROOT
BRANCH   1   2
ATOM      2  C   UNL     1     103.500 105.426 226.988  1.00  0.00     0.053 C 
BRANCH   2   3
ATOM      3  C   UNL     1     102.295 104.948 227.734  1.00  0.00     0.041 C 
ATOM      4  O   UNL     1     102.426 104.190 228.731  1.00  0.00    -0.550 OA
ATOM      5  O   UNL     1     101.023 105.300 227.299  1.00  0.00    -0.550 OA
ENDBRANCH   2   3
ENDBRANCH   1   2
BRANCH   1   6
ATOM      6  C   UNL     1     104.665 107.058 228.527  1.00  0.00     0.000 C 
BRANCH   6   7
ATOM      7  C   UNL     1     104.337 107.091 230.031  1.00  0.00    -0.000 C 
BRANCH   7   8
ATOM      8  C   UNL     1     103.036 107.828 230.393  1.00  0.00    -0.003 C 
ATOM      9  C   UNL     1     101.974 106.908 230.994  1.00  0.00     0.004 C 
ENDBRANCH   7   8
ENDBRANCH   6   7
ENDBRANCH   1   6
TORSDOF 5
ENDMDL
MODEL 9
REMARK VINA RESULT:    -3.791      3.040      4.730
REMARK INTER + INTRA:          -5.213
REMARK INTER:                  -4.818
REMARK INTRA:                  -0.394
REMARK UNBOUND:                -0.313
REMARK SMILES CCCCCCC(=O)[O-]
REMARK SMILES IDX 5 1 6 2 7 3 8 4 9 5 4 6 3 7 2 8 1 9
REMARK H PARENT
REMARK Flexibility Score: inf
ROOT
ATOM      1  C   UNL     1     104.325 107.626 230.248  1.00  0.00     0.006 C 
ENDROOT
BRANCH   1   2
ATOM      2  C   UNL     1     102.820 107.858 230.407  1.00  0.00     0.053 C 
BRANCH   2   3
ATOM      3  C   UNL     1     102.085 106.555 230.404  1.00  0.00     0.041 C 
ATOM      4  O   UNL     1     102.540 105.570 231.044  1.00  0.00    -0.550 OA
ATOM      5  O   UNL     1     100.925 106.412 229.654  1.00  0.00    -0.550 OA
ENDBRANCH   2   3
ENDBRANCH   1   2
BRANCH   1   6
ATOM      6  C   UNL     1     104.680 107.297 228.790  1.00  0.00     0.000 C 
BRANCH   6   7
ATOM      7  C   UNL     1     105.314 105.903 228.626  1.00  0.00    -0.000 C 
BRANCH   7   8
ATOM      8  C   UNL     1     104.751 105.072 227.460  1.00  0.00    -0.003 C 
ATOM      9  C   UNL     1     103.395 105.574 226.966  1.00  0.00     0.004 C 
ENDBRANCH   7   8
ENDBRANCH   6   7
ENDBRANCH   1   6
TORSDOF 5
ENDMDL
