MODEL 1
REMARK VINA RESULT:    -3.744      0.000      0.000
REMARK INTER + INTRA:          -6.858
REMARK INTER:                  -5.933
REMARK INTRA:                  -0.925
REMARK UNBOUND:                -0.925
REMARK SMILES CCCCCCCCCCCC(=O)[O-]
REMARK SMILES IDX 7 1 8 2 9 3 10 4 11 5 12 6 13 7 14 8 6 9 5 10 4 11 3 12 2 13
REMARK SMILES IDX 1 14
REMARK H PARENT
REMARK Flexibility Score: inf
ROOT
ATOM      1  C   UNL     1     163.134 160.750 188.293  1.00  0.00     0.000 C 
ENDROOT
BRANCH   1   2
ATOM      2  C   UNL     1     164.446 160.257 188.929  1.00  0.00     0.000 C 
BRANCH   2   3
ATOM      3  C   UNL     1     165.678 160.582 188.072  1.00  0.00     0.000 C 
BRANCH   3   4
ATOM      4  C   UNL     1     166.918 160.912 188.921  1.00  0.00     0.006 C 
BRANCH   4   5
ATOM      5  C   UNL     1     166.545 161.559 190.262  1.00  0.00     0.053 C 
BRANCH   5   6
ATOM      6  C   UNL     1     166.709 163.048 190.229  1.00  0.00     0.041 C 
ATOM      7  O   UNL     1     165.792 163.796 190.654  1.00  0.00    -0.550 OA
ATOM      8  O   UNL     1     167.864 163.609 189.699  1.00  0.00    -0.550 OA
ENDBRANCH   5   6
ENDBRANCH   4   5
ENDBRANCH   3   4
ENDBRANCH   2   3
ENDBRANCH   1   2
BRANCH   1   9
ATOM      9  C   UNL     1     162.906 162.255 188.508  1.00  0.00     0.000 C 
BRANCH   9  10
ATOM     10  C   UNL     1     161.415 162.611 188.642  1.00  0.00    -0.000 C 
BRANCH  10  11
ATOM     11  C   UNL     1     160.492 161.495 188.127  1.00  0.00    -0.000 C 
BRANCH  11  12
ATOM     12  C   UNL     1     159.881 161.817 186.756  1.00  0.00    -0.000 C 
BRANCH  12  13
ATOM     13  C   UNL     1     160.404 160.857 185.683  1.00  0.00    -0.003 C 
ATOM     14  C   UNL     1     161.547 161.484 184.888  1.00  0.00     0.004 C 
ENDBRANCH  12  13
ENDBRANCH  11  12
ENDBRANCH  10  11
ENDBRANCH   9  10
ENDBRANCH   1   9
TORSDOF 10
ENDMDL
MODEL 2
REMARK VINA RESULT:    -3.676      2.840      6.226
REMARK INTER + INTRA:          -6.749
REMARK INTER:                  -5.721
REMARK INTRA:                  -1.028
REMARK UNBOUND:                -0.925
REMARK SMILES CCCCCCCCCCCC(=O)[O-]
REMARK SMILES IDX 7 1 8 2 9 3 10 4 11 5 12 6 13 7 14 8 6 9 5 10 4 11 3 12 2 13
REMARK SMILES IDX 1 14
REMARK H PARENT
REMARK Flexibility Score: inf
ROOT
ATOM      1  C   UNL     1     162.635 163.325 188.550  1.00  0.00     0.000 C 
ENDROOT
BRANCH   1   2
ATOM      2  C   UNL     1     161.128 163.628 188.484  1.00  0.00     0.000 C 
BRANCH   2   3
ATOM      3  C   UNL     1     160.286 162.382 188.169  1.00  0.00     0.000 C 
BRANCH   3   4
ATOM      4  C   UNL     1     159.876 162.306 186.688  1.00  0.00     0.006 C 
BRANCH   4   5
ATOM      5  C   UNL     1     160.400 161.035 186.007  1.00  0.00     0.053 C 
BRANCH   5   6
ATOM      6  C   UNL     1     161.665 161.290 185.246  1.00  0.00     0.041 C 
ATOM      7  O   UNL     1     162.316 160.330 184.759  1.00  0.00    -0.550 OA
ATOM      8  O   UNL     1     162.142 162.587 185.103  1.00  0.00    -0.550 OA
ENDBRANCH   5   6
ENDBRANCH   4   5
ENDBRANCH   3   4
ENDBRANCH   2   3
ENDBRANCH   1   2
BRANCH   1   9
ATOM      9  C   UNL     1     162.926 161.829 188.755  1.00  0.00     0.000 C 
BRANCH   9  10
ATOM     10  C   UNL     1     164.320 161.424 188.247  1.00  0.00    -0.000 C 
BRANCH  10  11
ATOM     11  C   UNL     1     164.938 160.280 189.066  1.00  0.00    -0.000 C 
BRANCH  11  12
ATOM     12  C   UNL     1     166.215 160.704 189.805  1.00  0.00    -0.000 C 
BRANCH  12  13
ATOM     13  C   UNL     1     166.544 162.176 189.533  1.00  0.00    -0.003 C 
ATOM     14  C   UNL     1     166.662 162.965 190.834  1.00  0.00     0.004 C 
ENDBRANCH  12  13
ENDBRANCH  11  12
ENDBRANCH  10  11
ENDBRANCH   9  10
ENDBRANCH   1   9
TORSDOF 10
ENDMDL
MODEL 3
REMARK VINA RESULT:    -3.671     11.615     13.377
REMARK INTER + INTRA:          -6.742
REMARK INTER:                  -5.195
REMARK INTRA:                  -1.547
REMARK UNBOUND:                -0.925
REMARK SMILES CCCCCCCCCCCC(=O)[O-]
REMARK SMILES IDX 7 1 8 2 9 3 10 4 11 5 12 6 13 7 14 8 6 9 5 10 4 11 3 12 2 13
REMARK SMILES IDX 1 14
REMARK H PARENT
REMARK Flexibility Score: inf
ROOT
ATOM      1  C   UNL     1     175.432 160.796 188.636  1.00  0.00     0.000 C 
ENDROOT
BRANCH   1   2
ATOM      2  C   UNL     1     174.610 160.965 187.346  1.00  0.00     0.000 C 
BRANCH   2   3
ATOM      3  C   UNL     1     174.371 162.440 186.986  1.00  0.00     0.000 C 
BRANCH   3   4
ATOM      4  C   UNL     1     174.658 162.740 185.505  1.00  0.00     0.006 C 
BRANCH   4   5
ATOM      5  C   UNL     1     176.005 163.447 185.308  1.00  0.00     0.053 C 
BRANCH   5   6
ATOM      6  C   UNL     1     177.115 162.473 185.054  1.00  0.00     0.041 C 
ATOM      7  O   UNL     1     178.235 162.629 185.607  1.00  0.00    -0.550 OA
ATOM      8  O   UNL     1     176.921 161.409 184.181  1.00  0.00    -0.550 OA
ENDBRANCH   5   6
ENDBRANCH   4   5
ENDBRANCH   3   4
ENDBRANCH   2   3
ENDBRANCH   1   2
BRANCH   1   9
ATOM      9  C   UNL     1     176.869 161.324 188.492  1.00  0.00     0.000 C 
BRANCH   9  10
ATOM     10  C   UNL     1     177.419 161.901 189.807  1.00  0.00    -0.000 C 
BRANCH  10  11
ATOM     11  C   UNL     1     177.072 163.386 189.992  1.00  0.00    -0.000 C 
BRANCH  11  12
ATOM     12  C   UNL     1     177.243 164.199 188.701  1.00  0.00    -0.000 C 
BRANCH  12  13
ATOM     13  C   UNL     1     176.186 165.305 188.605  1.00  0.00    -0.003 C 
ATOM     14  C   UNL     1     175.030 165.050 189.568  1.00  0.00     0.004 C 
ENDBRANCH  12  13
ENDBRANCH  11  12
ENDBRANCH  10  11
ENDBRANCH   9  10
ENDBRANCH   1   9
TORSDOF 10
ENDMDL
MODEL 4
REMARK VINA RESULT:    -3.637      1.365      2.358
REMARK INTER + INTRA:          -6.688
REMARK INTER:                  -5.337
REMARK INTRA:                  -1.351
REMARK UNBOUND:                -0.925
REMARK SMILES CCCCCCCCCCCC(=O)[O-]
REMARK SMILES IDX 7 1 8 2 9 3 10 4 11 5 12 6 13 7 14 8 6 9 5 10 4 11 3 12 2 13
REMARK SMILES IDX 1 14
REMARK H PARENT
REMARK Flexibility Score: inf
ROOT
ATOM      1  C   UNL     1     162.066 163.283 188.480  1.00  0.00     0.000 C 
ENDROOT
BRANCH   1   2
ATOM      2  C   UNL     1     163.422 162.556 188.424  1.00  0.00     0.000 C 
BRANCH   2   3
ATOM      3  C   UNL     1     163.277 161.028 188.498  1.00  0.00     0.000 C 
BRANCH   3   4
ATOM      4  C   UNL     1     164.574 160.293 188.119  1.00  0.00     0.006 C 
BRANCH   4   5
ATOM      5  C   UNL     1     165.521 160.133 189.316  1.00  0.00     0.053 C 
BRANCH   5   6
ATOM      6  C   UNL     1     166.844 160.792 189.074  1.00  0.00     0.041 C 
ATOM      7  O   UNL     1     167.005 162.010 189.345  1.00  0.00    -0.550 OA
ATOM      8  O   UNL     1     167.891 160.067 188.519  1.00  0.00    -0.550 OA
ENDBRANCH   5   6
ENDBRANCH   4   5
ENDBRANCH   3   4
ENDBRANCH   2   3
ENDBRANCH   1   2
BRANCH   1   9
ATOM      9  C   UNL     1     160.904 162.336 188.822  1.00  0.00     0.000 C 
BRANCH   9  10
ATOM     10  C   UNL     1     159.875 162.232 187.683  1.00  0.00    -0.000 C 
BRANCH  10  11
ATOM     11  C   UNL     1     160.521 162.333 186.292  1.00  0.00    -0.000 C 
BRANCH  11  12
ATOM     12  C   UNL     1     160.834 160.958 185.684  1.00  0.00    -0.000 C 
BRANCH  12  13
ATOM     13  C   UNL     1     162.142 160.996 184.887  1.00  0.00    -0.003 C 
ATOM     14  C   UNL     1     162.698 162.415 184.804  1.00  0.00     0.004 C 
ENDBRANCH  12  13
ENDBRANCH  11  12
ENDBRANCH  10  11
ENDBRANCH   9  10
ENDBRANCH   1   9
TORSDOF 10
ENDMDL
MODEL 5
REMARK VINA RESULT:    -3.623     16.785     18.905
REMARK INTER + INTRA:          -6.665
REMARK INTER:                  -5.878
REMARK INTRA:                  -0.787
REMARK UNBOUND:                -0.925
REMARK SMILES CCCCCCCCCCCC(=O)[O-]
REMARK SMILES IDX 7 1 8 2 9 3 10 4 11 5 12 6 13 7 14 8 6 9 5 10 4 11 3 12 2 13
REMARK SMILES IDX 1 14
REMARK H PARENT
REMARK Flexibility Score: inf
ROOT
ATOM      1  C   UNL     1     170.493 180.125 188.510  1.00  0.00     0.000 C 
ENDROOT
BRANCH   1   2
ATOM      2  C   UNL     1     171.741 179.233 188.386  1.00  0.00     0.000 C 
BRANCH   2   3
ATOM      3  C   UNL     1     172.955 179.806 189.131  1.00  0.00     0.000 C 
BRANCH   3   4
ATOM      4  C   UNL     1     174.200 179.916 188.234  1.00  0.00     0.006 C 
BRANCH   4   5
ATOM      5  C   UNL     1     174.073 179.070 186.960  1.00  0.00     0.053 C 
BRANCH   5   6
ATOM      6  C   UNL     1     175.099 177.981 186.908  1.00  0.00     0.041 C 
ATOM      7  O   UNL     1     176.103 178.019 187.666  1.00  0.00    -0.550 OA
ATOM      8  O   UNL     1     174.962 176.938 186.000  1.00  0.00    -0.550 OA
ENDBRANCH   5   6
ENDBRANCH   4   5
ENDBRANCH   3   4
ENDBRANCH   2   3
ENDBRANCH   1   2
BRANCH   1   9
ATOM      9  C   UNL     1     169.589 180.049 187.269  1.00  0.00     0.000 C 
BRANCH   9  10
ATOM     10  C   UNL     1     168.110 179.830 187.630  1.00  0.00    -0.000 C 
BRANCH  10  11
ATOM     11  C   UNL     1     167.877 179.753 189.147  1.00  0.00    -0.000 C 
BRANCH  11  12
ATOM     12  C   UNL     1     166.736 178.796 189.523  1.00  0.00    -0.000 C 
BRANCH  12  13
ATOM     13  C   UNL     1     167.155 177.336 189.321  1.00  0.00    -0.003 C 
ATOM     14  C   UNL     1     168.518 177.060 189.951  1.00  0.00     0.004 C 
ENDBRANCH  12  13
ENDBRANCH  11  12
ENDBRANCH  10  11
ENDBRANCH   9  10
ENDBRANCH   1   9
TORSDOF 10
ENDMDL
MODEL 6
REMARK VINA RESULT:    -3.621      2.008      5.272
REMARK INTER + INTRA:          -6.663
REMARK INTER:                  -5.665
REMARK INTRA:                  -0.997
REMARK UNBOUND:                -0.925
REMARK SMILES CCCCCCCCCCCC(=O)[O-]
REMARK SMILES IDX 7 1 8 2 9 3 10 4 11 5 12 6 13 7 14 8 6 9 5 10 4 11 3 12 2 13
REMARK SMILES IDX 1 14
REMARK H PARENT
REMARK Flexibility Score: inf
ROOT
ATOM      1  C   UNL     1     161.300 161.518 187.856  1.00  0.00     0.000 C 
ENDROOT
BRANCH   1   2
ATOM      2  C   UNL     1     160.399 162.141 188.936  1.00  0.00     0.000 C 
BRANCH   2   3
ATOM      3  C   UNL     1     160.134 163.635 188.697  1.00  0.00     0.000 C 
BRANCH   3   4
ATOM      4  C   UNL     1     160.780 164.148 187.399  1.00  0.00     0.006 C 
BRANCH   4   5
ATOM      5  C   UNL     1     161.828 165.238 187.665  1.00  0.00     0.053 C 
BRANCH   5   6
ATOM      6  C   UNL     1     163.217 164.678 187.706  1.00  0.00     0.041 C 
ATOM      7  O   UNL     1     163.767 164.429 188.810  1.00  0.00    -0.550 OA
ATOM      8  O   UNL     1     163.915 164.460 186.525  1.00  0.00    -0.550 OA
ENDBRANCH   5   6
ENDBRANCH   4   5
ENDBRANCH   3   4
ENDBRANCH   2   3
ENDBRANCH   1   2
BRANCH   1   9
ATOM      9  C   UNL     1     162.661 161.068 188.412  1.00  0.00     0.000 C 
BRANCH   9  10
ATOM     10  C   UNL     1     163.741 160.971 187.321  1.00  0.00    -0.000 C 
BRANCH  10  11
ATOM     11  C   UNL     1     165.099 160.511 187.874  1.00  0.00    -0.000 C 
BRANCH  11  12
ATOM     12  C   UNL     1     165.043 160.162 189.368  1.00  0.00    -0.000 C 
BRANCH  12  13
ATOM     13  C   UNL     1     166.347 160.551 190.072  1.00  0.00    -0.003 C 
ATOM     14  C   UNL     1     166.613 162.050 189.954  1.00  0.00     0.004 C 
ENDBRANCH  12  13
ENDBRANCH  11  12
ENDBRANCH  10  11
ENDBRANCH   9  10
ENDBRANCH   1   9
TORSDOF 10
ENDMDL
MODEL 7
REMARK VINA RESULT:    -3.604      1.617      2.293
REMARK INTER + INTRA:          -6.636
REMARK INTER:                  -5.765
REMARK INTRA:                  -0.870
REMARK UNBOUND:                -0.925
REMARK SMILES CCCCCCCCCCCC(=O)[O-]
REMARK SMILES IDX 7 1 8 2 9 3 10 4 11 5 12 6 13 7 14 8 6 9 5 10 4 11 3 12 2 13
REMARK SMILES IDX 1 14
REMARK H PARENT
REMARK Flexibility Score: inf
ROOT
ATOM      1  C   UNL     1     164.660 160.493 187.481  1.00  0.00     0.000 C 
ENDROOT
BRANCH   1   2
ATOM      2  C   UNL     1     166.052 160.675 188.111  1.00  0.00     0.000 C 
BRANCH   2   3
ATOM      3  C   UNL     1     166.034 160.523 189.640  1.00  0.00     0.000 C 
BRANCH   3   4
ATOM      4  C   UNL     1     166.664 161.728 190.360  1.00  0.00     0.006 C 
BRANCH   4   5
ATOM      5  C   UNL     1     166.015 163.055 189.944  1.00  0.00     0.053 C 
BRANCH   5   6
ATOM      6  C   UNL     1     167.032 164.052 189.480  1.00  0.00     0.041 C 
ATOM      7  O   UNL     1     168.211 163.689 189.235  1.00  0.00    -0.550 OA
ATOM      8  O   UNL     1     166.683 165.391 189.349  1.00  0.00    -0.550 OA
ENDBRANCH   5   6
ENDBRANCH   4   5
ENDBRANCH   3   4
ENDBRANCH   2   3
ENDBRANCH   1   2
BRANCH   1   9
ATOM      9  C   UNL     1     163.532 160.528 188.526  1.00  0.00     0.000 C 
BRANCH   9  10
ATOM     10  C   UNL     1     162.321 161.354 188.058  1.00  0.00    -0.000 C 
BRANCH  10  11
ATOM     11  C   UNL     1     162.351 162.797 188.587  1.00  0.00    -0.000 C 
BRANCH  11  12
ATOM     12  C   UNL     1     160.993 163.252 189.141  1.00  0.00    -0.000 C 
BRANCH  12  13
ATOM     13  C   UNL     1     159.875 163.013 188.120  1.00  0.00    -0.003 C 
ATOM     14  C   UNL     1     159.934 164.035 186.988  1.00  0.00     0.004 C 
ENDBRANCH  12  13
ENDBRANCH  11  12
ENDBRANCH  10  11
ENDBRANCH   9  10
ENDBRANCH   1   9
TORSDOF 10
ENDMDL
MODEL 8
REMARK VINA RESULT:    -3.574      3.312      6.134
REMARK INTER + INTRA:          -6.588
REMARK INTER:                  -5.439
REMARK INTRA:                  -1.150
REMARK UNBOUND:                -0.925
REMARK SMILES CCCCCCCCCCCC(=O)[O-]
REMARK SMILES IDX 7 1 8 2 9 3 10 4 11 5 12 6 13 7 14 8 6 9 5 10 4 11 3 12 2 13
REMARK SMILES IDX 1 14
REMARK H PARENT
REMARK Flexibility Score: inf
ROOT
ATOM      1  C   UNL     1     165.178 160.294 187.754  1.00  0.00     0.000 C 
ENDROOT
BRANCH   1   2
ATOM      2  C   UNL     1     164.049 160.053 188.771  1.00  0.00     0.000 C 
BRANCH   2   3
ATOM      3  C   UNL     1     162.856 161.000 188.566  1.00  0.00     0.000 C 
BRANCH   3   4
ATOM      4  C   UNL     1     162.766 161.531 187.125  1.00  0.00     0.006 C 
BRANCH   4   5
ATOM      5  C   UNL     1     161.315 161.778 186.689  1.00  0.00     0.053 C 
BRANCH   5   6
ATOM      6  C   UNL     1     161.022 161.168 185.352  1.00  0.00     0.041 C 
ATOM      7  O   UNL     1     159.936 161.416 184.767  1.00  0.00    -0.550 OA
ATOM      8  O   UNL     1     161.937 160.301 184.768  1.00  0.00    -0.550 OA
ENDBRANCH   5   6
ENDBRANCH   4   5
ENDBRANCH   3   4
ENDBRANCH   2   3
ENDBRANCH   1   2
BRANCH   1   9
ATOM      9  C   UNL     1     166.543 160.506 188.430  1.00  0.00     0.000 C 
BRANCH   9  10
ATOM     10  C   UNL     1     166.427 160.658 189.956  1.00  0.00    -0.000 C 
BRANCH  10  11
ATOM     11  C   UNL     1     166.634 162.107 190.424  1.00  0.00    -0.000 C 
BRANCH  11  12
ATOM     12  C   UNL     1     167.331 162.976 189.367  1.00  0.00    -0.000 C 
BRANCH  12  13
ATOM     13  C   UNL     1     166.541 164.263 189.107  1.00  0.00    -0.003 C 
ATOM     14  C   UNL     1     165.129 163.955 188.615  1.00  0.00     0.004 C 
ENDBRANCH  12  13
ENDBRANCH  11  12
ENDBRANCH  10  11
ENDBRANCH   9  10
ENDBRANCH   1   9
TORSDOF 10
ENDMDL
MODEL 9
REMARK VINA RESULT:    -3.565      3.147      6.146
REMARK INTER + INTRA:          -6.574
REMARK INTER:                  -5.702
REMARK INTRA:                  -0.872
REMARK UNBOUND:                -0.925
REMARK SMILES CCCCCCCCCCCC(=O)[O-]
REMARK SMILES IDX 7 1 8 2 9 3 10 4 11 5 12 6 13 7 14 8 6 9 5 10 4 11 3 12 2 13
REMARK SMILES IDX 1 14
REMARK H PARENT
REMARK Flexibility Score: inf
ROOT
ATOM      1  C   UNL     1     162.661 161.681 188.439  1.00  0.00     0.000 C 
ENDROOT
BRANCH   1   2
ATOM      2  C   UNL     1     161.150 161.405 188.531  1.00  0.00     0.000 C 
BRANCH   2   3
ATOM      3  C   UNL     1     160.337 162.663 188.869  1.00  0.00     0.000 C 
BRANCH   3   4
ATOM      4  C   UNL     1     161.038 163.957 188.421  1.00  0.00     0.006 C 
BRANCH   4   5
ATOM      5  C   UNL     1     160.145 164.816 187.516  1.00  0.00     0.053 C 
BRANCH   5   6
ATOM      6  C   UNL     1     160.626 164.819 186.097  1.00  0.00     0.041 C 
ATOM      7  O   UNL     1     160.515 165.854 185.391  1.00  0.00    -0.550 OA
ATOM      8  O   UNL     1     161.171 163.665 185.545  1.00  0.00    -0.550 OA
ENDBRANCH   5   6
ENDBRANCH   4   5
ENDBRANCH   3   4
ENDBRANCH   2   3
ENDBRANCH   1   2
BRANCH   1   9
ATOM      9  C   UNL     1     163.309 161.013 187.215  1.00  0.00     0.000 C 
BRANCH   9  10
ATOM     10  C   UNL     1     164.602 160.260 187.571  1.00  0.00    -0.000 C 
BRANCH  10  11
ATOM     11  C   UNL     1     164.918 160.307 189.074  1.00  0.00    -0.000 C 
BRANCH  11  12
ATOM     12  C   UNL     1     166.404 160.568 189.359  1.00  0.00    -0.000 C 
BRANCH  12  13
ATOM     13  C   UNL     1     166.578 161.724 190.350  1.00  0.00    -0.003 C 
ATOM     14  C   UNL     1     165.952 163.009 189.816  1.00  0.00     0.004 C 
ENDBRANCH  12  13
ENDBRANCH  11  12
ENDBRANCH  10  11
ENDBRANCH   9  10
ENDBRANCH   1   9
TORSDOF 10
ENDMDL
