MODEL 1
REMARK VINA RESULT:    -3.340      0.000      0.000
REMARK INTER + INTRA:          -6.067
REMARK INTER:                  -5.098
REMARK INTRA:                  -0.969
REMARK UNBOUND:                -0.969
REMARK SMILES OC[C@@H]1O[C@H](O[C@]2(CO)O[C@H](CO)[C@@H](O)[C@@H]2O)[C@H](O)[C@H](O)[C@@H]1O
REMARK SMILES IDX 6 1 5 2 3 3 22 4 4 5 20 6 18 7 2 8 1 9 23 11 21 13 19 15
REMARK SMILES IDX 7 17 16 18 10 19 14 20 11 21 8 22 9 23 17 25 15 27 12 29
REMARK SMILES IDX 13 30
REMARK H PARENT 1 10 23 12 21 14 19 16 9 24 17 26 15 28 13 31
REMARK Flexibility Score: inf
ROOT
ATOM      1  O   UNL     1       8.036  -5.061   1.371  1.00  0.00    -0.313 OA
ENDROOT
BRANCH   1   2
ATOM      2  C   UNL     1       9.222  -4.583   1.994  1.00  0.00     0.285 C 
ATOM      3  C   UNL     1      11.192  -5.255   3.047  1.00  0.00     0.178 C 
ATOM      4  C   UNL     1      11.813  -3.861   2.701  1.00  0.00     0.177 C 
ATOM      5  O   UNL     1      10.173  -5.627   2.129  1.00  0.00    -0.341 OA
ATOM      6  C   UNL     1      11.379  -3.374   1.289  1.00  0.00     0.179 C 
ATOM      7  C   UNL     1       9.832  -3.445   1.131  1.00  0.00     0.202 C 
BRANCH   3   8
ATOM      8  C   UNL     1      12.223  -6.392   3.125  1.00  0.00     0.191 C 
BRANCH   8   9
ATOM      9  O   UNL     1      11.600  -7.637   2.968  1.00  0.00    -0.394 OA
ATOM     10  H   UNL     1      10.832  -7.485   2.359  1.00  0.00     0.210 HD
ENDBRANCH   8   9
ENDBRANCH   3   8
BRANCH   4  11
ATOM     11  O   UNL     1      13.210  -3.831   2.913  1.00  0.00    -0.387 OA
ATOM     12  H   UNL     1      13.662  -3.418   2.133  1.00  0.00     0.211 HD
ENDBRANCH   4  11
BRANCH   6  13
ATOM     13  O   UNL     1      12.046  -4.089   0.273  1.00  0.00    -0.387 OA
ATOM     14  H   UNL     1      12.620  -4.776   0.700  1.00  0.00     0.211 HD
ENDBRANCH   6  13
BRANCH   7  15
ATOM     15  O   UNL     1       9.504  -3.615  -0.227  1.00  0.00    -0.385 OA
ATOM     16  H   UNL     1      10.312  -3.389  -0.756  1.00  0.00     0.211 HD
ENDBRANCH   7  15
ENDBRANCH   1   2
BRANCH   1  17
ATOM     17  C   UNL     1       7.057  -5.608   2.262  1.00  0.00     0.224 C 
ATOM     18  C   UNL     1       5.963  -6.315   1.411  1.00  0.00     0.208 C 
ATOM     19  O   UNL     1       7.640  -6.574   3.124  1.00  0.00    -0.337 OA
ATOM     20  C   UNL     1       5.887  -7.706   1.992  1.00  0.00     0.180 C 
ATOM     21  C   UNL     1       7.227  -7.853   2.703  1.00  0.00     0.179 C 
BRANCH  17  22
ATOM     22  C   UNL     1       6.406  -4.497   3.125  1.00  0.00     0.225 C 
BRANCH  22  23
ATOM     23  O   UNL     1       5.013  -4.493   2.955  1.00  0.00    -0.391 OA
ATOM     24  H   UNL     1       4.825  -3.848   2.225  1.00  0.00     0.210 HD
ENDBRANCH  22  23
ENDBRANCH  17  22
BRANCH  18  25
ATOM     25  O   UNL     1       6.331  -6.399   0.056  1.00  0.00    -0.385 OA
ATOM     26  H   UNL     1       7.021  -5.701  -0.095  1.00  0.00     0.211 HD
ENDBRANCH  18  25
BRANCH  20  27
ATOM     27  O   UNL     1       4.837  -7.774   2.922  1.00  0.00    -0.387 OA
ATOM     28  H   UNL     1       5.084  -8.476   3.580  1.00  0.00     0.211 HD
ENDBRANCH  20  27
BRANCH  21  29
ATOM     29  C   UNL     1       8.296  -8.479   1.792  1.00  0.00     0.191 C 
BRANCH  29  30
ATOM     30  O   UNL     1       9.281  -9.096   2.573  1.00  0.00    -0.394 OA
ATOM     31  H   UNL     1       9.896  -8.373   2.862  1.00  0.00     0.210 HD
ENDBRANCH  29  30
ENDBRANCH  21  29
ENDBRANCH   1  17
TORSDOF 13
ENDMDL
MODEL 2
REMARK VINA RESULT:    -2.677      1.769      2.633
REMARK INTER + INTRA:          -5.054
REMARK INTER:                  -4.285
REMARK INTRA:                  -0.769
REMARK UNBOUND:                -0.969
REMARK SMILES OC[C@@H]1O[C@H](O[C@]2(CO)O[C@H](CO)[C@@H](O)[C@@H]2O)[C@H](O)[C@H](O)[C@@H]1O
REMARK SMILES IDX 6 1 5 2 3 3 22 4 4 5 20 6 18 7 2 8 1 9 23 11 21 13 19 15
REMARK SMILES IDX 7 17 16 18 10 19 14 20 11 21 8 22 9 23 17 25 15 27 12 29
REMARK SMILES IDX 13 30
REMARK H PARENT 1 10 23 12 21 14 19 16 9 24 17 26 15 28 13 31
REMARK Flexibility Score: inf
ROOT
ATOM      1  O   UNL     1       8.826  -5.506   1.479  1.00  0.00    -0.313 OA
ENDROOT
BRANCH   1   2
ATOM      2  C   UNL     1       9.877  -4.793   2.119  1.00  0.00     0.285 C 
ATOM      3  C   UNL     1      11.980  -3.841   1.781  1.00  0.00     0.178 C 
ATOM      4  C   UNL     1      11.730  -2.928   3.028  1.00  0.00     0.177 C 
ATOM      5  O   UNL     1      10.765  -4.240   1.161  1.00  0.00    -0.341 OA
ATOM      6  C   UNL     1      10.253  -2.445   3.099  1.00  0.00     0.179 C 
ATOM      7  C   UNL     1       9.272  -3.646   2.976  1.00  0.00     0.202 C 
BRANCH   3   8
ATOM      8  C   UNL     1      12.889  -3.206   0.718  1.00  0.00     0.191 C 
BRANCH   8   9
ATOM      9  O   UNL     1      14.178  -3.002   1.226  1.00  0.00    -0.394 OA
ATOM     10  H   UNL     1      14.537  -3.903   1.436  1.00  0.00     0.210 HD
ENDBRANCH   8   9
ENDBRANCH   3   8
BRANCH   4  11
ATOM     11  O   UNL     1      12.679  -1.886   3.125  1.00  0.00    -0.387 OA
ATOM     12  H   UNL     1      13.595  -2.251   3.015  1.00  0.00     0.211 HD
ENDBRANCH   4  11
BRANCH   6  13
ATOM     13  O   UNL     1       9.993  -1.451   2.133  1.00  0.00    -0.387 OA
ATOM     14  H   UNL     1      10.854  -1.186   1.717  1.00  0.00     0.211 HD
ENDBRANCH   6  13
BRANCH   7  15
ATOM     15  O   UNL     1       8.051  -3.205   2.432  1.00  0.00    -0.385 OA
ATOM     16  H   UNL     1       7.529  -2.799   3.171  1.00  0.00     0.211 HD
ENDBRANCH   7  15
ENDBRANCH   1   2
BRANCH   1  17
ATOM     17  C   UNL     1       8.296  -6.608   2.223  1.00  0.00     0.224 C 
ATOM     18  C   UNL     1       7.917  -7.737   1.221  1.00  0.00     0.208 C 
ATOM     19  O   UNL     1       9.264  -7.123   3.125  1.00  0.00    -0.337 OA
ATOM     20  C   UNL     1       8.638  -8.954   1.749  1.00  0.00     0.180 C 
ATOM     21  C   UNL     1       9.734  -8.351   2.619  1.00  0.00     0.179 C 
BRANCH  17  22
ATOM     22  C   UNL     1       7.038  -6.186   3.027  1.00  0.00     0.225 C 
BRANCH  22  23
ATOM     23  O   UNL     1       6.272  -5.266   2.296  1.00  0.00    -0.391 OA
ATOM     24  H   UNL     1       6.818  -5.015   1.507  1.00  0.00     0.210 HD
ENDBRANCH  22  23
ENDBRANCH  17  22
BRANCH  18  25
ATOM     25  O   UNL     1       8.377  -7.455  -0.078  1.00  0.00    -0.385 OA
ATOM     26  H   UNL     1       8.881  -6.601  -0.022  1.00  0.00     0.211 HD
ENDBRANCH  18  25
BRANCH  20  27
ATOM     27  O   UNL     1       7.761  -9.719   2.536  1.00  0.00    -0.387 OA
ATOM     28  H   UNL     1       7.893 -10.666   2.269  1.00  0.00     0.211 HD
ENDBRANCH  20  27
BRANCH  21  29
ATOM     29  C   UNL     1      11.038  -8.134   1.835  1.00  0.00     0.191 C 
BRANCH  29  30
ATOM     30  O   UNL     1      11.301  -9.251   1.033  1.00  0.00    -0.394 OA
ATOM     31  H   UNL     1      10.466  -9.788   1.028  1.00  0.00     0.210 HD
ENDBRANCH  29  30
ENDBRANCH  21  29
ENDBRANCH   1  17
TORSDOF 13
ENDMDL
MODEL 3
REMARK VINA RESULT:    -2.672      1.224      1.341
REMARK INTER + INTRA:          -5.047
REMARK INTER:                  -3.855
REMARK INTRA:                  -1.192
REMARK UNBOUND:                -0.969
REMARK SMILES OC[C@@H]1O[C@H](O[C@]2(CO)O[C@H](CO)[C@@H](O)[C@@H]2O)[C@H](O)[C@H](O)[C@@H]1O
REMARK SMILES IDX 6 1 5 2 3 3 22 4 4 5 20 6 18 7 2 8 1 9 23 11 21 13 19 15
REMARK SMILES IDX 7 17 16 18 10 19 14 20 11 21 8 22 9 23 17 25 15 27 12 29
REMARK SMILES IDX 13 30
REMARK H PARENT 1 10 23 12 21 14 19 16 9 24 17 26 15 28 13 31
REMARK Flexibility Score: inf
ROOT
ATOM      1  O   UNL     1       7.576  -5.951   1.442  1.00  0.00    -0.313 OA
ENDROOT
BRANCH   1   2
ATOM      2  C   UNL     1       8.794  -5.733   2.144  1.00  0.00     0.285 C 
ATOM      3  C   UNL     1      10.752  -6.768   2.876  1.00  0.00     0.178 C 
ATOM      4  C   UNL     1      11.428  -5.359   2.956  1.00  0.00     0.177 C 
ATOM      5  O   UNL     1       9.700  -6.801   1.921  1.00  0.00    -0.341 OA
ATOM      6  C   UNL     1      10.989  -4.444   1.776  1.00  0.00     0.179 C 
ATOM      7  C   UNL     1       9.438  -4.407   1.654  1.00  0.00     0.202 C 
BRANCH   3   8
ATOM      8  C   UNL     1      11.732  -7.911   2.567  1.00  0.00     0.191 C 
BRANCH   8   9
ATOM      9  O   UNL     1      11.130  -8.871   1.744  1.00  0.00    -0.394 OA
ATOM     10  H   UNL     1      10.232  -8.515   1.518  1.00  0.00     0.210 HD
ENDBRANCH   8   9
ENDBRANCH   3   8
BRANCH   4  11
ATOM     11  O   UNL     1      12.828  -5.447   3.122  1.00  0.00    -0.387 OA
ATOM     12  H   UNL     1      13.155  -6.321   2.784  1.00  0.00     0.211 HD
ENDBRANCH   4  11
BRANCH   6  13
ATOM     13  O   UNL     1      11.604  -4.835   0.570  1.00  0.00    -0.387 OA
ATOM     14  H   UNL     1      11.071  -5.570   0.170  1.00  0.00     0.211 HD
ENDBRANCH   6  13
BRANCH   7  15
ATOM     15  O   UNL     1       9.077  -4.137   0.321  1.00  0.00    -0.385 OA
ATOM     16  H   UNL     1       8.953  -5.010  -0.134  1.00  0.00     0.211 HD
ENDBRANCH   7  15
ENDBRANCH   1   2
BRANCH   1  17
ATOM     17  C   UNL     1       6.405  -6.026   2.263  1.00  0.00     0.224 C 
ATOM     18  C   UNL     1       5.168  -6.187   1.334  1.00  0.00     0.208 C 
ATOM     19  O   UNL     1       6.462  -7.153   3.125  1.00  0.00    -0.337 OA
ATOM     20  C   UNL     1       4.465  -7.412   1.868  1.00  0.00     0.180 C 
ATOM     21  C   UNL     1       5.565  -8.127   2.643  1.00  0.00     0.179 C 
BRANCH  17  22
ATOM     22  C   UNL     1       6.244  -4.746   3.124  1.00  0.00     0.225 C 
BRANCH  22  23
ATOM     23  O   UNL     1       5.053  -4.081   2.799  1.00  0.00    -0.391 OA
ATOM     24  H   UNL     1       4.383  -4.787   2.608  1.00  0.00     0.210 HD
ENDBRANCH  22  23
ENDBRANCH  17  22
BRANCH  18  25
ATOM     25  O   UNL     1       5.545  -6.416  -0.002  1.00  0.00    -0.385 OA
ATOM     26  H   UNL     1       5.442  -7.391  -0.163  1.00  0.00     0.211 HD
ENDBRANCH  18  25
BRANCH  20  27
ATOM     27  O   UNL     1       3.433  -7.025   2.738  1.00  0.00    -0.387 OA
ATOM     28  H   UNL     1       3.100  -7.854   3.171  1.00  0.00     0.211 HD
ENDBRANCH  20  27
BRANCH  21  29
ATOM     29  C   UNL     1       6.313  -9.149   1.772  1.00  0.00     0.191 C 
BRANCH  29  30
ATOM     30  O   UNL     1       7.693  -8.933   1.869  1.00  0.00    -0.394 OA
ATOM     31  H   UNL     1       7.821  -7.950   1.838  1.00  0.00     0.210 HD
ENDBRANCH  29  30
ENDBRANCH  21  29
ENDBRANCH   1  17
TORSDOF 13
ENDMDL
MODEL 4
REMARK VINA RESULT:    -2.612      2.631      4.802
REMARK INTER + INTRA:          -4.955
REMARK INTER:                  -4.631
REMARK INTRA:                  -0.324
REMARK UNBOUND:                -0.969
REMARK SMILES OC[C@@H]1O[C@H](O[C@]2(CO)O[C@H](CO)[C@@H](O)[C@@H]2O)[C@H](O)[C@H](O)[C@@H]1O
REMARK SMILES IDX 6 1 5 2 3 3 22 4 4 5 20 6 18 7 2 8 1 9 23 11 21 13 19 15
REMARK SMILES IDX 7 17 16 18 10 19 14 20 11 21 8 22 9 23 17 25 15 27 12 29
REMARK SMILES IDX 13 30
REMARK H PARENT 1 10 23 12 21 14 19 16 9 24 17 26 15 28 13 31
REMARK Flexibility Score: inf
ROOT
ATOM      1  O   UNL     1       4.872  -7.677   1.641  1.00  0.00    -0.313 OA
ENDROOT
BRANCH   1   2
ATOM      2  C   UNL     1       6.102  -7.403   2.302  1.00  0.00     0.285 C 
ATOM      3  C   UNL     1       8.389  -7.862   2.282  1.00  0.00     0.178 C 
ATOM      4  C   UNL     1       8.627  -6.540   3.086  1.00  0.00     0.177 C 
ATOM      5  O   UNL     1       7.202  -7.804   1.502  1.00  0.00    -0.341 OA
ATOM      6  C   UNL     1       7.685  -5.399   2.608  1.00  0.00     0.179 C 
ATOM      7  C   UNL     1       6.204  -5.878   2.584  1.00  0.00     0.202 C 
BRANCH   3   8
ATOM      8  C   UNL     1       9.560  -8.252   1.367  1.00  0.00     0.191 C 
BRANCH   8   9
ATOM      9  O   UNL     1      10.549  -8.932   2.090  1.00  0.00    -0.394 OA
ATOM     10  H   UNL     1      11.169  -9.314   1.416  1.00  0.00     0.210 HD
ENDBRANCH   8   9
ENDBRANCH   3   8
BRANCH   4  11
ATOM     11  O   UNL     1       9.992  -6.178   3.125  1.00  0.00    -0.387 OA
ATOM     12  H   UNL     1      10.513  -6.871   3.608  1.00  0.00     0.211 HD
ENDBRANCH   4  11
BRANCH   6  13
ATOM     13  O   UNL     1       8.094  -4.888   1.359  1.00  0.00    -0.387 OA
ATOM     14  H   UNL     1       9.013  -5.210   1.175  1.00  0.00     0.211 HD
ENDBRANCH   6  13
BRANCH   7  15
ATOM     15  O   UNL     1       5.485  -5.142   1.624  1.00  0.00    -0.385 OA
ATOM     16  H   UNL     1       4.603  -5.583   1.515  1.00  0.00     0.211 HD
ENDBRANCH   7  15
ENDBRANCH   1   2
BRANCH   1  17
ATOM     17  C   UNL     1       4.134  -8.787   2.164  1.00  0.00     0.224 C 
ATOM     18  C   UNL     1       2.901  -8.232   2.934  1.00  0.00     0.208 C 
ATOM     19  O   UNL     1       3.663  -9.621   1.116  1.00  0.00    -0.337 OA
ATOM     20  C   UNL     1       1.728  -8.959   2.322  1.00  0.00     0.180 C 
ATOM     21  C   UNL     1       2.275  -9.419   0.976  1.00  0.00     0.179 C 
BRANCH  17  22
ATOM     22  C   UNL     1       5.006  -9.635   3.125  1.00  0.00     0.225 C 
BRANCH  22  23
ATOM     23  O   UNL     1       6.139 -10.125   2.459  1.00  0.00    -0.391 OA
ATOM     24  H   UNL     1       6.261 -11.060   2.768  1.00  0.00     0.210 HD
ENDBRANCH  22  23
ENDBRANCH  17  22
BRANCH  18  25
ATOM     25  O   UNL     1       2.742  -6.849   2.736  1.00  0.00    -0.385 OA
ATOM     26  H   UNL     1       2.641  -6.443   3.638  1.00  0.00     0.211 HD
ENDBRANCH  18  25
BRANCH  20  27
ATOM     27  O   UNL     1       1.393 -10.070   3.113  1.00  0.00    -0.387 OA
ATOM     28  H   UNL     1       0.496  -9.885   3.498  1.00  0.00     0.211 HD
ENDBRANCH  20  27
BRANCH  21  29
ATOM     29  C   UNL     1       2.001  -8.396  -0.138  1.00  0.00     0.191 C 
BRANCH  29  30
ATOM     30  O   UNL     1       0.716  -7.861   0.016  1.00  0.00    -0.394 OA
ATOM     31  H   UNL     1       0.094  -8.634   0.009  1.00  0.00     0.210 HD
ENDBRANCH  29  30
ENDBRANCH  21  29
ENDBRANCH   1  17
TORSDOF 13
ENDMDL
MODEL 5
REMARK VINA RESULT:    -2.558      1.508      6.206
REMARK INTER + INTRA:          -4.873
REMARK INTER:                  -3.684
REMARK INTRA:                  -1.190
REMARK UNBOUND:                -0.969
REMARK SMILES OC[C@@H]1O[C@H](O[C@]2(CO)O[C@H](CO)[C@@H](O)[C@@H]2O)[C@H](O)[C@H](O)[C@@H]1O
REMARK SMILES IDX 6 1 5 2 3 3 22 4 4 5 20 6 18 7 2 8 1 9 23 11 21 13 19 15
REMARK SMILES IDX 7 17 16 18 10 19 14 20 11 21 8 22 9 23 17 25 15 27 12 29
REMARK SMILES IDX 13 30
REMARK H PARENT 1 10 23 12 21 14 19 16 9 24 17 26 15 28 13 31
REMARK Flexibility Score: inf
ROOT
ATOM      1  O   UNL     1       9.076  -4.990   1.240  1.00  0.00    -0.313 OA
ENDROOT
BRANCH   1   2
ATOM      2  C   UNL     1       8.055  -5.677   1.953  1.00  0.00     0.285 C 
ATOM      3  C   UNL     1       6.023  -5.392   3.064  1.00  0.00     0.178 C 
ATOM      4  C   UNL     1       5.725  -6.912   2.838  1.00  0.00     0.177 C 
ATOM      5  O   UNL     1       6.896  -4.867   2.073  1.00  0.00    -0.341 OA
ATOM      6  C   UNL     1       6.206  -7.390   1.438  1.00  0.00     0.179 C 
ATOM      7  C   UNL     1       7.689  -6.983   1.196  1.00  0.00     0.202 C 
BRANCH   3   8
ATOM      8  C   UNL     1       4.763  -4.514   3.125  1.00  0.00     0.191 C 
BRANCH   8   9
ATOM      9  O   UNL     1       4.039  -4.604   1.929  1.00  0.00    -0.394 OA
ATOM     10  H   UNL     1       4.594  -5.148   1.312  1.00  0.00     0.210 HD
ENDBRANCH   8   9
ENDBRANCH   3   8
BRANCH   4  11
ATOM     11  O   UNL     1       4.381  -7.240   3.125  1.00  0.00    -0.387 OA
ATOM     12  H   UNL     1       3.799  -6.452   2.970  1.00  0.00     0.211 HD
ENDBRANCH   4  11
BRANCH   6  13
ATOM     13  O   UNL     1       5.357  -6.918   0.417  1.00  0.00    -0.387 OA
ATOM     14  H   UNL     1       5.000  -7.700  -0.078  1.00  0.00     0.211 HD
ENDBRANCH   6  13
BRANCH   7  15
ATOM     15  O   UNL     1       7.920  -6.842  -0.186  1.00  0.00    -0.385 OA
ATOM     16  H   UNL     1       7.117  -7.188  -0.655  1.00  0.00     0.211 HD
ENDBRANCH   7  15
ENDBRANCH   1   2
BRANCH   1  17
ATOM     17  C   UNL     1      10.375  -5.036   1.842  1.00  0.00     0.224 C 
ATOM     18  C   UNL     1      11.360  -4.240   0.938  1.00  0.00     0.208 C 
ATOM     19  O   UNL     1      10.361  -4.428   3.125  1.00  0.00    -0.337 OA
ATOM     20  C   UNL     1      12.001  -3.248   1.878  1.00  0.00     0.180 C 
ATOM     21  C   UNL     1      11.008  -3.179   3.032  1.00  0.00     0.179 C 
BRANCH  17  22
ATOM     22  C   UNL     1      10.871  -6.498   1.988  1.00  0.00     0.225 C 
BRANCH  22  23
ATOM     23  O   UNL     1      11.800  -6.601   3.034  1.00  0.00    -0.391 OA
ATOM     24  H   UNL     1      11.273  -6.788   3.854  1.00  0.00     0.210 HD
ENDBRANCH  22  23
ENDBRANCH  17  22
BRANCH  18  25
ATOM     25  O   UNL     1      10.685  -3.542  -0.080  1.00  0.00    -0.385 OA
ATOM     26  H   UNL     1      10.213  -2.786   0.359  1.00  0.00     0.211 HD
ENDBRANCH  18  25
BRANCH  20  27
ATOM     27  O   UNL     1      13.233  -3.750   2.329  1.00  0.00    -0.387 OA
ATOM     28  H   UNL     1      13.928  -3.107   2.030  1.00  0.00     0.211 HD
ENDBRANCH  20  27
BRANCH  21  29
ATOM     29  C   UNL     1       9.972  -2.061   2.836  1.00  0.00     0.191 C 
BRANCH  29  30
ATOM     30  O   UNL     1      10.625  -0.837   2.648  1.00  0.00    -0.394 OA
ATOM     31  H   UNL     1      11.294  -0.768   3.378  1.00  0.00     0.210 HD
ENDBRANCH  29  30
ENDBRANCH  21  29
ENDBRANCH   1  17
TORSDOF 13
ENDMDL
MODEL 6
REMARK VINA RESULT:    -2.483      1.873      3.293
REMARK INTER + INTRA:          -4.759
REMARK INTER:                  -3.584
REMARK INTRA:                  -1.175
REMARK UNBOUND:                -0.969
REMARK SMILES OC[C@@H]1O[C@H](O[C@]2(CO)O[C@H](CO)[C@@H](O)[C@@H]2O)[C@H](O)[C@H](O)[C@@H]1O
REMARK SMILES IDX 6 1 5 2 3 3 22 4 4 5 20 6 18 7 2 8 1 9 23 11 21 13 19 15
REMARK SMILES IDX 7 17 16 18 10 19 14 20 11 21 8 22 9 23 17 25 15 27 12 29
REMARK SMILES IDX 13 30
REMARK H PARENT 1 10 23 12 21 14 19 16 9 24 17 26 15 28 13 31
REMARK Flexibility Score: inf
ROOT
ATOM      1  O   UNL     1       9.194  -5.041   1.553  1.00  0.00    -0.313 OA
ENDROOT
BRANCH   1   2
ATOM      2  C   UNL     1      10.264  -4.346   2.181  1.00  0.00     0.285 C 
ATOM      3  C   UNL     1      12.404  -3.483   1.836  1.00  0.00     0.178 C 
ATOM      4  C   UNL     1      12.175  -2.521   3.050  1.00  0.00     0.177 C 
ATOM      5  O   UNL     1      11.181  -3.858   1.216  1.00  0.00    -0.341 OA
ATOM      6  C   UNL     1      10.716  -1.983   3.088  1.00  0.00     0.179 C 
ATOM      7  C   UNL     1       9.693  -3.151   2.994  1.00  0.00     0.202 C 
BRANCH   3   8
ATOM      8  C   UNL     1      13.346  -2.917   0.763  1.00  0.00     0.191 C 
BRANCH   8   9
ATOM      9  O   UNL     1      14.620  -2.682   1.296  1.00  0.00    -0.394 OA
ATOM     10  H   UNL     1      14.647  -3.161   2.165  1.00  0.00     0.210 HD
ENDBRANCH   8   9
ENDBRANCH   3   8
BRANCH   4  11
ATOM     11  O   UNL     1      13.161  -1.512   3.124  1.00  0.00    -0.387 OA
ATOM     12  H   UNL     1      12.730  -0.621   3.186  1.00  0.00     0.211 HD
ENDBRANCH   4  11
BRANCH   6  13
ATOM     13  O   UNL     1      10.503  -1.012   2.088  1.00  0.00    -0.387 OA
ATOM     14  H   UNL     1      11.385  -0.672   1.789  1.00  0.00     0.211 HD
ENDBRANCH   6  13
BRANCH   7  15
ATOM     15  O   UNL     1       8.495  -2.684   2.422  1.00  0.00    -0.385 OA
ATOM     16  H   UNL     1       8.661  -1.759   2.104  1.00  0.00     0.211 HD
ENDBRANCH   7  15
ENDBRANCH   1   2
BRANCH   1  17
ATOM     17  C   UNL     1       9.012  -6.395   1.981  1.00  0.00     0.224 C 
ATOM     18  C   UNL     1       7.866  -6.424   3.034  1.00  0.00     0.208 C 
ATOM     19  O   UNL     1       8.633  -7.225   0.893  1.00  0.00    -0.337 OA
ATOM     20  C   UNL     1       6.906  -7.461   2.504  1.00  0.00     0.180 C 
ATOM     21  C   UNL     1       7.266  -7.536   1.025  1.00  0.00     0.179 C 
BRANCH  17  22
ATOM     22  C   UNL     1      10.310  -6.961   2.613  1.00  0.00     0.225 C 
BRANCH  22  23
ATOM     23  O   UNL     1      10.210  -8.349   2.787  1.00  0.00    -0.391 OA
ATOM     24  H   UNL     1      10.408  -8.523   3.744  1.00  0.00     0.210 HD
ENDBRANCH  22  23
ENDBRANCH  17  22
BRANCH  18  25
ATOM     25  O   UNL     1       7.207  -5.185   3.120  1.00  0.00    -0.385 OA
ATOM     26  H   UNL     1       7.064  -4.873   2.187  1.00  0.00     0.211 HD
ENDBRANCH  18  25
BRANCH  20  27
ATOM     27  O   UNL     1       7.153  -8.697   3.125  1.00  0.00    -0.387 OA
ATOM     28  H   UNL     1       6.342  -9.252   2.986  1.00  0.00     0.211 HD
ENDBRANCH  20  27
BRANCH  21  29
ATOM     29  C   UNL     1       6.421  -6.572   0.177  1.00  0.00     0.191 C 
BRANCH  29  30
ATOM     30  O   UNL     1       5.418  -5.999   0.968  1.00  0.00    -0.394 OA
ATOM     31  H   UNL     1       4.585  -6.495   0.759  1.00  0.00     0.210 HD
ENDBRANCH  29  30
ENDBRANCH  21  29
ENDBRANCH   1  17
TORSDOF 13
ENDMDL
MODEL 7
REMARK VINA RESULT:    -2.394      3.754      8.527
REMARK INTER + INTRA:          -4.622
REMARK INTER:                  -3.940
REMARK INTRA:                  -0.682
REMARK UNBOUND:                -0.969
REMARK SMILES OC[C@@H]1O[C@H](O[C@]2(CO)O[C@H](CO)[C@@H](O)[C@@H]2O)[C@H](O)[C@H](O)[C@@H]1O
REMARK SMILES IDX 6 1 5 2 3 3 22 4 4 5 20 6 18 7 2 8 1 9 23 11 21 13 19 15
REMARK SMILES IDX 7 17 16 18 10 19 14 20 11 21 8 22 9 23 17 25 15 27 12 29
REMARK SMILES IDX 13 30
REMARK H PARENT 1 10 23 12 21 14 19 16 9 24 17 26 15 28 13 31
REMARK Flexibility Score: inf
ROOT
ATOM      1  O   UNL     1       3.932  -7.671   1.012  1.00  0.00    -0.313 OA
ENDROOT
BRANCH   1   2
ATOM      2  C   UNL     1       2.726  -8.054   1.662  1.00  0.00     0.285 C 
ATOM      3  C   UNL     1       0.479  -7.489   1.937  1.00  0.00     0.178 C 
ATOM      4  C   UNL     1       0.194  -8.968   2.364  1.00  0.00     0.177 C 
ATOM      5  O   UNL     1       1.613  -7.390   1.085  1.00  0.00    -0.341 OA
ATOM      6  C   UNL     1       1.026  -9.979   1.524  1.00  0.00     0.179 C 
ATOM      7  C   UNL     1       2.533  -9.589   1.523  1.00  0.00     0.202 C 
BRANCH   3   8
ATOM      8  C   UNL     1      -0.712  -6.801   1.251  1.00  0.00     0.191 C 
BRANCH   8   9
ATOM      9  O   UNL     1      -0.556  -6.811  -0.141  1.00  0.00    -0.394 OA
ATOM     10  H   UNL     1      -1.368  -6.377  -0.512  1.00  0.00     0.210 HD
ENDBRANCH   8   9
ENDBRANCH   3   8
BRANCH   4  11
ATOM     11  O   UNL     1      -1.188  -9.256   2.403  1.00  0.00    -0.387 OA
ATOM     12  H   UNL     1      -1.705  -8.418   2.529  1.00  0.00     0.211 HD
ENDBRANCH   4  11
BRANCH   6  13
ATOM     13  O   UNL     1       0.513 -10.102   0.217  1.00  0.00    -0.387 OA
ATOM     14  H   UNL     1      -0.446  -9.847   0.232  1.00  0.00     0.211 HD
ENDBRANCH   6  13
BRANCH   7  15
ATOM     15  O   UNL     1       3.143 -10.067   0.349  1.00  0.00    -0.385 OA
ATOM     16  H   UNL     1       3.153  -9.319  -0.303  1.00  0.00     0.211 HD
ENDBRANCH   7  15
ENDBRANCH   1   2
BRANCH   1  17
ATOM     17  C   UNL     1       5.082  -7.590   1.861  1.00  0.00     0.224 C 
ATOM     18  C   UNL     1       6.144  -6.695   1.159  1.00  0.00     0.208 C 
ATOM     19  O   UNL     1       4.752  -6.992   3.106  1.00  0.00    -0.337 OA
ATOM     20  C   UNL     1       6.483  -5.648   2.193  1.00  0.00     0.180 C 
ATOM     21  C   UNL     1       5.278  -5.685   3.125  1.00  0.00     0.179 C 
BRANCH  17  22
ATOM     22  C   UNL     1       5.682  -8.995   2.125  1.00  0.00     0.225 C 
BRANCH  22  23
ATOM     23  O   UNL     1       7.071  -8.914   2.302  1.00  0.00    -0.391 OA
ATOM     24  H   UNL     1       7.463  -9.650   1.763  1.00  0.00     0.210 HD
ENDBRANCH  22  23
ENDBRANCH  17  22
BRANCH  18  25
ATOM     25  O   UNL     1       5.620  -6.063   0.017  1.00  0.00    -0.385 OA
ATOM     26  H   UNL     1       4.928  -6.673  -0.352  1.00  0.00     0.211 HD
ENDBRANCH  18  25
BRANCH  20  27
ATOM     27  O   UNL     1       7.644  -6.027   2.888  1.00  0.00    -0.387 OA
ATOM     28  H   UNL     1       7.951  -6.881   2.484  1.00  0.00     0.211 HD
ENDBRANCH  20  27
BRANCH  21  29
ATOM     29  C   UNL     1       4.197  -4.675   2.709  1.00  0.00     0.191 C 
BRANCH  29  30
ATOM     30  O   UNL     1       4.569  -3.388   3.114  1.00  0.00    -0.394 OA
ATOM     31  H   UNL     1       4.610  -2.840   2.288  1.00  0.00     0.210 HD
ENDBRANCH  29  30
ENDBRANCH  21  29
ENDBRANCH   1  17
TORSDOF 13
ENDMDL
