MODEL 1
REMARK VINA RESULT:    -1.989      0.000      0.000
REMARK INTER + INTRA:          -2.796
REMARK INTER:                  -2.454
REMARK INTRA:                  -0.342
REMARK UNBOUND:                -0.342
REMARK SMILES CCCCCC(C)=O
REMARK SMILES IDX 4 1 3 2 2 3 1 4 5 5 6 6 8 7 7 8
REMARK H PARENT
REMARK Flexibility Score: inf
ROOT
ATOM      1  C   UNL     1     131.697 145.627 138.772  1.00  0.00     0.008 C 
ENDROOT
BRANCH   1   2
ATOM      2  C   UNL     1     132.806 146.516 139.358  1.00  0.00     0.000 C 
BRANCH   2   3
ATOM      3  C   UNL     1     132.268 147.843 139.915  1.00  0.00    -0.003 C 
ATOM      4  C   UNL     1     131.580 147.635 141.261  1.00  0.00     0.004 C 
ENDBRANCH   2   3
ENDBRANCH   1   2
BRANCH   1   5
ATOM      5  C   UNL     1     130.903 146.327 137.661  1.00  0.00     0.075 C 
BRANCH   5   6
ATOM      6  C   UNL     1     129.431 146.328 137.982  1.00  0.00     0.129 C 
ATOM      7  O   UNL     1     128.634 146.730 137.148  1.00  0.00    -0.300 OA
ATOM      8  C   UNL     1     128.917 145.834 139.302  1.00  0.00     0.087 C 
ENDBRANCH   5   6
ENDBRANCH   1   5
TORSDOF 4
ENDMDL
MODEL 2
REMARK VINA RESULT:    -1.956     12.571     13.615
REMARK INTER + INTRA:          -2.755
REMARK INTER:                  -2.370
REMARK INTRA:                  -0.385
REMARK UNBOUND:                -0.342
REMARK SMILES CCCCCC(C)=O
REMARK SMILES IDX 4 1 3 2 2 3 1 4 5 5 6 6 8 7 7 8
REMARK H PARENT
REMARK Flexibility Score: inf
ROOT
ATOM      1  C   UNL     1     144.009 145.346 140.021  1.00  0.00     0.008 C 
ENDROOT
BRANCH   1   2
ATOM      2  C   UNL     1     145.520 145.387 139.743  1.00  0.00     0.000 C 
BRANCH   2   3
ATOM      3  C   UNL     1     146.227 146.535 140.479  1.00  0.00    -0.003 C 
ATOM      4  C   UNL     1     145.322 147.141 141.548  1.00  0.00     0.004 C 
ENDBRANCH   2   3
ENDBRANCH   1   2
BRANCH   1   5
ATOM      5  C   UNL     1     143.169 145.429 138.738  1.00  0.00     0.075 C 
BRANCH   5   6
ATOM      6  C   UNL     1     143.362 146.762 138.063  1.00  0.00     0.129 C 
ATOM      7  O   UNL     1     143.810 146.801 136.927  1.00  0.00    -0.300 OA
ATOM      8  C   UNL     1     143.003 148.046 138.751  1.00  0.00     0.087 C 
ENDBRANCH   5   6
ENDBRANCH   1   5
TORSDOF 4
ENDMDL
MODEL 3
REMARK VINA RESULT:    -1.949      1.399      2.489
REMARK INTER + INTRA:          -2.747
REMARK INTER:                  -2.503
REMARK INTRA:                  -0.244
REMARK UNBOUND:                -0.342
REMARK SMILES CCCCCC(C)=O
REMARK SMILES IDX 4 1 3 2 2 3 1 4 5 5 6 6 8 7 7 8
REMARK H PARENT
REMARK Flexibility Score: inf
ROOT
ATOM      1  C   UNL     1     131.839 146.569 138.944  1.00  0.00     0.008 C 
ENDROOT
BRANCH   1   2
ATOM      2  C   UNL     1     132.831 145.467 139.350  1.00  0.00     0.000 C 
BRANCH   2   3
ATOM      3  C   UNL     1     132.721 144.217 138.464  1.00  0.00    -0.003 C 
ATOM      4  C   UNL     1     134.083 143.553 138.280  1.00  0.00     0.004 C 
ENDBRANCH   2   3
ENDBRANCH   1   2
BRANCH   1   5
ATOM      5  C   UNL     1     130.946 146.157 137.766  1.00  0.00     0.075 C 
BRANCH   5   6
ATOM      6  C   UNL     1     129.494 146.181 138.167  1.00  0.00     0.129 C 
ATOM      7  O   UNL     1     128.656 146.567 137.367  1.00  0.00    -0.300 OA
ATOM      8  C   UNL     1     129.050 145.728 139.527  1.00  0.00     0.087 C 
ENDBRANCH   5   6
ENDBRANCH   1   5
TORSDOF 4
ENDMDL
MODEL 4
REMARK VINA RESULT:    -1.915     12.518     14.069
REMARK INTER + INTRA:          -2.705
REMARK INTER:                  -2.368
REMARK INTRA:                  -0.337
REMARK UNBOUND:                -0.342
REMARK SMILES CCCCCC(C)=O
REMARK SMILES IDX 4 1 3 2 2 3 1 4 5 5 6 6 8 7 7 8
REMARK H PARENT
REMARK Flexibility Score: inf
ROOT
ATOM      1  C   UNL     1     143.942 145.603 139.144  1.00  0.00     0.008 C 
ENDROOT
BRANCH   1   2
ATOM      2  C   UNL     1     143.856 146.590 137.969  1.00  0.00     0.000 C 
BRANCH   2   3
ATOM      3  C   UNL     1     143.135 147.894 138.343  1.00  0.00    -0.003 C 
ATOM      4  C   UNL     1     141.840 147.609 139.098  1.00  0.00     0.004 C 
ENDBRANCH   2   3
ENDBRANCH   1   2
BRANCH   1   5
ATOM      5  C   UNL     1     145.370 145.451 139.685  1.00  0.00     0.075 C 
BRANCH   5   6
ATOM      6  C   UNL     1     145.640 146.466 140.764  1.00  0.00     0.129 C 
ATOM      7  O   UNL     1     146.760 146.941 140.876  1.00  0.00    -0.300 OA
ATOM      8  C   UNL     1     144.559 146.920 141.700  1.00  0.00     0.087 C 
ENDBRANCH   5   6
ENDBRANCH   1   5
TORSDOF 4
ENDMDL
MODEL 5
REMARK VINA RESULT:    -1.904     11.885     13.180
REMARK INTER + INTRA:          -2.691
REMARK INTER:                  -2.438
REMARK INTRA:                  -0.254
REMARK UNBOUND:                -0.342
REMARK SMILES CCCCCC(C)=O
REMARK SMILES IDX 4 1 3 2 2 3 1 4 5 5 6 6 8 7 7 8
REMARK H PARENT
REMARK Flexibility Score: inf
ROOT
ATOM      1  C   UNL     1     142.308 145.581 138.592  1.00  0.00     0.008 C 
ENDROOT
BRANCH   1   2
ATOM      2  C   UNL     1     141.770 144.783 137.394  1.00  0.00     0.000 C 
BRANCH   2   3
ATOM      3  C   UNL     1     141.482 143.315 137.741  1.00  0.00    -0.003 C 
ATOM      4  C   UNL     1     142.437 142.808 138.817  1.00  0.00     0.004 C 
ENDBRANCH   2   3
ENDBRANCH   1   2
BRANCH   1   5
ATOM      5  C   UNL     1     143.618 146.315 138.273  1.00  0.00     0.075 C 
BRANCH   5   6
ATOM      6  C   UNL     1     144.571 146.229 139.436  1.00  0.00     0.129 C 
ATOM      7  O   UNL     1     144.667 147.172 140.207  1.00  0.00    -0.300 OA
ATOM      8  C   UNL     1     145.400 145.002 139.679  1.00  0.00     0.087 C 
ENDBRANCH   5   6
ENDBRANCH   1   5
TORSDOF 4
ENDMDL
MODEL 6
REMARK VINA RESULT:    -1.876     12.098     13.520
REMARK INTER + INTRA:          -2.656
REMARK INTER:                  -2.311
REMARK INTRA:                  -0.346
REMARK UNBOUND:                -0.342
REMARK SMILES CCCCCC(C)=O
REMARK SMILES IDX 4 1 3 2 2 3 1 4 5 5 6 6 8 7 7 8
REMARK H PARENT
REMARK Flexibility Score: inf
ROOT
ATOM      1  C   UNL     1     144.110 146.639 140.287  1.00  0.00     0.008 C 
ENDROOT
BRANCH   1   2
ATOM      2  C   UNL     1     145.533 146.142 139.988  1.00  0.00     0.000 C 
BRANCH   2   3
ATOM      3  C   UNL     1     145.593 144.625 139.754  1.00  0.00    -0.003 C 
ATOM      4  C   UNL     1     144.539 143.899 140.585  1.00  0.00     0.004 C 
ENDBRANCH   2   3
ENDBRANCH   1   2
BRANCH   1   5
ATOM      5  C   UNL     1     143.529 147.490 139.149  1.00  0.00     0.075 C 
BRANCH   5   6
ATOM      6  C   UNL     1     143.307 146.650 137.918  1.00  0.00     0.129 C 
ATOM      7  O   UNL     1     143.903 146.923 136.888  1.00  0.00    -0.300 OA
ATOM      8  C   UNL     1     142.377 145.472 137.933  1.00  0.00     0.087 C 
ENDBRANCH   5   6
ENDBRANCH   1   5
TORSDOF 4
ENDMDL
MODEL 7
REMARK VINA RESULT:    -1.858      2.609      4.192
REMARK INTER + INTRA:          -2.634
REMARK INTER:                  -2.386
REMARK INTRA:                  -0.248
REMARK UNBOUND:                -0.342
REMARK SMILES CCCCCC(C)=O
REMARK SMILES IDX 4 1 3 2 2 3 1 4 5 5 6 6 8 7 7 8
REMARK H PARENT
REMARK Flexibility Score: inf
ROOT
ATOM      1  C   UNL     1     131.986 144.767 138.867  1.00  0.00     0.008 C 
ENDROOT
BRANCH   1   2
ATOM      2  C   UNL     1     132.105 143.973 137.556  1.00  0.00     0.000 C 
BRANCH   2   3
ATOM      3  C   UNL     1     133.208 142.906 137.608  1.00  0.00    -0.003 C 
ATOM      4  C   UNL     1     134.455 143.439 138.309  1.00  0.00     0.004 C 
ENDBRANCH   2   3
ENDBRANCH   1   2
BRANCH   1   5
ATOM      5  C   UNL     1     131.806 146.273 138.632  1.00  0.00     0.075 C 
BRANCH   5   6
ATOM      6  C   UNL     1     132.609 147.066 139.630  1.00  0.00     0.129 C 
ATOM      7  O   UNL     1     132.169 148.125 140.051  1.00  0.00    -0.300 OA
ATOM      8  C   UNL     1     133.936 146.577 140.132  1.00  0.00     0.087 C 
ENDBRANCH   5   6
ENDBRANCH   1   5
TORSDOF 4
ENDMDL
MODEL 8
REMARK VINA RESULT:    -1.855      2.019      3.300
REMARK INTER + INTRA:          -2.630
REMARK INTER:                  -2.299
REMARK INTRA:                  -0.331
REMARK UNBOUND:                -0.342
REMARK SMILES CCCCCC(C)=O
REMARK SMILES IDX 4 1 3 2 2 3 1 4 5 5 6 6 8 7 7 8
REMARK H PARENT
REMARK Flexibility Score: inf
ROOT
ATOM      1  C   UNL     1     132.048 144.826 138.984  1.00  0.00     0.008 C 
ENDROOT
BRANCH   1   2
ATOM      2  C   UNL     1     132.319 143.939 137.759  1.00  0.00     0.000 C 
BRANCH   2   3
ATOM      3  C   UNL     1     131.883 142.482 137.974  1.00  0.00    -0.003 C 
ATOM      4  C   UNL     1     130.416 142.403 138.386  1.00  0.00     0.004 C 
ENDBRANCH   2   3
ENDBRANCH   1   2
BRANCH   1   5
ATOM      5  C   UNL     1     131.724 146.278 138.604  1.00  0.00     0.075 C 
BRANCH   5   6
ATOM      6  C   UNL     1     130.452 146.345 137.800  1.00  0.00     0.129 C 
ATOM      7  O   UNL     1     130.492 146.739 136.645  1.00  0.00    -0.300 OA
ATOM      8  C   UNL     1     129.135 145.925 138.383  1.00  0.00     0.087 C 
ENDBRANCH   5   6
ENDBRANCH   1   5
TORSDOF 4
ENDMDL
MODEL 9
REMARK VINA RESULT:    -1.809      2.233      3.296
REMARK INTER + INTRA:          -2.574
REMARK INTER:                  -2.211
REMARK INTRA:                  -0.363
REMARK UNBOUND:                -0.342
REMARK SMILES CCCCCC(C)=O
REMARK SMILES IDX 4 1 3 2 2 3 1 4 5 5 6 6 8 7 7 8
REMARK H PARENT
REMARK Flexibility Score: inf
ROOT
ATOM      1  C   UNL     1     129.452 146.191 138.928  1.00  0.00     0.008 C 
ENDROOT
BRANCH   1   2
ATOM      2  C   UNL     1     130.652 146.166 137.968  1.00  0.00     0.000 C 
BRANCH   2   3
ATOM      3  C   UNL     1     131.957 145.745 138.661  1.00  0.00    -0.003 C 
ATOM      4  C   UNL     1     132.355 144.326 138.267  1.00  0.00     0.004 C 
ENDBRANCH   2   3
ENDBRANCH   1   2
BRANCH   1   5
ATOM      5  C   UNL     1     128.416 145.104 138.608  1.00  0.00     0.075 C 
BRANCH   5   6
ATOM      6  C   UNL     1     128.802 143.797 139.250  1.00  0.00     0.129 C 
ATOM      7  O   UNL     1     129.293 143.799 140.368  1.00  0.00    -0.300 OA
ATOM      8  C   UNL     1     128.584 142.488 138.551  1.00  0.00     0.087 C 
ENDBRANCH   5   6
ENDBRANCH   1   5
TORSDOF 4
ENDMDL
