MODEL 1
REMARK VINA RESULT:    -5.111      0.000      0.000
REMARK INTER + INTRA:         -11.597
REMARK INTER:                  -9.294
REMARK INTRA:                  -2.303
REMARK UNBOUND:                -2.303
REMARK SMILES CCCCCCCCCCCCCCCC(=O)[O-]
REMARK SMILES IDX 9 1 10 2 11 3 12 4 13 5 14 6 15 7 16 8 17 9 18 10 8 11 7 12
REMARK SMILES IDX 6 13 5 14 4 15 3 16 2 17 1 18
REMARK H PARENT
REMARK Flexibility Score: inf
ROOT
ATOM      1  C   UNL     1      17.114  24.747   8.422  1.00  0.00     0.000 C 
ENDROOT
BRANCH   1   2
ATOM      2  C   UNL     1      17.262  23.899   7.147  1.00  0.00     0.000 C 
BRANCH   2   3
ATOM      3  C   UNL     1      18.723  23.522   6.843  1.00  0.00     0.000 C 
BRANCH   3   4
ATOM      4  C   UNL     1      18.915  22.505   5.702  1.00  0.00     0.000 C 
BRANCH   4   5
ATOM      5  C   UNL     1      20.361  21.993   5.589  1.00  0.00     0.000 C 
BRANCH   5   6
ATOM      6  C   UNL     1      21.197  22.310   6.847  1.00  0.00     0.006 C 
BRANCH   6   7
ATOM      7  C   UNL     1      22.004  21.108   7.365  1.00  0.00     0.053 C 
BRANCH   7   8
ATOM      8  C   UNL     1      21.962  19.946   6.424  1.00  0.00     0.041 C 
ATOM      9  O   UNL     1      22.928  19.726   5.647  1.00  0.00    -0.550 OA
ATOM     10  O   UNL     1      20.869  19.088   6.426  1.00  0.00    -0.550 OA
ENDBRANCH   7   8
ENDBRANCH   6   7
ENDBRANCH   5   6
ENDBRANCH   4   5
ENDBRANCH   3   4
ENDBRANCH   2   3
ENDBRANCH   1   2
BRANCH   1  11
ATOM     11  C   UNL     1      17.965  26.031   8.391  1.00  0.00     0.000 C 
BRANCH  11  12
ATOM     12  C   UNL     1      19.113  26.086   9.416  1.00  0.00    -0.000 C 
BRANCH  12  13
ATOM     13  C   UNL     1      19.124  24.880  10.371  1.00  0.00    -0.000 C 
BRANCH  13  14
ATOM     14  C   UNL     1      20.328  23.954  10.134  1.00  0.00    -0.000 C 
BRANCH  14  15
ATOM     15  C   UNL     1      19.957  22.465  10.258  1.00  0.00    -0.000 C 
BRANCH  15  16
ATOM     16  C   UNL     1      18.563  22.246  10.874  1.00  0.00    -0.000 C 
BRANCH  16  17
ATOM     17  C   UNL     1      17.623  21.349  10.049  1.00  0.00    -0.003 C 
ATOM     18  C   UNL     1      18.349  20.577   8.948  1.00  0.00     0.004 C 
ENDBRANCH  16  17
ENDBRANCH  15  16
ENDBRANCH  14  15
ENDBRANCH  13  14
ENDBRANCH  12  13
ENDBRANCH  11  12
ENDBRANCH   1  11
TORSDOF 14
ENDMDL
MODEL 2
REMARK VINA RESULT:    -5.022      2.244      4.826
REMARK INTER + INTRA:         -11.435
REMARK INTER:                  -9.103
REMARK INTRA:                  -2.332
REMARK UNBOUND:                -2.303
REMARK SMILES CCCCCCCCCCCCCCCC(=O)[O-]
REMARK SMILES IDX 9 1 10 2 11 3 12 4 13 5 14 6 15 7 16 8 17 9 18 10 8 11 7 12
REMARK SMILES IDX 6 13 5 14 4 15 3 16 2 17 1 18
REMARK H PARENT
REMARK Flexibility Score: inf
ROOT
ATOM      1  C   UNL     1      17.201  24.047   6.876  1.00  0.00     0.000 C 
ENDROOT
BRANCH   1   2
ATOM      2  C   UNL     1      17.184  24.639   8.295  1.00  0.00     0.000 C 
BRANCH   2   3
ATOM      3  C   UNL     1      18.249  25.731   8.503  1.00  0.00     0.000 C 
BRANCH   3   4
ATOM      4  C   UNL     1      19.399  25.354   9.455  1.00  0.00     0.000 C 
BRANCH   4   5
ATOM      5  C   UNL     1      20.152  24.087   9.017  1.00  0.00     0.000 C 
BRANCH   5   6
ATOM      6  C   UNL     1      20.063  22.957  10.064  1.00  0.00     0.006 C 
BRANCH   6   7
ATOM      7  C   UNL     1      19.362  21.693   9.543  1.00  0.00     0.053 C 
BRANCH   7   8
ATOM      8  C   UNL     1      18.085  21.409  10.268  1.00  0.00     0.041 C 
ATOM      9  O   UNL     1      17.529  22.312  10.947  1.00  0.00    -0.550 OA
ATOM     10  O   UNL     1      17.493  20.155  10.171  1.00  0.00    -0.550 OA
ENDBRANCH   7   8
ENDBRANCH   6   7
ENDBRANCH   5   6
ENDBRANCH   4   5
ENDBRANCH   3   4
ENDBRANCH   2   3
ENDBRANCH   1   2
BRANCH   1  11
ATOM     11  C   UNL     1      16.875  22.541   6.850  1.00  0.00     0.000 C 
BRANCH  11  12
ATOM     12  C   UNL     1      17.876  21.664   6.076  1.00  0.00    -0.000 C 
BRANCH  12  13
ATOM     13  C   UNL     1      19.214  22.373   5.807  1.00  0.00    -0.000 C 
BRANCH  13  14
ATOM     14  C   UNL     1      19.982  21.751   4.629  1.00  0.00    -0.000 C 
BRANCH  14  15
ATOM     15  C   UNL     1      21.406  21.317   5.020  1.00  0.00    -0.000 C 
BRANCH  15  16
ATOM     16  C   UNL     1      21.796  21.759   6.443  1.00  0.00    -0.000 C 
BRANCH  16  17
ATOM     17  C   UNL     1      22.187  20.613   7.394  1.00  0.00    -0.003 C 
ATOM     18  C   UNL     1      22.943  21.096   8.631  1.00  0.00     0.004 C 
ENDBRANCH  16  17
ENDBRANCH  15  16
ENDBRANCH  14  15
ENDBRANCH  13  14
ENDBRANCH  12  13
ENDBRANCH  11  12
ENDBRANCH   1  11
TORSDOF 14
ENDMDL
MODEL 3
REMARK VINA RESULT:    -4.933      1.288      2.103
REMARK INTER + INTRA:         -11.273
REMARK INTER:                  -8.586
REMARK INTRA:                  -2.687
REMARK UNBOUND:                -2.303
REMARK SMILES CCCCCCCCCCCCCCCC(=O)[O-]
REMARK SMILES IDX 9 1 10 2 11 3 12 4 13 5 14 6 15 7 16 8 17 9 18 10 8 11 7 12
REMARK SMILES IDX 6 13 5 14 4 15 3 16 2 17 1 18
REMARK H PARENT
REMARK Flexibility Score: inf
ROOT
ATOM      1  C   UNL     1      16.899  24.066   7.632  1.00  0.00     0.000 C 
ENDROOT
BRANCH   1   2
ATOM      2  C   UNL     1      17.764  23.485   6.501  1.00  0.00     0.000 C 
BRANCH   2   3
ATOM      3  C   UNL     1      17.565  21.971   6.310  1.00  0.00     0.000 C 
BRANCH   3   4
ATOM      4  C   UNL     1      18.759  21.225   5.686  1.00  0.00     0.000 C 
BRANCH   4   5
ATOM      5  C   UNL     1      19.928  22.157   5.323  1.00  0.00     0.000 C 
BRANCH   5   6
ATOM      6  C   UNL     1      21.273  21.405   5.230  1.00  0.00     0.006 C 
BRANCH   6   7
ATOM      7  C   UNL     1      21.267  20.047   5.948  1.00  0.00     0.053 C 
BRANCH   7   8
ATOM      8  C   UNL     1      22.476  19.851   6.807  1.00  0.00     0.041 C 
ATOM      9  O   UNL     1      22.720  20.651   7.749  1.00  0.00    -0.550 OA
ATOM     10  O   UNL     1      23.318  18.768   6.587  1.00  0.00    -0.550 OA
ENDBRANCH   7   8
ENDBRANCH   6   7
ENDBRANCH   5   6
ENDBRANCH   4   5
ENDBRANCH   3   4
ENDBRANCH   2   3
ENDBRANCH   1   2
BRANCH   1  11
ATOM     11  C   UNL     1      17.620  25.164   8.436  1.00  0.00     0.000 C 
BRANCH  11  12
ATOM     12  C   UNL     1      17.681  24.935   9.958  1.00  0.00    -0.000 C 
BRANCH  12  13
ATOM     13  C   UNL     1      17.049  23.601  10.390  1.00  0.00    -0.000 C 
BRANCH  13  14
ATOM     14  C   UNL     1      18.079  22.634  10.997  1.00  0.00    -0.000 C 
BRANCH  14  15
ATOM     15  C   UNL     1      18.332  21.408  10.102  1.00  0.00    -0.000 C 
BRANCH  15  16
ATOM     16  C   UNL     1      19.601  21.548   9.242  1.00  0.00    -0.000 C 
BRANCH  16  17
ATOM     17  C   UNL     1      20.554  22.678   9.672  1.00  0.00    -0.003 C 
ATOM     18  C   UNL     1      21.000  23.559   8.505  1.00  0.00     0.004 C 
ENDBRANCH  16  17
ENDBRANCH  15  16
ENDBRANCH  14  15
ENDBRANCH  13  14
ENDBRANCH  12  13
ENDBRANCH  11  12
ENDBRANCH   1  11
TORSDOF 14
ENDMDL
MODEL 4
REMARK VINA RESULT:    -4.898      1.770      4.081
REMARK INTER + INTRA:         -11.209
REMARK INTER:                  -8.798
REMARK INTRA:                  -2.411
REMARK UNBOUND:                -2.303
REMARK SMILES CCCCCCCCCCCCCCCC(=O)[O-]
REMARK SMILES IDX 9 1 10 2 11 3 12 4 13 5 14 6 15 7 16 8 17 9 18 10 8 11 7 12
REMARK SMILES IDX 6 13 5 14 4 15 3 16 2 17 1 18
REMARK H PARENT
REMARK Flexibility Score: inf
ROOT
ATOM      1  C   UNL     1      21.163  23.485   8.350  1.00  0.00     0.000 C 
ENDROOT
BRANCH   1   2
ATOM      2  C   UNL     1      21.450  22.392   7.307  1.00  0.00     0.000 C 
BRANCH   2   3
ATOM      3  C   UNL     1      20.285  22.180   6.322  1.00  0.00     0.000 C 
BRANCH   3   4
ATOM      4  C   UNL     1      19.112  23.166   6.472  1.00  0.00     0.000 C 
BRANCH   4   5
ATOM      5  C   UNL     1      17.740  22.469   6.495  1.00  0.00     0.000 C 
BRANCH   5   6
ATOM      6  C   UNL     1      17.793  21.047   5.900  1.00  0.00     0.006 C 
BRANCH   6   7
ATOM      7  C   UNL     1      16.875  20.047   6.621  1.00  0.00     0.053 C 
BRANCH   7   8
ATOM      8  C   UNL     1      17.600  19.257   7.664  1.00  0.00     0.041 C 
ATOM      9  O   UNL     1      17.159  19.211   8.842  1.00  0.00    -0.550 OA
ATOM     10  O   UNL     1      18.747  18.547   7.328  1.00  0.00    -0.550 OA
ENDBRANCH   7   8
ENDBRANCH   6   7
ENDBRANCH   5   6
ENDBRANCH   4   5
ENDBRANCH   3   4
ENDBRANCH   2   3
ENDBRANCH   1   2
BRANCH   1  11
ATOM     11  C   UNL     1      21.437  23.023   9.794  1.00  0.00     0.000 C 
BRANCH  11  12
ATOM     12  C   UNL     1      20.202  22.961  10.712  1.00  0.00    -0.000 C 
BRANCH  12  13
ATOM     13  C   UNL     1      19.067  22.098  10.134  1.00  0.00    -0.000 C 
BRANCH  13  14
ATOM     14  C   UNL     1      17.713  22.825  10.146  1.00  0.00    -0.000 C 
BRANCH  14  15
ATOM     15  C   UNL     1      17.854  24.323  10.473  1.00  0.00    -0.000 C 
BRANCH  15  16
ATOM     16  C   UNL     1      17.200  25.230   9.415  1.00  0.00    -0.000 C 
BRANCH  16  17
ATOM     17  C   UNL     1      18.186  25.924   8.458  1.00  0.00    -0.003 C 
ATOM     18  C   UNL     1      19.191  26.819   9.181  1.00  0.00     0.004 C 
ENDBRANCH  16  17
ENDBRANCH  15  16
ENDBRANCH  14  15
ENDBRANCH  13  14
ENDBRANCH  12  13
ENDBRANCH  11  12
ENDBRANCH   1  11
TORSDOF 14
ENDMDL
MODEL 5
REMARK VINA RESULT:    -4.897      3.305      5.784
REMARK INTER + INTRA:         -11.208
REMARK INTER:                  -9.047
REMARK INTRA:                  -2.162
REMARK UNBOUND:                -2.303
REMARK SMILES CCCCCCCCCCCCCCCC(=O)[O-]
REMARK SMILES IDX 9 1 10 2 11 3 12 4 13 5 14 6 15 7 16 8 17 9 18 10 8 11 7 12
REMARK SMILES IDX 6 13 5 14 4 15 3 16 2 17 1 18
REMARK H PARENT
REMARK Flexibility Score: inf
ROOT
ATOM      1  C   UNL     1      18.171  20.106   8.219  1.00  0.00     0.000 C 
ENDROOT
BRANCH   1   2
ATOM      2  C   UNL     1      17.547  20.582   9.541  1.00  0.00     0.000 C 
BRANCH   2   3
ATOM      3  C   UNL     1      18.466  21.531  10.332  1.00  0.00     0.000 C 
BRANCH   3   4
ATOM      4  C   UNL     1      17.749  22.465  11.324  1.00  0.00     0.000 C 
BRANCH   4   5
ATOM      5  C   UNL     1      17.362  23.818  10.704  1.00  0.00     0.000 C 
BRANCH   5   6
ATOM      6  C   UNL     1      18.487  24.406   9.825  1.00  0.00     0.006 C 
BRANCH   6   7
ATOM      7  C   UNL     1      17.972  25.311   8.695  1.00  0.00     0.053 C 
BRANCH   7   8
ATOM      8  C   UNL     1      18.168  26.764   8.995  1.00  0.00     0.041 C 
ATOM      9  O   UNL     1      19.330  27.241   9.079  1.00  0.00    -0.550 OA
ATOM     10  O   UNL     1      17.067  27.597   9.151  1.00  0.00    -0.550 OA
ENDBRANCH   7   8
ENDBRANCH   6   7
ENDBRANCH   5   6
ENDBRANCH   4   5
ENDBRANCH   3   4
ENDBRANCH   2   3
ENDBRANCH   1   2
BRANCH   1  11
ATOM     11  C   UNL     1      17.416  20.622   6.979  1.00  0.00     0.000 C 
BRANCH  11  12
ATOM     12  C   UNL     1      16.905  22.072   7.073  1.00  0.00    -0.000 C 
BRANCH  12  13
ATOM     13  C   UNL     1      17.732  23.056   6.227  1.00  0.00    -0.000 C 
BRANCH  13  14
ATOM     14  C   UNL     1      19.107  22.486   5.842  1.00  0.00    -0.000 C 
BRANCH  14  15
ATOM     15  C   UNL     1      20.206  22.872   6.849  1.00  0.00    -0.000 C 
BRANCH  15  16
ATOM     16  C   UNL     1      21.290  21.788   6.995  1.00  0.00    -0.000 C 
BRANCH  16  17
ATOM     17  C   UNL     1      21.918  21.684   8.397  1.00  0.00    -0.003 C 
ATOM     18  C   UNL     1      21.742  22.956   9.226  1.00  0.00     0.004 C 
ENDBRANCH  16  17
ENDBRANCH  15  16
ENDBRANCH  14  15
ENDBRANCH  13  14
ENDBRANCH  12  13
ENDBRANCH  11  12
ENDBRANCH   1  11
TORSDOF 14
ENDMDL
MODEL 6
REMARK VINA RESULT:    -4.861      1.438      2.788
REMARK INTER + INTRA:         -11.143
REMARK INTER:                  -9.387
REMARK INTRA:                  -1.756
REMARK UNBOUND:                -2.303
REMARK SMILES CCCCCCCCCCCCCCCC(=O)[O-]
REMARK SMILES IDX 9 1 10 2 11 3 12 4 13 5 14 6 15 7 16 8 17 9 18 10 8 11 7 12
REMARK SMILES IDX 6 13 5 14 4 15 3 16 2 17 1 18
REMARK H PARENT
REMARK Flexibility Score: inf
ROOT
ATOM      1  C   UNL     1      18.066  25.623   9.636  1.00  0.00     0.000 C 
ENDROOT
BRANCH   1   2
ATOM      2  C   UNL     1      18.528  25.064   8.280  1.00  0.00     0.000 C 
BRANCH   2   3
ATOM      3  C   UNL     1      17.358  24.624   7.381  1.00  0.00     0.000 C 
BRANCH   3   4
ATOM      4  C   UNL     1      17.630  23.386   6.507  1.00  0.00     0.000 C 
BRANCH   4   5
ATOM      5  C   UNL     1      19.096  22.922   6.561  1.00  0.00     0.000 C 
BRANCH   5   6
ATOM      6  C   UNL     1      19.521  22.166   5.285  1.00  0.00     0.006 C 
BRANCH   6   7
ATOM      7  C   UNL     1      18.970  20.734   5.208  1.00  0.00     0.053 C 
BRANCH   7   8
ATOM      8  C   UNL     1      19.509  19.857   6.293  1.00  0.00     0.041 C 
ATOM      9  O   UNL     1      18.752  19.452   7.215  1.00  0.00    -0.550 OA
ATOM     10  O   UNL     1      20.841  19.461   6.273  1.00  0.00    -0.550 OA
ENDBRANCH   7   8
ENDBRANCH   6   7
ENDBRANCH   5   6
ENDBRANCH   4   5
ENDBRANCH   3   4
ENDBRANCH   2   3
ENDBRANCH   1   2
BRANCH   1  11
ATOM     11  C   UNL     1      16.883  24.840  10.236  1.00  0.00     0.000 C 
BRANCH  11  12
ATOM     12  C   UNL     1      17.038  23.308  10.237  1.00  0.00    -0.000 C 
BRANCH  12  13
ATOM     13  C   UNL     1      17.430  22.744  11.614  1.00  0.00    -0.000 C 
BRANCH  13  14
ATOM     14  C   UNL     1      18.763  21.979  11.576  1.00  0.00    -0.000 C 
BRANCH  14  15
ATOM     15  C   UNL     1      19.551  22.235  10.279  1.00  0.00    -0.000 C 
BRANCH  15  16
ATOM     16  C   UNL     1      20.749  23.179  10.484  1.00  0.00    -0.000 C 
BRANCH  16  17
ATOM     17  C   UNL     1      21.776  23.183   9.337  1.00  0.00    -0.003 C 
ATOM     18  C   UNL     1      21.857  21.844   8.603  1.00  0.00     0.004 C 
ENDBRANCH  16  17
ENDBRANCH  15  16
ENDBRANCH  14  15
ENDBRANCH  13  14
ENDBRANCH  12  13
ENDBRANCH  11  12
ENDBRANCH   1  11
TORSDOF 14
ENDMDL
MODEL 7
REMARK VINA RESULT:    -4.846      1.576      3.292
REMARK INTER + INTRA:         -11.116
REMARK INTER:                  -9.173
REMARK INTRA:                  -1.943
REMARK UNBOUND:                -2.303
REMARK SMILES CCCCCCCCCCCCCCCC(=O)[O-]
REMARK SMILES IDX 9 1 10 2 11 3 12 4 13 5 14 6 15 7 16 8 17 9 18 10 8 11 7 12
REMARK SMILES IDX 6 13 5 14 4 15 3 16 2 17 1 18
REMARK H PARENT
REMARK Flexibility Score: inf
ROOT
ATOM      1  C   UNL     1      20.986  23.502  10.407  1.00  0.00     0.000 C 
ENDROOT
BRANCH   1   2
ATOM      2  C   UNL     1      21.714  22.745   9.284  1.00  0.00     0.000 C 
BRANCH   2   3
ATOM      3  C   UNL     1      21.132  23.036   7.889  1.00  0.00     0.000 C 
BRANCH   3   4
ATOM      4  C   UNL     1      21.575  22.067   6.777  1.00  0.00     0.000 C 
BRANCH   4   5
ATOM      5  C   UNL     1      22.041  20.704   7.317  1.00  0.00     0.000 C 
BRANCH   5   6
ATOM      6  C   UNL     1      22.481  19.744   6.192  1.00  0.00     0.006 C 
BRANCH   6   7
ATOM      7  C   UNL     1      23.810  19.029   6.481  1.00  0.00     0.053 C 
BRANCH   7   8
ATOM      8  C   UNL     1      24.492  18.566   5.233  1.00  0.00     0.041 C 
ATOM      9  O   UNL     1      24.196  19.080   4.123  1.00  0.00    -0.550 OA
ATOM     10  O   UNL     1      25.476  17.587   5.299  1.00  0.00    -0.550 OA
ENDBRANCH   7   8
ENDBRANCH   6   7
ENDBRANCH   5   6
ENDBRANCH   4   5
ENDBRANCH   3   4
ENDBRANCH   2   3
ENDBRANCH   1   2
BRANCH   1  11
ATOM     11  C   UNL     1      19.501  23.761  10.092  1.00  0.00     0.000 C 
BRANCH  11  12
ATOM     12  C   UNL     1      19.109  25.242   9.934  1.00  0.00    -0.000 C 
BRANCH  12  13
ATOM     13  C   UNL     1      18.427  25.543   8.588  1.00  0.00    -0.000 C 
BRANCH  13  14
ATOM     14  C   UNL     1      17.423  24.451   8.182  1.00  0.00    -0.000 C 
BRANCH  14  15
ATOM     15  C   UNL     1      17.707  23.883   6.781  1.00  0.00    -0.000 C 
BRANCH  15  16
ATOM     16  C   UNL     1      17.534  22.355   6.709  1.00  0.00    -0.000 C 
BRANCH  16  17
ATOM     17  C   UNL     1      17.371  21.656   8.071  1.00  0.00    -0.003 C 
ATOM     18  C   UNL     1      18.439  20.594   8.328  1.00  0.00     0.004 C 
ENDBRANCH  16  17
ENDBRANCH  15  16
ENDBRANCH  14  15
ENDBRANCH  13  14
ENDBRANCH  12  13
ENDBRANCH  11  12
ENDBRANCH   1  11
TORSDOF 14
ENDMDL
MODEL 8
REMARK VINA RESULT:    -4.794      1.015      3.030
REMARK INTER + INTRA:         -11.020
REMARK INTER:                  -8.971
REMARK INTRA:                  -2.049
REMARK UNBOUND:                -2.303
REMARK SMILES CCCCCCCCCCCCCCCC(=O)[O-]
REMARK SMILES IDX 9 1 10 2 11 3 12 4 13 5 14 6 15 7 16 8 17 9 18 10 8 11 7 12
REMARK SMILES IDX 6 13 5 14 4 15 3 16 2 17 1 18
REMARK H PARENT
REMARK Flexibility Score: inf
ROOT
ATOM      1  C   UNL     1      17.152  21.222   7.546  1.00  0.00     0.000 C 
ENDROOT
BRANCH   1   2
ATOM      2  C   UNL     1      16.913  22.734   7.403  1.00  0.00     0.000 C 
BRANCH   2   3
ATOM      3  C   UNL     1      17.970  23.430   6.526  1.00  0.00     0.000 C 
BRANCH   3   4
ATOM      4  C   UNL     1      18.951  22.486   5.807  1.00  0.00     0.000 C 
BRANCH   4   5
ATOM      5  C   UNL     1      20.364  22.510   6.415  1.00  0.00     0.000 C 
BRANCH   5   6
ATOM      6  C   UNL     1      21.259  21.378   5.869  1.00  0.00     0.006 C 
BRANCH   6   7
ATOM      7  C   UNL     1      21.991  20.591   6.968  1.00  0.00     0.053 C 
BRANCH   7   8
ATOM      8  C   UNL     1      22.712  19.396   6.430  1.00  0.00     0.041 C 
ATOM      9  O   UNL     1      22.115  18.583   5.677  1.00  0.00    -0.550 OA
ATOM     10  O   UNL     1      24.053  19.196   6.736  1.00  0.00    -0.550 OA
ENDBRANCH   7   8
ENDBRANCH   6   7
ENDBRANCH   5   6
ENDBRANCH   4   5
ENDBRANCH   3   4
ENDBRANCH   2   3
ENDBRANCH   1   2
BRANCH   1  11
ATOM     11  C   UNL     1      17.884  20.850   8.850  1.00  0.00     0.000 C 
BRANCH  11  12
ATOM     12  C   UNL     1      17.426  21.616  10.105  1.00  0.00    -0.000 C 
BRANCH  12  13
ATOM     13  C   UNL     1      18.600  22.120  10.962  1.00  0.00    -0.000 C 
BRANCH  13  14
ATOM     14  C   UNL     1      19.866  22.379  10.129  1.00  0.00    -0.000 C 
BRANCH  14  15
ATOM     15  C   UNL     1      20.358  23.833  10.244  1.00  0.00    -0.000 C 
BRANCH  15  16
ATOM     16  C   UNL     1      19.804  24.740   9.130  1.00  0.00    -0.000 C 
BRANCH  16  17
ATOM     17  C   UNL     1      18.562  25.562   9.520  1.00  0.00    -0.003 C 
ATOM     18  C   UNL     1      18.524  26.938   8.855  1.00  0.00     0.004 C 
ENDBRANCH  16  17
ENDBRANCH  15  16
ENDBRANCH  14  15
ENDBRANCH  13  14
ENDBRANCH  12  13
ENDBRANCH  11  12
ENDBRANCH   1  11
TORSDOF 14
ENDMDL
MODEL 9
REMARK VINA RESULT:    -4.763      1.149      2.243
REMARK INTER + INTRA:         -10.965
REMARK INTER:                  -8.886
REMARK INTRA:                  -2.078
REMARK UNBOUND:                -2.303
REMARK SMILES CCCCCCCCCCCCCCCC(=O)[O-]
REMARK SMILES IDX 9 1 10 2 11 3 12 4 13 5 14 6 15 7 16 8 17 9 18 10 8 11 7 12
REMARK SMILES IDX 6 13 5 14 4 15 3 16 2 17 1 18
REMARK H PARENT
REMARK Flexibility Score: inf
ROOT
ATOM      1  C   UNL     1      16.959  22.377   6.531  1.00  0.00     0.000 C 
ENDROOT
BRANCH   1   2
ATOM      2  C   UNL     1      18.253  21.562   6.367  1.00  0.00     0.000 C 
BRANCH   2   3
ATOM      3  C   UNL     1      19.439  22.411   5.873  1.00  0.00     0.000 C 
BRANCH   3   4
ATOM      4  C   UNL     1      20.651  22.462   6.822  1.00  0.00     0.000 C 
BRANCH   4   5
ATOM      5  C   UNL     1      21.848  21.641   6.313  1.00  0.00     0.000 C 
BRANCH   5   6
ATOM      6  C   UNL     1      21.710  21.260   4.824  1.00  0.00     0.006 C 
BRANCH   6   7
ATOM      7  C   UNL     1      22.175  19.830   4.512  1.00  0.00     0.053 C 
BRANCH   7   8
ATOM      8  C   UNL     1      21.434  18.802   5.307  1.00  0.00     0.041 C 
ATOM      9  O   UNL     1      22.055  18.045   6.098  1.00  0.00    -0.550 OA
ATOM     10  O   UNL     1      20.052  18.700   5.196  1.00  0.00    -0.550 OA
ENDBRANCH   7   8
ENDBRANCH   6   7
ENDBRANCH   5   6
ENDBRANCH   4   5
ENDBRANCH   3   4
ENDBRANCH   2   3
ENDBRANCH   1   2
BRANCH   1  11
ATOM     11  C   UNL     1      17.215  23.889   6.676  1.00  0.00     0.000 C 
BRANCH  11  12
ATOM     12  C   UNL     1      17.061  24.450   8.102  1.00  0.00    -0.000 C 
BRANCH  12  13
ATOM     13  C   UNL     1      17.962  25.668   8.370  1.00  0.00    -0.000 C 
BRANCH  13  14
ATOM     14  C   UNL     1      19.377  25.264   8.816  1.00  0.00    -0.000 C 
BRANCH  14  15
ATOM     15  C   UNL     1      19.392  24.637  10.222  1.00  0.00    -0.000 C 
BRANCH  15  16
ATOM     16  C   UNL     1      19.915  23.189  10.225  1.00  0.00    -0.000 C 
BRANCH  16  17
ATOM     17  C   UNL     1      19.019  22.178  10.964  1.00  0.00    -0.003 C 
ATOM     18  C   UNL     1      18.284  21.229  10.018  1.00  0.00     0.004 C 
ENDBRANCH  16  17
ENDBRANCH  15  16
ENDBRANCH  14  15
ENDBRANCH  13  14
ENDBRANCH  12  13
ENDBRANCH  11  12
ENDBRANCH   1  11
TORSDOF 14
ENDMDL
