MODEL 1
REMARK VINA RESULT:    -4.275      0.000      0.000
REMARK INTER + INTRA:          -7.128
REMARK INTER:                  -6.275
REMARK INTRA:                  -0.853
REMARK UNBOUND:                -0.853
REMARK SMILES O=C([O-])CCCCCCCC(=O)[O-]
REMARK SMILES IDX 7 1 6 2 5 3 4 4 2 5 1 6 3 7 8 8 9 9 10 10 11 11 12 12 13 13
REMARK H PARENT
REMARK Flexibility Score: inf
ROOT
ATOM      1  C   UNL     1      23.266 -18.213  -8.571  1.00  0.00     0.000 C 
ENDROOT
BRANCH   1   2
ATOM      2  C   UNL     1      24.243 -18.151  -9.750  1.00  0.00     0.000 C 
BRANCH   2   3
ATOM      3  C   UNL     1      24.793 -19.543 -10.084  1.00  0.00     0.006 C 
BRANCH   3   4
ATOM      4  C   UNL     1      24.567 -19.883 -11.560  1.00  0.00     0.053 C 
BRANCH   4   5
ATOM      5  C   UNL     1      23.452 -20.869 -11.706  1.00  0.00     0.041 C 
ATOM      6  O   UNL     1      22.814 -21.259 -10.692  1.00  0.00    -0.550 OA
ATOM      7  O   UNL     1      23.147 -21.395 -12.955  1.00  0.00    -0.550 OA
ENDBRANCH   4   5
ENDBRANCH   3   4
ENDBRANCH   2   3
ENDBRANCH   1   2
BRANCH   1   8
ATOM      8  C   UNL     1      21.899 -17.627  -8.957  1.00  0.00     0.000 C 
BRANCH   8   9
ATOM      9  C   UNL     1      21.758 -17.401 -10.471  1.00  0.00     0.006 C 
BRANCH   9  10
ATOM     10  C   UNL     1      20.785 -18.389 -11.127  1.00  0.00     0.053 C 
BRANCH  10  11
ATOM     11  C   UNL     1      20.810 -18.236 -12.615  1.00  0.00     0.041 C 
ATOM     12  O   UNL     1      19.750 -18.358 -13.283  1.00  0.00    -0.550 OA
ATOM     13  O   UNL     1      22.014 -18.008 -13.270  1.00  0.00    -0.550 OA
ENDBRANCH  10  11
ENDBRANCH   9  10
ENDBRANCH   8   9
ENDBRANCH   1   8
TORSDOF 8
ENDMDL
MODEL 2
REMARK VINA RESULT:    -4.270      1.436      1.991
REMARK INTER + INTRA:          -7.120
REMARK INTER:                  -6.278
REMARK INTRA:                  -0.842
REMARK UNBOUND:                -0.853
REMARK SMILES O=C([O-])CCCCCCCC(=O)[O-]
REMARK SMILES IDX 7 1 6 2 5 3 4 4 2 5 1 6 3 7 8 8 9 9 10 10 11 11 12 12 13 13
REMARK H PARENT
REMARK Flexibility Score: inf
ROOT
ATOM      1  C   UNL     1      24.356 -18.467  -9.786  1.00  0.00     0.000 C 
ENDROOT
BRANCH   1   2
ATOM      2  C   UNL     1      24.806 -19.910 -10.036  1.00  0.00     0.000 C 
BRANCH   2   3
ATOM      3  C   UNL     1      24.808 -20.236 -11.534  1.00  0.00     0.006 C 
BRANCH   3   4
ATOM      4  C   UNL     1      24.394 -19.017 -12.364  1.00  0.00     0.053 C 
BRANCH   4   5
ATOM      5  C   UNL     1      23.400 -19.409 -13.410  1.00  0.00     0.041 C 
ATOM      6  O   UNL     1      22.491 -20.238 -13.143  1.00  0.00    -0.550 OA
ATOM      7  O   UNL     1      23.507 -18.897 -14.697  1.00  0.00    -0.550 OA
ENDBRANCH   4   5
ENDBRANCH   3   4
ENDBRANCH   2   3
ENDBRANCH   1   2
BRANCH   1   8
ATOM      8  C   UNL     1      23.313 -18.402  -8.660  1.00  0.00     0.000 C 
BRANCH   8   9
ATOM      9  C   UNL     1      22.033 -17.662  -9.079  1.00  0.00     0.006 C 
BRANCH   9  10
ATOM     10  C   UNL     1      21.416 -18.230 -10.364  1.00  0.00     0.053 C 
BRANCH  10  11
ATOM     11  C   UNL     1      21.261 -17.151 -11.388  1.00  0.00     0.041 C 
ATOM     12  O   UNL     1      20.601 -17.365 -12.439  1.00  0.00    -0.550 OA
ATOM     13  O   UNL     1      21.887 -15.924 -11.207  1.00  0.00    -0.550 OA
ENDBRANCH  10  11
ENDBRANCH   9  10
ENDBRANCH   8   9
ENDBRANCH   1   8
TORSDOF 8
ENDMDL
MODEL 3
REMARK VINA RESULT:    -4.258      1.369      3.503
REMARK INTER + INTRA:          -7.101
REMARK INTER:                  -6.158
REMARK INTRA:                  -0.943
REMARK UNBOUND:                -0.853
REMARK SMILES O=C([O-])CCCCCCCC(=O)[O-]
REMARK SMILES IDX 7 1 6 2 5 3 4 4 2 5 1 6 3 7 8 8 9 9 10 10 11 11 12 12 13 13
REMARK H PARENT
REMARK Flexibility Score: inf
ROOT
ATOM      1  C   UNL     1      21.858 -17.993  -9.483  1.00  0.00     0.000 C 
ENDROOT
BRANCH   1   2
ATOM      2  C   UNL     1      21.720 -16.992 -10.635  1.00  0.00     0.000 C 
BRANCH   2   3
ATOM      3  C   UNL     1      21.014 -17.627 -11.838  1.00  0.00     0.006 C 
BRANCH   3   4
ATOM      4  C   UNL     1      20.586 -19.065 -11.529  1.00  0.00     0.053 C 
BRANCH   4   5
ATOM      5  C   UNL     1      20.944 -19.973 -12.662  1.00  0.00     0.041 C 
ATOM      6  O   UNL     1      21.268 -19.494 -13.781  1.00  0.00    -0.550 OA
ATOM      7  O   UNL     1      20.874 -21.351 -12.498  1.00  0.00    -0.550 OA
ENDBRANCH   4   5
ENDBRANCH   3   4
ENDBRANCH   2   3
ENDBRANCH   1   2
BRANCH   1   8
ATOM      8  C   UNL     1      23.221 -17.851  -8.789  1.00  0.00     0.000 C 
BRANCH   8   9
ATOM      9  C   UNL     1      24.386 -18.337  -9.666  1.00  0.00     0.006 C 
BRANCH   9  10
ATOM     10  C   UNL     1      24.258 -19.816 -10.050  1.00  0.00     0.053 C 
BRANCH  10  11
ATOM     11  C   UNL     1      24.389 -19.983 -11.531  1.00  0.00     0.041 C 
ATOM     12  O   UNL     1      24.592 -21.123 -12.024  1.00  0.00    -0.550 OA
ATOM     13  O   UNL     1      24.337 -18.872 -12.363  1.00  0.00    -0.550 OA
ENDBRANCH  10  11
ENDBRANCH   9  10
ENDBRANCH   8   9
ENDBRANCH   1   8
TORSDOF 8
ENDMDL
MODEL 4
REMARK VINA RESULT:    -4.251      0.825      3.757
REMARK INTER + INTRA:          -7.092
REMARK INTER:                  -6.195
REMARK INTRA:                  -0.896
REMARK UNBOUND:                -0.853
REMARK SMILES O=C([O-])CCCCCCCC(=O)[O-]
REMARK SMILES IDX 7 1 6 2 5 3 4 4 2 5 1 6 3 7 8 8 9 9 10 10 11 11 12 12 13 13
REMARK H PARENT
REMARK Flexibility Score: inf
ROOT
ATOM      1  C   UNL     1      22.939 -18.363  -8.956  1.00  0.00     0.000 C 
ENDROOT
BRANCH   1   2
ATOM      2  C   UNL     1      21.896 -17.474  -9.644  1.00  0.00     0.000 C 
BRANCH   2   3
ATOM      3  C   UNL     1      21.189 -18.228 -10.776  1.00  0.00     0.006 C 
BRANCH   3   4
ATOM      4  C   UNL     1      21.014 -17.334 -12.007  1.00  0.00     0.053 C 
BRANCH   4   5
ATOM      5  C   UNL     1      22.013 -17.692 -13.061  1.00  0.00     0.041 C 
ATOM      6  O   UNL     1      23.207 -17.302 -12.962  1.00  0.00    -0.550 OA
ATOM      7  O   UNL     1      21.616 -18.416 -14.178  1.00  0.00    -0.550 OA
ENDBRANCH   4   5
ENDBRANCH   3   4
ENDBRANCH   2   3
ENDBRANCH   1   2
BRANCH   1   8
ATOM      8  C   UNL     1      24.285 -18.305  -9.694  1.00  0.00     0.000 C 
BRANCH   8   9
ATOM      9  C   UNL     1      24.846 -19.700 -10.014  1.00  0.00     0.006 C 
BRANCH   9  10
ATOM     10  C   UNL     1      24.829 -20.012 -11.516  1.00  0.00     0.053 C 
BRANCH  10  11
ATOM     11  C   UNL     1      23.653 -20.871 -11.857  1.00  0.00     0.041 C 
ATOM     12  O   UNL     1      23.373 -21.114 -13.060  1.00  0.00    -0.550 OA
ATOM     13  O   UNL     1      22.834 -21.362 -10.847  1.00  0.00    -0.550 OA
ENDBRANCH  10  11
ENDBRANCH   9  10
ENDBRANCH   8   9
ENDBRANCH   1   8
TORSDOF 8
ENDMDL
MODEL 5
REMARK VINA RESULT:    -4.241      1.392      3.715
REMARK INTER + INTRA:          -7.078
REMARK INTER:                  -6.220
REMARK INTRA:                  -0.858
REMARK UNBOUND:                -0.853
REMARK SMILES O=C([O-])CCCCCCCC(=O)[O-]
REMARK SMILES IDX 7 1 6 2 5 3 4 4 2 5 1 6 3 7 8 8 9 9 10 10 11 11 12 12 13 13
REMARK H PARENT
REMARK Flexibility Score: inf
ROOT
ATOM      1  C   UNL     1      24.340 -18.459  -9.780  1.00  0.00     0.000 C 
ENDROOT
BRANCH   1   2
ATOM      2  C   UNL     1      23.207 -18.443  -8.748  1.00  0.00     0.000 C 
BRANCH   2   3
ATOM      3  C   UNL     1      22.050 -17.551  -9.213  1.00  0.00     0.006 C 
BRANCH   3   4
ATOM      4  C   UNL     1      21.327 -18.168 -10.413  1.00  0.00     0.053 C 
BRANCH   4   5
ATOM      5  C   UNL     1      21.264 -17.193 -11.545  1.00  0.00     0.041 C 
ATOM      6  O   UNL     1      20.481 -17.391 -12.511  1.00  0.00    -0.550 OA
ATOM      7  O   UNL     1      22.107 -16.088 -11.559  1.00  0.00    -0.550 OA
ENDBRANCH   4   5
ENDBRANCH   3   4
ENDBRANCH   2   3
ENDBRANCH   1   2
BRANCH   1   8
ATOM      8  C   UNL     1      24.805 -19.895 -10.066  1.00  0.00     0.000 C 
BRANCH   8   9
ATOM      9  C   UNL     1      24.877 -20.207 -11.569  1.00  0.00     0.006 C 
BRANCH   9  10
ATOM     10  C   UNL     1      24.384 -19.042 -12.438  1.00  0.00     0.053 C 
BRANCH  10  11
ATOM     11  C   UNL     1      23.369 -19.523 -13.426  1.00  0.00     0.041 C 
ATOM     12  O   UNL     1      22.446 -20.297 -13.061  1.00  0.00    -0.550 OA
ATOM     13  O   UNL     1      23.472 -19.157 -14.762  1.00  0.00    -0.550 OA
ENDBRANCH  10  11
ENDBRANCH   9  10
ENDBRANCH   8   9
ENDBRANCH   1   8
TORSDOF 8
ENDMDL
MODEL 6
REMARK VINA RESULT:    -4.233      2.241      3.521
REMARK INTER + INTRA:          -7.066
REMARK INTER:                  -6.153
REMARK INTRA:                  -0.913
REMARK UNBOUND:                -0.853
REMARK SMILES O=C([O-])CCCCCCCC(=O)[O-]
REMARK SMILES IDX 7 1 6 2 5 3 4 4 2 5 1 6 3 7 8 8 9 9 10 10 11 11 12 12 13 13
REMARK H PARENT
REMARK Flexibility Score: inf
ROOT
ATOM      1  C   UNL     1      20.432 -19.486 -11.294  1.00  0.00     0.000 C 
ENDROOT
BRANCH   1   2
ATOM      2  C   UNL     1      21.142 -20.671 -11.958  1.00  0.00     0.000 C 
BRANCH   2   3
ATOM      3  C   UNL     1      22.290 -21.188 -11.083  1.00  0.00     0.006 C 
BRANCH   3   4
ATOM      4  C   UNL     1      23.631 -21.078 -11.814  1.00  0.00     0.053 C 
BRANCH   4   5
ATOM      5  C   UNL     1      24.344 -19.826 -11.415  1.00  0.00     0.041 C 
ATOM      6  O   UNL     1      24.918 -19.750 -10.296  1.00  0.00    -0.550 OA
ATOM      7  O   UNL     1      24.334 -18.721 -12.259  1.00  0.00    -0.550 OA
ENDBRANCH   4   5
ENDBRANCH   3   4
ENDBRANCH   2   3
ENDBRANCH   1   2
BRANCH   1   8
ATOM      8  C   UNL     1      20.717 -18.180 -12.051  1.00  0.00     0.000 C 
BRANCH   8   9
ATOM      9  C   UNL     1      21.395 -17.120 -11.168  1.00  0.00     0.006 C 
BRANCH   9  10
ATOM     10  C   UNL     1      21.795 -17.666  -9.792  1.00  0.00     0.053 C 
BRANCH  10  11
ATOM     11  C   UNL     1      23.014 -16.961  -9.285  1.00  0.00     0.041 C 
ATOM     12  O   UNL     1      23.455 -15.947  -9.886  1.00  0.00    -0.550 OA
ATOM     13  O   UNL     1      23.693 -17.455  -8.178  1.00  0.00    -0.550 OA
ENDBRANCH  10  11
ENDBRANCH   9  10
ENDBRANCH   8   9
ENDBRANCH   1   8
TORSDOF 8
ENDMDL
MODEL 7
REMARK VINA RESULT:    -4.127      2.040      4.229
REMARK INTER + INTRA:          -6.910
REMARK INTER:                  -5.992
REMARK INTRA:                  -0.917
REMARK UNBOUND:                -0.853
REMARK SMILES O=C([O-])CCCCCCCC(=O)[O-]
REMARK SMILES IDX 7 1 6 2 5 3 4 4 2 5 1 6 3 7 8 8 9 9 10 10 11 11 12 12 13 13
REMARK H PARENT
REMARK Flexibility Score: inf
ROOT
ATOM      1  C   UNL     1      20.367 -18.552 -12.790  1.00  0.00     0.000 C 
ENDROOT
BRANCH   1   2
ATOM      2  C   UNL     1      20.984 -17.225 -12.336  1.00  0.00     0.000 C 
BRANCH   2   3
ATOM      3  C   UNL     1      21.438 -17.299 -10.874  1.00  0.00     0.006 C 
BRANCH   3   4
ATOM      4  C   UNL     1      22.948 -17.073 -10.754  1.00  0.00     0.053 C 
BRANCH   4   5
ATOM      5  C   UNL     1      23.445 -17.545  -9.425  1.00  0.00     0.041 C 
ATOM      6  O   UNL     1      24.604 -17.241  -9.036  1.00  0.00    -0.550 OA
ATOM      7  O   UNL     1      22.647 -18.363  -8.635  1.00  0.00    -0.550 OA
ENDBRANCH   4   5
ENDBRANCH   3   4
ENDBRANCH   2   3
ENDBRANCH   1   2
BRANCH   1   8
ATOM      8  C   UNL     1      20.275 -19.545 -11.621  1.00  0.00     0.000 C 
BRANCH   8   9
ATOM      9  C   UNL     1      20.991 -20.873 -11.914  1.00  0.00     0.006 C 
BRANCH   9  10
ATOM     10  C   UNL     1      22.129 -21.160 -10.927  1.00  0.00     0.053 C 
BRANCH  10  11
ATOM     11  C   UNL     1      23.438 -20.708 -11.496  1.00  0.00     0.041 C 
ATOM     12  O   UNL     1      24.465 -20.669 -10.769  1.00  0.00    -0.550 OA
ATOM     13  O   UNL     1      23.512 -20.281 -12.816  1.00  0.00    -0.550 OA
ENDBRANCH  10  11
ENDBRANCH   9  10
ENDBRANCH   8   9
ENDBRANCH   1   8
TORSDOF 8
ENDMDL
MODEL 8
REMARK VINA RESULT:    -4.073      2.126      3.261
REMARK INTER + INTRA:          -6.830
REMARK INTER:                  -5.903
REMARK INTRA:                  -0.927
REMARK UNBOUND:                -0.853
REMARK SMILES O=C([O-])CCCCCCCC(=O)[O-]
REMARK SMILES IDX 7 1 6 2 5 3 4 4 2 5 1 6 3 7 8 8 9 9 10 10 11 11 12 12 13 13
REMARK H PARENT
REMARK Flexibility Score: inf
ROOT
ATOM      1  C   UNL     1      22.671 -17.574 -13.203  1.00  0.00     0.000 C 
ENDROOT
BRANCH   1   2
ATOM      2  C   UNL     1      23.913 -18.444 -13.427  1.00  0.00     0.000 C 
BRANCH   2   3
ATOM      3  C   UNL     1      23.773 -19.799 -12.723  1.00  0.00     0.006 C 
BRANCH   3   4
ATOM      4  C   UNL     1      24.715 -19.895 -11.520  1.00  0.00     0.053 C 
BRANCH   4   5
ATOM      5  C   UNL     1      24.009 -20.497 -10.348  1.00  0.00     0.041 C 
ATOM      6  O   UNL     1      24.613 -20.652  -9.253  1.00  0.00    -0.550 OA
ATOM      7  O   UNL     1      22.696 -20.934 -10.476  1.00  0.00    -0.550 OA
ENDBRANCH   4   5
ENDBRANCH   3   4
ENDBRANCH   2   3
ENDBRANCH   1   2
BRANCH   1   8
ATOM      8  C   UNL     1      21.491 -18.419 -12.699  1.00  0.00     0.000 C 
BRANCH   8   9
ATOM      9  C   UNL     1      20.955 -17.938 -11.341  1.00  0.00     0.006 C 
BRANCH   9  10
ATOM     10  C   UNL     1      21.793 -16.799 -10.746  1.00  0.00     0.053 C 
BRANCH  10  11
ATOM     11  C   UNL     1      22.547 -17.279  -9.546  1.00  0.00     0.041 C 
ATOM     12  O   UNL     1      21.963 -17.957  -8.660  1.00  0.00    -0.550 OA
ATOM     13  O   UNL     1      23.883 -16.934  -9.380  1.00  0.00    -0.550 OA
ENDBRANCH  10  11
ENDBRANCH   9  10
ENDBRANCH   8   9
ENDBRANCH   1   8
TORSDOF 8
ENDMDL
