MODEL 1
REMARK VINA RESULT:    -5.462      0.000      0.000
REMARK INTER + INTRA:          -5.621
REMARK INTER:                  -5.621
REMARK INTRA:                   0.000
REMARK UNBOUND:                 0.000
REMARK SMILES Oc1ccc2[nH]ccc2c1
REMARK SMILES IDX 3 1 4 2 5 3 9 4 8 5 7 6 6 7 10 8 2 9 1 11
REMARK H PARENT 6 10 1 12
REMARK Flexibility Score: inf
ROOT
ATOM      1  C   UNL     1       5.516  -1.234  47.664  1.00  0.00     0.048 A 
ATOM      2  C   UNL     1       6.168  -1.566  48.866  1.00  0.00     0.030 A 
ATOM      3  C   UNL     1       7.486  -2.014  48.788  1.00  0.00     0.046 A 
ATOM      4  C   UNL     1       8.137  -2.132  47.589  1.00  0.00     0.003 A 
ATOM      5  C   UNL     1       9.407  -2.594  47.853  1.00  0.00     0.028 A 
ATOM      6  C   UNL     1       9.461  -2.736  49.236  1.00  0.00     0.083 A 
ATOM      7  N   UNL     1       8.285  -2.381  49.803  1.00  0.00    -0.361 N 
ATOM      8  C   UNL     1       7.521  -1.810  46.382  1.00  0.00     0.056 A 
ATOM      9  C   UNL     1       6.186  -1.354  46.425  1.00  0.00     0.116 A 
ATOM     10  H   UNL     1       8.051  -2.392  50.821  1.00  0.00     0.166 HD
ENDROOT
BRANCH   9  11
ATOM     11  O   UNL     1       5.518  -1.017  45.250  1.00  0.00    -0.508 OA
ATOM     12  H   UNL     1       5.987  -1.030  44.352  1.00  0.00     0.293 HD
ENDBRANCH   9  11
TORSDOF 1
ENDMDL
MODEL 2
REMARK VINA RESULT:    -5.387      0.815      2.285
REMARK INTER + INTRA:          -5.544
REMARK INTER:                  -5.544
REMARK INTRA:                   0.000
REMARK UNBOUND:                 0.000
REMARK SMILES Oc1ccc2[nH]ccc2c1
REMARK SMILES IDX 3 1 4 2 5 3 9 4 8 5 7 6 6 7 10 8 2 9 1 11
REMARK H PARENT 6 10 1 12
REMARK Flexibility Score: inf
ROOT
ATOM      1  C   UNL     1       7.582  -1.679  46.423  1.00  0.00     0.048 A 
ATOM      2  C   UNL     1       8.265  -2.000  47.611  1.00  0.00     0.030 A 
ATOM      3  C   UNL     1       7.544  -1.974  48.804  1.00  0.00     0.046 A 
ATOM      4  C   UNL     1       6.215  -1.648  48.834  1.00  0.00     0.003 A 
ATOM      5  C   UNL     1       5.804  -1.715  50.148  1.00  0.00     0.028 A 
ATOM      6  C   UNL     1       6.938  -2.087  50.863  1.00  0.00     0.083 A 
ATOM      7  N   UNL     1       7.999  -2.244  50.038  1.00  0.00    -0.361 N 
ATOM      8  C   UNL     1       5.508  -1.326  47.678  1.00  0.00     0.056 A 
ATOM      9  C   UNL     1       6.208  -1.343  46.453  1.00  0.00     0.116 A 
ATOM     10  H   UNL     1       8.969  -2.518  50.310  1.00  0.00     0.166 HD
ENDROOT
BRANCH   9  11
ATOM     11  O   UNL     1       5.555  -1.029  45.263  1.00  0.00    -0.508 OA
ATOM     12  H   UNL     1       4.672  -1.460  45.014  1.00  0.00     0.293 HD
ENDBRANCH   9  11
TORSDOF 1
ENDMDL
MODEL 3
REMARK VINA RESULT:    -5.124      2.127      2.752
REMARK INTER + INTRA:          -5.274
REMARK INTER:                  -5.274
REMARK INTRA:                   0.000
REMARK UNBOUND:                 0.000
REMARK SMILES Oc1ccc2[nH]ccc2c1
REMARK SMILES IDX 3 1 4 2 5 3 9 4 8 5 7 6 6 7 10 8 2 9 1 11
REMARK H PARENT 6 10 1 12
REMARK Flexibility Score: inf
ROOT
ATOM      1  C   UNL     1       5.816  -1.279  48.450  1.00  0.00     0.048 A 
ATOM      2  C   UNL     1       6.759  -1.517  47.432  1.00  0.00     0.030 A 
ATOM      3  C   UNL     1       7.959  -2.131  47.788  1.00  0.00     0.046 A 
ATOM      4  C   UNL     1       8.225  -2.496  49.080  1.00  0.00     0.003 A 
ATOM      5  C   UNL     1       9.477  -3.070  49.097  1.00  0.00     0.028 A 
ATOM      6  C   UNL     1       9.915  -3.022  47.777  1.00  0.00     0.083 A 
ATOM      7  N   UNL     1       8.984  -2.446  46.981  1.00  0.00    -0.361 N 
ATOM      8  C   UNL     1       7.314  -2.276  50.111  1.00  0.00     0.056 A 
ATOM      9  C   UNL     1       6.089  -1.656  49.786  1.00  0.00     0.116 A 
ATOM     10  H   UNL     1       9.054  -2.284  45.952  1.00  0.00     0.166 HD
ENDROOT
BRANCH   9  11
ATOM     11  O   UNL     1       5.139  -1.409  50.774  1.00  0.00    -0.508 OA
ATOM     12  H   UNL     1       4.152  -1.338  50.553  1.00  0.00     0.293 HD
ENDBRANCH   9  11
TORSDOF 1
ENDMDL
MODEL 4
REMARK VINA RESULT:    -4.995      2.614      3.894
REMARK INTER + INTRA:          -5.141
REMARK INTER:                  -5.141
REMARK INTRA:                   0.000
REMARK UNBOUND:                 0.000
REMARK SMILES Oc1ccc2[nH]ccc2c1
REMARK SMILES IDX 3 1 4 2 5 3 9 4 8 5 7 6 6 7 10 8 2 9 1 11
REMARK H PARENT 6 10 1 12
REMARK Flexibility Score: inf
ROOT
ATOM      1  C   UNL     1       8.790  -3.825  48.069  1.00  0.00     0.048 A 
ATOM      2  C   UNL     1       8.836  -2.734  47.182  1.00  0.00     0.030 A 
ATOM      3  C   UNL     1       7.771  -1.835  47.201  1.00  0.00     0.046 A 
ATOM      4  C   UNL     1       6.710  -1.995  48.050  1.00  0.00     0.003 A 
ATOM      5  C   UNL     1       5.840  -0.951  47.824  1.00  0.00     0.028 A 
ATOM      6  C   UNL     1       6.437  -0.192  46.822  1.00  0.00     0.083 A 
ATOM      7  N   UNL     1       7.617  -0.737  46.444  1.00  0.00    -0.361 N 
ATOM      8  C   UNL     1       6.633  -3.062  48.942  1.00  0.00     0.056 A 
ATOM      9  C   UNL     1       7.695  -3.992  48.948  1.00  0.00     0.116 A 
ATOM     10  H   UNL     1       8.269  -0.374  45.714  1.00  0.00     0.166 HD
ENDROOT
BRANCH   9  11
ATOM     11  O   UNL     1       7.674  -5.081  49.817  1.00  0.00    -0.508 OA
ATOM     12  H   UNL     1       6.813  -5.402  50.242  1.00  0.00     0.293 HD
ENDBRANCH   9  11
TORSDOF 1
ENDMDL
MODEL 5
REMARK VINA RESULT:    -4.904      3.249      4.067
REMARK INTER + INTRA:          -5.047
REMARK INTER:                  -5.047
REMARK INTRA:                   0.000
REMARK UNBOUND:                 0.000
REMARK SMILES Oc1ccc2[nH]ccc2c1
REMARK SMILES IDX 3 1 4 2 5 3 9 4 8 5 7 6 6 7 10 8 2 9 1 11
REMARK H PARENT 6 10 1 12
REMARK Flexibility Score: inf
ROOT
ATOM      1  C   UNL     1       4.884  -3.721  49.572  1.00  0.00     0.048 A 
ATOM      2  C   UNL     1       4.691  -3.610  48.183  1.00  0.00     0.030 A 
ATOM      3  C   UNL     1       5.237  -2.502  47.537  1.00  0.00     0.046 A 
ATOM      4  C   UNL     1       5.941  -1.546  48.219  1.00  0.00     0.003 A 
ATOM      5  C   UNL     1       6.342  -0.597  47.304  1.00  0.00     0.028 A 
ATOM      6  C   UNL     1       5.846  -1.041  46.082  1.00  0.00     0.083 A 
ATOM      7  N   UNL     1       5.171  -2.204  46.230  1.00  0.00    -0.361 N 
ATOM      8  C   UNL     1       6.152  -1.626  49.594  1.00  0.00     0.056 A 
ATOM      9  C   UNL     1       5.611  -2.735  50.279  1.00  0.00     0.116 A 
ATOM     10  H   UNL     1       4.699  -2.754  45.478  1.00  0.00     0.166 HD
ENDROOT
BRANCH   9  11
ATOM     11  O   UNL     1       5.788  -2.870  51.654  1.00  0.00    -0.508 OA
ATOM     12  H   UNL     1       5.045  -3.211  52.252  1.00  0.00     0.293 HD
ENDBRANCH   9  11
TORSDOF 1
ENDMDL
MODEL 6
REMARK VINA RESULT:    -4.888      2.209      2.647
REMARK INTER + INTRA:          -5.031
REMARK INTER:                  -5.031
REMARK INTRA:                   0.000
REMARK UNBOUND:                 0.000
REMARK SMILES Oc1ccc2[nH]ccc2c1
REMARK SMILES IDX 3 1 4 2 5 3 9 4 8 5 7 6 6 7 10 8 2 9 1 11
REMARK H PARENT 6 10 1 12
REMARK Flexibility Score: inf
ROOT
ATOM      1  C   UNL     1       5.548  -2.845  46.252  1.00  0.00     0.048 A 
ATOM      2  C   UNL     1       5.522  -3.752  47.328  1.00  0.00     0.030 A 
ATOM      3  C   UNL     1       5.711  -3.244  48.612  1.00  0.00     0.046 A 
ATOM      4  C   UNL     1       5.916  -1.909  48.835  1.00  0.00     0.003 A 
ATOM      5  C   UNL     1       6.065  -1.736  50.193  1.00  0.00     0.028 A 
ATOM      6  C   UNL     1       5.939  -3.011  50.737  1.00  0.00     0.083 A 
ATOM      7  N   UNL     1       5.723  -3.929  49.767  1.00  0.00    -0.361 N 
ATOM      8  C   UNL     1       5.946  -0.984  47.793  1.00  0.00     0.056 A 
ATOM      9  C   UNL     1       5.759  -1.465  46.480  1.00  0.00     0.116 A 
ATOM     10  H   UNL     1       5.594  -4.957  49.895  1.00  0.00     0.166 HD
ENDROOT
BRANCH   9  11
ATOM     11  O   UNL     1       5.779  -0.588  45.398  1.00  0.00    -0.508 OA
ATOM     12  H   UNL     1       6.650  -0.226  45.027  1.00  0.00     0.293 HD
ENDBRANCH   9  11
TORSDOF 1
ENDMDL
MODEL 7
REMARK VINA RESULT:    -4.861      2.459      3.572
REMARK INTER + INTRA:          -5.003
REMARK INTER:                  -5.003
REMARK INTRA:                   0.000
REMARK UNBOUND:                 0.000
REMARK SMILES Oc1ccc2[nH]ccc2c1
REMARK SMILES IDX 3 1 4 2 5 3 9 4 8 5 7 6 6 7 10 8 2 9 1 11
REMARK H PARENT 6 10 1 12
REMARK Flexibility Score: inf
ROOT
ATOM      1  C   UNL     1       8.225  -2.374  49.755  1.00  0.00     0.048 A 
ATOM      2  C   UNL     1       6.871  -2.014  49.627  1.00  0.00     0.030 A 
ATOM      3  C   UNL     1       6.347  -1.898  48.340  1.00  0.00     0.046 A 
ATOM      4  C   UNL     1       7.113  -2.124  47.229  1.00  0.00     0.003 A 
ATOM      5  C   UNL     1       6.309  -1.930  46.127  1.00  0.00     0.028 A 
ATOM      6  C   UNL     1       5.063  -1.587  46.644  1.00  0.00     0.083 A 
ATOM      7  N   UNL     1       5.092  -1.568  47.997  1.00  0.00    -0.361 N 
ATOM      8  C   UNL     1       8.456  -2.483  47.319  1.00  0.00     0.056 A 
ATOM      9  C   UNL     1       9.018  -2.609  48.607  1.00  0.00     0.116 A 
ATOM     10  H   UNL     1       4.299  -1.342  48.637  1.00  0.00     0.166 HD
ENDROOT
BRANCH   9  11
ATOM     11  O   UNL     1      10.356  -2.965  48.761  1.00  0.00    -0.508 OA
ATOM     12  H   UNL     1      11.102  -2.292  48.625  1.00  0.00     0.293 HD
ENDBRANCH   9  11
TORSDOF 1
ENDMDL
MODEL 8
REMARK VINA RESULT:    -4.736      2.374      3.520
REMARK INTER + INTRA:          -4.874
REMARK INTER:                  -4.874
REMARK INTRA:                   0.000
REMARK UNBOUND:                 0.000
REMARK SMILES Oc1ccc2[nH]ccc2c1
REMARK SMILES IDX 3 1 4 2 5 3 9 4 8 5 7 6 6 7 10 8 2 9 1 11
REMARK H PARENT 6 10 1 12
REMARK Flexibility Score: inf
ROOT
ATOM      1  C   UNL     1       8.374  -2.252  47.068  1.00  0.00     0.048 A 
ATOM      2  C   UNL     1       7.119  -1.684  47.357  1.00  0.00     0.030 A 
ATOM      3  C   UNL     1       6.655  -1.765  48.669  1.00  0.00     0.046 A 
ATOM      4  C   UNL     1       7.386  -2.373  49.654  1.00  0.00     0.003 A 
ATOM      5  C   UNL     1       6.658  -2.284  50.821  1.00  0.00     0.028 A 
ATOM      6  C   UNL     1       5.493  -1.608  50.471  1.00  0.00     0.083 A 
ATOM      7  N   UNL     1       5.496  -1.294  49.155  1.00  0.00    -0.361 N 
ATOM      8  C   UNL     1       8.631  -2.944  49.403  1.00  0.00     0.056 A 
ATOM      9  C   UNL     1       9.130  -2.880  48.085  1.00  0.00     0.116 A 
ATOM     10  H   UNL     1       4.748  -0.788  48.631  1.00  0.00     0.166 HD
ENDROOT
BRANCH   9  11
ATOM     11  O   UNL     1      10.370  -3.434  47.772  1.00  0.00    -0.508 OA
ATOM     12  H   UNL     1      10.660  -3.572  46.811  1.00  0.00     0.293 HD
ENDBRANCH   9  11
TORSDOF 1
ENDMDL
