MODEL 1
REMARK VINA RESULT:     6.194      0.000      0.000
REMARK INTER + INTRA:           9.984
REMARK INTER:                  10.902
REMARK INTRA:                  -0.918
REMARK UNBOUND:                -0.918
REMARK SMILES CCCCCCCCCCCCCCC(=O)[O-]
REMARK SMILES IDX 9 1 10 2 11 3 12 4 13 5 14 6 15 7 16 8 17 9 8 10 7 11 6 12
REMARK SMILES IDX 5 13 4 14 3 15 2 16 1 17
REMARK H PARENT
REMARK Flexibility Score: inf
ROOT
ATOM      1  C   UNL     1      18.241 -18.500  25.507  1.00  0.00     0.000 C 
ENDROOT
BRANCH   1   2
ATOM      2  C   UNL     1      18.763 -19.565  26.478  1.00  0.00     0.000 C 
BRANCH   2   3
ATOM      3  C   UNL     1      20.292 -19.512  26.585  1.00  0.00     0.000 C 
BRANCH   3   4
ATOM      4  C   UNL     1      20.909 -20.897  26.359  1.00  0.00     0.000 C 
BRANCH   4   5
ATOM      5  C   UNL     1      21.598 -20.976  24.989  1.00  0.00     0.006 C 
BRANCH   5   6
ATOM      6  C   UNL     1      23.122 -21.114  25.111  1.00  0.00     0.053 C 
BRANCH   6   7
ATOM      7  C   UNL     1      23.800 -20.969  23.784  1.00  0.00     0.041 C 
ATOM      8  O   UNL     1      23.675 -19.906  23.121  1.00  0.00    -0.550 OA
ATOM      9  O   UNL     1      24.546 -22.020  23.265  1.00  0.00    -0.550 OA
ENDBRANCH   6   7
ENDBRANCH   5   6
ENDBRANCH   4   5
ENDBRANCH   3   4
ENDBRANCH   2   3
ENDBRANCH   1   2
BRANCH   1  10
ATOM     10  C   UNL     1      17.338 -19.125  24.438  1.00  0.00     0.000 C 
BRANCH  10  11
ATOM     11  C   UNL     1      18.167 -19.666  23.264  1.00  0.00    -0.000 C 
BRANCH  11  12
ATOM     12  C   UNL     1      17.307 -20.364  22.195  1.00  0.00    -0.000 C 
BRANCH  12  13
ATOM     13  C   UNL     1      16.525 -21.596  22.693  1.00  0.00    -0.000 C 
BRANCH  13  14
ATOM     14  C   UNL     1      16.473 -22.780  21.707  1.00  0.00    -0.000 C 
BRANCH  14  15
ATOM     15  C   UNL     1      17.803 -23.537  21.525  1.00  0.00    -0.000 C 
BRANCH  15  16
ATOM     16  C   UNL     1      18.020 -24.132  20.123  1.00  0.00    -0.003 C 
ATOM     17  C   UNL     1      18.588 -23.122  19.127  1.00  0.00     0.004 C 
ENDBRANCH  15  16
ENDBRANCH  14  15
ENDBRANCH  13  14
ENDBRANCH  12  13
ENDBRANCH  11  12
ENDBRANCH  10  11
ENDBRANCH   1  10
TORSDOF 13
ENDMDL
MODEL 2
REMARK VINA RESULT:     6.833      2.704      6.044
REMARK INTER + INTRA:          11.107
REMARK INTER:                  11.961
REMARK INTRA:                  -0.854
REMARK UNBOUND:                -0.918
REMARK SMILES CCCCCCCCCCCCCCC(=O)[O-]
REMARK SMILES IDX 9 1 10 2 11 3 12 4 13 5 14 6 15 7 16 8 17 9 8 10 7 11 6 12
REMARK SMILES IDX 5 13 4 14 3 15 2 16 1 17
REMARK H PARENT
REMARK Flexibility Score: inf
ROOT
ATOM      1  C   UNL     1      17.750 -19.090  23.308  1.00  0.00     0.000 C 
ENDROOT
BRANCH   1   2
ATOM      2  C   UNL     1      17.746 -20.449  22.597  1.00  0.00     0.000 C 
BRANCH   2   3
ATOM      3  C   UNL     1      16.347 -21.075  22.613  1.00  0.00     0.000 C 
BRANCH   3   4
ATOM      4  C   UNL     1      16.398 -22.549  22.194  1.00  0.00     0.000 C 
BRANCH   4   5
ATOM      5  C   UNL     1      17.837 -22.982  21.878  1.00  0.00     0.006 C 
BRANCH   5   6
ATOM      6  C   UNL     1      17.886 -24.169  20.906  1.00  0.00     0.053 C 
BRANCH   6   7
ATOM      7  C   UNL     1      18.167 -23.727  19.503  1.00  0.00     0.041 C 
ATOM      8  O   UNL     1      17.933 -24.498  18.536  1.00  0.00    -0.550 OA
ATOM      9  O   UNL     1      18.719 -22.474  19.266  1.00  0.00    -0.550 OA
ENDBRANCH   6   7
ENDBRANCH   5   6
ENDBRANCH   4   5
ENDBRANCH   3   4
ENDBRANCH   2   3
ENDBRANCH   1   2
BRANCH   1  10
ATOM     10  C   UNL     1      17.357 -19.238  24.782  1.00  0.00     0.000 C 
BRANCH  10  11
ATOM     11  C   UNL     1      18.454 -18.684  25.702  1.00  0.00    -0.000 C 
BRANCH  11  12
ATOM     12  C   UNL     1      19.218 -19.789  26.456  1.00  0.00    -0.000 C 
BRANCH  12  13
ATOM     13  C   UNL     1      20.754 -19.671  26.398  1.00  0.00    -0.000 C 
BRANCH  13  14
ATOM     14  C   UNL     1      21.495 -20.966  26.010  1.00  0.00    -0.000 C 
BRANCH  14  15
ATOM     15  C   UNL     1      22.055 -20.991  24.574  1.00  0.00    -0.000 C 
BRANCH  15  16
ATOM     16  C   UNL     1      23.569 -20.736  24.467  1.00  0.00    -0.003 C 
ATOM     17  C   UNL     1      24.245 -21.596  23.401  1.00  0.00     0.004 C 
ENDBRANCH  15  16
ENDBRANCH  14  15
ENDBRANCH  13  14
ENDBRANCH  12  13
ENDBRANCH  11  12
ENDBRANCH  10  11
ENDBRANCH   1  10
TORSDOF 13
ENDMDL
MODEL 3
REMARK VINA RESULT:     7.641      2.673      6.193
REMARK INTER + INTRA:          12.530
REMARK INTER:                  13.386
REMARK INTRA:                  -0.856
REMARK UNBOUND:                -0.918
REMARK SMILES CCCCCCCCCCCCCCC(=O)[O-]
REMARK SMILES IDX 9 1 10 2 11 3 12 4 13 5 14 6 15 7 16 8 17 9 8 10 7 11 6 12
REMARK SMILES IDX 5 13 4 14 3 15 2 16 1 17
REMARK H PARENT
REMARK Flexibility Score: inf
ROOT
ATOM      1  C   UNL     1      18.731 -18.716  25.502  1.00  0.00     0.000 C 
ENDROOT
BRANCH   1   2
ATOM      2  C   UNL     1      17.393 -19.168  24.904  1.00  0.00     0.000 C 
BRANCH   2   3
ATOM      3  C   UNL     1      17.466 -19.227  23.374  1.00  0.00     0.000 C 
BRANCH   3   4
ATOM      4  C   UNL     1      16.667 -20.417  22.830  1.00  0.00     0.000 C 
BRANCH   4   5
ATOM      5  C   UNL     1      17.581 -21.398  22.082  1.00  0.00     0.006 C 
BRANCH   5   6
ATOM      6  C   UNL     1      16.935 -22.781  21.914  1.00  0.00     0.053 C 
BRANCH   6   7
ATOM      7  C   UNL     1      17.791 -23.696  21.093  1.00  0.00     0.041 C 
ATOM      8  O   UNL     1      18.187 -24.792  21.571  1.00  0.00    -0.550 OA
ATOM      9  O   UNL     1      18.177 -23.325  19.812  1.00  0.00    -0.550 OA
ENDBRANCH   6   7
ENDBRANCH   5   6
ENDBRANCH   4   5
ENDBRANCH   3   4
ENDBRANCH   2   3
ENDBRANCH   1   2
BRANCH   1  10
ATOM     10  C   UNL     1      19.358 -19.827  26.352  1.00  0.00     0.000 C 
BRANCH  10  11
ATOM     11  C   UNL     1      20.798 -19.472  26.747  1.00  0.00    -0.000 C 
BRANCH  11  12
ATOM     12  C   UNL     1      21.806 -20.583  26.400  1.00  0.00    -0.000 C 
BRANCH  12  13
ATOM     13  C   UNL     1      21.618 -21.218  25.008  1.00  0.00    -0.000 C 
BRANCH  13  14
ATOM     14  C   UNL     1      22.601 -20.727  23.926  1.00  0.00    -0.000 C 
BRANCH  14  15
ATOM     15  C   UNL     1      24.074 -20.648  24.372  1.00  0.00    -0.000 C 
BRANCH  15  16
ATOM     16  C   UNL     1      24.825 -21.991  24.360  1.00  0.00    -0.003 C 
ATOM     17  C   UNL     1      25.631 -22.236  25.634  1.00  0.00     0.004 C 
ENDBRANCH  15  16
ENDBRANCH  14  15
ENDBRANCH  13  14
ENDBRANCH  12  13
ENDBRANCH  11  12
ENDBRANCH  10  11
ENDBRANCH   1  10
TORSDOF 13
ENDMDL
MODEL 4
REMARK VINA RESULT:     7.708     12.884     13.900
REMARK INTER + INTRA:          12.648
REMARK INTER:                  13.107
REMARK INTRA:                  -0.458
REMARK UNBOUND:                -0.918
REMARK SMILES CCCCCCCCCCCCCCC(=O)[O-]
REMARK SMILES IDX 9 1 10 2 11 3 12 4 13 5 14 6 15 7 16 8 17 9 8 10 7 11 6 12
REMARK SMILES IDX 5 13 4 14 3 15 2 16 1 17
REMARK H PARENT
REMARK Flexibility Score: inf
ROOT
ATOM      1  C   UNL     1      18.721  -8.699  24.169  1.00  0.00     0.000 C 
ENDROOT
BRANCH   1   2
ATOM      2  C   UNL     1      17.720  -7.779  24.877  1.00  0.00     0.000 C 
BRANCH   2   3
ATOM      3  C   UNL     1      16.505  -8.567  25.378  1.00  0.00     0.000 C 
BRANCH   3   4
ATOM      4  C   UNL     1      16.629  -8.879  26.874  1.00  0.00     0.000 C 
BRANCH   4   5
ATOM      5  C   UNL     1      15.910  -7.818  27.719  1.00  0.00     0.006 C 
BRANCH   5   6
ATOM      6  C   UNL     1      15.903  -8.171  29.213  1.00  0.00     0.053 C 
BRANCH   6   7
ATOM      7  C   UNL     1      17.234  -8.685  29.667  1.00  0.00     0.041 C 
ATOM      8  O   UNL     1      18.209  -7.899  29.792  1.00  0.00    -0.550 OA
ATOM      9  O   UNL     1      17.406 -10.040  29.923  1.00  0.00    -0.550 OA
ENDBRANCH   6   7
ENDBRANCH   5   6
ENDBRANCH   4   5
ENDBRANCH   3   4
ENDBRANCH   2   3
ENDBRANCH   1   2
BRANCH   1  10
ATOM     10  C   UNL     1      19.739  -7.889  23.358  1.00  0.00     0.000 C 
BRANCH  10  11
ATOM     11  C   UNL     1      19.999  -8.539  21.992  1.00  0.00    -0.000 C 
BRANCH  11  12
ATOM     12  C   UNL     1      20.455  -7.528  20.924  1.00  0.00    -0.000 C 
BRANCH  12  13
ATOM     13  C   UNL     1      20.565  -8.098  19.496  1.00  0.00    -0.000 C 
BRANCH  13  14
ATOM     14  C   UNL     1      19.594  -7.482  18.470  1.00  0.00    -0.000 C 
BRANCH  14  15
ATOM     15  C   UNL     1      18.448  -8.409  18.018  1.00  0.00    -0.000 C 
BRANCH  15  16
ATOM     16  C   UNL     1      17.045  -7.972  18.478  1.00  0.00    -0.003 C 
ATOM     17  C   UNL     1      16.058  -9.134  18.568  1.00  0.00     0.004 C 
ENDBRANCH  15  16
ENDBRANCH  14  15
ENDBRANCH  13  14
ENDBRANCH  12  13
ENDBRANCH  11  12
ENDBRANCH  10  11
ENDBRANCH   1  10
TORSDOF 13
ENDMDL
MODEL 5
REMARK VINA RESULT:     7.935      1.738      3.525
REMARK INTER + INTRA:          13.047
REMARK INTER:                  13.666
REMARK INTRA:                  -0.619
REMARK UNBOUND:                -0.918
REMARK SMILES CCCCCCCCCCCCCCC(=O)[O-]
REMARK SMILES IDX 9 1 10 2 11 3 12 4 13 5 14 6 15 7 16 8 17 9 8 10 7 11 6 12
REMARK SMILES IDX 5 13 4 14 3 15 2 16 1 17
REMARK H PARENT
REMARK Flexibility Score: inf
ROOT
ATOM      1  C   UNL     1      21.230 -20.535  26.676  1.00  0.00     0.000 C 
ENDROOT
BRANCH   1   2
ATOM      2  C   UNL     1      21.687 -20.981  25.282  1.00  0.00     0.000 C 
BRANCH   2   3
ATOM      3  C   UNL     1      22.965 -20.249  24.860  1.00  0.00     0.000 C 
BRANCH   3   4
ATOM      4  C   UNL     1      23.531 -20.832  23.560  1.00  0.00     0.000 C 
BRANCH   4   5
ATOM      5  C   UNL     1      24.619 -21.876  23.852  1.00  0.00     0.006 C 
BRANCH   5   6
ATOM      6  C   UNL     1      25.124 -21.799  25.299  1.00  0.00     0.053 C 
BRANCH   6   7
ATOM      7  C   UNL     1      26.193 -22.814  25.568  1.00  0.00     0.041 C 
ATOM      8  O   UNL     1      26.844 -22.779  26.644  1.00  0.00    -0.550 OA
ATOM      9  O   UNL     1      26.491 -23.780  24.615  1.00  0.00    -0.550 OA
ENDBRANCH   6   7
ENDBRANCH   5   6
ENDBRANCH   4   5
ENDBRANCH   3   4
ENDBRANCH   2   3
ENDBRANCH   1   2
BRANCH   1  10
ATOM     10  C   UNL     1      20.302 -19.319  26.589  1.00  0.00     0.000 C 
BRANCH  10  11
ATOM     11  C   UNL     1      18.838 -19.753  26.431  1.00  0.00    -0.000 C 
BRANCH  11  12
ATOM     12  C   UNL     1      17.999 -18.749  25.619  1.00  0.00    -0.000 C 
BRANCH  12  13
ATOM     13  C   UNL     1      18.094 -18.912  24.089  1.00  0.00    -0.000 C 
BRANCH  13  14
ATOM     14  C   UNL     1      16.934 -19.694  23.441  1.00  0.00    -0.000 C 
BRANCH  14  15
ATOM     15  C   UNL     1      17.348 -20.661  22.315  1.00  0.00    -0.000 C 
BRANCH  15  16
ATOM     16  C   UNL     1      16.493 -21.937  22.213  1.00  0.00    -0.003 C 
ATOM     17  C   UNL     1      17.273 -23.136  21.677  1.00  0.00     0.004 C 
ENDBRANCH  15  16
ENDBRANCH  14  15
ENDBRANCH  13  14
ENDBRANCH  12  13
ENDBRANCH  11  12
ENDBRANCH  10  11
ENDBRANCH   1  10
TORSDOF 13
ENDMDL
MODEL 6
REMARK VINA RESULT:     8.555     10.273     13.285
REMARK INTER + INTRA:          14.140
REMARK INTER:                  15.010
REMARK INTRA:                  -0.870
REMARK UNBOUND:                -0.918
REMARK SMILES CCCCCCCCCCCCCCC(=O)[O-]
REMARK SMILES IDX 9 1 10 2 11 3 12 4 13 5 14 6 15 7 16 8 17 9 8 10 7 11 6 12
REMARK SMILES IDX 5 13 4 14 3 15 2 16 1 17
REMARK H PARENT
REMARK Flexibility Score: inf
ROOT
ATOM      1  C   UNL     1      27.464 -18.119  13.636  1.00  0.00     0.000 C 
ENDROOT
BRANCH   1   2
ATOM      2  C   UNL     1      27.030 -19.219  12.661  1.00  0.00     0.000 C 
BRANCH   2   3
ATOM      3  C   UNL     1      26.230 -20.310  13.382  1.00  0.00     0.000 C 
BRANCH   3   4
ATOM      4  C   UNL     1      25.629 -19.781  14.689  1.00  0.00     0.000 C 
BRANCH   4   5
ATOM      5  C   UNL     1      24.953 -20.909  15.481  1.00  0.00     0.006 C 
BRANCH   5   6
ATOM      6  C   UNL     1      25.875 -22.122  15.668  1.00  0.00     0.053 C 
BRANCH   6   7
ATOM      7  C   UNL     1      25.319 -23.348  15.012  1.00  0.00     0.041 C 
ATOM      8  O   UNL     1      24.080 -23.568  15.026  1.00  0.00    -0.550 OA
ATOM      9  O   UNL     1      26.174 -24.265  14.413  1.00  0.00    -0.550 OA
ENDBRANCH   6   7
ENDBRANCH   5   6
ENDBRANCH   4   5
ENDBRANCH   3   4
ENDBRANCH   2   3
ENDBRANCH   1   2
BRANCH   1  10
ATOM     10  C   UNL     1      28.590 -17.267  13.040  1.00  0.00     0.000 C 
BRANCH  10  11
ATOM     11  C   UNL     1      29.242 -16.386  14.114  1.00  0.00    -0.000 C 
BRANCH  11  12
ATOM     12  C   UNL     1      28.218 -15.753  15.074  1.00  0.00    -0.000 C 
BRANCH  12  13
ATOM     13  C   UNL     1      28.523 -14.298  15.482  1.00  0.00    -0.000 C 
BRANCH  13  14
ATOM     14  C   UNL     1      28.750 -14.075  16.990  1.00  0.00    -0.000 C 
BRANCH  14  15
ATOM     15  C   UNL     1      29.477 -15.223  17.717  1.00  0.00    -0.000 C 
BRANCH  15  16
ATOM     16  C   UNL     1      28.652 -15.914  18.818  1.00  0.00    -0.003 C 
ATOM     17  C   UNL     1      28.251 -17.343  18.455  1.00  0.00     0.004 C 
ENDBRANCH  15  16
ENDBRANCH  14  15
ENDBRANCH  13  14
ENDBRANCH  12  13
ENDBRANCH  11  12
ENDBRANCH  10  11
ENDBRANCH   1  10
TORSDOF 13
ENDMDL
MODEL 7
REMARK VINA RESULT:     9.091     10.231     12.300
REMARK INTER + INTRA:          15.082
REMARK INTER:                  15.795
REMARK INTRA:                  -0.713
REMARK UNBOUND:                -0.918
REMARK SMILES CCCCCCCCCCCCCCC(=O)[O-]
REMARK SMILES IDX 9 1 10 2 11 3 12 4 13 5 14 6 15 7 16 8 17 9 8 10 7 11 6 12
REMARK SMILES IDX 5 13 4 14 3 15 2 16 1 17
REMARK H PARENT
REMARK Flexibility Score: inf
ROOT
ATOM      1  C   UNL     1      27.478 -17.998  13.690  1.00  0.00     0.000 C 
ENDROOT
BRANCH   1   2
ATOM      2  C   UNL     1      28.609 -17.155  13.090  1.00  0.00     0.000 C 
BRANCH   2   3
ATOM      3  C   UNL     1      29.217 -16.220  14.141  1.00  0.00     0.000 C 
BRANCH   3   4
ATOM      4  C   UNL     1      28.148 -15.721  15.120  1.00  0.00     0.000 C 
BRANCH   4   5
ATOM      5  C   UNL     1      28.530 -14.353  15.702  1.00  0.00     0.006 C 
BRANCH   5   6
ATOM      6  C   UNL     1      28.665 -14.388  17.231  1.00  0.00     0.053 C 
BRANCH   6   7
ATOM      7  C   UNL     1      29.207 -15.699  17.710  1.00  0.00     0.041 C 
ATOM      8  O   UNL     1      30.345 -16.088  17.338  1.00  0.00    -0.550 OA
ATOM      9  O   UNL     1      28.443 -16.506  18.543  1.00  0.00    -0.550 OA
ENDBRANCH   6   7
ENDBRANCH   5   6
ENDBRANCH   4   5
ENDBRANCH   3   4
ENDBRANCH   2   3
ENDBRANCH   1   2
BRANCH   1  10
ATOM     10  C   UNL     1      27.060 -19.121  12.734  1.00  0.00     0.000 C 
BRANCH  10  11
ATOM     11  C   UNL     1      26.409 -20.282  13.499  1.00  0.00    -0.000 C 
BRANCH  11  12
ATOM     12  C   UNL     1      25.734 -19.835  14.809  1.00  0.00    -0.000 C 
BRANCH  12  13
ATOM     13  C   UNL     1      24.973 -20.946  15.559  1.00  0.00    -0.000 C 
BRANCH  13  14
ATOM     14  C   UNL     1      24.674 -22.209  14.729  1.00  0.00    -0.000 C 
BRANCH  14  15
ATOM     15  C   UNL     1      25.032 -23.541  15.417  1.00  0.00    -0.000 C 
BRANCH  15  16
ATOM     16  C   UNL     1      25.978 -24.450  14.611  1.00  0.00    -0.003 C 
ATOM     17  C   UNL     1      27.321 -23.790  14.305  1.00  0.00     0.004 C 
ENDBRANCH  15  16
ENDBRANCH  14  15
ENDBRANCH  13  14
ENDBRANCH  12  13
ENDBRANCH  11  12
ENDBRANCH  10  11
ENDBRANCH   1  10
TORSDOF 13
ENDMDL
MODEL 8
REMARK VINA RESULT:     9.186      9.954     12.685
REMARK INTER + INTRA:          15.249
REMARK INTER:                  15.872
REMARK INTRA:                  -0.623
REMARK UNBOUND:                -0.918
REMARK SMILES CCCCCCCCCCCCCCC(=O)[O-]
REMARK SMILES IDX 9 1 10 2 11 3 12 4 13 5 14 6 15 7 16 8 17 9 8 10 7 11 6 12
REMARK SMILES IDX 5 13 4 14 3 15 2 16 1 17
REMARK H PARENT
REMARK Flexibility Score: inf
ROOT
ATOM      1  C   UNL     1      28.070 -17.668  18.311  1.00  0.00     0.000 C 
ENDROOT
BRANCH   1   2
ATOM      2  C   UNL     1      27.311 -17.776  16.984  1.00  0.00     0.000 C 
BRANCH   2   3
ATOM      3  C   UNL     1      26.115 -18.728  17.108  1.00  0.00     0.000 C 
BRANCH   3   4
ATOM      4  C   UNL     1      25.512 -19.038  15.734  1.00  0.00     0.000 C 
BRANCH   4   5
ATOM      5  C   UNL     1      24.959 -20.470  15.685  1.00  0.00     0.006 C 
BRANCH   5   6
ATOM      6  C   UNL     1      25.726 -21.355  14.692  1.00  0.00     0.053 C 
BRANCH   6   7
ATOM      7  C   UNL     1      25.459 -22.810  14.926  1.00  0.00     0.041 C 
ATOM      8  O   UNL     1      26.400 -23.644  14.872  1.00  0.00    -0.550 OA
ATOM      9  O   UNL     1      24.164 -23.249  15.172  1.00  0.00    -0.550 OA
ENDBRANCH   6   7
ENDBRANCH   5   6
ENDBRANCH   4   5
ENDBRANCH   3   4
ENDBRANCH   2   3
ENDBRANCH   1   2
BRANCH   1  10
ATOM     10  C   UNL     1      28.577 -16.240  18.542  1.00  0.00     0.000 C 
BRANCH  10  11
ATOM     11  C   UNL     1      29.340 -15.721  17.315  1.00  0.00    -0.000 C 
BRANCH  11  12
ATOM     12  C   UNL     1      28.646 -14.525  16.639  1.00  0.00    -0.000 C 
BRANCH  12  13
ATOM     13  C   UNL     1      28.447 -14.666  15.116  1.00  0.00    -0.000 C 
BRANCH  13  14
ATOM     14  C   UNL     1      27.922 -16.038  14.650  1.00  0.00    -0.000 C 
BRANCH  14  15
ATOM     15  C   UNL     1      28.823 -16.772  13.637  1.00  0.00    -0.000 C 
BRANCH  15  16
ATOM     16  C   UNL     1      30.320 -16.779  13.993  1.00  0.00    -0.003 C 
ATOM     17  C   UNL     1      31.101 -17.873  13.267  1.00  0.00     0.004 C 
ENDBRANCH  15  16
ENDBRANCH  14  15
ENDBRANCH  13  14
ENDBRANCH  12  13
ENDBRANCH  11  12
ENDBRANCH  10  11
ENDBRANCH   1  10
TORSDOF 13
ENDMDL
