MODEL 1
REMARK VINA RESULT:    -3.746      0.000      0.000
REMARK INTER + INTRA:          -4.323
REMARK INTER:                  -4.074
REMARK INTRA:                  -0.249
REMARK UNBOUND:                -0.249
REMARK SMILES O=C([O-])c1ccccc1O
REMARK SMILES IDX 4 1 9 2 5 3 8 4 6 5 7 6 2 7 1 8 3 9 10 10
REMARK H PARENT 10 11
REMARK Flexibility Score: inf
ROOT
ATOM      1  C   UNL     1      42.668  18.608  -2.526  1.00  0.00     0.039 A 
ATOM      2  C   UNL     1      41.829  18.469  -1.395  1.00  0.00     0.124 A 
ATOM      3  C   UNL     1      42.866  19.892  -3.070  1.00  0.00     0.014 A 
ATOM      4  C   UNL     1      41.213  19.601  -0.838  1.00  0.00     0.047 A 
ATOM      5  C   UNL     1      42.248  21.010  -2.505  1.00  0.00     0.001 A 
ATOM      6  C   UNL     1      41.423  20.865  -1.391  1.00  0.00     0.004 A 
ENDROOT
BRANCH   1   7
ATOM      7  C   UNL     1      43.339  17.438  -3.150  1.00  0.00     0.075 C 
ATOM      8  O   UNL     1      43.223  17.221  -4.385  1.00  0.00    -0.545 OA
ATOM      9  O   UNL     1      44.106  16.561  -2.390  1.00  0.00    -0.545 OA
ENDBRANCH   1   7
BRANCH   2  10
ATOM     10  O   UNL     1      41.601  17.218  -0.823  1.00  0.00    -0.507 OA
ATOM     11  H   UNL     1      40.684  16.940  -0.495  1.00  0.00     0.293 HD
ENDBRANCH   2  10
TORSDOF 2
ENDMDL
MODEL 2
REMARK VINA RESULT:    -3.655      1.207      1.751
REMARK INTER + INTRA:          -4.225
REMARK INTER:                  -3.974
REMARK INTRA:                  -0.251
REMARK UNBOUND:                -0.249
REMARK SMILES O=C([O-])c1ccccc1O
REMARK SMILES IDX 4 1 9 2 5 3 8 4 6 5 7 6 2 7 1 8 3 9 10 10
REMARK H PARENT 10 11
REMARK Flexibility Score: inf
ROOT
ATOM      1  C   UNL     1      42.406  18.163  -2.315  1.00  0.00     0.039 A 
ATOM      2  C   UNL     1      42.032  19.096  -1.319  1.00  0.00     0.124 A 
ATOM      3  C   UNL     1      42.945  18.642  -3.526  1.00  0.00     0.014 A 
ATOM      4  C   UNL     1      42.203  20.471  -1.549  1.00  0.00     0.047 A 
ATOM      5  C   UNL     1      43.110  20.013  -3.741  1.00  0.00     0.001 A 
ATOM      6  C   UNL     1      42.740  20.925  -2.754  1.00  0.00     0.004 A 
ENDROOT
BRANCH   1   7
ATOM      7  C   UNL     1      42.243  16.700  -2.116  1.00  0.00     0.075 C 
ATOM      8  O   UNL     1      41.141  16.229  -1.726  1.00  0.00    -0.545 OA
ATOM      9  O   UNL     1      43.294  15.822  -2.354  1.00  0.00    -0.545 OA
ENDBRANCH   1   7
BRANCH   2  10
ATOM     10  O   UNL     1      41.493  18.669  -0.106  1.00  0.00    -0.507 OA
ATOM     11  H   UNL     1      40.821  17.913  -0.058  1.00  0.00     0.293 HD
ENDBRANCH   2  10
TORSDOF 2
ENDMDL
MODEL 3
REMARK VINA RESULT:    -3.615      1.912      3.593
REMARK INTER + INTRA:          -4.181
REMARK INTER:                  -4.029
REMARK INTRA:                  -0.153
REMARK UNBOUND:                -0.249
REMARK SMILES O=C([O-])c1ccccc1O
REMARK SMILES IDX 4 1 9 2 5 3 8 4 6 5 7 6 2 7 1 8 3 9 10 10
REMARK H PARENT 10 11
REMARK Flexibility Score: inf
ROOT
ATOM      1  C   UNL     1      41.456  19.774  -1.970  1.00  0.00     0.039 A 
ATOM      2  C   UNL     1      41.972  18.462  -1.848  1.00  0.00     0.124 A 
ATOM      3  C   UNL     1      41.928  20.595  -3.013  1.00  0.00     0.014 A 
ATOM      4  C   UNL     1      42.936  18.002  -2.760  1.00  0.00     0.047 A 
ATOM      5  C   UNL     1      42.887  20.124  -3.913  1.00  0.00     0.001 A 
ATOM      6  C   UNL     1      43.389  18.830  -3.787  1.00  0.00     0.004 A 
ENDROOT
BRANCH   1   7
ATOM      7  C   UNL     1      40.436  20.303  -1.027  1.00  0.00     0.075 C 
ATOM      8  O   UNL     1      40.748  21.177  -0.175  1.00  0.00    -0.545 OA
ATOM      9  O   UNL     1      39.122  19.850  -1.064  1.00  0.00    -0.545 OA
ENDBRANCH   1   7
BRANCH   2  10
ATOM     10  O   UNL     1      41.535  17.614  -0.831  1.00  0.00    -0.507 OA
ATOM     11  H   UNL     1      42.028  16.758  -0.603  1.00  0.00     0.293 HD
ENDBRANCH   2  10
TORSDOF 2
ENDMDL
MODEL 4
REMARK VINA RESULT:    -3.569      6.601      8.009
REMARK INTER + INTRA:          -4.132
REMARK INTER:                  -3.881
REMARK INTRA:                  -0.251
REMARK UNBOUND:                -0.249
REMARK SMILES O=C([O-])c1ccccc1O
REMARK SMILES IDX 4 1 9 2 5 3 8 4 6 5 7 6 2 7 1 8 3 9 10 10
REMARK H PARENT 10 11
REMARK Flexibility Score: inf
ROOT
ATOM      1  C   UNL     1      48.092  14.209  -3.177  1.00  0.00     0.039 A 
ATOM      2  C   UNL     1      48.268  15.489  -3.753  1.00  0.00     0.124 A 
ATOM      3  C   UNL     1      49.046  13.207  -3.446  1.00  0.00     0.014 A 
ATOM      4  C   UNL     1      49.379  15.741  -4.574  1.00  0.00     0.047 A 
ATOM      5  C   UNL     1      50.147  13.471  -4.264  1.00  0.00     0.001 A 
ATOM      6  C   UNL     1      50.314  14.736  -4.826  1.00  0.00     0.004 A 
ENDROOT
BRANCH   1   7
ATOM      7  C   UNL     1      46.931  13.897  -2.304  1.00  0.00     0.075 C 
ATOM      8  O   UNL     1      45.759  14.158  -2.684  1.00  0.00    -0.545 OA
ATOM      9  O   UNL     1      47.109  13.313  -1.054  1.00  0.00    -0.545 OA
ENDBRANCH   1   7
BRANCH   2  10
ATOM     10  O   UNL     1      47.349  16.512  -3.517  1.00  0.00    -0.507 OA
ATOM     11  H   UNL     1      46.401  16.469  -3.871  1.00  0.00     0.293 HD
ENDBRANCH   2  10
TORSDOF 2
ENDMDL
MODEL 5
REMARK VINA RESULT:    -3.546      9.773     11.111
REMARK INTER + INTRA:          -4.106
REMARK INTER:                  -3.865
REMARK INTRA:                  -0.241
REMARK UNBOUND:                -0.249
REMARK SMILES O=C([O-])c1ccccc1O
REMARK SMILES IDX 4 1 9 2 5 3 8 4 6 5 7 6 2 7 1 8 3 9 10 10
REMARK H PARENT 10 11
REMARK Flexibility Score: inf
ROOT
ATOM      1  C   UNL     1      39.817  11.850   5.603  1.00  0.00     0.039 A 
ATOM      2  C   UNL     1      40.460  12.913   6.280  1.00  0.00     0.124 A 
ATOM      3  C   UNL     1      39.108  10.895   6.359  1.00  0.00     0.014 A 
ATOM      4  C   UNL     1      40.383  13.001   7.679  1.00  0.00     0.047 A 
ATOM      5  C   UNL     1      39.039  10.994   7.751  1.00  0.00     0.001 A 
ATOM      6  C   UNL     1      39.675  12.045   8.409  1.00  0.00     0.004 A 
ENDROOT
BRANCH   1   7
ATOM      7  C   UNL     1      39.872  11.718   4.124  1.00  0.00     0.075 C 
ATOM      8  O   UNL     1      38.886  11.260   3.488  1.00  0.00    -0.545 OA
ATOM      9  O   UNL     1      41.006  12.094   3.412  1.00  0.00    -0.545 OA
ENDBRANCH   1   7
BRANCH   2  10
ATOM     10  O   UNL     1      41.174  13.882   5.575  1.00  0.00    -0.507 OA
ATOM     11  H   UNL     1      42.080  14.209   5.887  1.00  0.00     0.293 HD
ENDBRANCH   2  10
TORSDOF 2
ENDMDL
MODEL 6
REMARK VINA RESULT:    -3.527      1.596      2.363
REMARK INTER + INTRA:          -4.086
REMARK INTER:                  -3.838
REMARK INTRA:                  -0.248
REMARK UNBOUND:                -0.249
REMARK SMILES O=C([O-])c1ccccc1O
REMARK SMILES IDX 4 1 9 2 5 3 8 4 6 5 7 6 2 7 1 8 3 9 10 10
REMARK H PARENT 10 11
REMARK Flexibility Score: inf
ROOT
ATOM      1  C   UNL     1      43.289  18.246  -3.070  1.00  0.00     0.039 A 
ATOM      2  C   UNL     1      42.860  19.422  -2.411  1.00  0.00     0.124 A 
ATOM      3  C   UNL     1      43.802  18.351  -4.379  1.00  0.00     0.014 A 
ATOM      4  C   UNL     1      42.952  20.663  -3.061  1.00  0.00     0.047 A 
ATOM      5  C   UNL     1      43.889  19.592  -5.014  1.00  0.00     0.001 A 
ATOM      6  C   UNL     1      43.465  20.746  -4.357  1.00  0.00     0.004 A 
ENDROOT
BRANCH   1   7
ATOM      7  C   UNL     1      43.209  16.912  -2.421  1.00  0.00     0.075 C 
ATOM      8  O   UNL     1      42.114  16.490  -1.964  1.00  0.00    -0.545 OA
ATOM      9  O   UNL     1      44.334  16.103  -2.304  1.00  0.00    -0.545 OA
ENDBRANCH   1   7
BRANCH   2  10
ATOM     10  O   UNL     1      42.343  19.367  -1.116  1.00  0.00    -0.507 OA
ATOM     11  H   UNL     1      42.134  20.207  -0.590  1.00  0.00     0.293 HD
ENDBRANCH   2  10
TORSDOF 2
ENDMDL
MODEL 7
REMARK VINA RESULT:    -3.460      6.975      8.466
REMARK INTER + INTRA:          -4.012
REMARK INTER:                  -3.763
REMARK INTRA:                  -0.249
REMARK UNBOUND:                -0.249
REMARK SMILES O=C([O-])c1ccccc1O
REMARK SMILES IDX 4 1 9 2 5 3 8 4 6 5 7 6 2 7 1 8 3 9 10 10
REMARK H PARENT 10 11
REMARK Flexibility Score: inf
ROOT
ATOM      1  C   UNL     1      49.387  14.788  -4.228  1.00  0.00     0.039 A 
ATOM      2  C   UNL     1      48.217  15.131  -3.509  1.00  0.00     0.124 A 
ATOM      3  C   UNL     1      49.843  13.456  -4.186  1.00  0.00     0.014 A 
ATOM      4  C   UNL     1      47.536  14.148  -2.772  1.00  0.00     0.047 A 
ATOM      5  C   UNL     1      49.155  12.488  -3.450  1.00  0.00     0.001 A 
ATOM      6  C   UNL     1      48.004  12.833  -2.745  1.00  0.00     0.004 A 
ENDROOT
BRANCH   1   7
ATOM      7  C   UNL     1      50.140  15.795  -5.020  1.00  0.00     0.075 C 
ATOM      8  O   UNL     1      49.531  16.597  -5.777  1.00  0.00    -0.545 OA
ATOM      9  O   UNL     1      51.526  15.876  -4.944  1.00  0.00    -0.545 OA
ENDBRANCH   1   7
BRANCH   2  10
ATOM     10  O   UNL     1      47.728  16.437  -3.519  1.00  0.00    -0.507 OA
ATOM     11  H   UNL     1      47.989  17.098  -4.241  1.00  0.00     0.293 HD
ENDBRANCH   2  10
TORSDOF 2
ENDMDL
MODEL 8
REMARK VINA RESULT:    -3.446      2.145      2.574
REMARK INTER + INTRA:          -3.997
REMARK INTER:                  -3.759
REMARK INTRA:                  -0.239
REMARK UNBOUND:                -0.249
REMARK SMILES O=C([O-])c1ccccc1O
REMARK SMILES IDX 4 1 9 2 5 3 8 4 6 5 7 6 2 7 1 8 3 9 10 10
REMARK H PARENT 10 11
REMARK Flexibility Score: inf
ROOT
ATOM      1  C   UNL     1      42.269  20.016  -2.808  1.00  0.00     0.039 A 
ATOM      2  C   UNL     1      40.887  19.713  -2.797  1.00  0.00     0.124 A 
ATOM      3  C   UNL     1      42.875  20.465  -1.618  1.00  0.00     0.014 A 
ATOM      4  C   UNL     1      40.147  19.863  -1.612  1.00  0.00     0.047 A 
ATOM      5  C   UNL     1      42.128  20.609  -0.446  1.00  0.00     0.001 A 
ATOM      6  C   UNL     1      40.766  20.308  -0.443  1.00  0.00     0.004 A 
ENDROOT
BRANCH   1   7
ATOM      7  C   UNL     1      43.090  19.873  -4.038  1.00  0.00     0.075 C 
ATOM      8  O   UNL     1      43.198  18.753  -4.606  1.00  0.00    -0.545 OA
ATOM      9  O   UNL     1      43.754  20.964  -4.588  1.00  0.00    -0.545 OA
ENDBRANCH   1   7
BRANCH   2  10
ATOM     10  O   UNL     1      40.243  19.266  -3.950  1.00  0.00    -0.507 OA
ATOM     11  H   UNL     1      39.964  19.905  -4.686  1.00  0.00     0.293 HD
ENDBRANCH   2  10
TORSDOF 2
ENDMDL
MODEL 9
REMARK VINA RESULT:    -3.437      6.406      7.881
REMARK INTER + INTRA:          -3.988
REMARK INTER:                  -3.750
REMARK INTRA:                  -0.238
REMARK UNBOUND:                -0.249
REMARK SMILES O=C([O-])c1ccccc1O
REMARK SMILES IDX 4 1 9 2 5 3 8 4 6 5 7 6 2 7 1 8 3 9 10 10
REMARK H PARENT 10 11
REMARK Flexibility Score: inf
ROOT
ATOM      1  C   UNL     1      48.291  14.652  -3.575  1.00  0.00     0.039 A 
ATOM      2  C   UNL     1      49.577  14.845  -4.132  1.00  0.00     0.124 A 
ATOM      3  C   UNL     1      47.262  15.552  -3.916  1.00  0.00     0.014 A 
ATOM      4  C   UNL     1      49.806  15.918  -5.008  1.00  0.00     0.047 A 
ATOM      5  C   UNL     1      47.503  16.615  -4.789  1.00  0.00     0.001 A 
ATOM      6  C   UNL     1      48.773  16.798  -5.335  1.00  0.00     0.004 A 
ENDROOT
BRANCH   1   7
ATOM      7  C   UNL     1      48.003  13.531  -2.643  1.00  0.00     0.075 C 
ATOM      8  O   UNL     1      48.529  12.401  -2.824  1.00  0.00    -0.545 OA
ATOM      9  O   UNL     1      47.152  13.702  -1.557  1.00  0.00    -0.545 OA
ENDBRANCH   1   7
BRANCH   2  10
ATOM     10  O   UNL     1      50.627  13.981  -3.823  1.00  0.00    -0.507 OA
ATOM     11  H   UNL     1      51.375  14.254  -3.196  1.00  0.00     0.293 HD
ENDBRANCH   2  10
TORSDOF 2
ENDMDL
