MODEL 1
REMARK VINA RESULT:    -3.141      0.000      0.000
REMARK INTER + INTRA:          -4.853
REMARK INTER:                  -4.794
REMARK INTRA:                  -0.059
REMARK UNBOUND:                -0.059
REMARK SMILES CC1=CCC[C@@H](C)C(=O)C[C@H](C(C)C)C(=O)C1
REMARK SMILES IDX 8 1 9 2 6 3 7 4 5 5 4 6 3 7 2 8 1 9 10 11 11 12 15 13 16 14
REMARK SMILES IDX 17 15 12 17 13 18 14 19
REMARK H PARENT
REMARK Flexibility Score: 70.00
ROOT
ATOM      1  C   UNL     1       2.984  -2.252  14.831  1.00  0.00     0.136 C 
ATOM      2  O   UNL     1       3.509  -1.658  13.900  1.00  0.00    -0.299 OA
ENDROOT
BRANCH   1   3
ATOM      3  C   UNL     1       1.477  -2.405  14.877  1.00  0.00     0.053 C 
ATOM      4  C   UNL     1       0.850  -1.084  15.336  1.00  0.00     0.016 C 
BRANCH   3   5
ATOM      5  C   UNL     1       1.020  -3.563  15.797  1.00  0.00     0.015 C 
BRANCH   5   6
ATOM      6  C   UNL     1       0.471  -3.096  17.157  1.00  0.00     0.028 C 
BRANCH   6   7
ATOM      7  C   UNL     1       0.715  -4.126  18.235  1.00  0.00    -0.028 C 
ATOM      8  C   UNL     1       1.654  -4.039  19.206  1.00  0.00    -0.070 CG0
ATOM      9  C   UNL     1       1.754  -5.173  20.195  1.00  0.00     0.039 C 
ATOM     10  G   UNL     1       2.597  -2.859  19.342  1.00  0.00     0.000 G0
ENDBRANCH   6   7
ENDBRANCH   5   6
ENDBRANCH   3   5
ENDBRANCH   1   3
BRANCH   1  11
ATOM     11  C   UNL     1       3.855  -2.884  15.889  1.00  0.00     0.087 C 
BRANCH  11  12
ATOM     12  C   UNL     1       3.889  -2.044  17.186  1.00  0.00     0.066 C 
BRANCH  12  13
ATOM     13  C   UNL     1       3.788  -2.940  18.411  1.00  0.00     0.140 C 
ATOM     14  O   UNL     1       4.684  -3.736  18.656  1.00  0.00    -0.299 OA
BRANCH  13  15
ATOM     15  C   UNL     1       2.611  -2.861  19.352  1.00  0.00     0.106 CG0
ATOM     16  G   UNL     1       1.671  -4.043  19.200  1.00  0.00     0.000 G0
ENDBRANCH  13  15
ENDBRANCH  12  13
BRANCH  12  17
ATOM     17  C   UNL     1       5.117  -1.084  17.233  1.00  0.00    -0.006 C 
ATOM     18  C   UNL     1       4.895   0.266  16.530  1.00  0.00     0.008 C 
ATOM     19  C   UNL     1       6.377  -1.765  16.675  1.00  0.00     0.008 C 
ENDBRANCH  12  17
ENDBRANCH  11  12
ENDBRANCH   1  11
TORSDOF 1
ENDMDL
MODEL 2
REMARK VINA RESULT:    -3.064      6.383      8.397
REMARK INTER + INTRA:          -4.735
REMARK INTER:                  -4.499
REMARK INTRA:                  -0.236
REMARK UNBOUND:                -0.059
REMARK SMILES CC1=CCC[C@@H](C)C(=O)C[C@H](C(C)C)C(=O)C1
REMARK SMILES IDX 8 1 9 2 6 3 7 4 5 5 4 6 3 7 2 8 1 9 10 11 11 12 15 13 16 14
REMARK SMILES IDX 17 15 12 17 13 18 14 19
REMARK H PARENT
REMARK Flexibility Score: 70.00
ROOT
ATOM      1  C   UNL     1       2.909   1.710  24.005  1.00  0.00     0.136 C 
ATOM      2  O   UNL     1       3.375   2.222  25.012  1.00  0.00    -0.299 OA
ENDROOT
BRANCH   1   3
ATOM      3  C   UNL     1       2.816   2.510  22.721  1.00  0.00     0.053 C 
ATOM      4  C   UNL     1       4.216   2.989  22.324  1.00  0.00     0.016 C 
BRANCH   3   5
ATOM      5  C   UNL     1       1.850   3.715  22.835  1.00  0.00     0.015 C 
BRANCH   5   6
ATOM      6  C   UNL     1       0.415   3.407  22.372  1.00  0.00     0.028 C 
BRANCH   6   7
ATOM      7  C   UNL     1       0.407   2.544  21.132  1.00  0.00    -0.028 C 
ATOM      8  C   UNL     1      -0.078   1.283  21.056  1.00  0.00    -0.070 CG0
ATOM      9  C   UNL     1       0.006   0.573  19.729  1.00  0.00     0.039 C 
ATOM     10  G   UNL     1      -0.699   0.563  22.238  1.00  0.00     0.000 G0
ENDBRANCH   6   7
ENDBRANCH   5   6
ENDBRANCH   3   5
ENDBRANCH   1   3
BRANCH   1  11
ATOM     11  C   UNL     1       2.495   0.258  24.039  1.00  0.00     0.087 C 
BRANCH  11  12
ATOM     12  C   UNL     1       0.971   0.099  24.247  1.00  0.00     0.066 C 
BRANCH  12  13
ATOM     13  C   UNL     1       0.295  -0.342  22.957  1.00  0.00     0.140 C 
ATOM     14  O   UNL     1       0.541  -1.444  22.489  1.00  0.00    -0.299 OA
BRANCH  13  15
ATOM     15  C   UNL     1      -0.694   0.546  22.241  1.00  0.00     0.106 CG0
ATOM     16  G   UNL     1      -0.082   1.241  21.040  1.00  0.00     0.000 G0
ENDBRANCH  13  15
ENDBRANCH  12  13
BRANCH  12  17
ATOM     17  C   UNL     1       0.636  -0.827  25.456  1.00  0.00    -0.006 C 
ATOM     18  C   UNL     1      -0.455  -0.278  26.391  1.00  0.00     0.008 C 
ATOM     19  C   UNL     1       1.898  -1.165  26.265  1.00  0.00     0.008 C 
ENDBRANCH  12  17
ENDBRANCH  11  12
ENDBRANCH   1  11
TORSDOF 1
ENDMDL
MODEL 3
REMARK VINA RESULT:    -3.008      6.438      7.762
REMARK INTER + INTRA:          -4.650
REMARK INTER:                  -4.386
REMARK INTRA:                  -0.263
REMARK UNBOUND:                -0.059
REMARK SMILES CC1=CCC[C@@H](C)C(=O)C[C@H](C(C)C)C(=O)C1
REMARK SMILES IDX 8 1 9 2 6 3 7 4 5 5 4 6 3 7 2 8 1 9 10 11 11 12 15 13 16 14
REMARK SMILES IDX 17 15 12 17 13 18 14 19
REMARK H PARENT
REMARK Flexibility Score: 70.00
ROOT
ATOM      1  C   UNL     1       0.546   0.477  22.142  1.00  0.00     0.136 C 
ATOM      2  O   UNL     1      -0.511   0.923  21.722  1.00  0.00    -0.299 OA
ENDROOT
BRANCH   1   3
ATOM      3  C   UNL     1       0.566  -0.834  22.902  1.00  0.00     0.053 C 
ATOM      4  C   UNL     1      -0.164  -1.903  22.082  1.00  0.00     0.016 C 
BRANCH   3   5
ATOM      5  C   UNL     1      -0.062  -0.719  24.312  1.00  0.00     0.015 C 
BRANCH   5   6
ATOM      6  C   UNL     1       0.941  -0.319  25.409  1.00  0.00     0.028 C 
BRANCH   6   7
ATOM      7  C   UNL     1       2.330  -0.827  25.100  1.00  0.00    -0.028 C 
ATOM      8  C   UNL     1       3.420  -0.055  24.889  1.00  0.00    -0.070 CG0
ATOM      9  C   UNL     1       4.727  -0.743  24.586  1.00  0.00     0.039 C 
ATOM     10  G   UNL     1       3.384   1.461  24.949  1.00  0.00     0.000 G0
ENDBRANCH   6   7
ENDBRANCH   5   6
ENDBRANCH   3   5
ENDBRANCH   1   3
BRANCH   1  11
ATOM     11  C   UNL     1       1.831   1.209  21.835  1.00  0.00     0.087 C 
BRANCH  11  12
ATOM     12  C   UNL     1       2.085   2.367  22.827  1.00  0.00     0.066 C 
BRANCH  12  13
ATOM     13  C   UNL     1       3.374   2.138  23.601  1.00  0.00     0.140 C 
ATOM     14  O   UNL     1       4.440   2.502  23.126  1.00  0.00    -0.299 OA
BRANCH  13  15
ATOM     15  C   UNL     1       3.372   1.485  24.962  1.00  0.00     0.106 CG0
ATOM     16  G   UNL     1       3.409  -0.029  24.875  1.00  0.00     0.000 G0
ENDBRANCH  13  15
ENDBRANCH  12  13
BRANCH  12  17
ATOM     17  C   UNL     1       2.033   3.761  22.130  1.00  0.00    -0.006 C 
ATOM     18  C   UNL     1       0.683   4.485  22.261  1.00  0.00     0.008 C 
ATOM     19  C   UNL     1       2.431   3.657  20.648  1.00  0.00     0.008 C 
ENDBRANCH  12  17
ENDBRANCH  11  12
ENDBRANCH   1  11
TORSDOF 1
ENDMDL
MODEL 4
REMARK VINA RESULT:    -2.952      2.513      4.780
REMARK INTER + INTRA:          -4.564
REMARK INTER:                  -4.511
REMARK INTRA:                  -0.053
REMARK UNBOUND:                -0.059
REMARK SMILES CC1=CCC[C@@H](C)C(=O)C[C@H](C(C)C)C(=O)C1
REMARK SMILES IDX 8 1 9 2 6 3 7 4 5 5 4 6 3 7 2 8 1 9 10 11 11 12 15 13 16 14
REMARK SMILES IDX 17 15 12 17 13 18 14 19
REMARK H PARENT
REMARK Flexibility Score: 70.00
ROOT
ATOM      1  C   UNL     1      -0.463  -0.539  17.983  1.00  0.00     0.136 C 
ATOM      2  O   UNL     1      -1.590  -0.072  18.058  1.00  0.00    -0.299 OA
ENDROOT
BRANCH   1   3
ATOM      3  C   UNL     1       0.530   0.037  16.993  1.00  0.00     0.053 C 
ATOM      4  C   UNL     1       0.573   1.561  17.151  1.00  0.00     0.016 C 
BRANCH   3   5
ATOM      5  C   UNL     1       0.203  -0.340  15.528  1.00  0.00     0.015 C 
BRANCH   5   6
ATOM      6  C   UNL     1       0.998  -1.550  15.005  1.00  0.00     0.028 C 
BRANCH   6   7
ATOM      7  C   UNL     1       2.478  -1.391  15.260  1.00  0.00    -0.028 C 
ATOM      8  C   UNL     1       3.224  -2.176  16.072  1.00  0.00    -0.070 CG0
ATOM      9  C   UNL     1       4.692  -1.859  16.208  1.00  0.00     0.039 C 
ATOM     10  G   UNL     1       2.651  -3.352  16.840  1.00  0.00     0.000 G0
ENDBRANCH   6   7
ENDBRANCH   5   6
ENDBRANCH   3   5
ENDBRANCH   1   3
BRANCH   1  11
ATOM     11  C   UNL     1      -0.055  -1.643  18.928  1.00  0.00     0.087 C 
BRANCH  11  12
ATOM     12  C   UNL     1       0.420  -2.904  18.171  1.00  0.00     0.066 C 
BRANCH  12  13
ATOM     13  C   UNL     1       1.939  -2.955  18.110  1.00  0.00     0.140 C 
ATOM     14  O   UNL     1       2.596  -2.676  19.103  1.00  0.00    -0.299 OA
BRANCH  13  15
ATOM     15  C   UNL     1       2.666  -3.362  16.851  1.00  0.00     0.106 CG0
ATOM     16  G   UNL     1       3.205  -2.169  16.085  1.00  0.00     0.000 G0
ENDBRANCH  13  15
ENDBRANCH  12  13
BRANCH  12  17
ATOM     17  C   UNL     1      -0.210  -4.209  18.747  1.00  0.00    -0.006 C 
ATOM     18  C   UNL     1      -1.215  -4.897  17.808  1.00  0.00     0.008 C 
ATOM     19  C   UNL     1      -0.861  -3.955  20.117  1.00  0.00     0.008 C 
ENDBRANCH  12  17
ENDBRANCH  11  12
ENDBRANCH   1  11
TORSDOF 1
ENDMDL
MODEL 5
REMARK VINA RESULT:    -2.867      2.790      4.097
REMARK INTER + INTRA:          -4.434
REMARK INTER:                  -4.089
REMARK INTRA:                  -0.345
REMARK UNBOUND:                -0.059
REMARK SMILES CC1=CCC[C@@H](C)C(=O)C[C@H](C(C)C)C(=O)C1
REMARK SMILES IDX 8 1 9 2 6 3 7 4 5 5 4 6 3 7 2 8 1 9 10 11 11 12 15 13 16 14
REMARK SMILES IDX 17 15 12 17 13 18 14 19
REMARK H PARENT
REMARK Flexibility Score: 70.00
ROOT
ATOM      1  C   UNL     1       1.476  -1.244  16.201  1.00  0.00     0.136 C 
ATOM      2  O   UNL     1       1.330  -0.896  15.038  1.00  0.00    -0.299 OA
ENDROOT
BRANCH   1   3
ATOM      3  C   UNL     1       2.051  -2.610  16.515  1.00  0.00     0.053 C 
ATOM      4  C   UNL     1       3.399  -2.767  15.800  1.00  0.00     0.016 C 
BRANCH   3   5
ATOM      5  C   UNL     1       1.100  -3.766  16.122  1.00  0.00     0.015 C 
BRANCH   5   6
ATOM      6  C   UNL     1       0.020  -4.068  17.177  1.00  0.00     0.028 C 
BRANCH   6   7
ATOM      7  C   UNL     1       0.567  -3.945  18.579  1.00  0.00    -0.028 C 
ATOM      8  C   UNL     1       0.093  -3.116  19.537  1.00  0.00    -0.070 CG0
ATOM      9  C   UNL     1       0.774  -3.126  20.882  1.00  0.00     0.039 C 
ATOM     10  G   UNL     1      -1.087  -2.187  19.318  1.00  0.00     0.000 G0
ENDBRANCH   6   7
ENDBRANCH   5   6
ENDBRANCH   3   5
ENDBRANCH   1   3
BRANCH   1  11
ATOM     11  C   UNL     1       1.143  -0.275  17.309  1.00  0.00     0.087 C 
BRANCH  11  12
ATOM     12  C   UNL     1      -0.371  -0.255  17.621  1.00  0.00     0.066 C 
BRANCH  12  13
ATOM     13  C   UNL     1      -0.634  -0.737  19.040  1.00  0.00     0.140 C 
ATOM     14  O   UNL     1      -0.496   0.034  19.978  1.00  0.00    -0.299 OA
BRANCH  13  15
ATOM     15  C   UNL     1      -1.083  -2.151  19.323  1.00  0.00     0.106 CG0
ATOM     16  G   UNL     1       0.085  -3.097  19.526  1.00  0.00     0.000 G0
ENDBRANCH  13  15
ENDBRANCH  12  13
BRANCH  12  17
ATOM     17  C   UNL     1      -1.016   1.132  17.321  1.00  0.00    -0.006 C 
ATOM     18  C   UNL     1      -2.020   1.126  16.156  1.00  0.00     0.008 C 
ATOM     19  C   UNL     1       0.059   2.205  17.082  1.00  0.00     0.008 C 
ENDBRANCH  12  17
ENDBRANCH  11  12
ENDBRANCH   1  11
TORSDOF 1
ENDMDL
MODEL 6
REMARK VINA RESULT:    -2.800      3.086      5.417
REMARK INTER + INTRA:          -4.332
REMARK INTER:                  -4.042
REMARK INTRA:                  -0.290
REMARK UNBOUND:                -0.059
REMARK SMILES CC1=CCC[C@@H](C)C(=O)C[C@H](C(C)C)C(=O)C1
REMARK SMILES IDX 8 1 9 2 6 3 7 4 5 5 4 6 3 7 2 8 1 9 10 11 11 12 15 13 16 14
REMARK SMILES IDX 17 15 12 17 13 18 14 19
REMARK H PARENT
REMARK Flexibility Score: 70.00
ROOT
ATOM      1  C   UNL     1       3.556   1.723  14.214  1.00  0.00     0.136 C 
ATOM      2  O   UNL     1       3.885   2.696  13.551  1.00  0.00    -0.299 OA
ENDROOT
BRANCH   1   3
ATOM      3  C   UNL     1       4.554   0.612  14.473  1.00  0.00     0.053 C 
ATOM      4  C   UNL     1       5.935   1.225  14.730  1.00  0.00     0.016 C 
BRANCH   3   5
ATOM      5  C   UNL     1       4.629  -0.409  13.311  1.00  0.00     0.015 C 
BRANCH   5   6
ATOM      6  C   UNL     1       3.837  -1.703  13.570  1.00  0.00     0.028 C 
BRANCH   6   7
ATOM      7  C   UNL     1       3.594  -1.919  15.045  1.00  0.00    -0.028 C 
ATOM      8  C   UNL     1       2.383  -1.933  15.648  1.00  0.00    -0.070 CG0
ATOM      9  C   UNL     1       2.338  -2.157  17.138  1.00  0.00     0.039 C 
ATOM     10  G   UNL     1       1.081  -1.739  14.893  1.00  0.00     0.000 G0
ENDBRANCH   6   7
ENDBRANCH   5   6
ENDBRANCH   3   5
ENDBRANCH   1   3
BRANCH   1  11
ATOM     11  C   UNL     1       2.175   1.676  14.822  1.00  0.00     0.087 C 
BRANCH  11  12
ATOM     12  C   UNL     1       1.221   0.766  14.016  1.00  0.00     0.066 C 
BRANCH  12  13
ATOM     13  C   UNL     1       0.601  -0.294  14.914  1.00  0.00     0.140 C 
ATOM     14  O   UNL     1      -0.314   0.007  15.666  1.00  0.00    -0.299 OA
BRANCH  13  15
ATOM     15  C   UNL     1       1.077  -1.726  14.889  1.00  0.00     0.106 CG0
ATOM     16  G   UNL     1       2.366  -1.919  15.665  1.00  0.00     0.000 G0
ENDBRANCH  13  15
ENDBRANCH  12  13
BRANCH  12  17
ATOM     17  C   UNL     1       0.159   1.585  13.220  1.00  0.00    -0.006 C 
ATOM     18  C   UNL     1       0.337   1.539  11.693  1.00  0.00     0.008 C 
ATOM     19  C   UNL     1       0.110   3.045  13.699  1.00  0.00     0.008 C 
ENDBRANCH  12  17
ENDBRANCH  11  12
ENDBRANCH   1  11
TORSDOF 1
ENDMDL
MODEL 7
REMARK VINA RESULT:    -2.760      3.101      5.276
REMARK INTER + INTRA:          -4.270
REMARK INTER:                  -4.025
REMARK INTRA:                  -0.246
REMARK UNBOUND:                -0.059
REMARK SMILES CC1=CCC[C@@H](C)C(=O)C[C@H](C(C)C)C(=O)C1
REMARK SMILES IDX 8 1 9 2 6 3 7 4 5 5 4 6 3 7 2 8 1 9 10 11 11 12 15 13 16 14
REMARK SMILES IDX 17 15 12 17 13 18 14 19
REMARK H PARENT
REMARK Flexibility Score: 70.00
ROOT
ATOM      1  C   UNL     1       1.945   0.192  17.191  1.00  0.00     0.136 C 
ATOM      2  O   UNL     1       1.046   0.415  17.989  1.00  0.00    -0.299 OA
ENDROOT
BRANCH   1   3
ATOM      3  C   UNL     1       2.248   1.190  16.093  1.00  0.00     0.053 C 
ATOM      4  C   UNL     1       2.238   2.605  16.681  1.00  0.00     0.016 C 
BRANCH   3   5
ATOM      5  C   UNL     1       1.257   1.096  14.907  1.00  0.00     0.015 C 
BRANCH   5   6
ATOM      6  C   UNL     1       1.897   0.593  13.601  1.00  0.00     0.028 C 
BRANCH   6   7
ATOM      7  C   UNL     1       3.397   0.761  13.619  1.00  0.00    -0.028 C 
ATOM      8  C   UNL     1       4.298  -0.241  13.752  1.00  0.00    -0.070 CG0
ATOM      9  C   UNL     1       5.762   0.121  13.756  1.00  0.00     0.039 C 
ATOM     10  G   UNL     1       3.900  -1.698  13.894  1.00  0.00     0.000 G0
ENDBRANCH   6   7
ENDBRANCH   5   6
ENDBRANCH   3   5
ENDBRANCH   1   3
BRANCH   1  11
ATOM     11  C   UNL     1       2.787  -1.051  17.357  1.00  0.00     0.087 C 
BRANCH  11  12
ATOM     12  C   UNL     1       2.594  -2.038  16.184  1.00  0.00     0.066 C 
BRANCH  12  13
ATOM     13  C   UNL     1       3.867  -2.151  15.360  1.00  0.00     0.140 C 
ATOM     14  O   UNL     1       4.877  -2.622  15.863  1.00  0.00    -0.299 OA
BRANCH  13  15
ATOM     15  C   UNL     1       3.915  -1.708  13.917  1.00  0.00     0.106 CG0
ATOM     16  G   UNL     1       4.298  -0.247  13.774  1.00  0.00     0.000 G0
ENDBRANCH  13  15
ENDBRANCH  12  13
BRANCH  12  17
ATOM     17  C   UNL     1       2.055  -3.421  16.662  1.00  0.00    -0.006 C 
ATOM     18  C   UNL     1       0.608  -3.720  16.235  1.00  0.00     0.008 C 
ATOM     19  C   UNL     1       2.196  -3.577  18.185  1.00  0.00     0.008 C 
ENDBRANCH  12  17
ENDBRANCH  11  12
ENDBRANCH   1  11
TORSDOF 1
ENDMDL
MODEL 8
REMARK VINA RESULT:    -2.756      6.235      7.865
REMARK INTER + INTRA:          -4.265
REMARK INTER:                  -4.211
REMARK INTRA:                  -0.054
REMARK UNBOUND:                -0.059
REMARK SMILES CC1=CCC[C@@H](C)C(=O)C[C@H](C(C)C)C(=O)C1
REMARK SMILES IDX 8 1 9 2 6 3 7 4 5 5 4 6 3 7 2 8 1 9 10 11 11 12 15 13 16 14
REMARK SMILES IDX 17 15 12 17 13 18 14 19
REMARK H PARENT
REMARK Flexibility Score: 70.00
ROOT
ATOM      1  C   UNL     1       1.363   2.229  22.693  1.00  0.00     0.136 C 
ATOM      2  O   UNL     1       0.317   1.598  22.673  1.00  0.00    -0.299 OA
ENDROOT
BRANCH   1   3
ATOM      3  C   UNL     1       1.479   3.528  21.921  1.00  0.00     0.053 C 
ATOM      4  C   UNL     1       0.356   4.475  22.357  1.00  0.00     0.016 C 
BRANCH   3   5
ATOM      5  C   UNL     1       1.438   3.319  20.387  1.00  0.00     0.015 C 
BRANCH   5   6
ATOM      6  C   UNL     1       2.657   2.562  19.830  1.00  0.00     0.028 C 
BRANCH   6   7
ATOM      7  C   UNL     1       3.919   3.383  19.947  1.00  0.00    -0.028 C 
ATOM      8  C   UNL     1       5.084   2.960  20.489  1.00  0.00    -0.070 CG0
ATOM      9  C   UNL     1       6.240   3.927  20.525  1.00  0.00     0.039 C 
ATOM     10  G   UNL     1       5.275   1.565  21.054  1.00  0.00     0.000 G0
ENDBRANCH   6   7
ENDBRANCH   5   6
ENDBRANCH   3   5
ENDBRANCH   1   3
BRANCH   1  11
ATOM     11  C   UNL     1       2.507   1.735  23.546  1.00  0.00     0.087 C 
BRANCH  11  12
ATOM     12  C   UNL     1       3.436   0.777  22.765  1.00  0.00     0.066 C 
BRANCH  12  13
ATOM     13  C   UNL     1       4.771   1.445  22.469  1.00  0.00     0.140 C 
ATOM     14  O   UNL     1       5.444   1.889  23.387  1.00  0.00    -0.299 OA
BRANCH  13  15
ATOM     15  C   UNL     1       5.300   1.560  21.060  1.00  0.00     0.106 CG0
ATOM     16  G   UNL     1       5.080   2.941  20.472  1.00  0.00     0.000 G0
ENDBRANCH  13  15
ENDBRANCH  12  13
BRANCH  12  17
ATOM     17  C   UNL     1       3.590  -0.602  23.476  1.00  0.00    -0.006 C 
ATOM     18  C   UNL     1       4.886  -1.353  23.126  1.00  0.00     0.008 C 
ATOM     19  C   UNL     1       2.374  -1.503  23.212  1.00  0.00     0.008 C 
ENDBRANCH  12  17
ENDBRANCH  11  12
ENDBRANCH   1  11
TORSDOF 1
ENDMDL
MODEL 9
REMARK VINA RESULT:    -2.660      2.857      4.639
REMARK INTER + INTRA:          -4.118
REMARK INTER:                  -3.815
REMARK INTRA:                  -0.303
REMARK UNBOUND:                -0.059
REMARK SMILES CC1=CCC[C@@H](C)C(=O)C[C@H](C(C)C)C(=O)C1
REMARK SMILES IDX 8 1 9 2 6 3 7 4 5 5 4 6 3 7 2 8 1 9 10 11 11 12 15 13 16 14
REMARK SMILES IDX 17 15 12 17 13 18 14 19
REMARK H PARENT
REMARK Flexibility Score: 70.00
ROOT
ATOM      1  C   UNL     1       0.887  -3.130  18.823  1.00  0.00     0.136 C 
ATOM      2  O   UNL     1       1.358  -4.030  19.504  1.00  0.00    -0.299 OA
ENDROOT
BRANCH   1   3
ATOM      3  C   UNL     1       0.240  -3.448  17.491  1.00  0.00     0.053 C 
ATOM      4  C   UNL     1      -0.801  -4.556  17.688  1.00  0.00     0.016 C 
BRANCH   3   5
ATOM      5  C   UNL     1       1.267  -3.864  16.410  1.00  0.00     0.015 C 
BRANCH   5   6
ATOM      6  C   UNL     1       1.919  -2.675  15.682  1.00  0.00     0.028 C 
BRANCH   6   7
ATOM      7  C   UNL     1       0.895  -1.636  15.292  1.00  0.00    -0.028 C 
ATOM      8  C   UNL     1       0.926  -0.330  15.646  1.00  0.00    -0.070 CG0
ATOM      9  C   UNL     1      -0.192   0.560  15.166  1.00  0.00     0.039 C 
ATOM     10  G   UNL     1       2.031   0.270  16.497  1.00  0.00     0.000 G0
ENDBRANCH   6   7
ENDBRANCH   5   6
ENDBRANCH   3   5
ENDBRANCH   1   3
BRANCH   1  11
ATOM     11  C   UNL     1       0.898  -1.717  19.357  1.00  0.00     0.087 C 
BRANCH  11  12
ATOM     12  C   UNL     1       2.130  -0.925  18.863  1.00  0.00     0.066 C 
BRANCH  12  13
ATOM     13  C   UNL     1       1.703   0.241  17.984  1.00  0.00     0.140 C 
ATOM     14  O   UNL     1       1.096   1.181  18.475  1.00  0.00    -0.299 OA
BRANCH  13  15
ATOM     15  C   UNL     1       2.026   0.277  16.509  1.00  0.00     0.106 CG0
ATOM     16  G   UNL     1       0.930  -0.344  15.663  1.00  0.00     0.000 G0
ENDBRANCH  13  15
ENDBRANCH  12  13
BRANCH  12  17
ATOM     17  C   UNL     1       3.061  -0.492  20.036  1.00  0.00    -0.006 C 
ATOM     18  C   UNL     1       4.519  -0.961  19.896  1.00  0.00     0.008 C 
ATOM     19  C   UNL     1       2.494  -0.942  21.392  1.00  0.00     0.008 C 
ENDBRANCH  12  17
ENDBRANCH  11  12
ENDBRANCH   1  11
TORSDOF 1
ENDMDL
