MODEL 1
REMARK VINA RESULT:    -3.697      0.000      0.000
REMARK INTER + INTRA:          -4.617
REMARK INTER:                  -4.562
REMARK INTRA:                  -0.055
REMARK UNBOUND:                -0.055
REMARK SMILES CCCCCC=O
REMARK SMILES IDX 4 1 3 2 2 3 1 4 5 5 6 6 7 7
REMARK H PARENT
REMARK Flexibility Score: inf
ROOT
ATOM      1  C   UNL     1     -27.884  19.322  56.868  1.00  0.00     0.008 C 
ENDROOT
BRANCH   1   2
ATOM      2  C   UNL     1     -27.260  20.557  56.202  1.00  0.00     0.000 C 
BRANCH   2   3
ATOM      3  C   UNL     1     -26.439  21.406  57.185  1.00  0.00    -0.003 C 
ATOM      4  C   UNL     1     -25.525  22.408  56.480  1.00  0.00     0.004 C 
ENDBRANCH   2   3
ENDBRANCH   1   2
BRANCH   1   5
ATOM      5  C   UNL     1     -27.394  18.033  56.199  1.00  0.00     0.072 C 
BRANCH   5   6
ATOM      6  C   UNL     1     -27.144  16.961  57.217  1.00  0.00     0.224 C 
ATOM      7  O   UNL     1     -26.217  17.059  58.005  1.00  0.00    -0.303 OA
ENDBRANCH   5   6
ENDBRANCH   1   5
TORSDOF 4
ENDMDL
MODEL 2
REMARK VINA RESULT:    -3.678      2.986      3.266
REMARK INTER + INTRA:          -4.593
REMARK INTER:                  -4.516
REMARK INTRA:                  -0.077
REMARK UNBOUND:                -0.055
REMARK SMILES CCCCCC=O
REMARK SMILES IDX 4 1 3 2 2 3 1 4 5 5 6 6 7 7
REMARK H PARENT
REMARK Flexibility Score: inf
ROOT
ATOM      1  C   UNL     1     -28.784  20.453  56.814  1.00  0.00     0.008 C 
ENDROOT
BRANCH   1   2
ATOM      2  C   UNL     1     -27.344  20.636  56.312  1.00  0.00     0.000 C 
BRANCH   2   3
ATOM      3  C   UNL     1     -26.513  21.551  57.225  1.00  0.00    -0.003 C 
ATOM      4  C   UNL     1     -25.531  22.427  56.448  1.00  0.00     0.004 C 
ENDBRANCH   2   3
ENDBRANCH   1   2
BRANCH   1   5
ATOM      5  C   UNL     1     -29.792  20.692  55.684  1.00  0.00     0.072 C 
BRANCH   5   6
ATOM      6  C   UNL     1     -29.669  19.640  54.623  1.00  0.00     0.224 C 
ATOM      7  O   UNL     1     -29.412  19.949  53.471  1.00  0.00    -0.303 OA
ENDBRANCH   5   6
ENDBRANCH   1   5
TORSDOF 4
ENDMDL
MODEL 3
REMARK VINA RESULT:    -3.533      2.873      3.174
REMARK INTER + INTRA:          -4.414
REMARK INTER:                  -4.309
REMARK INTRA:                  -0.105
REMARK UNBOUND:                -0.055
REMARK SMILES CCCCCC=O
REMARK SMILES IDX 4 1 3 2 2 3 1 4 5 5 6 6 7 7
REMARK H PARENT
REMARK Flexibility Score: inf
ROOT
ATOM      1  C   UNL     1     -28.820  20.060  56.885  1.00  0.00     0.008 C 
ENDROOT
BRANCH   1   2
ATOM      2  C   UNL     1     -27.530  20.610  56.259  1.00  0.00     0.000 C 
BRANCH   2   3
ATOM      3  C   UNL     1     -26.638  21.331  57.281  1.00  0.00    -0.003 C 
ATOM      4  C   UNL     1     -25.791  22.436  56.651  1.00  0.00     0.004 C 
ENDBRANCH   2   3
ENDBRANCH   1   2
BRANCH   1   5
ATOM      5  C   UNL     1     -28.683  19.946  58.408  1.00  0.00     0.072 C 
BRANCH   5   6
ATOM      6  C   UNL     1     -30.012  20.119  59.081  1.00  0.00     0.224 C 
ATOM      7  O   UNL     1     -30.433  21.235  59.343  1.00  0.00    -0.303 OA
ENDBRANCH   5   6
ENDBRANCH   1   5
TORSDOF 4
ENDMDL
MODEL 4
REMARK VINA RESULT:    -3.531      2.470      3.096
REMARK INTER + INTRA:          -4.412
REMARK INTER:                  -4.298
REMARK INTRA:                  -0.113
REMARK UNBOUND:                -0.055
REMARK SMILES CCCCCC=O
REMARK SMILES IDX 4 1 3 2 2 3 1 4 5 5 6 6 7 7
REMARK H PARENT
REMARK Flexibility Score: inf
ROOT
ATOM      1  C   UNL     1     -28.488  18.994  57.770  1.00  0.00     0.008 C 
ENDROOT
BRANCH   1   2
ATOM      2  C   UNL     1     -28.858  19.529  59.161  1.00  0.00     0.000 C 
BRANCH   2   3
ATOM      3  C   UNL     1     -30.161  20.344  59.152  1.00  0.00    -0.003 C 
ATOM      4  C   UNL     1     -30.628  20.697  57.740  1.00  0.00     0.004 C 
ENDBRANCH   2   3
ENDBRANCH   1   2
BRANCH   1   5
ATOM      5  C   UNL     1     -28.551  17.462  57.738  1.00  0.00     0.072 C 
BRANCH   5   6
ATOM      6  C   UNL     1     -27.246  16.880  57.285  1.00  0.00     0.224 C 
ATOM      7  O   UNL     1     -26.242  17.005  57.968  1.00  0.00    -0.303 OA
ENDBRANCH   5   6
ENDBRANCH   1   5
TORSDOF 4
ENDMDL
MODEL 5
REMARK VINA RESULT:    -3.525      2.323      3.009
REMARK INTER + INTRA:          -4.405
REMARK INTER:                  -4.334
REMARK INTRA:                  -0.071
REMARK UNBOUND:                -0.055
REMARK SMILES CCCCCC=O
REMARK SMILES IDX 4 1 3 2 2 3 1 4 5 5 6 6 7 7
REMARK H PARENT
REMARK Flexibility Score: inf
ROOT
ATOM      1  C   UNL     1     -26.938  17.732  56.126  1.00  0.00     0.008 C 
ENDROOT
BRANCH   1   2
ATOM      2  C   UNL     1     -27.988  18.821  55.857  1.00  0.00     0.000 C 
BRANCH   2   3
ATOM      3  C   UNL     1     -28.587  18.727  54.445  1.00  0.00    -0.003 C 
ATOM      4  C   UNL     1     -29.650  19.793  54.182  1.00  0.00     0.004 C 
ENDBRANCH   2   3
ENDBRANCH   1   2
BRANCH   1   5
ATOM      5  C   UNL     1     -27.353  16.852  57.310  1.00  0.00     0.072 C 
BRANCH   5   6
ATOM      6  C   UNL     1     -27.456  17.659  58.569  1.00  0.00     0.224 C 
ATOM      7  O   UNL     1     -26.453  17.965  59.192  1.00  0.00    -0.303 OA
ENDBRANCH   5   6
ENDBRANCH   1   5
TORSDOF 4
ENDMDL
MODEL 6
REMARK VINA RESULT:    -3.519      3.457      4.133
REMARK INTER + INTRA:          -4.397
REMARK INTER:                  -4.309
REMARK INTRA:                  -0.088
REMARK UNBOUND:                -0.055
REMARK SMILES CCCCCC=O
REMARK SMILES IDX 4 1 3 2 2 3 1 4 5 5 6 6 7 7
REMARK H PARENT
REMARK Flexibility Score: inf
ROOT
ATOM      1  C   UNL     1     -30.106  20.865  55.517  1.00  0.00     0.008 C 
ENDROOT
BRANCH   1   2
ATOM      2  C   UNL     1     -29.454  20.360  56.813  1.00  0.00     0.000 C 
BRANCH   2   3
ATOM      3  C   UNL     1     -30.474  19.749  57.787  1.00  0.00    -0.003 C 
ATOM      4  C   UNL     1     -30.282  20.231  59.224  1.00  0.00     0.004 C 
ENDBRANCH   2   3
ENDBRANCH   1   2
BRANCH   1   5
ATOM      5  C   UNL     1     -29.942  19.841  54.388  1.00  0.00     0.072 C 
BRANCH   5   6
ATOM      6  C   UNL     1     -28.496  19.510  54.169  1.00  0.00     0.224 C 
ATOM      7  O   UNL     1     -28.125  18.348  54.140  1.00  0.00    -0.303 OA
ENDBRANCH   5   6
ENDBRANCH   1   5
TORSDOF 4
ENDMDL
MODEL 7
REMARK VINA RESULT:    -3.513      2.371      2.983
REMARK INTER + INTRA:          -4.389
REMARK INTER:                  -4.273
REMARK INTRA:                  -0.116
REMARK UNBOUND:                -0.055
REMARK SMILES CCCCCC=O
REMARK SMILES IDX 4 1 3 2 2 3 1 4 5 5 6 6 7 7
REMARK H PARENT
REMARK Flexibility Score: inf
ROOT
ATOM      1  C   UNL     1     -27.740  18.956  55.727  1.00  0.00     0.008 C 
ENDROOT
BRANCH   1   2
ATOM      2  C   UNL     1     -28.386  18.809  54.342  1.00  0.00     0.000 C 
BRANCH   2   3
ATOM      3  C   UNL     1     -29.655  19.663  54.189  1.00  0.00    -0.003 C 
ATOM      4  C   UNL     1     -29.842  20.654  55.337  1.00  0.00     0.004 C 
ENDBRANCH   2   3
ENDBRANCH   1   2
BRANCH   1   5
ATOM      5  C   UNL     1     -26.962  17.690  56.105  1.00  0.00     0.072 C 
BRANCH   5   6
ATOM      6  C   UNL     1     -27.643  16.954  57.219  1.00  0.00     0.224 C 
ATOM      7  O   UNL     1     -28.825  17.145  57.457  1.00  0.00    -0.303 OA
ENDBRANCH   5   6
ENDBRANCH   1   5
TORSDOF 4
ENDMDL
MODEL 8
REMARK VINA RESULT:    -3.480      3.089      4.194
REMARK INTER + INTRA:          -4.350
REMARK INTER:                  -4.276
REMARK INTRA:                  -0.074
REMARK UNBOUND:                -0.055
REMARK SMILES CCCCCC=O
REMARK SMILES IDX 4 1 3 2 2 3 1 4 5 5 6 6 7 7
REMARK H PARENT
REMARK Flexibility Score: inf
ROOT
ATOM      1  C   UNL     1     -27.817  18.957  55.823  1.00  0.00     0.008 C 
ENDROOT
BRANCH   1   2
ATOM      2  C   UNL     1     -26.921  17.748  56.132  1.00  0.00     0.000 C 
BRANCH   2   3
ATOM      3  C   UNL     1     -27.444  16.911  57.310  1.00  0.00    -0.003 C 
ATOM      4  C   UNL     1     -27.550  17.715  58.605  1.00  0.00     0.004 C 
ENDBRANCH   2   3
ENDBRANCH   1   2
BRANCH   1   5
ATOM      5  C   UNL     1     -28.835  18.618  54.729  1.00  0.00     0.072 C 
BRANCH   5   6
ATOM      6  C   UNL     1     -29.642  19.825  54.354  1.00  0.00     0.224 C 
ATOM      7  O   UNL     1     -29.990  20.627  55.206  1.00  0.00    -0.303 OA
ENDBRANCH   5   6
ENDBRANCH   1   5
TORSDOF 4
ENDMDL
MODEL 9
REMARK VINA RESULT:    -3.445      2.753      3.758
REMARK INTER + INTRA:          -4.305
REMARK INTER:                  -4.111
REMARK INTRA:                  -0.194
REMARK UNBOUND:                -0.055
REMARK SMILES CCCCCC=O
REMARK SMILES IDX 4 1 3 2 2 3 1 4 5 5 6 6 7 7
REMARK H PARENT
REMARK Flexibility Score: inf
ROOT
ATOM      1  C   UNL     1     -30.292  20.204  56.909  1.00  0.00     0.008 C 
ENDROOT
BRANCH   1   2
ATOM      2  C   UNL     1     -30.005  20.837  55.540  1.00  0.00     0.000 C 
BRANCH   2   3
ATOM      3  C   UNL     1     -29.939  19.797  54.411  1.00  0.00    -0.003 C 
ATOM      4  C   UNL     1     -28.507  19.396  54.059  1.00  0.00     0.004 C 
ENDBRANCH   2   3
ENDBRANCH   1   2
BRANCH   1   5
ATOM      5  C   UNL     1     -29.276  20.678  57.955  1.00  0.00     0.072 C 
BRANCH   5   6
ATOM      6  C   UNL     1     -27.947  20.016  57.751  1.00  0.00     0.224 C 
ATOM      7  O   UNL     1     -26.986  20.663  57.366  1.00  0.00    -0.303 OA
ENDBRANCH   5   6
ENDBRANCH   1   5
TORSDOF 4
ENDMDL
