MODEL 1
REMARK VINA RESULT:    -4.811      0.000      0.000
REMARK INTER + INTRA:          -5.416
REMARK INTER:                  -5.233
REMARK INTRA:                  -0.183
REMARK UNBOUND:                -0.183
REMARK SMILES C=C(C)[C@@H]1CC[C@H](C)C[C@@H]1O
REMARK SMILES IDX 8 1 7 2 6 3 5 4 4 5 10 6 9 7 11 8 2 10 1 11 3 12
REMARK H PARENT 11 9
REMARK Flexibility Score: inf
ROOT
ATOM      1  C   UNL     1     115.261 122.194 126.903  1.00  0.00     0.008 C 
ATOM      2  C   UNL     1     114.111 122.012 127.902  1.00  0.00    -0.012 C 
ATOM      3  C   UNL     1     114.035 120.546 128.409  1.00  0.00     0.004 C 
ATOM      4  C   UNL     1     114.724 120.368 129.765  1.00  0.00     0.011 C 
ATOM      5  C   UNL     1     114.028 121.217 130.862  1.00  0.00     0.043 C 
ATOM      6  C   UNL     1     113.480 122.575 130.316  1.00  0.00     0.121 C 
ATOM      7  C   UNL     1     114.229 123.046 129.052  1.00  0.00     0.035 C 
ENDROOT
BRANCH   6   8
ATOM      8  O   UNL     1     113.445 123.575 131.306  1.00  0.00    -0.392 OA
ATOM      9  H   UNL     1     113.280 123.138 132.182  1.00  0.00     0.210 HD
ENDBRANCH   6   8
BRANCH   5  10
ATOM     10  C   UNL     1     114.922 121.355 132.095  1.00  0.00    -0.075 C 
ATOM     11  C   UNL     1     116.189 121.790 131.999  1.00  0.00     0.008 C 
ATOM     12  C   UNL     1     114.388 120.998 133.459  1.00  0.00     0.039 C 
ENDBRANCH   5  10
TORSDOF 2
ENDMDL
MODEL 2
REMARK VINA RESULT:    -4.676     14.156     16.327
REMARK INTER + INTRA:          -5.270
REMARK INTER:                  -5.082
REMARK INTRA:                  -0.188
REMARK UNBOUND:                -0.183
REMARK SMILES C=C(C)[C@@H]1CC[C@H](C)C[C@@H]1O
REMARK SMILES IDX 8 1 7 2 6 3 5 4 4 5 10 6 9 7 11 8 2 10 1 11 3 12
REMARK H PARENT 11 9
REMARK Flexibility Score: inf
ROOT
ATOM      1  C   UNL     1     129.342 121.597 120.538  1.00  0.00     0.008 C 
ATOM      2  C   UNL     1     128.618 120.785 119.456  1.00  0.00    -0.012 C 
ATOM      3  C   UNL     1     128.604 119.272 119.805  1.00  0.00     0.004 C 
ATOM      4  C   UNL     1     127.287 118.844 120.458  1.00  0.00     0.011 C 
ATOM      5  C   UNL     1     126.090 119.052 119.493  1.00  0.00     0.043 C 
ATOM      6  C   UNL     1     126.261 120.312 118.584  1.00  0.00     0.121 C 
ATOM      7  C   UNL     1     127.201 121.364 119.208  1.00  0.00     0.035 C 
ENDROOT
BRANCH   6   8
ATOM      8  O   UNL     1     125.025 120.871 118.207  1.00  0.00    -0.392 OA
ATOM      9  H   UNL     1     125.075 121.853 118.343  1.00  0.00     0.210 HD
ENDBRANCH   6   8
BRANCH   5  10
ATOM     10  C   UNL     1     124.763 119.005 120.251  1.00  0.00    -0.075 C 
ATOM     11  C   UNL     1     123.738 118.245 119.829  1.00  0.00     0.008 C 
ATOM     12  C   UNL     1     124.577 119.826 121.501  1.00  0.00     0.039 C 
ENDBRANCH   5  10
TORSDOF 2
ENDMDL
MODEL 3
REMARK VINA RESULT:    -4.591      2.342      5.060
REMARK INTER + INTRA:          -5.177
REMARK INTER:                  -4.986
REMARK INTRA:                  -0.192
REMARK UNBOUND:                -0.183
REMARK SMILES C=C(C)[C@@H]1CC[C@H](C)C[C@@H]1O
REMARK SMILES IDX 8 1 7 2 6 3 5 4 4 5 10 6 9 7 11 8 2 10 1 11 3 12
REMARK H PARENT 11 9
REMARK Flexibility Score: inf
ROOT
ATOM      1  C   UNL     1     118.149 118.548 134.287  1.00  0.00     0.008 C 
ATOM      2  C   UNL     1     117.589 119.974 134.367  1.00  0.00    -0.012 C 
ATOM      3  C   UNL     1     118.168 120.868 133.236  1.00  0.00     0.004 C 
ATOM      4  C   UNL     1     117.214 120.977 132.042  1.00  0.00     0.011 C 
ATOM      5  C   UNL     1     115.879 121.650 132.452  1.00  0.00     0.043 C 
ATOM      6  C   UNL     1     115.440 121.283 133.907  1.00  0.00     0.121 C 
ATOM      7  C   UNL     1     116.039 119.943 134.381  1.00  0.00     0.035 C 
ENDROOT
BRANCH   6   8
ATOM      8  O   UNL     1     114.043 121.321 134.071  1.00  0.00    -0.392 OA
ATOM      9  H   UNL     1     113.752 120.452 134.453  1.00  0.00     0.210 HD
ENDBRANCH   6   8
BRANCH   5  10
ATOM     10  C   UNL     1     114.799 121.411 131.397  1.00  0.00    -0.075 C 
ATOM     11  C   UNL     1     114.547 120.182 130.915  1.00  0.00     0.008 C 
ATOM     12  C   UNL     1     113.988 122.567 130.869  1.00  0.00     0.039 C 
ENDBRANCH   5  10
TORSDOF 2
ENDMDL
MODEL 4
REMARK VINA RESULT:    -4.360      1.888      4.420
REMARK INTER + INTRA:          -4.926
REMARK INTER:                  -4.738
REMARK INTRA:                  -0.188
REMARK UNBOUND:                -0.183
REMARK SMILES C=C(C)[C@@H]1CC[C@H](C)C[C@@H]1O
REMARK SMILES IDX 8 1 7 2 6 3 5 4 4 5 10 6 9 7 11 8 2 10 1 11 3 12
REMARK H PARENT 11 9
REMARK Flexibility Score: inf
ROOT
ATOM      1  C   UNL     1     115.737 121.264 133.969  1.00  0.00     0.008 C 
ATOM      2  C   UNL     1     115.544 120.292 132.798  1.00  0.00    -0.012 C 
ATOM      3  C   UNL     1     114.045 120.175 132.407  1.00  0.00     0.004 C 
ATOM      4  C   UNL     1     113.688 121.070 131.216  1.00  0.00     0.011 C 
ATOM      5  C   UNL     1     114.475 120.652 129.947  1.00  0.00     0.043 C 
ATOM      6  C   UNL     1     115.916 120.140 130.272  1.00  0.00     0.121 C 
ATOM      7  C   UNL     1     116.451 120.697 131.607  1.00  0.00     0.035 C 
ENDROOT
BRANCH   6   8
ATOM      8  O   UNL     1     116.816 120.365 129.212  1.00  0.00    -0.392 OA
ATOM      9  H   UNL     1     117.159 119.486 128.906  1.00  0.00     0.210 HD
ENDBRANCH   6   8
BRANCH   5  10
ATOM     10  C   UNL     1     114.429 121.754 128.887  1.00  0.00    -0.075 C 
ATOM     11  C   UNL     1     114.639 123.042 129.204  1.00  0.00     0.008 C 
ATOM     12  C   UNL     1     114.140 121.408 127.449  1.00  0.00     0.039 C 
ENDBRANCH   5  10
TORSDOF 2
ENDMDL
MODEL 5
REMARK VINA RESULT:    -4.359      2.063      4.529
REMARK INTER + INTRA:          -4.924
REMARK INTER:                  -4.751
REMARK INTRA:                  -0.173
REMARK UNBOUND:                -0.183
REMARK SMILES C=C(C)[C@@H]1CC[C@H](C)C[C@@H]1O
REMARK SMILES IDX 8 1 7 2 6 3 5 4 4 5 10 6 9 7 11 8 2 10 1 11 3 12
REMARK H PARENT 11 9
REMARK Flexibility Score: inf
ROOT
ATOM      1  C   UNL     1     116.237 121.506 132.212  1.00  0.00     0.008 C 
ATOM      2  C   UNL     1     115.275 120.619 131.411  1.00  0.00    -0.012 C 
ATOM      3  C   UNL     1     113.931 121.349 131.141  1.00  0.00     0.004 C 
ATOM      4  C   UNL     1     113.889 121.984 129.748  1.00  0.00     0.011 C 
ATOM      5  C   UNL     1     113.998 120.906 128.638  1.00  0.00     0.043 C 
ATOM      6  C   UNL     1     114.927 119.716 129.043  1.00  0.00     0.121 C 
ATOM      7  C   UNL     1     115.962 120.116 130.114  1.00  0.00     0.035 C 
ENDROOT
BRANCH   6   8
ATOM      8  O   UNL     1     115.535 119.108 127.928  1.00  0.00    -0.392 OA
ATOM      9  H   UNL     1     115.194 118.179 127.857  1.00  0.00     0.210 HD
ENDBRANCH   6   8
BRANCH   5  10
ATOM     10  C   UNL     1     114.349 121.540 127.292  1.00  0.00    -0.075 C 
ATOM     11  C   UNL     1     115.267 122.516 127.193  1.00  0.00     0.008 C 
ATOM     12  C   UNL     1     113.657 121.078 126.035  1.00  0.00     0.039 C 
ENDBRANCH   5  10
TORSDOF 2
ENDMDL
MODEL 6
REMARK VINA RESULT:    -4.355     14.049     16.354
REMARK INTER + INTRA:          -4.920
REMARK INTER:                  -4.875
REMARK INTRA:                  -0.045
REMARK UNBOUND:                -0.183
REMARK SMILES C=C(C)[C@@H]1CC[C@H](C)C[C@@H]1O
REMARK SMILES IDX 8 1 7 2 6 3 5 4 4 5 10 6 9 7 11 8 2 10 1 11 3 12
REMARK H PARENT 11 9
REMARK Flexibility Score: inf
ROOT
ATOM      1  C   UNL     1     123.560 119.893 121.612  1.00  0.00     0.008 C 
ATOM      2  C   UNL     1     124.619 119.073 120.864  1.00  0.00    -0.012 C 
ATOM      3  C   UNL     1     124.586 119.372 119.340  1.00  0.00     0.004 C 
ATOM      4  C   UNL     1     125.650 120.395 118.930  1.00  0.00     0.011 C 
ATOM      5  C   UNL     1     127.078 119.860 119.210  1.00  0.00     0.043 C 
ATOM      6  C   UNL     1     127.149 118.974 120.497  1.00  0.00     0.121 C 
ATOM      7  C   UNL     1     126.018 119.296 121.495  1.00  0.00     0.035 C 
ENDROOT
BRANCH   6   8
ATOM      8  O   UNL     1     128.416 119.017 121.108  1.00  0.00    -0.392 OA
ATOM      9  H   UNL     1     129.104 119.036 120.394  1.00  0.00     0.210 HD
ENDBRANCH   6   8
BRANCH   5  10
ATOM     10  C   UNL     1     128.103 120.994 119.178  1.00  0.00    -0.075 C 
ATOM     11  C   UNL     1     127.775 122.248 119.530  1.00  0.00     0.008 C 
ATOM     12  C   UNL     1     129.520 120.721 118.741  1.00  0.00     0.039 C 
ENDBRANCH   5  10
TORSDOF 2
ENDMDL
MODEL 7
REMARK VINA RESULT:    -4.352      1.295      4.311
REMARK INTER + INTRA:          -4.917
REMARK INTER:                  -4.726
REMARK INTRA:                  -0.191
REMARK UNBOUND:                -0.183
REMARK SMILES C=C(C)[C@@H]1CC[C@H](C)C[C@@H]1O
REMARK SMILES IDX 8 1 7 2 6 3 5 4 4 5 10 6 9 7 11 8 2 10 1 11 3 12
REMARK H PARENT 11 9
REMARK Flexibility Score: inf
ROOT
ATOM      1  C   UNL     1     115.857 119.832 134.226  1.00  0.00     0.008 C 
ATOM      2  C   UNL     1     115.776 121.094 133.358  1.00  0.00    -0.012 C 
ATOM      3  C   UNL     1     117.002 121.202 132.410  1.00  0.00     0.004 C 
ATOM      4  C   UNL     1     116.690 120.686 131.003  1.00  0.00     0.011 C 
ATOM      5  C   UNL     1     115.577 121.532 130.330  1.00  0.00     0.043 C 
ATOM      6  C   UNL     1     114.503 122.035 131.349  1.00  0.00     0.121 C 
ATOM      7  C   UNL     1     114.421 121.144 132.605  1.00  0.00     0.035 C 
ENDROOT
BRANCH   6   8
ATOM      8  O   UNL     1     113.242 122.216 130.751  1.00  0.00    -0.392 OA
ATOM      9  H   UNL     1     112.870 123.080 131.068  1.00  0.00     0.210 HD
ENDBRANCH   6   8
BRANCH   5  10
ATOM     10  C   UNL     1     114.993 120.803 129.119  1.00  0.00    -0.075 C 
ATOM     11  C   UNL     1     114.638 119.509 129.181  1.00  0.00     0.008 C 
ATOM     12  C   UNL     1     114.808 121.535 127.814  1.00  0.00     0.039 C 
ENDBRANCH   5  10
TORSDOF 2
ENDMDL
MODEL 8
REMARK VINA RESULT:    -4.284     15.042     16.604
REMARK INTER + INTRA:          -4.843
REMARK INTER:                  -4.720
REMARK INTRA:                  -0.123
REMARK UNBOUND:                -0.183
REMARK SMILES C=C(C)[C@@H]1CC[C@H](C)C[C@@H]1O
REMARK SMILES IDX 8 1 7 2 6 3 5 4 4 5 10 6 9 7 11 8 2 10 1 11 3 12
REMARK H PARENT 11 9
REMARK Flexibility Score: inf
ROOT
ATOM      1  C   UNL     1     129.473 121.821 120.713  1.00  0.00     0.008 C 
ATOM      2  C   UNL     1     128.975 120.386 120.932  1.00  0.00    -0.012 C 
ATOM      3  C   UNL     1     127.860 120.338 122.013  1.00  0.00     0.004 C 
ATOM      4  C   UNL     1     126.459 120.317 121.396  1.00  0.00     0.011 C 
ATOM      5  C   UNL     1     126.247 119.045 120.533  1.00  0.00     0.043 C 
ATOM      6  C   UNL     1     127.548 118.593 119.795  1.00  0.00     0.121 C 
ATOM      7  C   UNL     1     128.538 119.756 119.583  1.00  0.00     0.035 C 
ENDROOT
BRANCH   6   8
ATOM      8  O   UNL     1     127.274 117.913 118.593  1.00  0.00    -0.392 OA
ATOM      9  H   UNL     1     128.093 117.426 118.319  1.00  0.00     0.210 HD
ENDBRANCH   6   8
BRANCH   5  10
ATOM     10  C   UNL     1     125.033 119.202 119.617  1.00  0.00    -0.075 C 
ATOM     11  C   UNL     1     124.966 120.183 118.701  1.00  0.00     0.008 C 
ATOM     12  C   UNL     1     123.872 118.247 119.730  1.00  0.00     0.039 C 
ENDBRANCH   5  10
TORSDOF 2
ENDMDL
MODEL 9
REMARK VINA RESULT:    -4.166      2.001      3.147
REMARK INTER + INTRA:          -4.714
REMARK INTER:                  -4.530
REMARK INTRA:                  -0.185
REMARK UNBOUND:                -0.183
REMARK SMILES C=C(C)[C@@H]1CC[C@H](C)C[C@@H]1O
REMARK SMILES IDX 8 1 7 2 6 3 5 4 4 5 10 6 9 7 11 8 2 10 1 11 3 12
REMARK H PARENT 11 9
REMARK Flexibility Score: inf
ROOT
ATOM      1  C   UNL     1     115.122 119.005 128.737  1.00  0.00     0.008 C 
ATOM      2  C   UNL     1     114.335 120.144 129.399  1.00  0.00    -0.012 C 
ATOM      3  C   UNL     1     114.869 120.439 130.827  1.00  0.00     0.004 C 
ATOM      4  C   UNL     1     115.842 121.622 130.846  1.00  0.00     0.011 C 
ATOM      5  C   UNL     1     115.141 122.930 130.393  1.00  0.00     0.043 C 
ATOM      6  C   UNL     1     114.064 122.685 129.287  1.00  0.00     0.121 C 
ATOM      7  C   UNL     1     114.329 121.395 128.483  1.00  0.00     0.035 C 
ENDROOT
BRANCH   6   8
ATOM      8  O   UNL     1     113.895 123.801 128.447  1.00  0.00    -0.392 OA
ATOM      9  H   UNL     1     114.788 124.072 128.108  1.00  0.00     0.210 HD
ENDBRANCH   6   8
BRANCH   5  10
ATOM     10  C   UNL     1     116.168 124.004 130.035  1.00  0.00    -0.075 C 
ATOM     11  C   UNL     1     116.160 125.210 130.627  1.00  0.00     0.008 C 
ATOM     12  C   UNL     1     117.222 123.726 128.993  1.00  0.00     0.039 C 
ENDBRANCH   5  10
TORSDOF 2
ENDMDL
