MODEL 1
REMARK VINA RESULT:    -3.437      0.000      0.000
REMARK INTER + INTRA:          -4.563
REMARK INTER:                  -4.843
REMARK INTRA:                   0.280
REMARK UNBOUND:                 0.280
REMARK SMILES CC1=CCC(=C(C)C)C(=O)CC(C)=CCC1
REMARK SMILES IDX 12 1 14 2 13 3 15 4 16 5 2 6 1 7 3 8 11 10 9 11 10 12 5 13
REMARK SMILES IDX 6 14 7 15 8 16 4 17
REMARK H PARENT
REMARK Flexibility Score: 60.00
ROOT
ATOM      1  C   UNL     1      96.822   9.283  76.665  1.00  0.00    -0.070 C 
ATOM      2  C   UNL     1      96.352   8.410  75.747  1.00  0.00    -0.027 C 
ATOM      3  C   UNL     1      96.358  10.715  76.579  1.00  0.00     0.039 C 
ENDROOT
BRANCH   2   4
ATOM      4  C   UNL     1      96.621   6.922  75.723  1.00  0.00     0.032 C 
BRANCH   4   5
ATOM      5  C   UNL     1      98.027   6.525  75.227  1.00  0.00     0.034 C 
BRANCH   5   6
ATOM      6  C   UNL     1      98.805   5.697  76.234  1.00  0.00    -0.077 C 
ATOM      7  C   UNL     1      98.307   4.305  76.529  1.00  0.00     0.039 C 
ATOM      8  C   UNL     1      99.954   6.100  76.829  1.00  0.00    -0.023 CG0
ATOM      9  G   UNL     1     100.627   7.452  76.698  1.00  0.00     0.000 G0
ENDBRANCH   5   6
ENDBRANCH   4   5
ENDBRANCH   2   4
BRANCH   1  10
ATOM     10  C   UNL     1      97.710   8.875  77.822  1.00  0.00     0.111 C 
BRANCH  10  11
ATOM     11  C   UNL     1      99.133   9.320  77.614  1.00  0.00     0.163 C 
ATOM     12  O   UNL     1      99.338  10.523  77.298  1.00  0.00    -0.294 OA
BRANCH  11  13
ATOM     13  C   UNL     1     100.297   8.410  77.828  1.00  0.00    -0.002 C 
ATOM     14  C   UNL     1     100.950   8.383  79.029  1.00  0.00    -0.069 C 
ATOM     15  C   UNL     1     102.028   7.364  79.331  1.00  0.00     0.039 C 
ATOM     16  C   UNL     1     100.624   9.375  80.124  1.00  0.00     0.039 C 
BRANCH  13  17
ATOM     17  C   UNL     1     100.654   7.460  76.697  1.00  0.00     0.066 CG0
ATOM     18  G   UNL     1      99.949   6.124  76.823  1.00  0.00     0.000 G0
ENDBRANCH  13  17
ENDBRANCH  11  13
ENDBRANCH  10  11
ENDBRANCH   1  10
TORSDOF 0
ENDMDL
MODEL 2
REMARK VINA RESULT:    -3.023      2.314      3.529
REMARK INTER + INTRA:          -3.980
REMARK INTER:                  -4.195
REMARK INTRA:                   0.215
REMARK UNBOUND:                 0.280
REMARK SMILES CC1=CCC(=C(C)C)C(=O)CC(C)=CCC1
REMARK SMILES IDX 12 1 14 2 13 3 15 4 16 5 2 6 1 7 3 8 11 10 9 11 10 12 5 13
REMARK SMILES IDX 6 14 7 15 8 16 4 17
REMARK H PARENT
REMARK Flexibility Score: 60.00
ROOT
ATOM      1  C   UNL     1      99.568   8.324  77.798  1.00  0.00    -0.070 C 
ATOM      2  C   UNL     1      98.304   8.039  77.413  1.00  0.00    -0.027 C 
ATOM      3  C   UNL     1      99.755   9.194  79.015  1.00  0.00     0.039 C 
ENDROOT
BRANCH   2   4
ATOM      4  C   UNL     1      97.911   7.112  76.284  1.00  0.00     0.032 C 
BRANCH   4   5
ATOM      5  C   UNL     1      97.886   5.615  76.654  1.00  0.00     0.034 C 
BRANCH   5   6
ATOM      6  C   UNL     1      98.470   4.722  75.573  1.00  0.00    -0.077 C 
ATOM      7  C   UNL     1      97.702   4.591  74.283  1.00  0.00     0.039 C 
ATOM      8  C   UNL     1      99.667   4.094  75.667  1.00  0.00    -0.023 CG0
ATOM      9  G   UNL     1     100.596   4.069  76.865  1.00  0.00     0.000 G0
ENDBRANCH   5   6
ENDBRANCH   4   5
ENDBRANCH   2   4
BRANCH   1  10
ATOM     10  C   UNL     1     100.793   7.738  77.127  1.00  0.00     0.111 C 
BRANCH  10  11
ATOM     11  C   UNL     1     101.182   6.417  77.737  1.00  0.00     0.163 C 
ATOM     12  O   UNL     1     101.125   6.303  78.991  1.00  0.00    -0.294 OA
BRANCH  11  13
ATOM     13  C   UNL     1     101.567   5.236  76.910  1.00  0.00    -0.002 C 
ATOM     14  C   UNL     1     102.783   5.187  76.287  1.00  0.00    -0.069 C 
ATOM     15  C   UNL     1     103.268   3.942  75.575  1.00  0.00     0.039 C 
ATOM     16  C   UNL     1     103.711   6.381  76.280  1.00  0.00     0.039 C 
BRANCH  13  17
ATOM     17  C   UNL     1     100.598   4.065  76.875  1.00  0.00     0.066 CG0
ATOM     18  G   UNL     1      99.691   4.106  75.662  1.00  0.00     0.000 G0
ENDBRANCH  13  17
ENDBRANCH  11  13
ENDBRANCH  10  11
ENDBRANCH   1  10
TORSDOF 0
ENDMDL
MODEL 3
REMARK VINA RESULT:    -3.017      2.472      3.731
REMARK INTER + INTRA:          -3.972
REMARK INTER:                  -4.166
REMARK INTRA:                   0.194
REMARK UNBOUND:                 0.280
REMARK SMILES CC1=CCC(=C(C)C)C(=O)CC(C)=CCC1
REMARK SMILES IDX 12 1 14 2 13 3 15 4 16 5 2 6 1 7 3 8 11 10 9 11 10 12 5 13
REMARK SMILES IDX 6 14 7 15 8 16 4 17
REMARK H PARENT
REMARK Flexibility Score: 60.00
ROOT
ATOM      1  C   UNL     1      98.410   7.102  76.844  1.00  0.00    -0.070 C 
ATOM      2  C   UNL     1      97.279   6.405  76.596  1.00  0.00    -0.027 C 
ATOM      3  C   UNL     1      98.381   8.123  77.953  1.00  0.00     0.039 C 
ENDROOT
BRANCH   2   4
ATOM      4  C   UNL     1      97.137   5.278  75.596  1.00  0.00     0.032 C 
BRANCH   4   5
ATOM      5  C   UNL     1      97.450   3.874  76.153  1.00  0.00     0.034 C 
BRANCH   5   6
ATOM      6  C   UNL     1      98.499   3.132  75.345  1.00  0.00    -0.077 C 
ATOM      7  C   UNL     1      98.066   2.503  74.045  1.00  0.00     0.039 C 
ATOM      8  C   UNL     1      99.810   3.058  75.680  1.00  0.00    -0.023 CG0
ATOM      9  G   UNL     1     100.465   3.594  76.937  1.00  0.00     0.000 G0
ENDBRANCH   5   6
ENDBRANCH   4   5
ENDBRANCH   2   4
BRANCH   1  10
ATOM     10  C   UNL     1      99.720   6.843  76.129  1.00  0.00     0.111 C 
BRANCH  10  11
ATOM     11  C   UNL     1     100.715   6.154  77.026  1.00  0.00     0.163 C 
ATOM     12  O   UNL     1     100.994   6.697  78.129  1.00  0.00    -0.294 OA
BRANCH  11  13
ATOM     13  C   UNL     1     101.326   4.837  76.683  1.00  0.00    -0.002 C 
ATOM     14  C   UNL     1     102.617   4.760  76.237  1.00  0.00    -0.069 C 
ATOM     15  C   UNL     1     103.316   3.433  76.033  1.00  0.00     0.039 C 
ATOM     16  C   UNL     1     103.416   6.006  75.927  1.00  0.00     0.039 C 
BRANCH  13  17
ATOM     17  C   UNL     1     100.490   3.594  76.941  1.00  0.00     0.066 CG0
ATOM     18  G   UNL     1      99.825   3.075  75.681  1.00  0.00     0.000 G0
ENDBRANCH  13  17
ENDBRANCH  11  13
ENDBRANCH  10  11
ENDBRANCH   1  10
TORSDOF 0
ENDMDL
MODEL 4
REMARK VINA RESULT:    -2.965      2.639      5.009
REMARK INTER + INTRA:          -3.899
REMARK INTER:                  -4.099
REMARK INTRA:                   0.200
REMARK UNBOUND:                 0.280
REMARK SMILES CC1=CCC(=C(C)C)C(=O)CC(C)=CCC1
REMARK SMILES IDX 12 1 14 2 13 3 15 4 16 5 2 6 1 7 3 8 11 10 9 11 10 12 5 13
REMARK SMILES IDX 6 14 7 15 8 16 4 17
REMARK H PARENT
REMARK Flexibility Score: 60.00
ROOT
ATOM      1  C   UNL     1     101.677   6.844  78.472  1.00  0.00    -0.070 C 
ATOM      2  C   UNL     1     102.836   7.003  77.794  1.00  0.00    -0.027 C 
ATOM      3  C   UNL     1     101.343   7.849  79.544  1.00  0.00     0.039 C 
ENDROOT
BRANCH   2   4
ATOM      4  C   UNL     1     103.300   6.162  76.626  1.00  0.00     0.032 C 
BRANCH   4   5
ATOM      5  C   UNL     1     103.044   6.784  75.237  1.00  0.00     0.034 C 
BRANCH   5   6
ATOM      6  C   UNL     1     102.381   5.824  74.266  1.00  0.00    -0.077 C 
ATOM      7  C   UNL     1     103.272   4.894  73.483  1.00  0.00     0.039 C 
ATOM      8  C   UNL     1     101.040   5.702  74.109  1.00  0.00    -0.023 CG0
ATOM      9  G   UNL     1      99.961   6.536  74.771  1.00  0.00     0.000 G0
ENDBRANCH   5   6
ENDBRANCH   4   5
ENDBRANCH   2   4
BRANCH   1  10
ATOM     10  C   UNL     1     100.663   5.768  78.142  1.00  0.00     0.111 C 
BRANCH  10  11
ATOM     11  C   UNL     1      99.536   6.305  77.301  1.00  0.00     0.163 C 
ATOM     12  O   UNL     1      98.837   7.242  77.774  1.00  0.00    -0.294 OA
BRANCH  11  13
ATOM     13  C   UNL     1      99.263   5.813  75.919  1.00  0.00    -0.002 C 
ATOM     14  C   UNL     1      98.355   4.814  75.700  1.00  0.00    -0.069 C 
ATOM     15  C   UNL     1      97.939   4.402  74.304  1.00  0.00     0.039 C 
ATOM     16  C   UNL     1      97.717   4.067  76.850  1.00  0.00     0.039 C 
BRANCH  13  17
ATOM     17  C   UNL     1      99.958   6.532  74.774  1.00  0.00     0.066 CG0
ATOM     18  G   UNL     1     101.041   5.685  74.136  1.00  0.00     0.000 G0
ENDBRANCH  13  17
ENDBRANCH  11  13
ENDBRANCH  10  11
ENDBRANCH   1  10
TORSDOF 0
ENDMDL
MODEL 5
REMARK VINA RESULT:    -2.895      2.074      5.284
REMARK INTER + INTRA:          -3.800
REMARK INTER:                  -4.371
REMARK INTRA:                   0.571
REMARK UNBOUND:                 0.280
REMARK SMILES CC1=CCC(=C(C)C)C(=O)CC(C)=CCC1
REMARK SMILES IDX 12 1 14 2 13 3 15 4 16 5 2 6 1 7 3 8 11 10 9 11 10 12 5 13
REMARK SMILES IDX 6 14 7 15 8 16 4 17
REMARK H PARENT
REMARK Flexibility Score: 60.00
ROOT
ATOM      1  C   UNL     1     102.480   6.359  77.083  1.00  0.00    -0.070 C 
ATOM      2  C   UNL     1     102.366   7.088  78.216  1.00  0.00    -0.027 C 
ATOM      3  C   UNL     1     103.758   6.479  76.293  1.00  0.00     0.039 C 
ENDROOT
BRANCH   2   4
ATOM      4  C   UNL     1     101.210   7.033  79.190  1.00  0.00     0.032 C 
BRANCH   4   5
ATOM      5  C   UNL     1     100.446   8.361  79.366  1.00  0.00     0.034 C 
BRANCH   5   6
ATOM      6  C   UNL     1      99.983   8.963  78.051  1.00  0.00    -0.077 C 
ATOM      7  C   UNL     1     100.573  10.288  77.642  1.00  0.00     0.039 C 
ATOM      8  C   UNL     1      99.130   8.354  77.191  1.00  0.00    -0.023 CG0
ATOM      9  G   UNL     1      98.405   7.039  77.398  1.00  0.00     0.000 G0
ENDBRANCH   5   6
ENDBRANCH   4   5
ENDBRANCH   2   4
BRANCH   1  10
ATOM     10  C   UNL     1     101.432   5.366  76.625  1.00  0.00     0.111 C 
BRANCH  10  11
ATOM     11  C   UNL     1     100.278   6.051  75.942  1.00  0.00     0.163 C 
ATOM     12  O   UNL     1     100.511   6.685  74.877  1.00  0.00    -0.294 OA
BRANCH  11  13
ATOM     13  C   UNL     1      98.876   5.953  76.444  1.00  0.00    -0.002 C 
ATOM     14  C   UNL     1      98.094   4.877  76.126  1.00  0.00    -0.069 C 
ATOM     15  C   UNL     1      96.729   4.669  76.746  1.00  0.00     0.039 C 
ATOM     16  C   UNL     1      98.559   3.834  75.134  1.00  0.00     0.039 C 
BRANCH  13  17
ATOM     17  C   UNL     1      98.399   7.041  77.393  1.00  0.00     0.066 CG0
ATOM     18  G   UNL     1      99.130   8.352  77.179  1.00  0.00     0.000 G0
ENDBRANCH  13  17
ENDBRANCH  11  13
ENDBRANCH  10  11
ENDBRANCH   1  10
TORSDOF 0
ENDMDL
MODEL 6
REMARK VINA RESULT:    -2.861      3.418      4.811
REMARK INTER + INTRA:          -3.752
REMARK INTER:                  -3.883
REMARK INTRA:                   0.132
REMARK UNBOUND:                 0.280
REMARK SMILES CC1=CCC(=C(C)C)C(=O)CC(C)=CCC1
REMARK SMILES IDX 12 1 14 2 13 3 15 4 16 5 2 6 1 7 3 8 11 10 9 11 10 12 5 13
REMARK SMILES IDX 6 14 7 15 8 16 4 17
REMARK H PARENT
REMARK Flexibility Score: 60.00
ROOT
ATOM      1  C   UNL     1      98.077   6.611  75.116  1.00  0.00    -0.070 C 
ATOM      2  C   UNL     1      98.168   6.601  73.767  1.00  0.00    -0.027 C 
ATOM      3  C   UNL     1      96.892   7.306  75.738  1.00  0.00     0.039 C 
ENDROOT
BRANCH   2   4
ATOM      4  C   UNL     1      99.222   5.879  72.957  1.00  0.00     0.032 C 
BRANCH   4   5
ATOM      5  C   UNL     1      98.945   4.379  72.723  1.00  0.00     0.034 C 
BRANCH   5   6
ATOM      6  C   UNL     1     100.125   3.491  73.077  1.00  0.00    -0.077 C 
ATOM      7  C   UNL     1     101.338   3.550  72.184  1.00  0.00     0.039 C 
ATOM      8  C   UNL     1     100.184   2.705  74.179  1.00  0.00    -0.023 CG0
ATOM      9  G   UNL     1      99.088   2.476  75.201  1.00  0.00     0.000 G0
ENDBRANCH   5   6
ENDBRANCH   4   5
ENDBRANCH   2   4
BRANCH   1  10
ATOM     10  C   UNL     1      99.050   5.882  76.020  1.00  0.00     0.111 C 
BRANCH  10  11
ATOM     11  C   UNL     1      98.477   4.581  76.518  1.00  0.00     0.163 C 
ATOM     12  O   UNL     1      97.292   4.581  76.948  1.00  0.00    -0.294 OA
BRANCH  11  13
ATOM     13  C   UNL     1      99.236   3.297  76.461  1.00  0.00    -0.002 C 
ATOM     14  C   UNL     1      99.960   2.866  77.538  1.00  0.00    -0.069 C 
ATOM     15  C   UNL     1     100.609   1.499  77.571  1.00  0.00     0.039 C 
ATOM     16  C   UNL     1     100.147   3.739  78.759  1.00  0.00     0.039 C 
BRANCH  13  17
ATOM     17  C   UNL     1      99.089   2.457  75.203  1.00  0.00     0.066 CG0
ATOM     18  G   UNL     1     100.193   2.726  74.199  1.00  0.00     0.000 G0
ENDBRANCH  13  17
ENDBRANCH  11  13
ENDBRANCH  10  11
ENDBRANCH   1  10
TORSDOF 0
ENDMDL
MODEL 7
REMARK VINA RESULT:    -2.797      2.856      4.925
REMARK INTER + INTRA:          -3.662
REMARK INTER:                  -3.772
REMARK INTRA:                   0.110
REMARK UNBOUND:                 0.280
REMARK SMILES CC1=CCC(=C(C)C)C(=O)CC(C)=CCC1
REMARK SMILES IDX 12 1 14 2 13 3 15 4 16 5 2 6 1 7 3 8 11 10 9 11 10 12 5 13
REMARK SMILES IDX 6 14 7 15 8 16 4 17
REMARK H PARENT
REMARK Flexibility Score: 60.00
ROOT
ATOM      1  C   UNL     1     100.243   7.838  78.207  1.00  0.00    -0.070 C 
ATOM      2  C   UNL     1     101.227   8.702  77.873  1.00  0.00    -0.027 C 
ATOM      3  C   UNL     1      98.838   8.374  78.310  1.00  0.00     0.039 C 
ENDROOT
BRANCH   2   4
ATOM      4  C   UNL     1     102.675   8.341  77.627  1.00  0.00     0.032 C 
BRANCH   4   5
ATOM      5  C   UNL     1     102.982   7.826  76.206  1.00  0.00     0.034 C 
BRANCH   5   6
ATOM      6  C   UNL     1     103.856   6.584  76.196  1.00  0.00    -0.077 C 
ATOM      7  C   UNL     1     105.294   6.736  76.621  1.00  0.00     0.039 C 
ATOM      8  C   UNL     1     103.410   5.339  75.899  1.00  0.00    -0.023 CG0
ATOM      9  G   UNL     1     102.020   4.951  75.432  1.00  0.00     0.000 G0
ENDBRANCH   5   6
ENDBRANCH   4   5
ENDBRANCH   2   4
BRANCH   1  10
ATOM     10  C   UNL     1     100.469   6.351  78.388  1.00  0.00     0.111 C 
BRANCH  10  11
ATOM     11  C   UNL     1     100.169   5.586  77.127  1.00  0.00     0.163 C 
ATOM     12  O   UNL     1      99.124   5.884  76.487  1.00  0.00    -0.294 OA
BRANCH  11  13
ATOM     13  C   UNL     1     101.088   4.542  76.584  1.00  0.00    -0.002 C 
ATOM     14  C   UNL     1     101.042   3.259  77.054  1.00  0.00    -0.069 C 
ATOM     15  C   UNL     1     101.846   2.145  76.418  1.00  0.00     0.039 C 
ATOM     16  C   UNL     1     100.178   2.886  78.238  1.00  0.00     0.039 C 
BRANCH  13  17
ATOM     17  C   UNL     1     101.996   4.946  75.434  1.00  0.00     0.066 CG0
ATOM     18  G   UNL     1     103.384   5.331  75.905  1.00  0.00     0.000 G0
ENDBRANCH  13  17
ENDBRANCH  11  13
ENDBRANCH  10  11
ENDBRANCH   1  10
TORSDOF 0
ENDMDL
MODEL 8
REMARK VINA RESULT:    -2.729      2.787      5.824
REMARK INTER + INTRA:          -3.566
REMARK INTER:                  -3.719
REMARK INTRA:                   0.153
REMARK UNBOUND:                 0.280
REMARK SMILES CC1=CCC(=C(C)C)C(=O)CC(C)=CCC1
REMARK SMILES IDX 12 1 14 2 13 3 15 4 16 5 2 6 1 7 3 8 11 10 9 11 10 12 5 13
REMARK SMILES IDX 6 14 7 15 8 16 4 17
REMARK H PARENT
REMARK Flexibility Score: 60.00
ROOT
ATOM      1  C   UNL     1     103.605   6.176  76.208  1.00  0.00    -0.070 C 
ATOM      2  C   UNL     1     103.552   7.014  77.268  1.00  0.00    -0.027 C 
ATOM      3  C   UNL     1     104.820   5.295  76.065  1.00  0.00     0.039 C 
ENDROOT
BRANCH   2   4
ATOM      4  C   UNL     1     102.384   7.901  77.637  1.00  0.00     0.032 C 
BRANCH   4   5
ATOM      5  C   UNL     1     101.399   7.287  78.652  1.00  0.00     0.034 C 
BRANCH   5   6
ATOM      6  C   UNL     1      99.944   7.446  78.246  1.00  0.00    -0.077 C 
ATOM      7  C   UNL     1      99.285   8.775  78.512  1.00  0.00     0.039 C 
ATOM      8  C   UNL     1      99.225   6.498  77.598  1.00  0.00    -0.023 CG0
ATOM      9  G   UNL     1      99.670   5.093  77.244  1.00  0.00     0.000 G0
ENDBRANCH   5   6
ENDBRANCH   4   5
ENDBRANCH   2   4
BRANCH   1  10
ATOM     10  C   UNL     1     102.470   6.016  75.219  1.00  0.00     0.111 C 
BRANCH  10  11
ATOM     11  C   UNL     1     101.603   4.831  75.555  1.00  0.00     0.163 C 
ATOM     12  O   UNL     1     102.160   3.708  75.687  1.00  0.00    -0.294 OA
BRANCH  11  13
ATOM     13  C   UNL     1     100.135   4.955  75.794  1.00  0.00    -0.002 C 
ATOM     14  C   UNL     1      99.248   4.867  74.757  1.00  0.00    -0.069 C 
ATOM     15  C   UNL     1      97.752   4.828  74.983  1.00  0.00     0.039 C 
ATOM     16  C   UNL     1      99.723   4.801  73.322  1.00  0.00     0.039 C 
BRANCH  13  17
ATOM     17  C   UNL     1      99.674   5.082  77.237  1.00  0.00     0.066 CG0
ATOM     18  G   UNL     1      99.232   6.492  77.577  1.00  0.00     0.000 G0
ENDBRANCH  13  17
ENDBRANCH  11  13
ENDBRANCH  10  11
ENDBRANCH   1  10
TORSDOF 0
ENDMDL
MODEL 9
REMARK VINA RESULT:    -2.531      2.185      4.571
REMARK INTER + INTRA:          -3.287
REMARK INTER:                  -3.649
REMARK INTRA:                   0.362
REMARK UNBOUND:                 0.280
REMARK SMILES CC1=CCC(=C(C)C)C(=O)CC(C)=CCC1
REMARK SMILES IDX 12 1 14 2 13 3 15 4 16 5 2 6 1 7 3 8 11 10 9 11 10 12 5 13
REMARK SMILES IDX 6 14 7 15 8 16 4 17
REMARK H PARENT
REMARK Flexibility Score: 60.00
ROOT
ATOM      1  C   UNL     1      99.376   8.137  77.897  1.00  0.00    -0.070 C 
ATOM      2  C   UNL     1     100.561   8.788  77.900  1.00  0.00    -0.027 C 
ATOM      3  C   UNL     1      98.118   8.961  77.999  1.00  0.00     0.039 C 
ENDROOT
BRANCH   2   4
ATOM      4  C   UNL     1     101.920   8.152  77.711  1.00  0.00     0.032 C 
BRANCH   4   5
ATOM      5  C   UNL     1     102.390   8.050  76.245  1.00  0.00     0.034 C 
BRANCH   5   6
ATOM      6  C   UNL     1     102.671   6.625  75.805  1.00  0.00    -0.077 C 
ATOM      7  C   UNL     1     103.985   6.012  76.217  1.00  0.00     0.039 C 
ATOM      8  C   UNL     1     101.791   5.847  75.129  1.00  0.00    -0.023 CG0
ATOM      9  G   UNL     1     100.430   6.252  74.600  1.00  0.00     0.000 G0
ENDBRANCH   5   6
ENDBRANCH   4   5
ENDBRANCH   2   4
BRANCH   1  10
ATOM     10  C   UNL     1      99.251   6.640  77.703  1.00  0.00     0.111 C 
BRANCH  10  11
ATOM     11  C   UNL     1      98.589   6.303  76.393  1.00  0.00     0.163 C 
ATOM     12  O   UNL     1      97.420   6.729  76.193  1.00  0.00    -0.294 OA
BRANCH  11  13
ATOM     13  C   UNL     1      99.287   5.544  75.314  1.00  0.00    -0.002 C 
ATOM     14  C   UNL     1      98.853   4.302  74.940  1.00  0.00    -0.069 C 
ATOM     15  C   UNL     1      99.436   3.575  73.748  1.00  0.00     0.039 C 
ATOM     16  C   UNL     1      97.758   3.590  75.704  1.00  0.00     0.039 C 
BRANCH  13  17
ATOM     17  C   UNL     1     100.427   6.247  74.594  1.00  0.00     0.066 CG0
ATOM     18  G   UNL     1     101.785   5.839  75.131  1.00  0.00     0.000 G0
ENDBRANCH  13  17
ENDBRANCH  11  13
ENDBRANCH  10  11
ENDBRANCH   1  10
TORSDOF 0
ENDMDL
