MODEL 1
REMARK VINA RESULT:    -8.992      0.000      0.000
REMARK INTER + INTRA:         -16.614
REMARK INTER:                 -14.775
REMARK INTRA:                  -1.838
REMARK UNBOUND:                -1.838
REMARK SMILES C[C@H]1O[C@@H](OC[C@@H]2O[C@@H](Oc3c(-c4ccc(O)c(O)c4)oc4cc(O)cc(O)c4c3=O)[C@H](O)[C@@H](O)[C@@H]2O)[C@H](O)[C@H](O)[C@@H]1O
REMARK SMILES IDX 7 1 36 2 34 3 32 4 9 5 8 6 6 7 5 8 4 9 1 10 2 11 42 12 3 13
REMARK SMILES IDX 40 14 38 15 43 16 41 18 39 20 37 22 35 24 10 26 11 27 12 28
REMARK SMILES IDX 30 29 21 30 29 31 31 32 22 33 27 34 23 35 26 36 24 37 13 38
REMARK SMILES IDX 20 39 14 40 18 41 15 42 16 43 19 44 17 46 28 48 25 50 33 52
REMARK H PARENT 43 17 41 19 39 21 37 23 35 25 19 45 17 47 28 49 25 51 33 53
REMARK Flexibility Score: inf
ROOT
ATOM      1  C   UNL     1      16.566  -5.872  33.165  1.00  0.00     0.180 C 
ATOM      2  C   UNL     1      18.074  -5.878  33.518  1.00  0.00     0.177 C 
ATOM      3  C   UNL     1      18.875  -6.463  32.343  1.00  0.00     0.180 C 
ATOM      4  C   UNL     1      18.277  -7.813  31.889  1.00  0.00     0.214 C 
ATOM      5  C   UNL     1      16.751  -7.705  31.711  1.00  0.00     0.339 C 
ATOM      6  O   UNL     1      16.121  -7.186  32.872  1.00  0.00    -0.332 OA
ENDROOT
BRANCH   1   7
ATOM      7  C   UNL     1      15.704  -5.320  34.315  1.00  0.00     0.198 C 
BRANCH   7   8
ATOM      8  O   UNL     1      16.454  -4.546  35.237  1.00  0.00    -0.347 OA
BRANCH   8   9
ATOM      9  C   UNL     1      15.825  -3.312  35.549  1.00  0.00     0.281 C 
ATOM     10  C   UNL     1      12.251  -2.511  35.675  1.00  0.00     0.041 C 
ATOM     11  C   UNL     1      13.733  -2.265  35.399  1.00  0.00     0.150 C 
ATOM     12  C   UNL     1      13.942  -1.627  34.000  1.00  0.00     0.174 C 
ATOM     13  O   UNL     1      14.417  -3.500  35.457  1.00  0.00    -0.344 OA
ATOM     14  C   UNL     1      15.342  -1.984  33.428  1.00  0.00     0.179 C 
ATOM     15  C   UNL     1      16.361  -2.239  34.552  1.00  0.00     0.202 C 
BRANCH  12  16
ATOM     16  O   UNL     1      13.731  -0.236  34.050  1.00  0.00    -0.388 OA
ATOM     17  H   UNL     1      13.790   0.047  35.000  1.00  0.00     0.211 HD
ENDBRANCH  12  16
BRANCH  14  18
ATOM     18  O   UNL     1      15.819  -0.977  32.572  1.00  0.00    -0.387 OA
ATOM     19  H   UNL     1      16.306  -0.326  33.140  1.00  0.00     0.211 HD
ENDBRANCH  14  18
BRANCH  15  20
ATOM     20  O   UNL     1      16.618  -1.038  35.242  1.00  0.00    -0.385 OA
ATOM     21  H   UNL     1      17.254  -0.506  34.698  1.00  0.00     0.211 HD
ENDBRANCH  15  20
ENDBRANCH   8   9
ENDBRANCH   7   8
ENDBRANCH   1   7
BRANCH   2  22
ATOM     22  O   UNL     1      18.305  -6.653  34.669  1.00  0.00    -0.387 OA
ATOM     23  H   UNL     1      19.086  -6.258  35.135  1.00  0.00     0.211 HD
ENDBRANCH   2  22
BRANCH   3  24
ATOM     24  O   UNL     1      18.870  -5.548  31.276  1.00  0.00    -0.387 OA
ATOM     25  H   UNL     1      19.791  -5.527  30.909  1.00  0.00     0.211 HD
ENDBRANCH   3  24
BRANCH   5  26
ATOM     26  O   UNL     1      16.430  -6.916  30.559  1.00  0.00    -0.454 OA
BRANCH  26  27
ATOM     27  C   UNL     1      15.870  -7.461  29.397  1.00  0.00     0.214 A 
ATOM     28  C   UNL     1      16.466  -7.291  28.130  1.00  0.00     0.180 A 
ATOM     29  C   UNL     1      14.671  -8.178  29.489  1.00  0.00     0.239 A 
ATOM     30  O   UNL     1      15.847  -7.742  27.043  1.00  0.00    -0.452 OA
ATOM     31  C   UNL     1      14.054  -8.659  28.317  1.00  0.00     0.111 A 
ATOM     32  O   UNL     1      14.153  -8.362  30.623  1.00  0.00    -0.285 OA
ATOM     33  C   UNL     1      14.692  -8.396  27.081  1.00  0.00     0.146 A 
ATOM     34  C   UNL     1      12.831  -9.372  28.322  1.00  0.00     0.134 A 
ATOM     35  C   UNL     1      14.115  -8.828  25.883  1.00  0.00     0.094 A 
ATOM     36  C   UNL     1      12.270  -9.799  27.110  1.00  0.00     0.093 A 
ATOM     37  C   UNL     1      12.904  -9.528  25.895  1.00  0.00     0.123 A 
BRANCH  28  38
ATOM     38  C   UNL     1      17.775  -6.628  27.961  1.00  0.00     0.025 A 
ATOM     39  C   UNL     1      18.955  -7.379  28.080  1.00  0.00     0.062 A 
ATOM     40  C   UNL     1      17.862  -5.247  27.725  1.00  0.00     0.016 A 
ATOM     41  C   UNL     1      20.207  -6.767  27.924  1.00  0.00     0.158 A 
ATOM     42  C   UNL     1      19.108  -4.635  27.570  1.00  0.00     0.051 A 
ATOM     43  C   UNL     1      20.282  -5.389  27.663  1.00  0.00     0.157 A 
BRANCH  41  44
ATOM     44  O   UNL     1      21.374  -7.523  28.030  1.00  0.00    -0.504 OA
ATOM     45  H   UNL     1      22.155  -7.218  28.600  1.00  0.00     0.293 HD
ENDBRANCH  41  44
BRANCH  43  46
ATOM     46  O   UNL     1      21.512  -4.753  27.498  1.00  0.00    -0.504 OA
ATOM     47  H   UNL     1      21.640  -3.768  27.696  1.00  0.00     0.293 HD
ENDBRANCH  43  46
ENDBRANCH  28  38
BRANCH  34  48
ATOM     48  O   UNL     1      12.173  -9.658  29.519  1.00  0.00    -0.507 OA
ATOM     49  H   UNL     1      12.264 -10.558  29.975  1.00  0.00     0.293 HD
ENDBRANCH  34  48
BRANCH  37  50
ATOM     50  O   UNL     1      12.325  -9.961  24.705  1.00  0.00    -0.508 OA
ATOM     51  H   UNL     1      12.177 -10.944  24.515  1.00  0.00     0.293 HD
ENDBRANCH  37  50
ENDBRANCH  26  27
ENDBRANCH   5  26
BRANCH   4  52
ATOM     52  O   UNL     1      18.555  -8.808  32.840  1.00  0.00    -0.384 OA
ATOM     53  H   UNL     1      19.444  -9.186  32.613  1.00  0.00     0.211 HD
ENDBRANCH   4  52
TORSDOF 16
ENDMDL
MODEL 2
REMARK VINA RESULT:    -8.167     10.210     12.733
REMARK INTER + INTRA:         -15.257
REMARK INTER:                 -14.768
REMARK INTRA:                  -0.489
REMARK UNBOUND:                -1.838
REMARK SMILES C[C@H]1O[C@@H](OC[C@@H]2O[C@@H](Oc3c(-c4ccc(O)c(O)c4)oc4cc(O)cc(O)c4c3=O)[C@H](O)[C@@H](O)[C@@H]2O)[C@H](O)[C@H](O)[C@@H]1O
REMARK SMILES IDX 7 1 36 2 34 3 32 4 9 5 8 6 6 7 5 8 4 9 1 10 2 11 42 12 3 13
REMARK SMILES IDX 40 14 38 15 43 16 41 18 39 20 37 22 35 24 10 26 11 27 12 28
REMARK SMILES IDX 30 29 21 30 29 31 31 32 22 33 27 34 23 35 26 36 24 37 13 38
REMARK SMILES IDX 20 39 14 40 18 41 15 42 16 43 19 44 17 46 28 48 25 50 33 52
REMARK H PARENT 43 17 41 19 39 21 37 23 35 25 19 45 17 47 28 49 25 51 33 53
REMARK Flexibility Score: inf
ROOT
ATOM      1  C   UNL     1      26.740   0.241  28.141  1.00  0.00     0.180 C 
ATOM      2  C   UNL     1      27.830   1.297  27.831  1.00  0.00     0.177 C 
ATOM      3  C   UNL     1      29.032   0.614  27.161  1.00  0.00     0.180 C 
ATOM      4  C   UNL     1      29.489  -0.616  27.976  1.00  0.00     0.214 C 
ATOM      5  C   UNL     1      28.289  -1.510  28.339  1.00  0.00     0.339 C 
ATOM      6  O   UNL     1      27.260  -0.774  28.983  1.00  0.00    -0.332 OA
ENDROOT
BRANCH   1   7
ATOM      7  C   UNL     1      25.515   0.860  28.839  1.00  0.00     0.198 C 
BRANCH   7   8
ATOM      8  O   UNL     1      25.101   2.078  28.239  1.00  0.00    -0.347 OA
BRANCH   8   9
ATOM      9  C   UNL     1      25.306   3.197  29.087  1.00  0.00     0.281 C 
ATOM     10  C   UNL     1      22.836   5.182  30.928  1.00  0.00     0.041 C 
ATOM     11  C   UNL     1      24.103   4.927  30.114  1.00  0.00     0.150 C 
ATOM     12  C   UNL     1      24.248   5.963  28.968  1.00  0.00     0.174 C 
ATOM     13  O   UNL     1      24.036   3.627  29.564  1.00  0.00    -0.344 OA
ATOM     14  C   UNL     1      25.061   5.374  27.782  1.00  0.00     0.179 C 
ATOM     15  C   UNL     1      26.047   4.292  28.258  1.00  0.00     0.202 C 
BRANCH  12  16
ATOM     16  O   UNL     1      24.810   7.161  29.449  1.00  0.00    -0.388 OA
ATOM     17  H   UNL     1      24.210   7.907  29.185  1.00  0.00     0.211 HD
ENDBRANCH  12  16
BRANCH  14  18
ATOM     18  O   UNL     1      25.754   6.377  27.085  1.00  0.00    -0.387 OA
ATOM     19  H   UNL     1      25.825   7.154  27.697  1.00  0.00     0.211 HD
ENDBRANCH  14  18
BRANCH  15  20
ATOM     20  O   UNL     1      27.054   4.882  29.045  1.00  0.00    -0.385 OA
ATOM     21  H   UNL     1      27.619   5.438  28.449  1.00  0.00     0.211 HD
ENDBRANCH  15  20
ENDBRANCH   8   9
ENDBRANCH   7   8
ENDBRANCH   1   7
BRANCH   2  22
ATOM     22  O   UNL     1      28.253   1.927  29.015  1.00  0.00    -0.387 OA
ATOM     23  H   UNL     1      28.398   1.214  29.690  1.00  0.00     0.211 HD
ENDBRANCH   2  22
BRANCH   3  24
ATOM     24  O   UNL     1      28.679   0.226  25.856  1.00  0.00    -0.387 OA
ATOM     25  H   UNL     1      29.523   0.025  25.376  1.00  0.00     0.211 HD
ENDBRANCH   3  24
BRANCH   5  26
ATOM     26  O   UNL     1      27.788  -2.182  27.177  1.00  0.00    -0.454 OA
BRANCH  26  27
ATOM     27  C   UNL     1      27.423  -3.534  27.180  1.00  0.00     0.214 A 
ATOM     28  C   UNL     1      26.178  -3.972  26.682  1.00  0.00     0.180 A 
ATOM     29  C   UNL     1      28.308  -4.479  27.712  1.00  0.00     0.239 A 
ATOM     30  O   UNL     1      25.835  -5.252  26.795  1.00  0.00    -0.452 OA
ATOM     31  C   UNL     1      27.918  -5.831  27.798  1.00  0.00     0.111 A 
ATOM     32  O   UNL     1      29.435  -4.096  28.127  1.00  0.00    -0.285 OA
ATOM     33  C   UNL     1      26.629  -6.175  27.326  1.00  0.00     0.146 A 
ATOM     34  C   UNL     1      28.744  -6.842  28.344  1.00  0.00     0.134 A 
ATOM     35  C   UNL     1      26.178  -7.496  27.406  1.00  0.00     0.094 A 
ATOM     36  C   UNL     1      28.274  -8.161  28.413  1.00  0.00     0.093 A 
ATOM     37  C   UNL     1      26.997  -8.490  27.950  1.00  0.00     0.123 A 
BRANCH  28  38
ATOM     38  C   UNL     1      25.229  -3.053  26.021  1.00  0.00     0.025 A 
ATOM     39  C   UNL     1      23.974  -3.528  25.609  1.00  0.00     0.062 A 
ATOM     40  C   UNL     1      25.579  -1.719  25.758  1.00  0.00     0.016 A 
ATOM     41  C   UNL     1      23.061  -2.669  24.979  1.00  0.00     0.158 A 
ATOM     42  C   UNL     1      24.671  -0.863  25.129  1.00  0.00     0.051 A 
ATOM     43  C   UNL     1      23.411  -1.330  24.742  1.00  0.00     0.157 A 
BRANCH  41  44
ATOM     44  O   UNL     1      21.810  -3.145  24.585  1.00  0.00    -0.504 OA
ATOM     45  H   UNL     1      21.309  -2.739  23.803  1.00  0.00     0.293 HD
ENDBRANCH  41  44
BRANCH  43  46
ATOM     46  O   UNL     1      22.522  -0.451  24.122  1.00  0.00    -0.504 OA
ATOM     47  H   UNL     1      22.270   0.439  24.534  1.00  0.00     0.293 HD
ENDBRANCH  43  46
ENDBRANCH  28  38
BRANCH  34  48
ATOM     48  O   UNL     1      30.024  -6.546  28.814  1.00  0.00    -0.507 OA
ATOM     49  H   UNL     1      30.347  -6.873  29.717  1.00  0.00     0.293 HD
ENDBRANCH  34  48
BRANCH  37  50
ATOM     50  O   UNL     1      26.553  -9.807  28.033  1.00  0.00    -0.508 OA
ATOM     51  H   UNL     1      27.136 -10.538  28.419  1.00  0.00     0.293 HD
ENDBRANCH  37  50
ENDBRANCH  26  27
ENDBRANCH   5  26
BRANCH   4  52
ATOM     52  O   UNL     1      30.123  -0.203  29.158  1.00  0.00    -0.384 OA
ATOM     53  H   UNL     1      29.743   0.682  29.397  1.00  0.00     0.211 HD
ENDBRANCH   4  52
TORSDOF 16
ENDMDL
MODEL 3
REMARK VINA RESULT:    -7.876     10.343     12.682
REMARK INTER + INTRA:         -14.780
REMARK INTER:                 -14.060
REMARK INTRA:                  -0.720
REMARK UNBOUND:                -1.838
REMARK SMILES C[C@H]1O[C@@H](OC[C@@H]2O[C@@H](Oc3c(-c4ccc(O)c(O)c4)oc4cc(O)cc(O)c4c3=O)[C@H](O)[C@@H](O)[C@@H]2O)[C@H](O)[C@H](O)[C@@H]1O
REMARK SMILES IDX 7 1 36 2 34 3 32 4 9 5 8 6 6 7 5 8 4 9 1 10 2 11 42 12 3 13
REMARK SMILES IDX 40 14 38 15 43 16 41 18 39 20 37 22 35 24 10 26 11 27 12 28
REMARK SMILES IDX 30 29 21 30 29 31 31 32 22 33 27 34 23 35 26 36 24 37 13 38
REMARK SMILES IDX 20 39 14 40 18 41 15 42 16 43 19 44 17 46 28 48 25 50 33 52
REMARK H PARENT 43 17 41 19 39 21 37 23 35 25 19 45 17 47 28 49 25 51 33 53
REMARK Flexibility Score: inf
ROOT
ATOM      1  C   UNL     1      26.877  -0.067  27.893  1.00  0.00     0.180 C 
ATOM      2  C   UNL     1      28.084   0.854  27.586  1.00  0.00     0.177 C 
ATOM      3  C   UNL     1      29.254   0.009  27.058  1.00  0.00     0.180 C 
ATOM      4  C   UNL     1      29.532  -1.189  27.994  1.00  0.00     0.214 C 
ATOM      5  C   UNL     1      28.228  -1.934  28.334  1.00  0.00     0.339 C 
ATOM      6  O   UNL     1      27.237  -1.055  28.844  1.00  0.00    -0.332 OA
ENDROOT
BRANCH   1   7
ATOM      7  C   UNL     1      25.676   0.719  28.451  1.00  0.00     0.198 C 
BRANCH   7   8
ATOM      8  O   UNL     1      25.507   1.979  27.821  1.00  0.00    -0.347 OA
BRANCH   8   9
ATOM      9  C   UNL     1      25.611   3.061  28.735  1.00  0.00     0.281 C 
ATOM     10  C   UNL     1      22.959   4.780  30.591  1.00  0.00     0.041 C 
ATOM     11  C   UNL     1      24.266   4.651  29.810  1.00  0.00     0.150 C 
ATOM     12  C   UNL     1      24.381   5.757  28.728  1.00  0.00     0.174 C 
ATOM     13  O   UNL     1      24.301   3.382  29.189  1.00  0.00    -0.344 OA
ATOM     14  C   UNL     1      25.268   5.287  27.541  1.00  0.00     0.179 C 
ATOM     15  C   UNL     1      26.306   4.244  27.993  1.00  0.00     0.202 C 
BRANCH  12  16
ATOM     16  O   UNL     1      24.848   6.959  29.291  1.00  0.00    -0.388 OA
ATOM     17  H   UNL     1      24.081   7.588  29.348  1.00  0.00     0.211 HD
ENDBRANCH  12  16
BRANCH  14  18
ATOM     18  O   UNL     1      25.917   6.369  26.924  1.00  0.00    -0.387 OA
ATOM     19  H   UNL     1      25.571   7.193  27.355  1.00  0.00     0.211 HD
ENDBRANCH  14  18
BRANCH  15  20
ATOM     20  O   UNL     1      27.247   4.851  28.847  1.00  0.00    -0.385 OA
ATOM     21  H   UNL     1      27.356   4.269  29.642  1.00  0.00     0.211 HD
ENDBRANCH  15  20
ENDBRANCH   8   9
ENDBRANCH   7   8
ENDBRANCH   1   7
BRANCH   2  22
ATOM     22  O   UNL     1      28.489   1.535  28.748  1.00  0.00    -0.387 OA
ATOM     23  H   UNL     1      28.936   2.371  28.456  1.00  0.00     0.211 HD
ENDBRANCH   2  22
BRANCH   3  24
ATOM     24  O   UNL     1      28.950  -0.449  25.764  1.00  0.00    -0.387 OA
ATOM     25  H   UNL     1      29.763  -0.313  25.211  1.00  0.00     0.211 HD
ENDBRANCH   3  24
BRANCH   5  26
ATOM     26  O   UNL     1      27.740  -2.648  27.191  1.00  0.00    -0.454 OA
BRANCH  26  27
ATOM     27  C   UNL     1      27.292  -3.973  27.258  1.00  0.00     0.214 A 
ATOM     28  C   UNL     1      26.033  -4.362  26.755  1.00  0.00     0.180 A 
ATOM     29  C   UNL     1      28.106  -4.938  27.863  1.00  0.00     0.239 A 
ATOM     30  O   UNL     1      25.610  -5.611  26.928  1.00  0.00    -0.452 OA
ATOM     31  C   UNL     1      27.632  -6.257  28.012  1.00  0.00     0.111 A 
ATOM     32  O   UNL     1      29.246  -4.602  28.283  1.00  0.00    -0.285 OA
ATOM     33  C   UNL     1      26.335  -6.549  27.527  1.00  0.00     0.146 A 
ATOM     34  C   UNL     1      28.383  -7.285  28.631  1.00  0.00     0.134 A 
ATOM     35  C   UNL     1      25.802  -7.834  27.668  1.00  0.00     0.094 A 
ATOM     36  C   UNL     1      27.831  -8.568  28.760  1.00  0.00     0.093 A 
ATOM     37  C   UNL     1      26.547  -8.844  28.285  1.00  0.00     0.123 A 
BRANCH  28  38
ATOM     38  C   UNL     1      25.157  -3.426  26.023  1.00  0.00     0.025 A 
ATOM     39  C   UNL     1      25.638  -2.156  25.668  1.00  0.00     0.062 A 
ATOM     40  C   UNL     1      23.831  -3.769  25.713  1.00  0.00     0.016 A 
ATOM     41  C   UNL     1      24.819  -1.254  24.974  1.00  0.00     0.158 A 
ATOM     42  C   UNL     1      23.014  -2.871  25.022  1.00  0.00     0.051 A 
ATOM     43  C   UNL     1      23.502  -1.616  24.646  1.00  0.00     0.157 A 
BRANCH  41  44
ATOM     44  O   UNL     1      25.309   0.001  24.612  1.00  0.00    -0.504 OA
ATOM     45  H   UNL     1      25.199   0.809  25.215  1.00  0.00     0.293 HD
ENDBRANCH  41  44
BRANCH  43  46
ATOM     46  O   UNL     1      22.666  -0.742  23.951  1.00  0.00    -0.504 OA
ATOM     47  H   UNL     1      21.960  -1.072  23.305  1.00  0.00     0.293 HD
ENDBRANCH  43  46
ENDBRANCH  28  38
BRANCH  34  48
ATOM     48  O   UNL     1      29.668  -7.041  29.116  1.00  0.00    -0.507 OA
ATOM     49  H   UNL     1      29.936  -7.288  30.062  1.00  0.00     0.293 HD
ENDBRANCH  34  48
BRANCH  37  50
ATOM     50  O   UNL     1      26.021 -10.125  28.428  1.00  0.00    -0.508 OA
ATOM     51  H   UNL     1      25.048 -10.274  28.662  1.00  0.00     0.293 HD
ENDBRANCH  37  50
ENDBRANCH  26  27
ENDBRANCH   5  26
BRANCH   4  52
ATOM     52  O   UNL     1      30.125  -0.742  29.186  1.00  0.00    -0.384 OA
ATOM     53  H   UNL     1      29.587   0.029  29.506  1.00  0.00     0.211 HD
ENDBRANCH   4  52
TORSDOF 16
ENDMDL
MODEL 4
REMARK VINA RESULT:    -7.862      2.701      5.844
REMARK INTER + INTRA:         -14.756
REMARK INTER:                 -13.870
REMARK INTRA:                  -0.886
REMARK UNBOUND:                -1.838
REMARK SMILES C[C@H]1O[C@@H](OC[C@@H]2O[C@@H](Oc3c(-c4ccc(O)c(O)c4)oc4cc(O)cc(O)c4c3=O)[C@H](O)[C@@H](O)[C@@H]2O)[C@H](O)[C@H](O)[C@@H]1O
REMARK SMILES IDX 7 1 36 2 34 3 32 4 9 5 8 6 6 7 5 8 4 9 1 10 2 11 42 12 3 13
REMARK SMILES IDX 40 14 38 15 43 16 41 18 39 20 37 22 35 24 10 26 11 27 12 28
REMARK SMILES IDX 30 29 21 30 29 31 31 32 22 33 27 34 23 35 26 36 24 37 13 38
REMARK SMILES IDX 20 39 14 40 18 41 15 42 16 43 19 44 17 46 28 48 25 50 33 52
REMARK H PARENT 43 17 41 19 39 21 37 23 35 25 19 45 17 47 28 49 25 51 33 53
REMARK Flexibility Score: inf
ROOT
ATOM      1  C   UNL     1      17.559  -7.325  32.368  1.00  0.00     0.180 C 
ATOM      2  C   UNL     1      16.127  -7.915  32.311  1.00  0.00     0.177 C 
ATOM      3  C   UNL     1      16.059  -8.994  31.219  1.00  0.00     0.180 C 
ATOM      4  C   UNL     1      16.629  -8.461  29.885  1.00  0.00     0.214 C 
ATOM      5  C   UNL     1      17.990  -7.775  30.105  1.00  0.00     0.339 C 
ATOM      6  O   UNL     1      17.918  -6.776  31.111  1.00  0.00    -0.332 OA
ENDROOT
BRANCH   1   7
ATOM      7  C   UNL     1      17.688  -6.217  33.429  1.00  0.00     0.198 C 
BRANCH   7   8
ATOM      8  O   UNL     1      17.121  -4.987  33.006  1.00  0.00    -0.347 OA
BRANCH   8   9
ATOM      9  C   UNL     1      16.225  -4.444  33.963  1.00  0.00     0.281 C 
ATOM     10  C   UNL     1      12.561  -4.508  33.992  1.00  0.00     0.041 C 
ATOM     11  C   UNL     1      13.954  -3.922  34.217  1.00  0.00     0.150 C 
ATOM     12  C   UNL     1      14.037  -2.463  33.696  1.00  0.00     0.174 C 
ATOM     13  O   UNL     1      14.897  -4.719  33.530  1.00  0.00    -0.344 OA
ATOM     14  C   UNL     1      15.490  -2.099  33.284  1.00  0.00     0.179 C 
ATOM     15  C   UNL     1      16.522  -2.917  34.080  1.00  0.00     0.202 C 
BRANCH  12  16
ATOM     16  O   UNL     1      13.517  -1.565  34.647  1.00  0.00    -0.388 OA
ATOM     17  H   UNL     1      13.965  -1.746  35.514  1.00  0.00     0.211 HD
ENDBRANCH  12  16
BRANCH  14  18
ATOM     18  O   UNL     1      15.742  -0.727  33.446  1.00  0.00    -0.387 OA
ATOM     19  H   UNL     1      15.417  -0.481  34.350  1.00  0.00     0.211 HD
ENDBRANCH  14  18
BRANCH  15  20
ATOM     20  O   UNL     1      16.491  -2.531  35.435  1.00  0.00    -0.385 OA
ATOM     21  H   UNL     1      17.402  -2.233  35.687  1.00  0.00     0.211 HD
ENDBRANCH  15  20
ENDBRANCH   8   9
ENDBRANCH   7   8
ENDBRANCH   1   7
BRANCH   2  22
ATOM     22  O   UNL     1      15.192  -6.904  32.026  1.00  0.00    -0.387 OA
ATOM     23  H   UNL     1      15.192  -6.280  32.797  1.00  0.00     0.211 HD
ENDBRANCH   2  22
BRANCH   3  24
ATOM     24  O   UNL     1      16.781 -10.125  31.637  1.00  0.00    -0.387 OA
ATOM     25  H   UNL     1      17.178  -9.905  32.519  1.00  0.00     0.211 HD
ENDBRANCH   3  24
BRANCH   5  26
ATOM     26  O   UNL     1      19.001  -8.742  30.415  1.00  0.00    -0.454 OA
BRANCH  26  27
ATOM     27  C   UNL     1      20.247  -8.768  29.776  1.00  0.00     0.214 A 
ATOM     28  C   UNL     1      20.402  -8.388  28.427  1.00  0.00     0.180 A 
ATOM     29  C   UNL     1      21.369  -9.207  30.487  1.00  0.00     0.239 A 
ATOM     30  O   UNL     1      21.585  -8.522  27.834  1.00  0.00    -0.452 OA
ATOM     31  C   UNL     1      22.612  -9.318  29.832  1.00  0.00     0.111 A 
ATOM     32  O   UNL     1      21.242  -9.515  31.703  1.00  0.00    -0.285 OA
ATOM     33  C   UNL     1      22.667  -8.967  28.462  1.00  0.00     0.146 A 
ATOM     34  C   UNL     1      23.788  -9.775  30.473  1.00  0.00     0.134 A 
ATOM     35  C   UNL     1      23.867  -9.080  27.753  1.00  0.00     0.094 A 
ATOM     36  C   UNL     1      24.982  -9.878  29.745  1.00  0.00     0.093 A 
ATOM     37  C   UNL     1      25.025  -9.535  28.391  1.00  0.00     0.123 A 
BRANCH  28  38
ATOM     38  C   UNL     1      19.287  -7.827  27.635  1.00  0.00     0.025 A 
ATOM     39  C   UNL     1      18.476  -8.682  26.874  1.00  0.00     0.062 A 
ATOM     40  C   UNL     1      19.052  -6.443  27.597  1.00  0.00     0.016 A 
ATOM     41  C   UNL     1      17.415  -8.167  26.116  1.00  0.00     0.158 A 
ATOM     42  C   UNL     1      17.996  -5.929  26.842  1.00  0.00     0.051 A 
ATOM     43  C   UNL     1      17.171  -6.784  26.104  1.00  0.00     0.157 A 
BRANCH  41  44
ATOM     44  O   UNL     1      16.604  -9.026  25.373  1.00  0.00    -0.504 OA
ATOM     45  H   UNL     1      16.985  -9.833  24.892  1.00  0.00     0.293 HD
ENDBRANCH  41  44
BRANCH  43  46
ATOM     46  O   UNL     1      16.120  -6.243  25.364  1.00  0.00    -0.504 OA
ATOM     47  H   UNL     1      16.031  -5.247  25.205  1.00  0.00     0.293 HD
ENDBRANCH  43  46
ENDBRANCH  28  38
BRANCH  34  48
ATOM     48  O   UNL     1      23.779 -10.124  31.824  1.00  0.00    -0.507 OA
ATOM     49  H   UNL     1      23.780 -11.092  32.123  1.00  0.00     0.293 HD
ENDBRANCH  34  48
BRANCH  37  50
ATOM     50  O   UNL     1      26.222  -9.649  27.690  1.00  0.00    -0.508 OA
ATOM     51  H   UNL     1      26.269  -9.482  26.693  1.00  0.00     0.293 HD
ENDBRANCH  37  50
ENDBRANCH  26  27
ENDBRANCH   5  26
BRANCH   4  52
ATOM     52  O   UNL     1      15.739  -7.538  29.315  1.00  0.00    -0.384 OA
ATOM     53  H   UNL     1      16.137  -6.637  29.438  1.00  0.00     0.211 HD
ENDBRANCH   4  52
TORSDOF 16
ENDMDL
MODEL 5
REMARK VINA RESULT:    -7.633      1.283      2.024
REMARK INTER + INTRA:         -14.380
REMARK INTER:                 -13.061
REMARK INTRA:                  -1.319
REMARK UNBOUND:                -1.838
REMARK SMILES C[C@H]1O[C@@H](OC[C@@H]2O[C@@H](Oc3c(-c4ccc(O)c(O)c4)oc4cc(O)cc(O)c4c3=O)[C@H](O)[C@@H](O)[C@@H]2O)[C@H](O)[C@H](O)[C@@H]1O
REMARK SMILES IDX 7 1 36 2 34 3 32 4 9 5 8 6 6 7 5 8 4 9 1 10 2 11 42 12 3 13
REMARK SMILES IDX 40 14 38 15 43 16 41 18 39 20 37 22 35 24 10 26 11 27 12 28
REMARK SMILES IDX 30 29 21 30 29 31 31 32 22 33 27 34 23 35 26 36 24 37 13 38
REMARK SMILES IDX 20 39 14 40 18 41 15 42 16 43 19 44 17 46 28 48 25 50 33 52
REMARK H PARENT 43 17 41 19 39 21 37 23 35 25 19 45 17 47 28 49 25 51 33 53
REMARK Flexibility Score: inf
ROOT
ATOM      1  C   UNL     1      16.101  -5.972  33.041  1.00  0.00     0.180 C 
ATOM      2  C   UNL     1      17.534  -5.697  33.560  1.00  0.00     0.177 C 
ATOM      3  C   UNL     1      18.554  -6.060  32.470  1.00  0.00     0.180 C 
ATOM      4  C   UNL     1      18.290  -7.481  31.922  1.00  0.00     0.214 C 
ATOM      5  C   UNL     1      16.801  -7.667  31.577  1.00  0.00     0.339 C 
ATOM      6  O   UNL     1      15.961  -7.335  32.672  1.00  0.00    -0.332 OA
ENDROOT
BRANCH   1   7
ATOM      7  C   UNL     1      15.029  -5.652  34.100  1.00  0.00     0.198 C 
BRANCH   7   8
ATOM      8  O   UNL     1      13.720  -5.604  33.555  1.00  0.00    -0.347 OA
BRANCH   8   9
ATOM      9  C   UNL     1      13.308  -4.281  33.249  1.00  0.00     0.281 C 
ATOM     10  C   UNL     1      14.829  -1.099  34.246  1.00  0.00     0.041 C 
ATOM     11  C   UNL     1      13.694  -2.069  33.922  1.00  0.00     0.150 C 
ATOM     12  C   UNL     1      12.578  -2.002  34.997  1.00  0.00     0.174 C 
ATOM     13  O   UNL     1      14.218  -3.380  33.871  1.00  0.00    -0.344 OA
ATOM     14  C   UNL     1      11.813  -3.351  35.093  1.00  0.00     0.179 C 
ATOM     15  C   UNL     1      11.842  -4.110  33.754  1.00  0.00     0.202 C 
BRANCH  12  16
ATOM     16  O   UNL     1      11.712  -0.921  34.749  1.00  0.00    -0.388 OA
ATOM     17  H   UNL     1      11.246  -0.701  35.599  1.00  0.00     0.211 HD
ENDBRANCH  12  16
BRANCH  14  18
ATOM     18  O   UNL     1      10.484  -3.161  35.504  1.00  0.00    -0.387 OA
ATOM     19  H   UNL     1      10.480  -2.367  36.099  1.00  0.00     0.211 HD
ENDBRANCH  14  18
BRANCH  15  20
ATOM     20  O   UNL     1      11.088  -3.408  32.794  1.00  0.00    -0.385 OA
ATOM     21  H   UNL     1      11.706  -2.807  32.303  1.00  0.00     0.211 HD
ENDBRANCH  15  20
ENDBRANCH   8   9
ENDBRANCH   7   8
ENDBRANCH   1   7
BRANCH   2  22
ATOM     22  O   UNL     1      17.793  -6.461  34.712  1.00  0.00    -0.387 OA
ATOM     23  H   UNL     1      17.108  -6.214  35.387  1.00  0.00     0.211 HD
ENDBRANCH   2  22
BRANCH   3  24
ATOM     24  O   UNL     1      18.478  -5.118  31.429  1.00  0.00    -0.387 OA
ATOM     25  H   UNL     1      17.769  -4.470  31.678  1.00  0.00     0.211 HD
ENDBRANCH   3  24
BRANCH   5  26
ATOM     26  O   UNL     1      16.451  -6.907  30.414  1.00  0.00    -0.454 OA
BRANCH  26  27
ATOM     27  C   UNL     1      15.891  -7.486  29.268  1.00  0.00     0.214 A 
ATOM     28  C   UNL     1      16.488  -7.354  27.997  1.00  0.00     0.180 A 
ATOM     29  C   UNL     1      14.691  -8.197  29.381  1.00  0.00     0.239 A 
ATOM     30  O   UNL     1      15.869  -7.838  26.924  1.00  0.00    -0.452 OA
ATOM     31  C   UNL     1      14.073  -8.712  28.223  1.00  0.00     0.111 A 
ATOM     32  O   UNL     1      14.172  -8.346  30.520  1.00  0.00    -0.285 OA
ATOM     33  C   UNL     1      14.712  -8.487  26.981  1.00  0.00     0.146 A 
ATOM     34  C   UNL     1      12.848  -9.422  28.249  1.00  0.00     0.134 A 
ATOM     35  C   UNL     1      14.135  -8.954  25.796  1.00  0.00     0.094 A 
ATOM     36  C   UNL     1      12.287  -9.884  27.050  1.00  0.00     0.093 A 
ATOM     37  C   UNL     1      12.923  -9.651  25.828  1.00  0.00     0.123 A 
BRANCH  28  38
ATOM     38  C   UNL     1      17.799  -6.700  27.809  1.00  0.00     0.025 A 
ATOM     39  C   UNL     1      18.978  -7.440  27.989  1.00  0.00     0.062 A 
ATOM     40  C   UNL     1      17.887  -5.335  27.495  1.00  0.00     0.016 A 
ATOM     41  C   UNL     1      20.231  -6.835  27.816  1.00  0.00     0.158 A 
ATOM     42  C   UNL     1      19.134  -4.730  27.323  1.00  0.00     0.051 A 
ATOM     43  C   UNL     1      20.308  -5.475  27.477  1.00  0.00     0.157 A 
BRANCH  41  44
ATOM     44  O   UNL     1      21.397  -7.581  27.983  1.00  0.00    -0.504 OA
ATOM     45  H   UNL     1      22.228  -7.399  27.431  1.00  0.00     0.293 HD
ENDBRANCH  41  44
BRANCH  43  46
ATOM     46  O   UNL     1      21.540  -4.846  27.293  1.00  0.00    -0.504 OA
ATOM     47  H   UNL     1      22.387  -5.367  27.101  1.00  0.00     0.293 HD
ENDBRANCH  43  46
ENDBRANCH  28  38
BRANCH  34  48
ATOM     48  O   UNL     1      12.189  -9.670  29.454  1.00  0.00    -0.507 OA
ATOM     49  H   UNL     1      11.927 -10.608  29.733  1.00  0.00     0.293 HD
ENDBRANCH  34  48
BRANCH  37  50
ATOM     50  O   UNL     1      12.343 -10.118  24.651  1.00  0.00    -0.508 OA
ATOM     51  H   UNL     1      11.609  -9.602  24.182  1.00  0.00     0.293 HD
ENDBRANCH  37  50
ENDBRANCH  26  27
ENDBRANCH   5  26
BRANCH   4  52
ATOM     52  O   UNL     1      18.661  -8.442  32.876  1.00  0.00    -0.384 OA
ATOM     53  H   UNL     1      19.496  -8.867  32.550  1.00  0.00     0.211 HD
ENDBRANCH   4  52
TORSDOF 16
ENDMDL
MODEL 6
REMARK VINA RESULT:    -7.140      6.408     10.528
REMARK INTER + INTRA:         -13.570
REMARK INTER:                 -11.936
REMARK INTRA:                  -1.635
REMARK UNBOUND:                -1.838
REMARK SMILES C[C@H]1O[C@@H](OC[C@@H]2O[C@@H](Oc3c(-c4ccc(O)c(O)c4)oc4cc(O)cc(O)c4c3=O)[C@H](O)[C@@H](O)[C@@H]2O)[C@H](O)[C@H](O)[C@@H]1O
REMARK SMILES IDX 7 1 36 2 34 3 32 4 9 5 8 6 6 7 5 8 4 9 1 10 2 11 42 12 3 13
REMARK SMILES IDX 40 14 38 15 43 16 41 18 39 20 37 22 35 24 10 26 11 27 12 28
REMARK SMILES IDX 30 29 21 30 29 31 31 32 22 33 27 34 23 35 26 36 24 37 13 38
REMARK SMILES IDX 20 39 14 40 18 41 15 42 16 43 19 44 17 46 28 48 25 50 33 52
REMARK H PARENT 43 17 41 19 39 21 37 23 35 25 19 45 17 47 28 49 25 51 33 53
REMARK Flexibility Score: inf
ROOT
ATOM      1  C   UNL     1      25.474  -2.027  26.705  1.00  0.00     0.180 C 
ATOM      2  C   UNL     1      24.939  -1.435  25.377  1.00  0.00     0.177 C 
ATOM      3  C   UNL     1      23.710  -2.234  24.916  1.00  0.00     0.180 C 
ATOM      4  C   UNL     1      24.010  -3.750  24.913  1.00  0.00     0.214 C 
ATOM      5  C   UNL     1      24.668  -4.181  26.237  1.00  0.00     0.339 C 
ATOM      6  O   UNL     1      25.811  -3.394  26.537  1.00  0.00    -0.332 OA
ENDROOT
BRANCH   1   7
ATOM      7  C   UNL     1      26.725  -1.284  27.208  1.00  0.00     0.198 C 
BRANCH   7   8
ATOM      8  O   UNL     1      26.759   0.072  26.793  1.00  0.00    -0.347 OA
BRANCH   8   9
ATOM      9  C   UNL     1      26.844   0.972  27.888  1.00  0.00     0.281 C 
ATOM     10  C   UNL     1      24.282   3.225  29.228  1.00  0.00     0.041 C 
ATOM     11  C   UNL     1      25.689   2.782  28.829  1.00  0.00     0.150 C 
ATOM     12  C   UNL     1      26.428   3.902  28.051  1.00  0.00     0.174 C 
ATOM     13  O   UNL     1      25.589   1.632  28.014  1.00  0.00    -0.344 OA
ATOM     14  C   UNL     1      27.493   3.304  27.090  1.00  0.00     0.179 C 
ATOM     15  C   UNL     1      28.022   1.954  27.606  1.00  0.00     0.202 C 
BRANCH  12  16
ATOM     16  O   UNL     1      26.986   4.840  28.940  1.00  0.00    -0.388 OA
ATOM     17  H   UNL     1      27.293   4.351  29.748  1.00  0.00     0.211 HD
ENDBRANCH  12  16
BRANCH  14  18
ATOM     18  O   UNL     1      28.564   4.192  26.894  1.00  0.00    -0.387 OA
ATOM     19  H   UNL     1      28.953   4.372  27.788  1.00  0.00     0.211 HD
ENDBRANCH  14  18
BRANCH  15  20
ATOM     20  O   UNL     1      28.765   2.155  28.786  1.00  0.00    -0.385 OA
ATOM     21  H   UNL     1      29.183   3.053  28.733  1.00  0.00     0.211 HD
ENDBRANCH  15  20
ENDBRANCH   8   9
ENDBRANCH   7   8
ENDBRANCH   1   7
BRANCH   2  22
ATOM     22  O   UNL     1      25.930  -1.491  24.381  1.00  0.00    -0.387 OA
ATOM     23  H   UNL     1      25.904  -2.404  23.993  1.00  0.00     0.211 HD
ENDBRANCH   2  22
BRANCH   3  24
ATOM     24  O   UNL     1      22.628  -1.956  25.770  1.00  0.00    -0.387 OA
ATOM     25  H   UNL     1      22.867  -1.142  26.284  1.00  0.00     0.211 HD
ENDBRANCH   3  24
BRANCH   5  26
ATOM     26  O   UNL     1      23.721  -4.139  27.311  1.00  0.00    -0.454 OA
BRANCH  26  27
ATOM     27  C   UNL     1      22.794  -5.162  27.547  1.00  0.00     0.214 A 
ATOM     28  C   UNL     1      23.196  -6.473  27.874  1.00  0.00     0.180 A 
ATOM     29  C   UNL     1      21.427  -4.883  27.432  1.00  0.00     0.239 A 
ATOM     30  O   UNL     1      22.285  -7.433  27.993  1.00  0.00    -0.452 OA
ATOM     31  C   UNL     1      20.487  -5.923  27.583  1.00  0.00     0.111 A 
ATOM     32  O   UNL     1      21.062  -3.705  27.173  1.00  0.00    -0.285 OA
ATOM     33  C   UNL     1      20.981  -7.221  27.856  1.00  0.00     0.146 A 
ATOM     34  C   UNL     1      19.091  -5.729  27.459  1.00  0.00     0.134 A 
ATOM     35  C   UNL     1      20.098  -8.296  27.993  1.00  0.00     0.094 A 
ATOM     36  C   UNL     1      18.222  -6.820  27.603  1.00  0.00     0.093 A 
ATOM     37  C   UNL     1      18.719  -8.099  27.866  1.00  0.00     0.123 A 
BRANCH  28  38
ATOM     38  C   UNL     1      24.612  -6.826  28.105  1.00  0.00     0.025 A 
ATOM     39  C   UNL     1      25.156  -7.962  27.485  1.00  0.00     0.062 A 
ATOM     40  C   UNL     1      25.415  -6.066  28.971  1.00  0.00     0.016 A 
ATOM     41  C   UNL     1      26.497  -8.313  27.695  1.00  0.00     0.158 A 
ATOM     42  C   UNL     1      26.751  -6.414  29.181  1.00  0.00     0.051 A 
ATOM     43  C   UNL     1      27.299  -7.532  28.543  1.00  0.00     0.157 A 
BRANCH  41  44
ATOM     44  O   UNL     1      27.033  -9.435  27.064  1.00  0.00    -0.504 OA
ATOM     45  H   UNL     1      26.442 -10.177  26.706  1.00  0.00     0.293 HD
ENDBRANCH  41  44
BRANCH  43  46
ATOM     46  O   UNL     1      28.638  -7.852  28.766  1.00  0.00    -0.504 OA
ATOM     47  H   UNL     1      29.056  -8.701  28.406  1.00  0.00     0.293 HD
ENDBRANCH  43  46
ENDBRANCH  28  38
BRANCH  34  48
ATOM     48  O   UNL     1      18.563  -4.464  27.196  1.00  0.00    -0.507 OA
ATOM     49  H   UNL     1      17.671  -4.170  27.577  1.00  0.00     0.293 HD
ENDBRANCH  34  48
BRANCH  37  50
ATOM     50  O   UNL     1      17.835  -9.166  28.001  1.00  0.00    -0.508 OA
ATOM     51  H   UNL     1      18.131 -10.121  27.843  1.00  0.00     0.293 HD
ENDBRANCH  37  50
ENDBRANCH  26  27
ENDBRANCH   5  26
BRANCH   4  52
ATOM     52  O   UNL     1      24.870  -4.069  23.851  1.00  0.00    -0.384 OA
ATOM     53  H   UNL     1      24.479  -4.855  23.387  1.00  0.00     0.211 HD
ENDBRANCH   4  52
TORSDOF 16
ENDMDL
MODEL 7
REMARK VINA RESULT:    -7.126      7.789     12.161
REMARK INTER + INTRA:         -13.546
REMARK INTER:                 -13.270
REMARK INTRA:                  -0.277
REMARK UNBOUND:                -1.838
REMARK SMILES C[C@H]1O[C@@H](OC[C@@H]2O[C@@H](Oc3c(-c4ccc(O)c(O)c4)oc4cc(O)cc(O)c4c3=O)[C@H](O)[C@@H](O)[C@@H]2O)[C@H](O)[C@H](O)[C@@H]1O
REMARK SMILES IDX 7 1 36 2 34 3 32 4 9 5 8 6 6 7 5 8 4 9 1 10 2 11 42 12 3 13
REMARK SMILES IDX 40 14 38 15 43 16 41 18 39 20 37 22 35 24 10 26 11 27 12 28
REMARK SMILES IDX 30 29 21 30 29 31 31 32 22 33 27 34 23 35 26 36 24 37 13 38
REMARK SMILES IDX 20 39 14 40 18 41 15 42 16 43 19 44 17 46 28 48 25 50 33 52
REMARK H PARENT 43 17 41 19 39 21 37 23 35 25 19 45 17 47 28 49 25 51 33 53
REMARK Flexibility Score: inf
ROOT
ATOM      1  C   UNL     1      25.282  -0.189  27.982  1.00  0.00     0.180 C 
ATOM      2  C   UNL     1      25.426   0.506  26.605  1.00  0.00     0.177 C 
ATOM      3  C   UNL     1      25.823  -0.533  25.545  1.00  0.00     0.180 C 
ATOM      4  C   UNL     1      27.037  -1.364  26.018  1.00  0.00     0.214 C 
ATOM      5  C   UNL     1      26.824  -1.877  27.454  1.00  0.00     0.339 C 
ATOM      6  O   UNL     1      26.497  -0.823  28.346  1.00  0.00    -0.332 OA
ENDROOT
BRANCH   1   7
ATOM      7  C   UNL     1      24.909   0.806  29.097  1.00  0.00     0.198 C 
BRANCH   7   8
ATOM      8  O   UNL     1      24.461   2.053  28.589  1.00  0.00    -0.347 OA
BRANCH   8   9
ATOM      9  C   UNL     1      24.906   3.149  29.373  1.00  0.00     0.281 C 
ATOM     10  C   UNL     1      22.931   5.601  31.249  1.00  0.00     0.041 C 
ATOM     11  C   UNL     1      24.084   5.099  30.381  1.00  0.00     0.150 C 
ATOM     12  C   UNL     1      24.337   6.052  29.183  1.00  0.00     0.174 C 
ATOM     13  O   UNL     1      23.760   3.812  29.896  1.00  0.00    -0.344 OA
ATOM     14  C   UNL     1      24.963   5.286  27.984  1.00  0.00     0.179 C 
ATOM     15  C   UNL     1      25.774   4.067  28.457  1.00  0.00     0.202 C 
BRANCH  12  16
ATOM     16  O   UNL     1      25.125   7.149  29.578  1.00  0.00    -0.388 OA
ATOM     17  H   UNL     1      26.036   7.022  29.202  1.00  0.00     0.211 HD
ENDBRANCH  12  16
BRANCH  14  18
ATOM     18  O   UNL     1      25.776   6.127  27.206  1.00  0.00    -0.387 OA
ATOM     19  H   UNL     1      26.684   6.094  27.604  1.00  0.00     0.211 HD
ENDBRANCH  14  18
BRANCH  15  20
ATOM     20  O   UNL     1      26.914   4.499  29.162  1.00  0.00    -0.385 OA
ATOM     21  H   UNL     1      27.569   3.755  29.166  1.00  0.00     0.211 HD
ENDBRANCH  15  20
ENDBRANCH   8   9
ENDBRANCH   7   8
ENDBRANCH   1   7
BRANCH   2  22
ATOM     22  O   UNL     1      26.408   1.510  26.664  1.00  0.00    -0.387 OA
ATOM     23  H   UNL     1      25.949   2.377  26.517  1.00  0.00     0.211 HD
ENDBRANCH   2  22
BRANCH   3  24
ATOM     24  O   UNL     1      24.729  -1.377  25.288  1.00  0.00    -0.387 OA
ATOM     25  H   UNL     1      24.935  -2.254  25.706  1.00  0.00     0.211 HD
ENDBRANCH   3  24
BRANCH   5  26
ATOM     26  O   UNL     1      25.823  -2.901  27.483  1.00  0.00    -0.454 OA
BRANCH  26  27
ATOM     27  C   UNL     1      26.133  -4.264  27.571  1.00  0.00     0.214 A 
ATOM     28  C   UNL     1      25.152  -5.265  27.405  1.00  0.00     0.180 A 
ATOM     29  C   UNL     1      27.448  -4.648  27.855  1.00  0.00     0.239 A 
ATOM     30  O   UNL     1      25.473  -6.541  27.593  1.00  0.00    -0.452 OA
ATOM     31  C   UNL     1      27.756  -6.012  28.029  1.00  0.00     0.111 A 
ATOM     32  O   UNL     1      28.334  -3.758  27.971  1.00  0.00    -0.285 OA
ATOM     33  C   UNL     1      26.701  -6.946  27.899  1.00  0.00     0.146 A 
ATOM     34  C   UNL     1      29.055  -6.480  28.341  1.00  0.00     0.134 A 
ATOM     35  C   UNL     1      26.940  -8.311  28.084  1.00  0.00     0.094 A 
ATOM     36  C   UNL     1      29.275  -7.853  28.520  1.00  0.00     0.093 A 
ATOM     37  C   UNL     1      28.225  -8.767  28.396  1.00  0.00     0.123 A 
BRANCH  28  38
ATOM     38  C   UNL     1      23.764  -4.947  27.013  1.00  0.00     0.025 A 
ATOM     39  C   UNL     1      22.695  -5.466  27.759  1.00  0.00     0.062 A 
ATOM     40  C   UNL     1      23.494  -4.168  25.876  1.00  0.00     0.016 A 
ATOM     41  C   UNL     1      21.371  -5.176  27.400  1.00  0.00     0.158 A 
ATOM     42  C   UNL     1      22.176  -3.879  25.517  1.00  0.00     0.051 A 
ATOM     43  C   UNL     1      21.111  -4.375  26.276  1.00  0.00     0.157 A 
BRANCH  41  44
ATOM     44  O   UNL     1      20.314  -5.684  28.155  1.00  0.00    -0.504 OA
ATOM     45  H   UNL     1      20.472  -6.307  28.939  1.00  0.00     0.293 HD
ENDBRANCH  41  44
BRANCH  43  46
ATOM     46  O   UNL     1      19.805  -4.065  25.897  1.00  0.00    -0.504 OA
ATOM     47  H   UNL     1      19.598  -3.337  25.225  1.00  0.00     0.293 HD
ENDBRANCH  43  46
ENDBRANCH  28  38
BRANCH  34  48
ATOM     48  O   UNL     1      30.124  -5.593  28.472  1.00  0.00    -0.507 OA
ATOM     49  H   UNL     1      30.001  -4.665  28.858  1.00  0.00     0.293 HD
ENDBRANCH  34  48
BRANCH  37  50
ATOM     50  O   UNL     1      28.470 -10.125  28.582  1.00  0.00    -0.508 OA
ATOM     51  H   UNL     1      28.243 -10.805  27.868  1.00  0.00     0.293 HD
ENDBRANCH  37  50
ENDBRANCH  26  27
ENDBRANCH   5  26
BRANCH   4  52
ATOM     52  O   UNL     1      28.201  -0.581  25.981  1.00  0.00    -0.384 OA
ATOM     53  H   UNL     1      27.935   0.320  25.661  1.00  0.00     0.211 HD
ENDBRANCH   4  52
TORSDOF 16
ENDMDL
MODEL 8
REMARK VINA RESULT:    -7.009      1.713      2.316
REMARK INTER + INTRA:         -13.354
REMARK INTER:                 -12.502
REMARK INTRA:                  -0.852
REMARK UNBOUND:                -1.838
REMARK SMILES C[C@H]1O[C@@H](OC[C@@H]2O[C@@H](Oc3c(-c4ccc(O)c(O)c4)oc4cc(O)cc(O)c4c3=O)[C@H](O)[C@@H](O)[C@@H]2O)[C@H](O)[C@H](O)[C@@H]1O
REMARK SMILES IDX 7 1 36 2 34 3 32 4 9 5 8 6 6 7 5 8 4 9 1 10 2 11 42 12 3 13
REMARK SMILES IDX 40 14 38 15 43 16 41 18 39 20 37 22 35 24 10 26 11 27 12 28
REMARK SMILES IDX 30 29 21 30 29 31 31 32 22 33 27 34 23 35 26 36 24 37 13 38
REMARK SMILES IDX 20 39 14 40 18 41 15 42 16 43 19 44 17 46 28 48 25 50 33 52
REMARK H PARENT 43 17 41 19 39 21 37 23 35 25 19 45 17 47 28 49 25 51 33 53
REMARK Flexibility Score: inf
ROOT
ATOM      1  C   UNL     1      17.359  -5.981  33.593  1.00  0.00     0.180 C 
ATOM      2  C   UNL     1      18.543  -6.173  34.574  1.00  0.00     0.177 C 
ATOM      3  C   UNL     1      19.532  -7.195  33.992  1.00  0.00     0.180 C 
ATOM      4  C   UNL     1      18.798  -8.481  33.552  1.00  0.00     0.214 C 
ATOM      5  C   UNL     1      17.560  -8.142  32.700  1.00  0.00     0.339 C 
ATOM      6  O   UNL     1      16.707  -7.218  33.357  1.00  0.00    -0.332 OA
ENDROOT
BRANCH   1   7
ATOM      7  C   UNL     1      16.316  -4.984  34.132  1.00  0.00     0.198 C 
BRANCH   7   8
ATOM      8  O   UNL     1      16.736  -4.347  35.328  1.00  0.00    -0.347 OA
BRANCH   8   9
ATOM      9  C   UNL     1      16.010  -3.156  35.592  1.00  0.00     0.281 C 
ATOM     10  C   UNL     1      12.384  -2.656  35.782  1.00  0.00     0.041 C 
ATOM     11  C   UNL     1      13.832  -2.301  35.448  1.00  0.00     0.150 C 
ATOM     12  C   UNL     1      13.949  -1.727  34.012  1.00  0.00     0.174 C 
ATOM     13  O   UNL     1      14.622  -3.468  35.553  1.00  0.00    -0.344 OA
ATOM     14  C   UNL     1      15.360  -1.995  33.418  1.00  0.00     0.179 C 
ATOM     15  C   UNL     1      16.426  -2.099  34.523  1.00  0.00     0.202 C 
BRANCH  12  16
ATOM     16  O   UNL     1      13.620  -0.359  33.994  1.00  0.00    -0.388 OA
ATOM     17  H   UNL     1      13.182  -0.162  33.125  1.00  0.00     0.211 HD
ENDBRANCH  12  16
BRANCH  14  18
ATOM     18  O   UNL     1      15.726  -1.001  32.494  1.00  0.00    -0.387 OA
ATOM     19  H   UNL     1      16.120  -0.256  33.018  1.00  0.00     0.211 HD
ENDBRANCH  14  18
BRANCH  15  20
ATOM     20  O   UNL     1      16.595  -0.844  35.138  1.00  0.00    -0.385 OA
ATOM     21  H   UNL     1      16.859  -1.001  36.081  1.00  0.00     0.211 HD
ENDBRANCH  15  20
ENDBRANCH   8   9
ENDBRANCH   7   8
ENDBRANCH   1   7
BRANCH   2  22
ATOM     22  O   UNL     1      18.078  -6.633  35.819  1.00  0.00    -0.387 OA
ATOM     23  H   UNL     1      17.222  -7.107  35.654  1.00  0.00     0.211 HD
ENDBRANCH   2  22
BRANCH   3  24
ATOM     24  O   UNL     1      20.202  -6.621  32.897  1.00  0.00    -0.387 OA
ATOM     25  H   UNL     1      19.506  -6.312  32.262  1.00  0.00     0.211 HD
ENDBRANCH   3  24
BRANCH   5  26
ATOM     26  O   UNL     1      17.951  -7.651  31.412  1.00  0.00    -0.454 OA
BRANCH  26  27
ATOM     27  C   UNL     1      17.400  -8.131  30.217  1.00  0.00     0.214 A 
ATOM     28  C   UNL     1      18.197  -8.704  29.204  1.00  0.00     0.180 A 
ATOM     29  C   UNL     1      16.020  -8.020  30.009  1.00  0.00     0.239 A 
ATOM     30  O   UNL     1      17.643  -9.056  28.048  1.00  0.00    -0.452 OA
ATOM     31  C   UNL     1      15.465  -8.422  28.778  1.00  0.00     0.111 A 
ATOM     32  O   UNL     1      15.300  -7.540  30.926  1.00  0.00    -0.285 OA
ATOM     33  C   UNL     1      16.345  -8.935  27.795  1.00  0.00     0.146 A 
ATOM     34  C   UNL     1      14.085  -8.321  28.480  1.00  0.00     0.134 A 
ATOM     35  C   UNL     1      15.856  -9.328  26.546  1.00  0.00     0.094 A 
ATOM     36  C   UNL     1      13.614  -8.723  27.222  1.00  0.00     0.093 A 
ATOM     37  C   UNL     1      14.492  -9.222  26.257  1.00  0.00     0.123 A 
BRANCH  28  38
ATOM     38  C   UNL     1      19.644  -8.941  29.384  1.00  0.00     0.025 A 
ATOM     39  C   UNL     1      20.549  -8.488  28.411  1.00  0.00     0.062 A 
ATOM     40  C   UNL     1      20.128  -9.654  30.493  1.00  0.00     0.016 A 
ATOM     41  C   UNL     1      21.926  -8.706  28.565  1.00  0.00     0.158 A 
ATOM     42  C   UNL     1      21.499  -9.872  30.646  1.00  0.00     0.051 A 
ATOM     43  C   UNL     1      22.402  -9.397  29.690  1.00  0.00     0.157 A 
BRANCH  41  44
ATOM     44  O   UNL     1      22.819  -8.239  27.601  1.00  0.00    -0.504 OA
ATOM     45  H   UNL     1      23.752  -8.626  27.509  1.00  0.00     0.293 HD
ENDBRANCH  41  44
BRANCH  43  46
ATOM     46  O   UNL     1      23.766  -9.624  29.873  1.00  0.00    -0.504 OA
ATOM     47  H   UNL     1      24.168 -10.553  29.829  1.00  0.00     0.293 HD
ENDBRANCH  43  46
ENDBRANCH  28  38
BRANCH  34  48
ATOM     48  O   UNL     1      13.182  -7.827  29.423  1.00  0.00    -0.507 OA
ATOM     49  H   UNL     1      12.182  -7.855  29.267  1.00  0.00     0.293 HD
ENDBRANCH  34  48
BRANCH  37  50
ATOM     50  O   UNL     1      13.999  -9.612  25.014  1.00  0.00    -0.508 OA
ATOM     51  H   UNL     1      13.291 -10.330  24.928  1.00  0.00     0.293 HD
ENDBRANCH  37  50
ENDBRANCH  26  27
ENDBRANCH   5  26
BRANCH   4  52
ATOM     52  O   UNL     1      18.389  -9.212  34.678  1.00  0.00    -0.384 OA
ATOM     53  H   UNL     1      17.724  -9.879  34.366  1.00  0.00     0.211 HD
ENDBRANCH   4  52
TORSDOF 16
ENDMDL
MODEL 9
REMARK VINA RESULT:    -6.770      8.249     12.285
REMARK INTER + INTRA:         -12.962
REMARK INTER:                 -11.547
REMARK INTRA:                  -1.415
REMARK UNBOUND:                -1.838
REMARK SMILES C[C@H]1O[C@@H](OC[C@@H]2O[C@@H](Oc3c(-c4ccc(O)c(O)c4)oc4cc(O)cc(O)c4c3=O)[C@H](O)[C@@H](O)[C@@H]2O)[C@H](O)[C@H](O)[C@@H]1O
REMARK SMILES IDX 7 1 36 2 34 3 32 4 9 5 8 6 6 7 5 8 4 9 1 10 2 11 42 12 3 13
REMARK SMILES IDX 40 14 38 15 43 16 41 18 39 20 37 22 35 24 10 26 11 27 12 28
REMARK SMILES IDX 30 29 21 30 29 31 31 32 22 33 27 34 23 35 26 36 24 37 13 38
REMARK SMILES IDX 20 39 14 40 18 41 15 42 16 43 19 44 17 46 28 48 25 50 33 52
REMARK H PARENT 43 17 41 19 39 21 37 23 35 25 19 45 17 47 28 49 25 51 33 53
REMARK Flexibility Score: inf
ROOT
ATOM      1  C   UNL     1      27.948  -1.081  27.733  1.00  0.00     0.180 C 
ATOM      2  C   UNL     1      29.487  -1.023  27.563  1.00  0.00     0.177 C 
ATOM      3  C   UNL     1      29.958  -2.231  26.737  1.00  0.00     0.180 C 
ATOM      4  C   UNL     1      29.385  -3.546  27.312  1.00  0.00     0.214 C 
ATOM      5  C   UNL     1      27.872  -3.420  27.566  1.00  0.00     0.339 C 
ATOM      6  O   UNL     1      27.565  -2.290  28.367  1.00  0.00    -0.332 OA
ENDROOT
BRANCH   1   7
ATOM      7  C   UNL     1      27.414   0.093  28.576  1.00  0.00     0.198 C 
BRANCH   7   8
ATOM      8  O   UNL     1      27.994   1.335  28.212  1.00  0.00    -0.347 OA
BRANCH   8   9
ATOM      9  C   UNL     1      27.406   2.430  28.897  1.00  0.00     0.281 C 
ATOM     10  C   UNL     1      23.874   3.384  29.124  1.00  0.00     0.041 C 
ATOM     11  C   UNL     1      25.382   3.607  29.017  1.00  0.00     0.150 C 
ATOM     12  C   UNL     1      25.715   4.665  27.932  1.00  0.00     0.174 C 
ATOM     13  O   UNL     1      26.000   2.381  28.682  1.00  0.00    -0.344 OA
ATOM     14  C   UNL     1      27.132   4.428  27.339  1.00  0.00     0.179 C 
ATOM     15  C   UNL     1      28.060   3.738  28.354  1.00  0.00     0.202 C 
BRANCH  12  16
ATOM     16  O   UNL     1      25.569   5.967  28.446  1.00  0.00    -0.388 OA
ATOM     17  H   UNL     1      25.323   5.891  29.405  1.00  0.00     0.211 HD
ENDBRANCH  12  16
BRANCH  14  18
ATOM     18  O   UNL     1      27.713   5.630  26.901  1.00  0.00    -0.387 OA
ATOM     19  H   UNL     1      27.844   6.193  27.707  1.00  0.00     0.211 HD
ENDBRANCH  14  18
BRANCH  15  20
ATOM     20  O   UNL     1      28.328   4.614  29.424  1.00  0.00    -0.385 OA
ATOM     21  H   UNL     1      28.146   5.538  29.112  1.00  0.00     0.211 HD
ENDBRANCH  15  20
ENDBRANCH   8   9
ENDBRANCH   7   8
ENDBRANCH   1   7
BRANCH   2  22
ATOM     22  O   UNL     1      30.119  -1.043  28.818  1.00  0.00    -0.387 OA
ATOM     23  H   UNL     1      30.998  -1.487  28.696  1.00  0.00     0.211 HD
ENDBRANCH   2  22
BRANCH   3  24
ATOM     24  O   UNL     1      29.550  -2.069  25.402  1.00  0.00    -0.387 OA
ATOM     25  H   UNL     1      29.766  -1.135  25.145  1.00  0.00     0.211 HD
ENDBRANCH   3  24
BRANCH   5  26
ATOM     26  O   UNL     1      27.151  -3.381  26.328  1.00  0.00    -0.454 OA
BRANCH  26  27
ATOM     27  C   UNL     1      25.762  -3.538  26.253  1.00  0.00     0.214 A 
ATOM     28  C   UNL     1      24.942  -2.617  25.568  1.00  0.00     0.180 A 
ATOM     29  C   UNL     1      25.163  -4.628  26.894  1.00  0.00     0.239 A 
ATOM     30  O   UNL     1      23.620  -2.754  25.606  1.00  0.00    -0.452 OA
ATOM     31  C   UNL     1      23.758  -4.752  26.897  1.00  0.00     0.111 A 
ATOM     32  O   UNL     1      25.894  -5.473  27.479  1.00  0.00    -0.285 OA
ATOM     33  C   UNL     1      23.009  -3.752  26.232  1.00  0.00     0.146 A 
ATOM     34  C   UNL     1      23.075  -5.810  27.542  1.00  0.00     0.134 A 
ATOM     35  C   UNL     1      21.612  -3.809  26.222  1.00  0.00     0.094 A 
ATOM     36  C   UNL     1      21.674  -5.850  27.518  1.00  0.00     0.093 A 
ATOM     37  C   UNL     1      20.942  -4.855  26.864  1.00  0.00     0.123 A 
BRANCH  28  38
ATOM     38  C   UNL     1      25.504  -1.494  24.789  1.00  0.00     0.025 A 
ATOM     39  C   UNL     1      26.250  -0.501  25.441  1.00  0.00     0.062 A 
ATOM     40  C   UNL     1      25.265  -1.380  23.410  1.00  0.00     0.016 A 
ATOM     41  C   UNL     1      26.789   0.573  24.718  1.00  0.00     0.158 A 
ATOM     42  C   UNL     1      25.800  -0.311  22.689  1.00  0.00     0.051 A 
ATOM     43  C   UNL     1      26.567   0.665  23.334  1.00  0.00     0.157 A 
BRANCH  41  44
ATOM     44  O   UNL     1      27.542   1.549  25.371  1.00  0.00    -0.504 OA
ATOM     45  H   UNL     1      28.468   1.810  25.049  1.00  0.00     0.293 HD
ENDBRANCH  41  44
BRANCH  43  46
ATOM     46  O   UNL     1      27.094   1.719  22.588  1.00  0.00    -0.504 OA
ATOM     47  H   UNL     1      27.502   1.578  21.671  1.00  0.00     0.293 HD
ENDBRANCH  43  46
ENDBRANCH  28  38
BRANCH  34  48
ATOM     48  O   UNL     1      23.777  -6.819  28.203  1.00  0.00    -0.507 OA
ATOM     49  H   UNL     1      24.559  -7.295  27.771  1.00  0.00     0.293 HD
ENDBRANCH  34  48
BRANCH  37  50
ATOM     50  O   UNL     1      19.551  -4.916  26.857  1.00  0.00    -0.508 OA
ATOM     51  H   UNL     1      19.040  -5.405  27.580  1.00  0.00     0.293 HD
ENDBRANCH  37  50
ENDBRANCH  26  27
ENDBRANCH   5  26
BRANCH   4  52
ATOM     52  O   UNL     1      30.025  -3.863  28.520  1.00  0.00    -0.384 OA
ATOM     53  H   UNL     1      30.782  -4.467  28.299  1.00  0.00     0.211 HD
ENDBRANCH   4  52
TORSDOF 16
ENDMDL
