MODEL 1
REMARK VINA RESULT:    -5.314      0.000      0.000
REMARK INTER + INTRA:          -5.314
REMARK INTER:                  -5.314
REMARK INTRA:                   0.000
REMARK UNBOUND:                 0.000
REMARK SMILES C=C1CCC[C@]2(C)CC(=O)C(=C(C)C)C[C@H]12
REMARK SMILES IDX 13 1 12 2 11 3 15 4 16 5 2 6 1 7 3 8 4 9 5 10 6 11 8 12 9 13
REMARK SMILES IDX 10 14 7 15 14 16
REMARK H PARENT
REMARK Flexibility Score: inf
ROOT
ATOM      1  C   UNL     1      21.322  24.442  41.825  1.00  0.00     0.039 C 
ATOM      2  C   UNL     1      21.298  25.725  42.625  1.00  0.00    -0.070 C 
ATOM      3  C   UNL     1      20.246  26.589  42.547  1.00  0.00    -0.006 C 
ATOM      4  C   UNL     1      19.049  26.323  41.658  1.00  0.00     0.047 C 
ATOM      5  C   UNL     1      17.713  26.843  42.251  1.00  0.00     0.025 C 
ATOM      6  C   UNL     1      16.635  26.743  41.184  1.00  0.00    -0.073 C 
ATOM      7  C   UNL     1      15.788  25.702  41.165  1.00  0.00     0.008 C 
ATOM      8  C   UNL     1      16.634  27.751  40.054  1.00  0.00     0.031 C 
ATOM      9  C   UNL     1      16.805  29.185  40.575  1.00  0.00     0.005 C 
ATOM     10  C   UNL     1      17.937  29.310  41.612  1.00  0.00     0.008 C 
ATOM     11  C   UNL     1      17.789  28.306  42.794  1.00  0.00    -0.018 C 
ATOM     12  C   UNL     1      18.982  28.456  43.774  1.00  0.00     0.088 C 
ATOM     13  C   UNL     1      20.257  27.910  43.216  1.00  0.00     0.159 C 
ATOM     14  O   UNL     1      21.318  28.583  43.322  1.00  0.00    -0.295 OA
ATOM     15  C   UNL     1      16.503  28.631  43.600  1.00  0.00     0.012 C 
ATOM     16  C   UNL     1      22.469  25.988  43.544  1.00  0.00     0.039 C 
ENDROOT
TORSDOF 0
ENDMDL
MODEL 2
REMARK VINA RESULT:    -5.271      1.979      3.522
REMARK INTER + INTRA:          -5.271
REMARK INTER:                  -5.271
REMARK INTRA:                   0.000
REMARK UNBOUND:                 0.000
REMARK SMILES C=C1CCC[C@]2(C)CC(=O)C(=C(C)C)C[C@H]12
REMARK SMILES IDX 13 1 12 2 11 3 15 4 16 5 2 6 1 7 3 8 4 9 5 10 6 11 8 12 9 13
REMARK SMILES IDX 10 14 7 15 14 16
REMARK H PARENT
REMARK Flexibility Score: inf
ROOT
ATOM      1  C   UNL     1      23.810  29.961  42.419  1.00  0.00     0.039 C 
ATOM      2  C   UNL     1      23.528  28.489  42.616  1.00  0.00    -0.070 C 
ATOM      3  C   UNL     1      22.262  27.991  42.519  1.00  0.00    -0.006 C 
ATOM      4  C   UNL     1      21.069  28.876  42.218  1.00  0.00     0.047 C 
ATOM      5  C   UNL     1      19.982  28.173  41.363  1.00  0.00     0.025 C 
ATOM      6  C   UNL     1      18.744  29.056  41.328  1.00  0.00    -0.073 C 
ATOM      7  C   UNL     1      18.512  29.865  40.283  1.00  0.00     0.008 C 
ATOM      8  C   UNL     1      17.865  29.124  42.559  1.00  0.00     0.031 C 
ATOM      9  C   UNL     1      17.567  27.727  43.121  1.00  0.00     0.005 C 
ATOM     10  C   UNL     1      18.825  26.844  43.218  1.00  0.00     0.008 C 
ATOM     11  C   UNL     1      19.602  26.746  41.870  1.00  0.00    -0.018 C 
ATOM     12  C   UNL     1      20.877  25.881  42.052  1.00  0.00     0.088 C 
ATOM     13  C   UNL     1      21.940  26.581  42.836  1.00  0.00     0.159 C 
ATOM     14  O   UNL     1      22.543  25.961  43.753  1.00  0.00    -0.295 OA
ATOM     15  C   UNL     1      18.723  26.031  40.809  1.00  0.00     0.012 C 
ATOM     16  C   UNL     1      24.711  27.587  42.883  1.00  0.00     0.039 C 
ENDROOT
TORSDOF 0
ENDMDL
MODEL 3
REMARK VINA RESULT:    -5.072      2.551      5.459
REMARK INTER + INTRA:          -5.072
REMARK INTER:                  -5.072
REMARK INTRA:                   0.000
REMARK UNBOUND:                 0.000
REMARK SMILES C=C1CCC[C@]2(C)CC(=O)C(=C(C)C)C[C@H]12
REMARK SMILES IDX 13 1 12 2 11 3 15 4 16 5 2 6 1 7 3 8 4 9 5 10 6 11 8 12 9 13
REMARK SMILES IDX 10 14 7 15 14 16
REMARK H PARENT
REMARK Flexibility Score: inf
ROOT
ATOM      1  C   UNL     1      17.847  29.398  43.592  1.00  0.00     0.039 C 
ATOM      2  C   UNL     1      18.172  28.030  43.039  1.00  0.00    -0.070 C 
ATOM      3  C   UNL     1      19.398  27.754  42.507  1.00  0.00    -0.006 C 
ATOM      4  C   UNL     1      20.497  28.795  42.432  1.00  0.00     0.047 C 
ATOM      5  C   UNL     1      21.919  28.202  42.614  1.00  0.00     0.025 C 
ATOM      6  C   UNL     1      22.941  29.278  42.282  1.00  0.00    -0.073 C 
ATOM      7  C   UNL     1      23.520  29.994  43.259  1.00  0.00     0.008 C 
ATOM      8  C   UNL     1      23.174  29.637  40.830  1.00  0.00     0.031 C 
ATOM      9  C   UNL     1      23.345  28.385  39.958  1.00  0.00     0.005 C 
ATOM     10  C   UNL     1      22.277  27.312  40.243  1.00  0.00     0.008 C 
ATOM     11  C   UNL     1      22.190  26.929  41.751  1.00  0.00    -0.018 C 
ATOM     12  C   UNL     1      21.068  25.880  41.970  1.00  0.00     0.088 C 
ATOM     13  C   UNL     1      19.698  26.466  41.841  1.00  0.00     0.159 C 
ATOM     14  O   UNL     1      18.825  25.857  41.167  1.00  0.00    -0.295 OA
ATOM     15  C   UNL     1      23.519  26.266  42.201  1.00  0.00     0.012 C 
ATOM     16  C   UNL     1      17.099  26.971  43.137  1.00  0.00     0.039 C 
ENDROOT
TORSDOF 0
ENDMDL
MODEL 4
REMARK VINA RESULT:    -5.042      1.826      4.566
REMARK INTER + INTRA:          -5.042
REMARK INTER:                  -5.042
REMARK INTRA:                   0.000
REMARK UNBOUND:                 0.000
REMARK SMILES C=C1CCC[C@]2(C)CC(=O)C(=C(C)C)C[C@H]12
REMARK SMILES IDX 13 1 12 2 11 3 15 4 16 5 2 6 1 7 3 8 4 9 5 10 6 11 8 12 9 13
REMARK SMILES IDX 10 14 7 15 14 16
REMARK H PARENT
REMARK Flexibility Score: inf
ROOT
ATOM      1  C   UNL     1      15.316  25.099  42.042  1.00  0.00     0.039 C 
ATOM      2  C   UNL     1      15.543  26.540  42.437  1.00  0.00    -0.070 C 
ATOM      3  C   UNL     1      16.800  27.066  42.509  1.00  0.00    -0.006 C 
ATOM      4  C   UNL     1      18.035  26.242  42.206  1.00  0.00     0.047 C 
ATOM      5  C   UNL     1      19.171  27.061  41.537  1.00  0.00     0.025 C 
ATOM      6  C   UNL     1      20.430  26.208  41.502  1.00  0.00    -0.073 C 
ATOM      7  C   UNL     1      20.768  25.536  40.391  1.00  0.00     0.008 C 
ATOM      8  C   UNL     1      21.205  26.005  42.787  1.00  0.00     0.031 C 
ATOM      9  C   UNL     1      21.420  27.327  43.535  1.00  0.00     0.005 C 
ATOM     10  C   UNL     1      20.136  28.172  43.630  1.00  0.00     0.008 C 
ATOM     11  C   UNL     1      19.471  28.422  42.243  1.00  0.00    -0.018 C 
ATOM     12  C   UNL     1      18.163  29.238  42.417  1.00  0.00     0.088 C 
ATOM     13  C   UNL     1      17.057  28.432  43.019  1.00  0.00     0.159 C 
ATOM     14  O   UNL     1      16.365  28.926  43.949  1.00  0.00    -0.295 OA
ATOM     15  C   UNL     1      20.416  29.273  41.353  1.00  0.00     0.012 C 
ATOM     16  C   UNL     1      14.319  27.384  42.708  1.00  0.00     0.039 C 
ENDROOT
TORSDOF 0
ENDMDL
MODEL 5
REMARK VINA RESULT:    -5.022      2.133      3.797
REMARK INTER + INTRA:          -5.022
REMARK INTER:                  -5.022
REMARK INTRA:                   0.000
REMARK UNBOUND:                 0.000
REMARK SMILES C=C1CCC[C@]2(C)CC(=O)C(=C(C)C)C[C@H]12
REMARK SMILES IDX 13 1 12 2 11 3 15 4 16 5 2 6 1 7 3 8 4 9 5 10 6 11 8 12 9 13
REMARK SMILES IDX 10 14 7 15 14 16
REMARK H PARENT
REMARK Flexibility Score: inf
ROOT
ATOM      1  C   UNL     1      19.271  28.517  44.280  1.00  0.00     0.039 C 
ATOM      2  C   UNL     1      19.601  27.924  42.929  1.00  0.00    -0.070 C 
ATOM      3  C   UNL     1      18.729  27.094  42.288  1.00  0.00    -0.006 C 
ATOM      4  C   UNL     1      17.391  26.713  42.887  1.00  0.00     0.047 C 
ATOM      5  C   UNL     1      16.273  26.526  41.828  1.00  0.00     0.025 C 
ATOM      6  C   UNL     1      15.056  25.917  42.506  1.00  0.00    -0.073 C 
ATOM      7  C   UNL     1      14.035  26.694  42.901  1.00  0.00     0.008 C 
ATOM      8  C   UNL     1      15.086  24.448  42.870  1.00  0.00     0.031 C 
ATOM      9  C   UNL     1      15.595  23.586  41.706  1.00  0.00     0.005 C 
ATOM     10  C   UNL     1      16.863  24.162  41.050  1.00  0.00     0.008 C 
ATOM     11  C   UNL     1      16.697  25.647  40.609  1.00  0.00    -0.018 C 
ATOM     12  C   UNL     1      18.023  26.174  39.999  1.00  0.00     0.088 C 
ATOM     13  C   UNL     1      19.082  26.397  41.030  1.00  0.00     0.159 C 
ATOM     14  O   UNL     1      20.254  25.988  40.813  1.00  0.00    -0.295 OA
ATOM     15  C   UNL     1      15.620  25.745  39.495  1.00  0.00     0.012 C 
ATOM     16  C   UNL     1      20.917  28.322  42.303  1.00  0.00     0.039 C 
ENDROOT
TORSDOF 0
ENDMDL
MODEL 6
REMARK VINA RESULT:    -4.931      1.790      4.584
REMARK INTER + INTRA:          -4.931
REMARK INTER:                  -4.931
REMARK INTRA:                   0.000
REMARK UNBOUND:                 0.000
REMARK SMILES C=C1CCC[C@]2(C)CC(=O)C(=C(C)C)C[C@H]12
REMARK SMILES IDX 13 1 12 2 11 3 15 4 16 5 2 6 1 7 3 8 4 9 5 10 6 11 8 12 9 13
REMARK SMILES IDX 10 14 7 15 14 16
REMARK H PARENT
REMARK Flexibility Score: inf
ROOT
ATOM      1  C   UNL     1      16.644  24.579  41.110  1.00  0.00     0.039 C 
ATOM      2  C   UNL     1      16.726  25.948  41.747  1.00  0.00    -0.070 C 
ATOM      3  C   UNL     1      17.923  26.578  41.920  1.00  0.00    -0.006 C 
ATOM      4  C   UNL     1      19.234  25.949  41.494  1.00  0.00     0.047 C 
ATOM      5  C   UNL     1      20.275  26.981  40.986  1.00  0.00     0.025 C 
ATOM      6  C   UNL     1      21.614  26.279  40.819  1.00  0.00    -0.073 C 
ATOM      7  C   UNL     1      22.011  25.844  39.613  1.00  0.00     0.008 C 
ATOM      8  C   UNL     1      22.416  25.940  42.057  1.00  0.00     0.031 C 
ATOM      9  C   UNL     1      22.500  27.131  43.022  1.00  0.00     0.005 C 
ATOM     10  C   UNL     1      21.137  27.811  43.246  1.00  0.00     0.008 C 
ATOM     11  C   UNL     1      20.440  28.225  41.915  1.00  0.00    -0.018 C 
ATOM     12  C   UNL     1      19.057  28.862  42.213  1.00  0.00     0.088 C 
ATOM     13  C   UNL     1      18.043  27.856  42.658  1.00  0.00     0.159 C 
ATOM     14  O   UNL     1      17.312  28.112  43.651  1.00  0.00    -0.295 OA
ATOM     15  C   UNL     1      21.287  29.307  41.194  1.00  0.00     0.012 C 
ATOM     16  C   UNL     1      15.424  26.603  42.146  1.00  0.00     0.039 C 
ENDROOT
TORSDOF 0
ENDMDL
MODEL 7
REMARK VINA RESULT:    -4.828      2.322      4.925
REMARK INTER + INTRA:          -4.828
REMARK INTER:                  -4.828
REMARK INTRA:                   0.000
REMARK UNBOUND:                 0.000
REMARK SMILES C=C1CCC[C@]2(C)CC(=O)C(=C(C)C)C[C@H]12
REMARK SMILES IDX 13 1 12 2 11 3 15 4 16 5 2 6 1 7 3 8 4 9 5 10 6 11 8 12 9 13
REMARK SMILES IDX 10 14 7 15 14 16
REMARK H PARENT
REMARK Flexibility Score: inf
ROOT
ATOM      1  C   UNL     1      19.169  26.960  37.604  1.00  0.00     0.039 C 
ATOM      2  C   UNL     1      18.395  26.550  38.836  1.00  0.00    -0.070 C 
ATOM      3  C   UNL     1      18.928  26.685  40.084  1.00  0.00    -0.006 C 
ATOM      4  C   UNL     1      20.319  27.242  40.311  1.00  0.00     0.047 C 
ATOM      5  C   UNL     1      20.444  28.070  41.617  1.00  0.00     0.025 C 
ATOM      6  C   UNL     1      21.914  28.370  41.864  1.00  0.00    -0.073 C 
ATOM      7  C   UNL     1      22.439  29.552  41.506  1.00  0.00     0.008 C 
ATOM      8  C   UNL     1      22.808  27.258  42.371  1.00  0.00     0.031 C 
ATOM      9  C   UNL     1      22.164  26.505  43.543  1.00  0.00     0.005 C 
ATOM     10  C   UNL     1      20.691  26.141  43.279  1.00  0.00     0.008 C 
ATOM     11  C   UNL     1      19.827  27.372  42.871  1.00  0.00    -0.018 C 
ATOM     12  C   UNL     1      18.370  26.928  42.578  1.00  0.00     0.088 C 
ATOM     13  C   UNL     1      18.246  26.171  41.294  1.00  0.00     0.159 C 
ATOM     14  O   UNL     1      17.567  25.110  41.263  1.00  0.00    -0.295 OA
ATOM     15  C   UNL     1      19.760  28.380  44.049  1.00  0.00     0.012 C 
ATOM     16  C   UNL     1      16.993  26.025  38.629  1.00  0.00     0.039 C 
ENDROOT
TORSDOF 0
ENDMDL
MODEL 8
REMARK VINA RESULT:    -4.757      2.899      4.175
REMARK INTER + INTRA:          -4.757
REMARK INTER:                  -4.757
REMARK INTRA:                   0.000
REMARK UNBOUND:                 0.000
REMARK SMILES C=C1CCC[C@]2(C)CC(=O)C(=C(C)C)C[C@H]12
REMARK SMILES IDX 13 1 12 2 11 3 15 4 16 5 2 6 1 7 3 8 4 9 5 10 6 11 8 12 9 13
REMARK SMILES IDX 10 14 7 15 14 16
REMARK H PARENT
REMARK Flexibility Score: inf
ROOT
ATOM      1  C   UNL     1      22.609  30.625  38.978  1.00  0.00     0.039 C 
ATOM      2  C   UNL     1      23.154  30.296  40.349  1.00  0.00    -0.070 C 
ATOM      3  C   UNL     1      22.465  29.495  41.212  1.00  0.00    -0.006 C 
ATOM      4  C   UNL     1      21.120  28.895  40.855  1.00  0.00     0.047 C 
ATOM      5  C   UNL     1      20.894  27.486  41.462  1.00  0.00     0.025 C 
ATOM      6  C   UNL     1      19.442  27.090  41.247  1.00  0.00    -0.073 C 
ATOM      7  C   UNL     1      19.096  26.295  40.223  1.00  0.00     0.008 C 
ATOM      8  C   UNL     1      18.377  27.735  42.108  1.00  0.00     0.031 C 
ATOM      9  C   UNL     1      18.767  27.727  43.592  1.00  0.00     0.005 C 
ATOM     10  C   UNL     1      20.218  28.185  43.829  1.00  0.00     0.008 C 
ATOM     11  C   UNL     1      21.252  27.386  42.979  1.00  0.00    -0.018 C 
ATOM     12  C   UNL     1      22.683  27.928  43.232  1.00  0.00     0.088 C 
ATOM     13  C   UNL     1      22.912  29.266  42.605  1.00  0.00     0.159 C 
ATOM     14  O   UNL     1      23.477  30.174  43.270  1.00  0.00    -0.295 OA
ATOM     15  C   UNL     1      21.252  25.897  43.418  1.00  0.00     0.012 C 
ATOM     16  C   UNL     1      24.510  30.858  40.707  1.00  0.00     0.039 C 
ENDROOT
TORSDOF 0
ENDMDL
MODEL 9
REMARK VINA RESULT:    -4.749      2.404      3.733
REMARK INTER + INTRA:          -4.749
REMARK INTER:                  -4.749
REMARK INTRA:                   0.000
REMARK UNBOUND:                 0.000
REMARK SMILES C=C1CCC[C@]2(C)CC(=O)C(=C(C)C)C[C@H]12
REMARK SMILES IDX 13 1 12 2 11 3 15 4 16 5 2 6 1 7 3 8 4 9 5 10 6 11 8 12 9 13
REMARK SMILES IDX 10 14 7 15 14 16
REMARK H PARENT
REMARK Flexibility Score: inf
ROOT
ATOM      1  C   UNL     1      18.556  26.610  37.322  1.00  0.00     0.039 C 
ATOM      2  C   UNL     1      19.887  26.817  38.008  1.00  0.00    -0.070 C 
ATOM      3  C   UNL     1      19.965  27.048  39.350  1.00  0.00    -0.006 C 
ATOM      4  C   UNL     1      18.731  27.117  40.228  1.00  0.00     0.047 C 
ATOM      5  C   UNL     1      18.963  26.562  41.658  1.00  0.00     0.025 C 
ATOM      6  C   UNL     1      17.752  26.899  42.513  1.00  0.00    -0.073 C 
ATOM      7  C   UNL     1      16.787  25.988  42.719  1.00  0.00     0.008 C 
ATOM      8  C   UNL     1      17.575  28.324  42.993  1.00  0.00     0.031 C 
ATOM      9  C   UNL     1      18.875  28.889  43.580  1.00  0.00     0.005 C 
ATOM     10  C   UNL     1      20.101  28.607  42.691  1.00  0.00     0.008 C 
ATOM     11  C   UNL     1      20.261  27.097  42.342  1.00  0.00    -0.018 C 
ATOM     12  C   UNL     1      21.485  26.891  41.411  1.00  0.00     0.088 C 
ATOM     13  C   UNL     1      21.241  27.385  40.021  1.00  0.00     0.159 C 
ATOM     14  O   UNL     1      22.121  28.079  39.447  1.00  0.00    -0.295 OA
ATOM     15  C   UNL     1      20.541  26.286  43.637  1.00  0.00     0.012 C 
ATOM     16  C   UNL     1      21.128  26.717  37.152  1.00  0.00     0.039 C 
ENDROOT
TORSDOF 0
ENDMDL
