MODEL 1
REMARK VINA RESULT:    -2.465      0.000      0.000
REMARK INTER + INTRA:          -2.465
REMARK INTER:                  -2.465
REMARK INTRA:                   0.000
REMARK UNBOUND:                 0.000
REMARK SMILES CC1(C)[C@H]2CC[C@]1(C)C(=O)C2
REMARK SMILES IDX 1 1 2 2 4 3 5 4 6 5 7 6 9 7 10 8 11 9 8 10 3 11
REMARK H PARENT
REMARK Flexibility Score: inf
ROOT
ATOM      1  C   UNL     1     118.341 123.568 105.723  1.00  0.00     0.012 C 
ATOM      2  C   UNL     1     117.552 124.781 106.306  1.00  0.00    -0.020 C 
ATOM      3  C   UNL     1     117.747 124.972 107.829  1.00  0.00     0.003 C 
ATOM      4  C   UNL     1     116.741 126.110 108.161  1.00  0.00     0.005 C 
ATOM      5  C   UNL     1     115.552 125.808 107.215  1.00  0.00     0.015 C 
ATOM      6  C   UNL     1     116.032 124.548 106.456  1.00  0.00     0.032 C 
ATOM      7  C   UNL     1     116.020 123.449 107.488  1.00  0.00     0.139 C 
ATOM      8  O   UNL     1     115.178 122.570 107.591  1.00  0.00    -0.299 OA
ATOM      9  C   UNL     1     117.155 123.672 108.439  1.00  0.00     0.080 C 
ATOM     10  C   UNL     1     115.258 124.238 105.170  1.00  0.00     0.020 C 
ATOM     11  C   UNL     1     117.959 126.022 105.456  1.00  0.00     0.012 C 
ENDROOT
TORSDOF 0
ENDMDL
MODEL 2
REMARK VINA RESULT:    -2.460     10.878     12.287
REMARK INTER + INTRA:          -2.460
REMARK INTER:                  -2.460
REMARK INTRA:                   0.000
REMARK UNBOUND:                 0.000
REMARK SMILES CC1(C)[C@H]2CC[C@]1(C)C(=O)C2
REMARK SMILES IDX 1 1 2 2 4 3 5 4 6 5 7 6 9 7 10 8 11 9 8 10 3 11
REMARK H PARENT
REMARK Flexibility Score: inf
ROOT
ATOM      1  C   UNL     1     123.543 113.691 105.730  1.00  0.00     0.012 C 
ATOM      2  C   UNL     1     124.770 114.458 106.315  1.00  0.00    -0.020 C 
ATOM      3  C   UNL     1     124.970 114.238 107.834  1.00  0.00     0.003 C 
ATOM      4  C   UNL     1     126.121 115.226 108.172  1.00  0.00     0.005 C 
ATOM      5  C   UNL     1     125.826 116.432 107.246  1.00  0.00     0.015 C 
ATOM      6  C   UNL     1     124.556 115.978 106.490  1.00  0.00     0.032 C 
ATOM      7  C   UNL     1     123.464 115.988 107.530  1.00  0.00     0.139 C 
ATOM      8  O   UNL     1     122.596 116.838 107.652  1.00  0.00    -0.299 OA
ATOM      9  C   UNL     1     123.681 114.836 108.462  1.00  0.00     0.080 C 
ATOM     10  C   UNL     1     124.245 116.775 105.218  1.00  0.00     0.020 C 
ATOM     11  C   UNL     1     125.999 114.049 105.451  1.00  0.00     0.012 C 
ENDROOT
TORSDOF 0
ENDMDL
MODEL 3
REMARK VINA RESULT:    -2.455     16.004     17.301
REMARK INTER + INTRA:          -2.455
REMARK INTER:                  -2.455
REMARK INTRA:                   0.000
REMARK UNBOUND:                 0.000
REMARK SMILES CC1(C)[C@H]2CC[C@]1(C)C(=O)C2
REMARK SMILES IDX 1 1 2 2 4 3 5 4 6 5 7 6 9 7 10 8 11 9 8 10 3 11
REMARK H PARENT
REMARK Flexibility Score: inf
ROOT
ATOM      1  C   UNL     1     113.726 108.588 105.769  1.00  0.00     0.012 C 
ATOM      2  C   UNL     1     114.468 107.336 106.331  1.00  0.00    -0.020 C 
ATOM      3  C   UNL     1     114.243 107.110 107.845  1.00  0.00     0.003 C 
ATOM      4  C   UNL     1     115.208 105.934 108.161  1.00  0.00     0.005 C 
ATOM      5  C   UNL     1     116.421 106.223 107.242  1.00  0.00     0.015 C 
ATOM      6  C   UNL     1     115.991 107.517 106.510  1.00  0.00     0.032 C 
ATOM      7  C   UNL     1     116.022 108.588 107.571  1.00  0.00     0.139 C 
ATOM      8  O   UNL     1     116.889 109.437 107.710  1.00  0.00    -0.299 OA
ATOM      9  C   UNL     1     114.865 108.375 108.498  1.00  0.00     0.080 C 
ATOM     10  C   UNL     1     116.795 107.836 105.245  1.00  0.00     0.020 C 
ATOM     11  C   UNL     1     114.036 106.131 105.442  1.00  0.00     0.012 C 
ENDROOT
TORSDOF 0
ENDMDL
MODEL 4
REMARK VINA RESULT:    -2.442     10.857     12.250
REMARK INTER + INTRA:          -2.442
REMARK INTER:                  -2.442
REMARK INTRA:                   0.000
REMARK UNBOUND:                 0.000
REMARK SMILES CC1(C)[C@H]2CC[C@]1(C)C(=O)C2
REMARK SMILES IDX 1 1 2 2 4 3 5 4 6 5 7 6 9 7 10 8 11 9 8 10 3 11
REMARK H PARENT
REMARK Flexibility Score: inf
ROOT
ATOM      1  C   UNL     1     108.607 118.231 105.747  1.00  0.00     0.012 C 
ATOM      2  C   UNL     1     107.343 117.508 106.308  1.00  0.00    -0.020 C 
ATOM      3  C   UNL     1     107.108 117.755 107.817  1.00  0.00     0.003 C 
ATOM      4  C   UNL     1     105.919 116.806 108.137  1.00  0.00     0.005 C 
ATOM      5  C   UNL     1     106.204 115.578 107.235  1.00  0.00     0.015 C 
ATOM      6  C   UNL     1     107.508 115.985 106.509  1.00  0.00     0.032 C 
ATOM      7  C   UNL     1     108.569 115.959 107.579  1.00  0.00     0.139 C 
ATOM      8  O   UNL     1     109.409 115.085 107.737  1.00  0.00    -0.299 OA
ATOM      9  C   UNL     1     108.361 117.130 108.489  1.00  0.00     0.080 C 
ATOM     10  C   UNL     1     107.830 115.162 105.257  1.00  0.00     0.020 C 
ATOM     11  C   UNL     1     106.150 117.940 105.404  1.00  0.00     0.012 C 
ENDROOT
TORSDOF 0
ENDMDL
MODEL 5
REMARK VINA RESULT:    -2.417     13.228     14.503
REMARK INTER + INTRA:          -2.417
REMARK INTER:                  -2.417
REMARK INTRA:                   0.000
REMARK UNBOUND:                 0.000
REMARK SMILES CC1(C)[C@H]2CC[C@]1(C)C(=O)C2
REMARK SMILES IDX 1 1 2 2 4 3 5 4 6 5 7 6 9 7 10 8 11 9 8 10 3 11
REMARK H PARENT
REMARK Flexibility Score: inf
ROOT
ATOM      1  C   UNL     1     116.116 109.740 108.767  1.00  0.00     0.012 C 
ATOM      2  C   UNL     1     117.283 109.861 107.737  1.00  0.00    -0.020 C 
ATOM      3  C   UNL     1     118.518 109.003 108.099  1.00  0.00     0.003 C 
ATOM      4  C   UNL     1     119.559 109.436 107.029  1.00  0.00     0.005 C 
ATOM      5  C   UNL     1     119.260 110.946 106.847  1.00  0.00     0.015 C 
ATOM      6  C   UNL     1     118.083 111.179 107.823  1.00  0.00     0.032 C 
ATOM      7  C   UNL     1     118.690 111.048 109.197  1.00  0.00     0.139 C 
ATOM      8  O   UNL     1     118.967 111.969 109.950  1.00  0.00    -0.299 OA
ATOM      9  C   UNL     1     118.999 109.605 109.448  1.00  0.00     0.080 C 
ATOM     10  C   UNL     1     117.296 112.473 107.583  1.00  0.00     0.020 C 
ATOM     11  C   UNL     1     116.674 109.535 106.341  1.00  0.00     0.012 C 
ENDROOT
TORSDOF 0
ENDMDL
MODEL 6
REMARK VINA RESULT:    -2.415      3.367      4.693
REMARK INTER + INTRA:          -2.415
REMARK INTER:                  -2.415
REMARK INTRA:                   0.000
REMARK UNBOUND:                 0.000
REMARK SMILES CC1(C)[C@H]2CC[C@]1(C)C(=O)C2
REMARK SMILES IDX 1 1 2 2 4 3 5 4 6 5 7 6 9 7 10 8 11 9 8 10 3 11
REMARK H PARENT
REMARK Flexibility Score: inf
ROOT
ATOM      1  C   UNL     1     115.832 122.218 108.758  1.00  0.00     0.012 C 
ATOM      2  C   UNL     1     114.663 122.145 107.727  1.00  0.00    -0.020 C 
ATOM      3  C   UNL     1     113.452 123.032 108.101  1.00  0.00     0.003 C 
ATOM      4  C   UNL     1     112.400 122.644 107.025  1.00  0.00     0.005 C 
ATOM      5  C   UNL     1     112.657 121.129 106.820  1.00  0.00     0.015 C 
ATOM      6  C   UNL     1     113.827 120.849 107.793  1.00  0.00     0.032 C 
ATOM      7  C   UNL     1     113.223 120.976 109.168  1.00  0.00     0.139 C 
ATOM      8  O   UNL     1     112.920 120.052 109.908  1.00  0.00    -0.299 OA
ATOM      9  C   UNL     1     112.953 122.424 109.441  1.00  0.00     0.080 C 
ATOM     10  C   UNL     1     114.577 119.537 107.534  1.00  0.00     0.020 C 
ATOM     11  C   UNL     1     115.282 122.475 106.336  1.00  0.00     0.012 C 
ENDROOT
TORSDOF 0
ENDMDL
MODEL 7
REMARK VINA RESULT:    -2.408      7.042      8.324
REMARK INTER + INTRA:          -2.408
REMARK INTER:                  -2.408
REMARK INTRA:                   0.000
REMARK UNBOUND:                 0.000
REMARK SMILES CC1(C)[C@H]2CC[C@]1(C)C(=O)C2
REMARK SMILES IDX 1 1 2 2 4 3 5 4 6 5 7 6 9 7 10 8 11 9 8 10 3 11
REMARK H PARENT
REMARK Flexibility Score: inf
ROOT
ATOM      1  C   UNL     1     122.197 116.161 108.733  1.00  0.00     0.012 C 
ATOM      2  C   UNL     1     122.101 117.310 107.681  1.00  0.00    -0.020 C 
ATOM      3  C   UNL     1     123.005 118.523 108.005  1.00  0.00     0.003 C 
ATOM      4  C   UNL     1     122.592 119.556 106.920  1.00  0.00     0.005 C 
ATOM      5  C   UNL     1     121.071 119.304 106.763  1.00  0.00     0.015 C 
ATOM      6  C   UNL     1     120.811 118.155 107.767  1.00  0.00     0.032 C 
ATOM      7  C   UNL     1     120.981 118.786 109.126  1.00  0.00     0.139 C 
ATOM      8  O   UNL     1     120.080 119.108 109.885  1.00  0.00    -0.299 OA
ATOM      9  C   UNL     1     122.437 119.052 109.352  1.00  0.00     0.080 C 
ATOM     10  C   UNL     1     119.489 117.408 107.560  1.00  0.00     0.020 C 
ATOM     11  C   UNL     1     122.388 116.662 106.294  1.00  0.00     0.012 C 
ENDROOT
TORSDOF 0
ENDMDL
MODEL 8
REMARK VINA RESULT:    -2.394     11.242     12.816
REMARK INTER + INTRA:          -2.394
REMARK INTER:                  -2.394
REMARK INTRA:                   0.000
REMARK UNBOUND:                 0.000
REMARK SMILES CC1(C)[C@H]2CC[C@]1(C)C(=O)C2
REMARK SMILES IDX 1 1 2 2 4 3 5 4 6 5 7 6 9 7 10 8 11 9 8 10 3 11
REMARK H PARENT
REMARK Flexibility Score: inf
ROOT
ATOM      1  C   UNL     1     109.701 115.832 108.788  1.00  0.00     0.012 C 
ATOM      2  C   UNL     1     109.801 114.652 107.772  1.00  0.00    -0.020 C 
ATOM      3  C   UNL     1     108.955 113.419 108.169  1.00  0.00     0.003 C 
ATOM      4  C   UNL     1     109.367 112.365 107.105  1.00  0.00     0.005 C 
ATOM      5  C   UNL     1     110.871 112.665 106.884  1.00  0.00     0.015 C 
ATOM      6  C   UNL     1     111.124 113.857 107.838  1.00  0.00     0.032 C 
ATOM      7  C   UNL     1     111.026 113.268 109.223  1.00  0.00     0.139 C 
ATOM      8  O   UNL     1     111.964 113.004 109.959  1.00  0.00    -0.299 OA
ATOM      9  C   UNL     1     109.589 112.958 109.511  1.00  0.00     0.080 C 
ATOM     10  C   UNL     1     112.409 114.643 107.558  1.00  0.00     0.020 C 
ATOM     11  C   UNL     1     109.442 115.241 106.375  1.00  0.00     0.012 C 
ENDROOT
TORSDOF 0
ENDMDL
MODEL 9
REMARK VINA RESULT:    -2.384      7.100      8.397
REMARK INTER + INTRA:          -2.384
REMARK INTER:                  -2.384
REMARK INTRA:                   0.000
REMARK UNBOUND:                 0.000
REMARK SMILES CC1(C)[C@H]2CC[C@]1(C)C(=O)C2
REMARK SMILES IDX 1 1 2 2 4 3 5 4 6 5 7 6 9 7 10 8 11 9 8 10 3 11
REMARK H PARENT
REMARK Flexibility Score: inf
ROOT
ATOM      1  C   UNL     1     123.977 118.037 107.868  1.00  0.00     0.012 C 
ATOM      2  C   UNL     1     122.641 118.552 108.488  1.00  0.00    -0.020 C 
ATOM      3  C   UNL     1     121.906 117.492 109.341  1.00  0.00     0.003 C 
ATOM      4  C   UNL     1     120.564 118.199 109.681  1.00  0.00     0.005 C 
ATOM      5  C   UNL     1     120.261 119.005 108.393  1.00  0.00     0.015 C 
ATOM      6  C   UNL     1     121.470 118.667 107.488  1.00  0.00     0.032 C 
ATOM      7  C   UNL     1     121.278 117.218 107.116  1.00  0.00     0.139 C 
ATOM      8  O   UNL     1     120.874 116.800 106.042  1.00  0.00    -0.299 OA
ATOM      9  C   UNL     1     121.564 116.373 108.319  1.00  0.00     0.080 C 
ATOM     10  C   UNL     1     121.672 119.618 106.304  1.00  0.00     0.020 C 
ATOM     11  C   UNL     1     122.990 119.857 109.265  1.00  0.00     0.012 C 
ENDROOT
TORSDOF 0
ENDMDL
