MODEL 1
REMARK VINA RESULT:    -5.265      0.000      0.000
REMARK INTER + INTRA:         -11.808
REMARK INTER:                  -9.113
REMARK INTRA:                  -2.695
REMARK UNBOUND:                -2.695
REMARK SMILES OC[C@@H]1O[C@@H](O)[C@H](O)[C@@H](O)[C@H]1O[C@@H]1O[C@@H](CO)[C@@H](O[C@H]2O[C@H](CO)[C@H](O)[C@@H](O)[C@@H]2O)[C@@H](O)[C@H]1O
REMARK SMILES IDX 18 1 15 2 14 3 13 4 33 5 31 6 19 7 20 8 22 9 25 10 21 11
REMARK SMILES IDX 27 12 29 13 23 14 24 15 26 17 28 19 30 21 16 23 17 24 32 26
REMARK SMILES IDX 34 28 12 30 11 31 3 32 9 33 4 34 7 35 5 36 2 37 1 38 10 40
REMARK SMILES IDX 8 42 6 44
REMARK H PARENT 24 16 26 18 28 20 30 22 17 25 32 27 34 29 1 39 10 41 8 43 6 45
REMARK Flexibility Score: inf
ROOT
ATOM      1  C   UNL     1      35.708 -13.094  12.292  1.00  0.00     0.184 C 
ATOM      2  C   UNL     1      35.864 -14.377  11.413  1.00  0.00     0.178 C 
ATOM      3  O   UNL     1      37.199 -14.692  11.031  1.00  0.00    -0.341 OA
ATOM      4  C   UNL     1      38.163 -14.353  12.011  1.00  0.00     0.282 C 
ATOM      5  C   UNL     1      38.241 -12.803  12.174  1.00  0.00     0.202 C 
ATOM      6  C   UNL     1      36.863 -12.135  11.937  1.00  0.00     0.180 C 
ENDROOT
BRANCH   1   7
ATOM      7  O   UNL     1      35.719 -13.419  13.680  1.00  0.00    -0.341 OA
BRANCH   7   8
ATOM      8  C   UNL     1      34.456 -13.176  14.294  1.00  0.00     0.282 C 
ATOM      9  C   UNL     1      35.127 -13.847  16.452  1.00  0.00     0.178 C 
ATOM     10  C   UNL     1      34.962 -12.440  17.051  1.00  0.00     0.177 C 
ATOM     11  O   UNL     1      34.225 -14.064  15.381  1.00  0.00    -0.341 OA
ATOM     12  C   UNL     1      35.207 -11.393  15.952  1.00  0.00     0.179 C 
ATOM     13  C   UNL     1      34.340 -11.694  14.718  1.00  0.00     0.202 C 
BRANCH   9  14
ATOM     14  C   UNL     1      34.903 -14.924  17.523  1.00  0.00     0.191 C 
BRANCH  14  15
ATOM     15  O   UNL     1      35.421 -14.498  18.758  1.00  0.00    -0.394 OA
ATOM     16  H   UNL     1      36.091 -13.797  18.548  1.00  0.00     0.210 HD
ENDBRANCH  14  15
ENDBRANCH   9  14
BRANCH  10  17
ATOM     17  O   UNL     1      33.672 -12.299  17.588  1.00  0.00    -0.387 OA
ATOM     18  H   UNL     1      33.665 -11.453  18.108  1.00  0.00     0.211 HD
ENDBRANCH  10  17
BRANCH  12  19
ATOM     19  O   UNL     1      36.568 -11.403  15.588  1.00  0.00    -0.387 OA
ATOM     20  H   UNL     1      36.654 -10.890  14.739  1.00  0.00     0.211 HD
ENDBRANCH  12  19
BRANCH  13  21
ATOM     21  O   UNL     1      32.999 -11.382  15.001  1.00  0.00    -0.385 OA
ATOM     22  H   UNL     1      32.833 -10.474  14.636  1.00  0.00     0.211 HD
ENDBRANCH  13  21
ENDBRANCH   7   8
ENDBRANCH   1   7
BRANCH   2  23
ATOM     23  C   UNL     1      35.136 -15.620  11.946  1.00  0.00     0.191 C 
BRANCH  23  24
ATOM     24  O   UNL     1      35.819 -16.176  13.034  1.00  0.00    -0.394 OA
ATOM     25  H   UNL     1      36.774 -15.955  12.901  1.00  0.00     0.210 HD
ENDBRANCH  23  24
ENDBRANCH   2  23
BRANCH   6  26
ATOM     26  O   UNL     1      36.757 -10.931  12.658  1.00  0.00    -0.387 OA
ATOM     27  H   UNL     1      37.675 -10.704  12.962  1.00  0.00     0.211 HD
ENDBRANCH   6  26
BRANCH   5  28
ATOM     28  O   UNL     1      38.767 -12.440  13.431  1.00  0.00    -0.385 OA
ATOM     29  H   UNL     1      38.004 -12.190  14.015  1.00  0.00     0.211 HD
ENDBRANCH   5  28
BRANCH   4  30
ATOM     30  O   UNL     1      39.406 -14.872  11.563  1.00  0.00    -0.341 OA
BRANCH  30  31
ATOM     31  C   UNL     1      39.847 -15.999  12.307  1.00  0.00     0.184 C 
ATOM     32  C   UNL     1      39.255 -15.961  13.754  1.00  0.00     0.178 C 
ATOM     33  C   UNL     1      39.368 -17.273  11.588  1.00  0.00     0.180 C 
ATOM     34  O   UNL     1      38.985 -17.252  14.300  1.00  0.00    -0.342 OA
ATOM     35  C   UNL     1      39.773 -18.533  12.395  1.00  0.00     0.201 C 
ATOM     36  C   UNL     1      39.941 -18.216  13.899  1.00  0.00     0.279 C 
BRANCH  32  37
ATOM     37  C   UNL     1      40.137 -15.146  14.717  1.00  0.00     0.191 C 
BRANCH  37  38
ATOM     38  O   UNL     1      40.967 -14.279  13.988  1.00  0.00    -0.394 OA
ATOM     39  H   UNL     1      41.071 -13.462  14.544  1.00  0.00     0.210 HD
ENDBRANCH  37  38
ENDBRANCH  32  37
BRANCH  33  40
ATOM     40  O   UNL     1      37.966 -17.246  11.446  1.00  0.00    -0.387 OA
ATOM     41  H   UNL     1      37.743 -17.756  10.620  1.00  0.00     0.211 HD
ENDBRANCH  33  40
BRANCH  35  42
ATOM     42  O   UNL     1      40.947 -19.112  11.880  1.00  0.00    -0.385 OA
ATOM     43  H   UNL     1      40.892 -19.090  10.888  1.00  0.00     0.211 HD
ENDBRANCH  35  42
BRANCH  36  44
ATOM     44  O   UNL     1      39.747 -19.393  14.640  1.00  0.00    -0.366 OA
ATOM     45  H   UNL     1      40.639 -19.812  14.749  1.00  0.00     0.213 HD
ENDBRANCH  36  44
ENDBRANCH  30  31
ENDBRANCH   4  30
TORSDOF 18
ENDMDL
MODEL 2
REMARK VINA RESULT:    -5.009      3.754      6.833
REMARK INTER + INTRA:         -11.364
REMARK INTER:                  -9.574
REMARK INTRA:                  -1.791
REMARK UNBOUND:                -2.695
REMARK SMILES OC[C@@H]1O[C@@H](O)[C@H](O)[C@@H](O)[C@H]1O[C@@H]1O[C@@H](CO)[C@@H](O[C@H]2O[C@H](CO)[C@H](O)[C@@H](O)[C@@H]2O)[C@@H](O)[C@H]1O
REMARK SMILES IDX 18 1 15 2 14 3 13 4 33 5 31 6 19 7 20 8 22 9 25 10 21 11
REMARK SMILES IDX 27 12 29 13 23 14 24 15 26 17 28 19 30 21 16 23 17 24 32 26
REMARK SMILES IDX 34 28 12 30 11 31 3 32 9 33 4 34 7 35 5 36 2 37 1 38 10 40
REMARK SMILES IDX 8 42 6 44
REMARK H PARENT 24 16 26 18 28 20 30 22 17 25 32 27 34 29 1 39 10 41 8 43 6 45
REMARK Flexibility Score: inf
ROOT
ATOM      1  C   UNL     1      37.981 -18.811  12.010  1.00  0.00     0.184 C 
ATOM      2  C   UNL     1      36.932 -19.721  12.729  1.00  0.00     0.178 C 
ATOM      3  O   UNL     1      37.466 -20.605  13.709  1.00  0.00    -0.341 OA
ATOM      4  C   UNL     1      38.575 -20.070  14.409  1.00  0.00     0.282 C 
ATOM      5  C   UNL     1      39.789 -19.903  13.444  1.00  0.00     0.202 C 
ATOM      6  C   UNL     1      39.330 -19.560  12.004  1.00  0.00     0.180 C 
ENDROOT
BRANCH   1   7
ATOM      7  O   UNL     1      38.098 -17.550  12.663  1.00  0.00    -0.341 OA
BRANCH   7   8
ATOM      8  C   UNL     1      37.924 -16.464  11.756  1.00  0.00     0.282 C 
ATOM      9  C   UNL     1      37.481 -14.856  13.422  1.00  0.00     0.178 C 
ATOM     10  C   UNL     1      38.758 -14.051  13.128  1.00  0.00     0.177 C 
ATOM     11  O   UNL     1      36.999 -15.507  12.260  1.00  0.00    -0.341 OA
ATOM     12  C   UNL     1      39.839 -15.001  12.587  1.00  0.00     0.179 C 
ATOM     13  C   UNL     1      39.290 -15.827  11.411  1.00  0.00     0.202 C 
BRANCH   9  14
ATOM     14  C   UNL     1      36.379 -13.942  13.979  1.00  0.00     0.191 C 
BRANCH  14  15
ATOM     15  O   UNL     1      36.943 -12.922  14.764  1.00  0.00    -0.394 OA
ATOM     16  H   UNL     1      37.599 -13.366  15.361  1.00  0.00     0.210 HD
ENDBRANCH  14  15
ENDBRANCH   9  14
BRANCH  10  17
ATOM     17  O   UNL     1      38.480 -13.038  12.195  1.00  0.00    -0.387 OA
ATOM     18  H   UNL     1      38.658 -13.417  11.295  1.00  0.00     0.211 HD
ENDBRANCH  10  17
BRANCH  12  19
ATOM     19  O   UNL     1      40.263 -15.867  13.615  1.00  0.00    -0.387 OA
ATOM     20  H   UNL     1      39.567 -15.850  14.325  1.00  0.00     0.211 HD
ENDBRANCH  12  19
BRANCH  13  21
ATOM     21  O   UNL     1      39.159 -15.002  10.280  1.00  0.00    -0.385 OA
ATOM     22  H   UNL     1      38.371 -14.421  10.441  1.00  0.00     0.211 HD
ENDBRANCH  13  21
ENDBRANCH   7   8
ENDBRANCH   1   7
BRANCH   2  23
ATOM     23  C   UNL     1      35.696 -18.984  13.266  1.00  0.00     0.191 C 
BRANCH  23  24
ATOM     24  O   UNL     1      35.173 -18.111  12.307  1.00  0.00    -0.394 OA
ATOM     25  H   UNL     1      34.394 -17.671  12.730  1.00  0.00     0.210 HD
ENDBRANCH  23  24
ENDBRANCH   2  23
BRANCH   6  26
ATOM     26  O   UNL     1      40.314 -18.819  11.325  1.00  0.00    -0.387 OA
ATOM     27  H   UNL     1      40.043 -17.865  11.391  1.00  0.00     0.211 HD
ENDBRANCH   6  26
BRANCH   5  28
ATOM     28  O   UNL     1      40.703 -18.941  13.923  1.00  0.00    -0.385 OA
ATOM     29  H   UNL     1      40.475 -18.072  13.499  1.00  0.00     0.211 HD
ENDBRANCH   5  28
BRANCH   4  30
ATOM     30  O   UNL     1      38.886 -20.985  15.449  1.00  0.00    -0.341 OA
BRANCH  30  31
ATOM     31  C   UNL     1      38.087 -22.159  15.423  1.00  0.00     0.184 C 
ATOM     32  C   UNL     1      38.949 -23.412  15.792  1.00  0.00     0.178 C 
ATOM     33  C   UNL     1      36.950 -21.997  16.448  1.00  0.00     0.180 C 
ATOM     34  O   UNL     1      38.228 -24.420  16.499  1.00  0.00    -0.342 OA
ATOM     35  C   UNL     1      36.084 -23.282  16.501  1.00  0.00     0.201 C 
ATOM     36  C   UNL     1      36.886 -24.528  16.060  1.00  0.00     0.279 C 
BRANCH  32  37
ATOM     37  C   UNL     1      39.646 -24.015  14.559  1.00  0.00     0.191 C 
BRANCH  37  38
ATOM     38  O   UNL     1      40.249 -25.236  14.899  1.00  0.00    -0.394 OA
ATOM     39  H   UNL     1      39.792 -25.551  15.722  1.00  0.00     0.210 HD
ENDBRANCH  37  38
ENDBRANCH  32  37
BRANCH  33  40
ATOM     40  O   UNL     1      37.488 -21.750  17.726  1.00  0.00    -0.387 OA
ATOM     41  H   UNL     1      37.468 -22.611  18.227  1.00  0.00     0.211 HD
ENDBRANCH  33  40
BRANCH  35  42
ATOM     42  O   UNL     1      34.920 -23.144  15.721  1.00  0.00    -0.385 OA
ATOM     43  H   UNL     1      34.195 -22.803  16.309  1.00  0.00     0.211 HD
ENDBRANCH  35  42
BRANCH  36  44
ATOM     44  O   UNL     1      36.306 -25.672  16.631  1.00  0.00    -0.366 OA
ATOM     45  H   UNL     1      36.719 -26.455  16.184  1.00  0.00     0.213 HD
ENDBRANCH  36  44
ENDBRANCH  30  31
ENDBRANCH   4  30
TORSDOF 18
ENDMDL
MODEL 3
REMARK VINA RESULT:    -4.889      1.549      6.832
REMARK INTER + INTRA:         -11.158
REMARK INTER:                  -8.620
REMARK INTRA:                  -2.538
REMARK UNBOUND:                -2.695
REMARK SMILES OC[C@@H]1O[C@@H](O)[C@H](O)[C@@H](O)[C@H]1O[C@@H]1O[C@@H](CO)[C@@H](O[C@H]2O[C@H](CO)[C@H](O)[C@@H](O)[C@@H]2O)[C@@H](O)[C@H]1O
REMARK SMILES IDX 18 1 15 2 14 3 13 4 33 5 31 6 19 7 20 8 22 9 25 10 21 11
REMARK SMILES IDX 27 12 29 13 23 14 24 15 26 17 28 19 30 21 16 23 17 24 32 26
REMARK SMILES IDX 34 28 12 30 11 31 3 32 9 33 4 34 7 35 5 36 2 37 1 38 10 40
REMARK SMILES IDX 8 42 6 44
REMARK H PARENT 24 16 26 18 28 20 30 22 17 25 32 27 34 29 1 39 10 41 8 43 6 45
REMARK Flexibility Score: inf
ROOT
ATOM      1  C   UNL     1      37.192 -15.925  10.716  1.00  0.00     0.184 C 
ATOM      2  C   UNL     1      37.134 -14.382  10.956  1.00  0.00     0.178 C 
ATOM      3  O   UNL     1      35.879 -13.884  11.408  1.00  0.00    -0.341 OA
ATOM      4  C   UNL     1      35.185 -14.784  12.254  1.00  0.00     0.282 C 
ATOM      5  C   UNL     1      34.750 -16.048  11.450  1.00  0.00     0.202 C 
ATOM      6  C   UNL     1      35.772 -16.398  10.339  1.00  0.00     0.180 C 
ENDROOT
BRANCH   1   7
ATOM      7  O   UNL     1      37.668 -16.606  11.874  1.00  0.00    -0.341 OA
BRANCH   7   8
ATOM      8  C   UNL     1      38.989 -17.109  11.690  1.00  0.00     0.282 C 
ATOM      9  C   UNL     1      39.574 -17.031  13.972  1.00  0.00     0.178 C 
ATOM     10  C   UNL     1      39.706 -18.559  14.095  1.00  0.00     0.177 C 
ATOM     11  O   UNL     1      39.886 -16.587  12.663  1.00  0.00    -0.341 OA
ATOM     12  C   UNL     1      38.758 -19.228  13.085  1.00  0.00     0.179 C 
ATOM     13  C   UNL     1      38.980 -18.654  11.676  1.00  0.00     0.202 C 
BRANCH   9  14
ATOM     14  C   UNL     1      40.497 -16.324  14.975  1.00  0.00     0.191 C 
BRANCH  14  15
ATOM     15  O   UNL     1      40.738 -15.001  14.567  1.00  0.00    -0.394 OA
ATOM     16  H   UNL     1      40.338 -14.420  15.265  1.00  0.00     0.210 HD
ENDBRANCH  14  15
ENDBRANCH   9  14
BRANCH  10  17
ATOM     17  O   UNL     1      41.035 -18.943  13.854  1.00  0.00    -0.387 OA
ATOM     18  H   UNL     1      41.429 -19.190  14.731  1.00  0.00     0.211 HD
ENDBRANCH  10  17
BRANCH  12  19
ATOM     19  O   UNL     1      37.423 -19.012  13.479  1.00  0.00    -0.387 OA
ATOM     20  H   UNL     1      36.855 -19.091  12.666  1.00  0.00     0.211 HD
ENDBRANCH  12  19
BRANCH  13  21
ATOM     21  O   UNL     1      40.198 -19.134  11.161  1.00  0.00    -0.385 OA
ATOM     22  H   UNL     1      40.238 -20.101  11.377  1.00  0.00     0.211 HD
ENDBRANCH  13  21
ENDBRANCH   7   8
ENDBRANCH   1   7
BRANCH   2  23
ATOM     23  C   UNL     1      38.287 -13.813  11.796  1.00  0.00     0.191 C 
BRANCH  23  24
ATOM     24  O   UNL     1      38.110 -14.101  13.154  1.00  0.00    -0.394 OA
ATOM     25  H   UNL     1      38.956 -14.513  13.460  1.00  0.00     0.210 HD
ENDBRANCH  23  24
ENDBRANCH   2  23
BRANCH   6  26
ATOM     26  O   UNL     1      35.758 -17.776  10.058  1.00  0.00    -0.387 OA
ATOM     27  H   UNL     1      35.385 -17.873   9.143  1.00  0.00     0.211 HD
ENDBRANCH   6  26
BRANCH   5  28
ATOM     28  O   UNL     1      34.533 -17.152  12.300  1.00  0.00    -0.385 OA
ATOM     29  H   UNL     1      35.342 -17.727  12.259  1.00  0.00     0.211 HD
ENDBRANCH   5  28
BRANCH   4  30
ATOM     30  O   UNL     1      34.050 -14.091  12.750  1.00  0.00    -0.341 OA
BRANCH  30  31
ATOM     31  C   UNL     1      34.130 -13.799  14.137  1.00  0.00     0.184 C 
ATOM     32  C   UNL     1      35.097 -14.802  14.850  1.00  0.00     0.178 C 
ATOM     33  C   UNL     1      34.665 -12.364  14.302  1.00  0.00     0.180 C 
ATOM     34  O   UNL     1      35.815 -14.231  15.943  1.00  0.00    -0.342 OA
ATOM     35  C   UNL     1      34.828 -12.018  15.805  1.00  0.00     0.201 C 
ATOM     36  C   UNL     1      35.042 -13.288  16.661  1.00  0.00     0.279 C 
BRANCH  32  37
ATOM     37  C   UNL     1      34.371 -16.084  15.295  1.00  0.00     0.191 C 
BRANCH  37  38
ATOM     38  O   UNL     1      33.082 -16.123  14.738  1.00  0.00    -0.394 OA
ATOM     39  H   UNL     1      32.767 -17.060  14.835  1.00  0.00     0.210 HD
ENDBRANCH  37  38
ENDBRANCH  32  37
BRANCH  33  40
ATOM     40  O   UNL     1      35.913 -12.241  13.661  1.00  0.00    -0.387 OA
ATOM     41  H   UNL     1      35.898 -12.843  12.867  1.00  0.00     0.211 HD
ENDBRANCH  33  40
BRANCH  35  42
ATOM     42  O   UNL     1      33.727 -11.282  16.281  1.00  0.00    -0.385 OA
ATOM     43  H   UNL     1      33.010 -11.324  15.594  1.00  0.00     0.211 HD
ENDBRANCH  35  42
BRANCH  36  44
ATOM     44  O   UNL     1      35.720 -12.937  17.839  1.00  0.00    -0.366 OA
ATOM     45  H   UNL     1      35.154 -13.239  18.595  1.00  0.00     0.213 HD
ENDBRANCH  36  44
ENDBRANCH  30  31
ENDBRANCH   4  30
TORSDOF 18
ENDMDL
MODEL 4
REMARK VINA RESULT:    -4.807      1.424      6.791
REMARK INTER + INTRA:         -11.015
REMARK INTER:                  -8.589
REMARK INTRA:                  -2.426
REMARK UNBOUND:                -2.695
REMARK SMILES OC[C@@H]1O[C@@H](O)[C@H](O)[C@@H](O)[C@H]1O[C@@H]1O[C@@H](CO)[C@@H](O[C@H]2O[C@H](CO)[C@H](O)[C@@H](O)[C@@H]2O)[C@@H](O)[C@H]1O
REMARK SMILES IDX 18 1 15 2 14 3 13 4 33 5 31 6 19 7 20 8 22 9 25 10 21 11
REMARK SMILES IDX 27 12 29 13 23 14 24 15 26 17 28 19 30 21 16 23 17 24 32 26
REMARK SMILES IDX 34 28 12 30 11 31 3 32 9 33 4 34 7 35 5 36 2 37 1 38 10 40
REMARK SMILES IDX 8 42 6 44
REMARK H PARENT 24 16 26 18 28 20 30 22 17 25 32 27 34 29 1 39 10 41 8 43 6 45
REMARK Flexibility Score: inf
ROOT
ATOM      1  C   UNL     1      37.844 -14.893  10.987  1.00  0.00     0.184 C 
ATOM      2  C   UNL     1      38.088 -13.388  11.332  1.00  0.00     0.178 C 
ATOM      3  O   UNL     1      36.937 -12.671  11.769  1.00  0.00    -0.341 OA
ATOM      4  C   UNL     1      36.033 -13.459  12.522  1.00  0.00     0.282 C 
ATOM      5  C   UNL     1      35.393 -14.555  11.614  1.00  0.00     0.202 C 
ATOM      6  C   UNL     1      36.380 -15.039  10.522  1.00  0.00     0.180 C 
ENDROOT
BRANCH   1   7
ATOM      7  O   UNL     1      38.111 -15.727  12.111  1.00  0.00    -0.341 OA
BRANCH   7   8
ATOM      8  C   UNL     1      39.304 -16.487  11.939  1.00  0.00     0.282 C 
ATOM      9  C   UNL     1      39.708 -16.787  14.242  1.00  0.00     0.178 C 
ATOM     10  C   UNL     1      39.500 -18.310  14.183  1.00  0.00     0.177 C 
ATOM     11  O   UNL     1      40.211 -16.285  13.016  1.00  0.00    -0.341 OA
ATOM     12  C   UNL     1      38.515 -18.640  13.049  1.00  0.00     0.179 C 
ATOM     13  C   UNL     1      38.966 -17.981  11.734  1.00  0.00     0.202 C 
BRANCH   9  14
ATOM     14  C   UNL     1      40.678 -16.414  15.373  1.00  0.00     0.191 C 
BRANCH  14  15
ATOM     15  O   UNL     1      40.950 -15.036  15.346  1.00  0.00    -0.394 OA
ATOM     16  H   UNL     1      40.694 -14.722  14.440  1.00  0.00     0.210 HD
ENDBRANCH  14  15
ENDBRANCH   9  14
BRANCH  10  17
ATOM     17  O   UNL     1      40.732 -18.951  13.969  1.00  0.00    -0.387 OA
ATOM     18  H   UNL     1      40.701 -19.340  13.056  1.00  0.00     0.211 HD
ENDBRANCH  10  17
BRANCH  12  19
ATOM     19  O   UNL     1      37.229 -18.178  13.393  1.00  0.00    -0.387 OA
ATOM     20  H   UNL     1      37.345 -17.369  13.961  1.00  0.00     0.211 HD
ENDBRANCH  12  19
BRANCH  13  21
ATOM     21  O   UNL     1      40.090 -18.660  11.232  1.00  0.00    -0.385 OA
ATOM     22  H   UNL     1      39.748 -19.382  10.644  1.00  0.00     0.211 HD
ENDBRANCH  13  21
ENDBRANCH   7   8
ENDBRANCH   1   7
BRANCH   2  23
ATOM     23  C   UNL     1      39.286 -13.122  12.255  1.00  0.00     0.191 C 
BRANCH  23  24
ATOM     24  O   UNL     1      38.976 -13.428  13.584  1.00  0.00    -0.394 OA
ATOM     25  H   UNL     1      39.750 -13.935  13.937  1.00  0.00     0.210 HD
ENDBRANCH  23  24
ENDBRANCH   2  23
BRANCH   6  26
ATOM     26  O   UNL     1      36.101 -16.366  10.144  1.00  0.00    -0.387 OA
ATOM     27  H   UNL     1      36.572 -16.948  10.796  1.00  0.00     0.211 HD
ENDBRANCH   6  26
BRANCH   5  28
ATOM     28  O   UNL     1      34.912 -15.641  12.374  1.00  0.00    -0.385 OA
ATOM     29  H   UNL     1      35.109 -15.451  13.329  1.00  0.00     0.211 HD
ENDBRANCH   5  28
BRANCH   4  30
ATOM     30  O   UNL     1      35.037 -12.579  13.020  1.00  0.00    -0.341 OA
BRANCH  30  31
ATOM     31  C   UNL     1      34.813 -12.715  14.416  1.00  0.00     0.184 C 
ATOM     32  C   UNL     1      34.820 -11.312  15.108  1.00  0.00     0.178 C 
ATOM     33  C   UNL     1      33.444 -13.386  14.627  1.00  0.00     0.180 C 
ATOM     34  O   UNL     1      33.935 -11.215  16.223  1.00  0.00    -0.342 OA
ATOM     35  C   UNL     1      33.125 -13.502  16.140  1.00  0.00     0.201 C 
ATOM     36  C   UNL     1      33.866 -12.421  16.961  1.00  0.00     0.279 C 
BRANCH  32  37
ATOM     37  C   UNL     1      36.240 -10.875  15.510  1.00  0.00     0.191 C 
BRANCH  37  38
ATOM     38  O   UNL     1      37.191 -11.672  14.853  1.00  0.00    -0.394 OA
ATOM     39  H   UNL     1      38.038 -11.153  14.856  1.00  0.00     0.210 HD
ENDBRANCH  37  38
ENDBRANCH  32  37
BRANCH  33  40
ATOM     40  O   UNL     1      32.436 -12.626  13.999  1.00  0.00    -0.387 OA
ATOM     41  H   UNL     1      32.880 -11.845  13.568  1.00  0.00     0.211 HD
ENDBRANCH  33  40
BRANCH  35  42
ATOM     42  O   UNL     1      33.430 -14.786  16.627  1.00  0.00    -0.385 OA
ATOM     43  H   UNL     1      34.163 -15.161  16.069  1.00  0.00     0.211 HD
ENDBRANCH  35  42
BRANCH  36  44
ATOM     44  O   UNL     1      33.163 -12.191  18.155  1.00  0.00    -0.366 OA
ATOM     45  H   UNL     1      32.237 -12.515  18.008  1.00  0.00     0.213 HD
ENDBRANCH  36  44
ENDBRANCH  30  31
ENDBRANCH   4  30
TORSDOF 18
ENDMDL
MODEL 5
REMARK VINA RESULT:    -4.794      2.144      3.096
REMARK INTER + INTRA:         -10.992
REMARK INTER:                  -9.003
REMARK INTRA:                  -1.989
REMARK UNBOUND:                -2.695
REMARK SMILES OC[C@@H]1O[C@@H](O)[C@H](O)[C@@H](O)[C@H]1O[C@@H]1O[C@@H](CO)[C@@H](O[C@H]2O[C@H](CO)[C@H](O)[C@@H](O)[C@@H]2O)[C@@H](O)[C@H]1O
REMARK SMILES IDX 18 1 15 2 14 3 13 4 33 5 31 6 19 7 20 8 22 9 25 10 21 11
REMARK SMILES IDX 27 12 29 13 23 14 24 15 26 17 28 19 30 21 16 23 17 24 32 26
REMARK SMILES IDX 34 28 12 30 11 31 3 32 9 33 4 34 7 35 5 36 2 37 1 38 10 40
REMARK SMILES IDX 8 42 6 44
REMARK H PARENT 24 16 26 18 28 20 30 22 17 25 32 27 34 29 1 39 10 41 8 43 6 45
REMARK Flexibility Score: inf
ROOT
ATOM      1  C   UNL     1      34.277 -14.874  12.496  1.00  0.00     0.184 C 
ATOM      2  C   UNL     1      35.115 -16.122  12.067  1.00  0.00     0.178 C 
ATOM      3  O   UNL     1      36.208 -15.850  11.195  1.00  0.00    -0.341 OA
ATOM      4  C   UNL     1      36.827 -14.599  11.439  1.00  0.00     0.282 C 
ATOM      5  C   UNL     1      35.846 -13.438  11.085  1.00  0.00     0.202 C 
ATOM      6  C   UNL     1      34.373 -13.830  11.364  1.00  0.00     0.180 C 
ENDROOT
BRANCH   1   7
ATOM      7  O   UNL     1      34.749 -14.339  13.729  1.00  0.00    -0.341 OA
BRANCH   7   8
ATOM      8  C   UNL     1      33.680 -14.042  14.624  1.00  0.00     0.282 C 
ATOM      9  C   UNL     1      34.971 -14.250  16.586  1.00  0.00     0.178 C 
ATOM     10  C   UNL     1      34.834 -12.763  16.955  1.00  0.00     0.177 C 
ATOM     11  O   UNL     1      33.840 -14.712  15.869  1.00  0.00    -0.341 OA
ATOM     12  C   UNL     1      34.668 -11.938  15.668  1.00  0.00     0.179 C 
ATOM     13  C   UNL     1      33.535 -12.513  14.801  1.00  0.00     0.202 C 
BRANCH   9  14
ATOM     14  C   UNL     1      35.153 -15.108  17.846  1.00  0.00     0.191 C 
BRANCH  14  15
ATOM     15  O   UNL     1      35.868 -14.394  18.822  1.00  0.00    -0.394 OA
ATOM     16  H   UNL     1      35.402 -13.525  18.925  1.00  0.00     0.210 HD
ENDBRANCH  14  15
ENDBRANCH   9  14
BRANCH  10  17
ATOM     17  O   UNL     1      33.728 -12.582  17.803  1.00  0.00    -0.387 OA
ATOM     18  H   UNL     1      32.933 -12.923  17.316  1.00  0.00     0.211 HD
ENDBRANCH  10  17
BRANCH  12  19
ATOM     19  O   UNL     1      35.875 -11.953  14.940  1.00  0.00    -0.387 OA
ATOM     20  H   UNL     1      35.794 -11.278  14.213  1.00  0.00     0.211 HD
ENDBRANCH  12  19
BRANCH  13  21
ATOM     21  O   UNL     1      32.295 -12.217  15.394  1.00  0.00    -0.385 OA
ATOM     22  H   UNL     1      32.219 -12.794  16.198  1.00  0.00     0.211 HD
ENDBRANCH  13  21
ENDBRANCH   7   8
ENDBRANCH   1   7
BRANCH   2  23
ATOM     23  C   UNL     1      35.547 -17.040  13.221  1.00  0.00     0.191 C 
BRANCH  23  24
ATOM     24  O   UNL     1      34.496 -17.245  14.122  1.00  0.00    -0.394 OA
ATOM     25  H   UNL     1      34.787 -17.976  14.722  1.00  0.00     0.210 HD
ENDBRANCH  23  24
ENDBRANCH   2  23
BRANCH   6  26
ATOM     26  O   UNL     1      33.597 -12.694  11.660  1.00  0.00    -0.387 OA
ATOM     27  H   UNL     1      32.750 -13.028  12.056  1.00  0.00     0.211 HD
ENDBRANCH   6  26
BRANCH   5  28
ATOM     28  O   UNL     1      36.187 -12.248  11.761  1.00  0.00    -0.385 OA
ATOM     29  H   UNL     1      36.962 -11.845  11.289  1.00  0.00     0.211 HD
ENDBRANCH   5  28
BRANCH   4  30
ATOM     30  O   UNL     1      37.983 -14.545  10.617  1.00  0.00    -0.341 OA
BRANCH  30  31
ATOM     31  C   UNL     1      39.043 -13.790  11.186  1.00  0.00     0.184 C 
ATOM     32  C   UNL     1      39.564 -14.480  12.490  1.00  0.00     0.178 C 
ATOM     33  C   UNL     1      40.185 -13.705  10.158  1.00  0.00     0.180 C 
ATOM     34  O   UNL     1      40.962 -14.307  12.714  1.00  0.00    -0.342 OA
ATOM     35  C   UNL     1      41.394 -12.940  10.755  1.00  0.00     0.201 C 
ATOM     36  C   UNL     1      41.420 -13.034  12.298  1.00  0.00     0.279 C 
BRANCH  32  37
ATOM     37  C   UNL     1      38.763 -14.046  13.731  1.00  0.00     0.191 C 
BRANCH  37  38
ATOM     38  O   UNL     1      38.495 -12.669  13.670  1.00  0.00    -0.394 OA
ATOM     39  H   UNL     1      39.103 -12.239  14.328  1.00  0.00     0.210 HD
ENDBRANCH  37  38
ENDBRANCH  32  37
BRANCH  33  40
ATOM     40  O   UNL     1      40.595 -15.001   9.787  1.00  0.00    -0.387 OA
ATOM     41  H   UNL     1      39.785 -15.580   9.793  1.00  0.00     0.211 HD
ENDBRANCH  33  40
BRANCH  35  42
ATOM     42  O   UNL     1      41.400 -11.595  10.343  1.00  0.00    -0.385 OA
ATOM     43  H   UNL     1      41.208 -11.029  11.138  1.00  0.00     0.211 HD
ENDBRANCH  35  42
BRANCH  36  44
ATOM     44  O   UNL     1      42.737 -12.848  12.747  1.00  0.00    -0.366 OA
ATOM     45  H   UNL     1      42.844 -11.879  12.927  1.00  0.00     0.213 HD
ENDBRANCH  36  44
ENDBRANCH  30  31
ENDBRANCH   4  30
TORSDOF 18
ENDMDL
MODEL 6
REMARK VINA RESULT:    -4.791      3.384      6.620
REMARK INTER + INTRA:         -10.987
REMARK INTER:                  -8.742
REMARK INTRA:                  -2.245
REMARK UNBOUND:                -2.695
REMARK SMILES OC[C@@H]1O[C@@H](O)[C@H](O)[C@@H](O)[C@H]1O[C@@H]1O[C@@H](CO)[C@@H](O[C@H]2O[C@H](CO)[C@H](O)[C@@H](O)[C@@H]2O)[C@@H](O)[C@H]1O
REMARK SMILES IDX 18 1 15 2 14 3 13 4 33 5 31 6 19 7 20 8 22 9 25 10 21 11
REMARK SMILES IDX 27 12 29 13 23 14 24 15 26 17 28 19 30 21 16 23 17 24 32 26
REMARK SMILES IDX 34 28 12 30 11 31 3 32 9 33 4 34 7 35 5 36 2 37 1 38 10 40
REMARK SMILES IDX 8 42 6 44
REMARK H PARENT 24 16 26 18 28 20 30 22 17 25 32 27 34 29 1 39 10 41 8 43 6 45
REMARK Flexibility Score: inf
ROOT
ATOM      1  C   UNL     1      38.780 -17.906  11.816  1.00  0.00     0.184 C 
ATOM      2  C   UNL     1      37.308 -18.357  11.547  1.00  0.00     0.178 C 
ATOM      3  O   UNL     1      36.959 -19.635  12.070  1.00  0.00    -0.341 OA
ATOM      4  C   UNL     1      37.610 -19.944  13.290  1.00  0.00     0.282 C 
ATOM      5  C   UNL     1      39.143 -20.110  13.052  1.00  0.00     0.202 C 
ATOM      6  C   UNL     1      39.650 -19.176  11.924  1.00  0.00     0.180 C 
ENDROOT
BRANCH   1   7
ATOM      7  O   UNL     1      38.868 -17.122  13.002  1.00  0.00    -0.341 OA
BRANCH   7   8
ATOM      8  C   UNL     1      39.778 -16.034  12.854  1.00  0.00     0.282 C 
ATOM      9  C   UNL     1      38.201 -14.555  11.914  1.00  0.00     0.178 C 
ATOM     10  C   UNL     1      38.246 -13.586  13.108  1.00  0.00     0.177 C 
ATOM     11  O   UNL     1      39.440 -15.220  11.738  1.00  0.00    -0.341 OA
ATOM     12  C   UNL     1      38.594 -14.374  14.382  1.00  0.00     0.179 C 
ATOM     13  C   UNL     1      39.860 -15.219  14.165  1.00  0.00     0.202 C 
BRANCH   9  14
ATOM     14  C   UNL     1      37.843 -13.808  10.621  1.00  0.00     0.191 C 
BRANCH  14  15
ATOM     15  O   UNL     1      39.007 -13.319  10.004  1.00  0.00    -0.394 OA
ATOM     16  H   UNL     1      39.109 -12.381  10.313  1.00  0.00     0.210 HD
ENDBRANCH  14  15
ENDBRANCH   9  14
BRANCH  10  17
ATOM     17  O   UNL     1      39.202 -12.584  12.872  1.00  0.00    -0.387 OA
ATOM     18  H   UNL     1      38.852 -12.019  12.134  1.00  0.00     0.211 HD
ENDBRANCH  10  17
BRANCH  12  19
ATOM     19  O   UNL     1      37.516 -15.215  14.724  1.00  0.00    -0.387 OA
ATOM     20  H   UNL     1      37.794 -15.750  15.515  1.00  0.00     0.211 HD
ENDBRANCH  12  19
BRANCH  13  21
ATOM     21  O   UNL     1      40.986 -14.377  14.133  1.00  0.00    -0.385 OA
ATOM     22  H   UNL     1      41.772 -14.943  14.350  1.00  0.00     0.211 HD
ENDBRANCH  13  21
ENDBRANCH   7   8
ENDBRANCH   1   7
BRANCH   2  23
ATOM     23  C   UNL     1      36.237 -17.310  11.892  1.00  0.00     0.191 C 
BRANCH  23  24
ATOM     24  O   UNL     1      36.043 -17.225  13.275  1.00  0.00    -0.394 OA
ATOM     25  H   UNL     1      36.849 -16.782  13.639  1.00  0.00     0.210 HD
ENDBRANCH  23  24
ENDBRANCH   2  23
BRANCH   6  26
ATOM     26  O   UNL     1      41.004 -18.844  12.116  1.00  0.00    -0.387 OA
ATOM     27  H   UNL     1      41.062 -18.399  13.002  1.00  0.00     0.211 HD
ENDBRANCH   6  26
BRANCH   5  28
ATOM     28  O   UNL     1      39.876 -19.908  14.240  1.00  0.00    -0.385 OA
ATOM     29  H   UNL     1      39.988 -20.792  14.678  1.00  0.00     0.211 HD
ENDBRANCH   5  28
BRANCH   4  30
ATOM     30  O   UNL     1      37.044 -21.156  13.763  1.00  0.00    -0.341 OA
BRANCH  30  31
ATOM     31  C   UNL     1      36.750 -21.134  15.153  1.00  0.00     0.184 C 
ATOM     32  C   UNL     1      35.266 -21.564  15.402  1.00  0.00     0.178 C 
ATOM     33  C   UNL     1      37.697 -22.117  15.865  1.00  0.00     0.180 C 
ATOM     34  O   UNL     1      35.070 -22.273  16.625  1.00  0.00    -0.342 OA
ATOM     35  C   UNL     1      37.374 -22.176  17.380  1.00  0.00     0.201 C 
ATOM     36  C   UNL     1      35.903 -21.794  17.664  1.00  0.00     0.279 C 
BRANCH  32  37
ATOM     37  C   UNL     1      34.298 -20.371  15.312  1.00  0.00     0.191 C 
BRANCH  37  38
ATOM     38  O   UNL     1      34.447 -19.725  14.075  1.00  0.00    -0.394 OA
ATOM     39  H   UNL     1      35.051 -20.298  13.534  1.00  0.00     0.210 HD
ENDBRANCH  37  38
ENDBRANCH  32  37
BRANCH  33  40
ATOM     40  O   UNL     1      37.555 -23.405  15.312  1.00  0.00    -0.387 OA
ATOM     41  H   UNL     1      38.212 -23.997  15.771  1.00  0.00     0.211 HD
ENDBRANCH  33  40
BRANCH  35  42
ATOM     42  O   UNL     1      38.246 -21.355  18.119  1.00  0.00    -0.385 OA
ATOM     43  H   UNL     1      38.005 -21.436  19.080  1.00  0.00     0.211 HD
ENDBRANCH  35  42
BRANCH  36  44
ATOM     44  O   UNL     1      35.505 -22.376  18.879  1.00  0.00    -0.366 OA
ATOM     45  H   UNL     1      34.755 -22.990  18.669  1.00  0.00     0.213 HD
ENDBRANCH  36  44
ENDBRANCH  30  31
ENDBRANCH   4  30
TORSDOF 18
ENDMDL
MODEL 7
REMARK VINA RESULT:    -4.787      1.949      2.882
REMARK INTER + INTRA:         -10.980
REMARK INTER:                  -8.395
REMARK INTRA:                  -2.585
REMARK UNBOUND:                -2.695
REMARK SMILES OC[C@@H]1O[C@@H](O)[C@H](O)[C@@H](O)[C@H]1O[C@@H]1O[C@@H](CO)[C@@H](O[C@H]2O[C@H](CO)[C@H](O)[C@@H](O)[C@@H]2O)[C@@H](O)[C@H]1O
REMARK SMILES IDX 18 1 15 2 14 3 13 4 33 5 31 6 19 7 20 8 22 9 25 10 21 11
REMARK SMILES IDX 27 12 29 13 23 14 24 15 26 17 28 19 30 21 16 23 17 24 32 26
REMARK SMILES IDX 34 28 12 30 11 31 3 32 9 33 4 34 7 35 5 36 2 37 1 38 10 40
REMARK SMILES IDX 8 42 6 44
REMARK H PARENT 24 16 26 18 28 20 30 22 17 25 32 27 34 29 1 39 10 41 8 43 6 45
REMARK Flexibility Score: inf
ROOT
ATOM      1  C   UNL     1      35.351 -14.452  11.189  1.00  0.00     0.184 C 
ATOM      2  C   UNL     1      34.786 -15.885  10.921  1.00  0.00     0.178 C 
ATOM      3  O   UNL     1      35.767 -16.887  10.669  1.00  0.00    -0.341 OA
ATOM      4  C   UNL     1      36.969 -16.696  11.394  1.00  0.00     0.282 C 
ATOM      5  C   UNL     1      37.698 -15.410  10.894  1.00  0.00     0.202 C 
ATOM      6  C   UNL     1      36.692 -14.324  10.436  1.00  0.00     0.180 C 
ENDROOT
BRANCH   1   7
ATOM      7  O   UNL     1      35.522 -14.222  12.585  1.00  0.00    -0.341 OA
BRANCH   7   8
ATOM      8  C   UNL     1      34.630 -13.224  13.073  1.00  0.00     0.282 C 
ATOM      9  C   UNL     1      34.584 -14.033  15.287  1.00  0.00     0.178 C 
ATOM     10  C   UNL     1      35.269 -12.784  15.866  1.00  0.00     0.177 C 
ATOM     11  O   UNL     1      33.822 -13.720  14.134  1.00  0.00    -0.341 OA
ATOM     12  C   UNL     1      36.186 -12.170  14.794  1.00  0.00     0.179 C 
ATOM     13  C   UNL     1      35.412 -11.955  13.482  1.00  0.00     0.202 C 
BRANCH   9  14
ATOM     14  C   UNL     1      33.667 -14.684  16.333  1.00  0.00     0.191 C 
BRANCH  14  15
ATOM     15  O   UNL     1      32.353 -14.208  16.192  1.00  0.00    -0.394 OA
ATOM     16  H   UNL     1      31.759 -14.961  16.447  1.00  0.00     0.210 HD
ENDBRANCH  14  15
ENDBRANCH   9  14
BRANCH  10  17
ATOM     17  O   UNL     1      34.298 -11.854  16.275  1.00  0.00    -0.387 OA
ATOM     18  H   UNL     1      33.466 -12.068  15.777  1.00  0.00     0.211 HD
ENDBRANCH  10  17
BRANCH  12  19
ATOM     19  O   UNL     1      37.279 -13.028  14.563  1.00  0.00    -0.387 OA
ATOM     20  H   UNL     1      37.654 -12.801  13.670  1.00  0.00     0.211 HD
ENDBRANCH  12  19
BRANCH  13  21
ATOM     21  O   UNL     1      34.525 -10.875  13.633  1.00  0.00    -0.385 OA
ATOM     22  H   UNL     1      34.762 -10.428  14.487  1.00  0.00     0.211 HD
ENDBRANCH  13  21
ENDBRANCH   7   8
ENDBRANCH   1   7
BRANCH   2  23
ATOM     23  C   UNL     1      33.749 -16.374  11.942  1.00  0.00     0.191 C 
BRANCH  23  24
ATOM     24  O   UNL     1      34.356 -16.705  13.159  1.00  0.00    -0.394 OA
ATOM     25  H   UNL     1      35.210 -16.205  13.184  1.00  0.00     0.210 HD
ENDBRANCH  23  24
ENDBRANCH   2  23
BRANCH   6  26
ATOM     26  O   UNL     1      37.235 -13.036  10.592  1.00  0.00    -0.387 OA
ATOM     27  H   UNL     1      37.226 -12.843  11.566  1.00  0.00     0.211 HD
ENDBRANCH   6  26
BRANCH   5  28
ATOM     28  O   UNL     1      38.578 -14.901  11.871  1.00  0.00    -0.385 OA
ATOM     29  H   UNL     1      39.466 -15.322  11.725  1.00  0.00     0.211 HD
ENDBRANCH   5  28
BRANCH   4  30
ATOM     30  O   UNL     1      37.771 -17.845  11.171  1.00  0.00    -0.341 OA
BRANCH  30  31
ATOM     31  C   UNL     1      38.289 -18.411  12.366  1.00  0.00     0.184 C 
ATOM     32  C   UNL     1      37.732 -19.859  12.568  1.00  0.00     0.178 C 
ATOM     33  C   UNL     1      39.823 -18.460  12.256  1.00  0.00     0.180 C 
ATOM     34  O   UNL     1      38.650 -20.745  13.208  1.00  0.00    -0.342 OA
ATOM     35  C   UNL     1      40.434 -19.128  13.515  1.00  0.00     0.201 C 
ATOM     36  C   UNL     1      39.431 -20.091  14.191  1.00  0.00     0.279 C 
BRANCH  32  37
ATOM     37  C   UNL     1      36.382 -19.860  13.307  1.00  0.00     0.191 C 
BRANCH  37  38
ATOM     38  O   UNL     1      35.356 -19.473  12.430  1.00  0.00    -0.394 OA
ATOM     39  H   UNL     1      35.694 -18.678  11.941  1.00  0.00     0.210 HD
ENDBRANCH  37  38
ENDBRANCH  32  37
BRANCH  33  40
ATOM     40  O   UNL     1      40.199 -19.195  11.114  1.00  0.00    -0.387 OA
ATOM     41  H   UNL     1      40.615 -20.043  11.432  1.00  0.00     0.211 HD
ENDBRANCH  33  40
BRANCH  35  42
ATOM     42  O   UNL     1      40.887 -18.164  14.434  1.00  0.00    -0.385 OA
ATOM     43  H   UNL     1      40.324 -17.351  14.329  1.00  0.00     0.211 HD
ENDBRANCH  35  42
BRANCH  36  44
ATOM     44  O   UNL     1      40.144 -21.052  14.926  1.00  0.00    -0.366 OA
ATOM     45  H   UNL     1      41.083 -21.014  14.612  1.00  0.00     0.213 HD
ENDBRANCH  36  44
ENDBRANCH  30  31
ENDBRANCH   4  30
TORSDOF 18
ENDMDL
MODEL 8
REMARK VINA RESULT:    -4.698      3.009      5.909
REMARK INTER + INTRA:         -10.826
REMARK INTER:                  -8.220
REMARK INTRA:                  -2.606
REMARK UNBOUND:                -2.695
REMARK SMILES OC[C@@H]1O[C@@H](O)[C@H](O)[C@@H](O)[C@H]1O[C@@H]1O[C@@H](CO)[C@@H](O[C@H]2O[C@H](CO)[C@H](O)[C@@H](O)[C@@H]2O)[C@@H](O)[C@H]1O
REMARK SMILES IDX 18 1 15 2 14 3 13 4 33 5 31 6 19 7 20 8 22 9 25 10 21 11
REMARK SMILES IDX 27 12 29 13 23 14 24 15 26 17 28 19 30 21 16 23 17 24 32 26
REMARK SMILES IDX 34 28 12 30 11 31 3 32 9 33 4 34 7 35 5 36 2 37 1 38 10 40
REMARK SMILES IDX 8 42 6 44
REMARK H PARENT 24 16 26 18 28 20 30 22 17 25 32 27 34 29 1 39 10 41 8 43 6 45
REMARK Flexibility Score: inf
ROOT
ATOM      1  C   UNL     1      36.088 -13.550  12.196  1.00  0.00     0.184 C 
ATOM      2  C   UNL     1      35.223 -14.705  12.796  1.00  0.00     0.178 C 
ATOM      3  O   UNL     1      34.577 -15.540  11.840  1.00  0.00    -0.341 OA
ATOM      4  C   UNL     1      35.328 -15.727  10.654  1.00  0.00     0.282 C 
ATOM      5  C   UNL     1      35.438 -14.381   9.872  1.00  0.00     0.202 C 
ATOM      6  C   UNL     1      35.480 -13.165  10.831  1.00  0.00     0.180 C 
ENDROOT
BRANCH   1   7
ATOM      7  O   UNL     1      37.449 -13.949  12.057  1.00  0.00    -0.341 OA
BRANCH   7   8
ATOM      8  C   UNL     1      38.343 -12.995  12.625  1.00  0.00     0.282 C 
ATOM      9  C   UNL     1      39.873 -14.589  13.447  1.00  0.00     0.178 C 
ATOM     10  C   UNL     1      41.006 -14.132  12.513  1.00  0.00     0.177 C 
ATOM     11  O   UNL     1      39.005 -13.518  13.771  1.00  0.00    -0.341 OA
ATOM     12  C   UNL     1      40.396 -13.557  11.224  1.00  0.00     0.179 C 
ATOM     13  C   UNL     1      39.340 -12.489  11.558  1.00  0.00     0.202 C 
BRANCH   9  14
ATOM     14  C   UNL     1      40.443 -15.184  14.743  1.00  0.00     0.191 C 
BRANCH  14  15
ATOM     15  O   UNL     1      40.547 -14.189  15.730  1.00  0.00    -0.394 OA
ATOM     16  H   UNL     1      41.494 -13.893  15.723  1.00  0.00     0.210 HD
ENDBRANCH  14  15
ENDBRANCH   9  14
BRANCH  10  17
ATOM     17  O   UNL     1      41.796 -13.166  13.159  1.00  0.00    -0.387 OA
ATOM     18  H   UNL     1      42.467 -12.852  12.498  1.00  0.00     0.211 HD
ENDBRANCH  10  17
BRANCH  12  19
ATOM     19  O   UNL     1      39.799 -14.595  10.481  1.00  0.00    -0.387 OA
ATOM     20  H   UNL     1      40.523 -15.222  10.210  1.00  0.00     0.211 HD
ENDBRANCH  12  19
BRANCH  13  21
ATOM     21  O   UNL     1      39.981 -11.325  12.017  1.00  0.00    -0.385 OA
ATOM     22  H   UNL     1      40.643 -11.071  11.323  1.00  0.00     0.211 HD
ENDBRANCH  13  21
ENDBRANCH   7   8
ENDBRANCH   1   7
BRANCH   2  23
ATOM     23  C   UNL     1      35.921 -15.544  13.877  1.00  0.00     0.191 C 
BRANCH  23  24
ATOM     24  O   UNL     1      36.483 -14.727  14.864  1.00  0.00    -0.394 OA
ATOM     25  H   UNL     1      36.110 -15.042  15.726  1.00  0.00     0.210 HD
ENDBRANCH  23  24
ENDBRANCH   2  23
BRANCH   6  26
ATOM     26  O   UNL     1      36.181 -12.091  10.253  1.00  0.00    -0.387 OA
ATOM     27  H   UNL     1      36.727 -11.689  10.979  1.00  0.00     0.211 HD
ENDBRANCH   6  26
BRANCH   5  28
ATOM     28  O   UNL     1      36.550 -14.376   9.005  1.00  0.00    -0.385 OA
ATOM     29  H   UNL     1      37.365 -14.263   9.561  1.00  0.00     0.211 HD
ENDBRANCH   5  28
BRANCH   4  30
ATOM     30  O   UNL     1      34.642 -16.700   9.881  1.00  0.00    -0.341 OA
BRANCH  30  31
ATOM     31  C   UNL     1      34.127 -17.773  10.655  1.00  0.00     0.184 C 
ATOM     32  C   UNL     1      32.876 -18.398   9.955  1.00  0.00     0.178 C 
ATOM     33  C   UNL     1      35.226 -18.842  10.796  1.00  0.00     0.180 C 
ATOM     34  O   UNL     1      32.739 -19.803  10.166  1.00  0.00    -0.342 OA
ATOM     35  C   UNL     1      34.692 -20.066  11.584  1.00  0.00     0.201 C 
ATOM     36  C   UNL     1      33.156 -20.195  11.461  1.00  0.00     0.279 C 
BRANCH  32  37
ATOM     37  C   UNL     1      31.576 -17.669  10.340  1.00  0.00     0.191 C 
BRANCH  37  38
ATOM     38  O   UNL     1      31.876 -16.507  11.069  1.00  0.00    -0.394 OA
ATOM     39  H   UNL     1      31.223 -15.819  10.774  1.00  0.00     0.210 HD
ENDBRANCH  37  38
ENDBRANCH  32  37
BRANCH  33  40
ATOM     40  O   UNL     1      35.651 -19.264   9.521  1.00  0.00    -0.387 OA
ATOM     41  H   UNL     1      36.413 -19.891   9.656  1.00  0.00     0.211 HD
ENDBRANCH  33  40
BRANCH  35  42
ATOM     42  O   UNL     1      35.073 -20.006  12.937  1.00  0.00    -0.385 OA
ATOM     43  H   UNL     1      36.047 -19.808  12.974  1.00  0.00     0.211 HD
ENDBRANCH  35  42
BRANCH  36  44
ATOM     44  O   UNL     1      32.790 -21.534  11.676  1.00  0.00    -0.366 OA
ATOM     45  H   UNL     1      31.830 -21.609  11.440  1.00  0.00     0.213 HD
ENDBRANCH  36  44
ENDBRANCH  30  31
ENDBRANCH   4  30
TORSDOF 18
ENDMDL
MODEL 9
REMARK VINA RESULT:    -4.670      1.783      2.963
REMARK INTER + INTRA:         -10.778
REMARK INTER:                  -8.142
REMARK INTRA:                  -2.636
REMARK UNBOUND:                -2.695
REMARK SMILES OC[C@@H]1O[C@@H](O)[C@H](O)[C@@H](O)[C@H]1O[C@@H]1O[C@@H](CO)[C@@H](O[C@H]2O[C@H](CO)[C@H](O)[C@@H](O)[C@@H]2O)[C@@H](O)[C@H]1O
REMARK SMILES IDX 18 1 15 2 14 3 13 4 33 5 31 6 19 7 20 8 22 9 25 10 21 11
REMARK SMILES IDX 27 12 29 13 23 14 24 15 26 17 28 19 30 21 16 23 17 24 32 26
REMARK SMILES IDX 34 28 12 30 11 31 3 32 9 33 4 34 7 35 5 36 2 37 1 38 10 40
REMARK SMILES IDX 8 42 6 44
REMARK H PARENT 24 16 26 18 28 20 30 22 17 25 32 27 34 29 1 39 10 41 8 43 6 45
REMARK Flexibility Score: inf
ROOT
ATOM      1  C   UNL     1      33.638 -15.078  11.966  1.00  0.00     0.184 C 
ATOM      2  C   UNL     1      33.843 -16.627  11.927  1.00  0.00     0.178 C 
ATOM      3  O   UNL     1      35.046 -17.065  11.304  1.00  0.00    -0.341 OA
ATOM      4  C   UNL     1      36.138 -16.185  11.503  1.00  0.00     0.282 C 
ATOM      5  C   UNL     1      35.879 -14.833  10.769  1.00  0.00     0.202 C 
ATOM      6  C   UNL     1      34.372 -14.474  10.750  1.00  0.00     0.180 C 
ENDROOT
BRANCH   1   7
ATOM      7  O   UNL     1      34.127 -14.526  13.186  1.00  0.00    -0.341 OA
BRANCH   7   8
ATOM      8  C   UNL     1      33.090 -13.911  13.945  1.00  0.00     0.282 C 
ATOM      9  C   UNL     1      34.463 -13.348  15.777  1.00  0.00     0.178 C 
ATOM     10  C   UNL     1      34.313 -11.833  15.554  1.00  0.00     0.177 C 
ATOM     11  O   UNL     1      33.312 -14.052  15.343  1.00  0.00    -0.341 OA
ATOM     12  C   UNL     1      34.080 -11.565  14.058  1.00  0.00     0.179 C 
ATOM     13  C   UNL     1      32.924 -12.431  13.529  1.00  0.00     0.202 C 
BRANCH   9  14
ATOM     14  C   UNL     1      34.711 -13.657  17.261  1.00  0.00     0.191 C 
BRANCH  14  15
ATOM     15  O   UNL     1      35.749 -12.852  17.759  1.00  0.00    -0.394 OA
ATOM     16  H   UNL     1      36.220 -13.400  18.439  1.00  0.00     0.210 HD
ENDBRANCH  14  15
ENDBRANCH   9  14
BRANCH  10  17
ATOM     17  O   UNL     1      33.239 -11.343  16.316  1.00  0.00    -0.387 OA
ATOM     18  H   UNL     1      33.225 -10.358  16.195  1.00  0.00     0.211 HD
ENDBRANCH  10  17
BRANCH  12  19
ATOM     19  O   UNL     1      35.256 -11.857  13.339  1.00  0.00    -0.387 OA
ATOM     20  H   UNL     1      35.669 -10.990  13.077  1.00  0.00     0.211 HD
ENDBRANCH  12  19
BRANCH  13  21
ATOM     21  O   UNL     1      31.704 -11.932  14.018  1.00  0.00    -0.385 OA
ATOM     22  H   UNL     1      31.569 -11.044  13.595  1.00  0.00     0.211 HD
ENDBRANCH  13  21
ENDBRANCH   7   8
ENDBRANCH   1   7
BRANCH   2  23
ATOM     23  C   UNL     1      33.626 -17.343  13.269  1.00  0.00     0.191 C 
BRANCH  23  24
ATOM     24  O   UNL     1      34.374 -18.523  13.337  1.00  0.00    -0.394 OA
ATOM     25  H   UNL     1      35.298 -18.277  13.080  1.00  0.00     0.210 HD
ENDBRANCH  23  24
ENDBRANCH   2  23
BRANCH   6  26
ATOM     26  O   UNL     1      34.187 -13.080  10.692  1.00  0.00    -0.387 OA
ATOM     27  H   UNL     1      34.293 -12.744  11.621  1.00  0.00     0.211 HD
ENDBRANCH   6  26
BRANCH   5  28
ATOM     28  O   UNL     1      36.639 -13.785  11.328  1.00  0.00    -0.385 OA
ATOM     29  H   UNL     1      36.101 -13.379  12.057  1.00  0.00     0.211 HD
ENDBRANCH   5  28
BRANCH   4  30
ATOM     30  O   UNL     1      37.287 -16.829  10.973  1.00  0.00    -0.341 OA
BRANCH  30  31
ATOM     31  C   UNL     1      38.125 -17.394  11.970  1.00  0.00     0.184 C 
ATOM     32  C   UNL     1      38.697 -18.768  11.487  1.00  0.00     0.178 C 
ATOM     33  C   UNL     1      39.286 -16.420  12.239  1.00  0.00     0.180 C 
ATOM     34  O   UNL     1      40.010 -19.048  11.970  1.00  0.00    -0.342 OA
ATOM     35  C   UNL     1      40.266 -17.020  13.280  1.00  0.00     0.201 C 
ATOM     36  C   UNL     1      40.213 -18.565  13.286  1.00  0.00     0.279 C 
BRANCH  32  37
ATOM     37  C   UNL     1      37.746 -19.934  11.811  1.00  0.00     0.191 C 
BRANCH  37  38
ATOM     38  O   UNL     1      36.453 -19.640  11.349  1.00  0.00    -0.394 OA
ATOM     39  H   UNL     1      36.127 -18.883  11.903  1.00  0.00     0.210 HD
ENDBRANCH  37  38
ENDBRANCH  32  37
BRANCH  33  40
ATOM     40  O   UNL     1      39.984 -16.163  11.043  1.00  0.00    -0.387 OA
ATOM     41  H   UNL     1      40.038 -15.174  10.939  1.00  0.00     0.211 HD
ENDBRANCH  33  40
BRANCH  35  42
ATOM     42  O   UNL     1      40.013 -16.515  14.569  1.00  0.00    -0.385 OA
ATOM     43  H   UNL     1      39.629 -15.603  14.471  1.00  0.00     0.211 HD
ENDBRANCH  35  42
BRANCH  36  44
ATOM     44  O   UNL     1      41.430 -19.064  13.777  1.00  0.00    -0.366 OA
ATOM     45  H   UNL     1      41.250 -19.413  14.687  1.00  0.00     0.213 HD
ENDBRANCH  36  44
ENDBRANCH  30  31
ENDBRANCH   4  30
TORSDOF 18
ENDMDL
