MODEL 1
REMARK VINA RESULT:    -3.730      0.000      0.000
REMARK INTER + INTRA:          -9.097
REMARK INTER:                  -6.565
REMARK INTRA:                  -2.531
REMARK UNBOUND:                -2.531
REMARK SMILES CCCCCCC=CCCCCCCCC(=O)[O-]
REMARK SMILES IDX 10 1 11 2 12 3 13 4 14 5 15 6 16 7 17 8 18 9 9 10 8 11 7 12
REMARK SMILES IDX 6 13 5 14 4 15 3 16 2 17 1 18
REMARK H PARENT
REMARK Flexibility Score: inf
ROOT
ATOM      1  C   UNL     1       7.085  -1.276   4.539  1.00  0.00     0.004 C 
ENDROOT
BRANCH   1   2
ATOM      2  C   UNL     1       5.995  -0.481   3.803  1.00  0.00     0.000 C 
BRANCH   2   3
ATOM      3  C   UNL     1       5.316  -1.288   2.682  1.00  0.00     0.000 C 
BRANCH   3   4
ATOM      4  C   UNL     1       4.415  -2.443   3.161  1.00  0.00     0.000 C 
BRANCH   4   5
ATOM      5  C   UNL     1       4.921  -3.824   2.708  1.00  0.00     0.006 C 
BRANCH   5   6
ATOM      6  C   UNL     1       4.200  -4.969   3.432  1.00  0.00     0.053 C 
BRANCH   6   7
ATOM      7  C   UNL     1       3.701  -6.006   2.473  1.00  0.00     0.041 C 
ATOM      8  O   UNL     1       3.574  -7.204   2.842  1.00  0.00    -0.550 OA
ATOM      9  O   UNL     1       3.400  -5.654   1.163  1.00  0.00    -0.550 OA
ENDBRANCH   6   7
ENDBRANCH   5   6
ENDBRANCH   4   5
ENDBRANCH   3   4
ENDBRANCH   2   3
ENDBRANCH   1   2
BRANCH   1  10
ATOM     10  C   UNL     1       6.676  -1.640   5.972  1.00  0.00     0.027 C 
BRANCH  10  11
ATOM     11  C   UNL     1       6.520  -3.131   6.148  1.00  0.00    -0.031 C 
ATOM     12  C   UNL     1       5.511  -3.745   6.796  1.00  0.00    -0.031 C 
BRANCH  12  13
ATOM     13  C   UNL     1       4.320  -3.056   7.422  1.00  0.00     0.027 C 
BRANCH  13  14
ATOM     14  C   UNL     1       3.139  -2.976   6.446  1.00  0.00     0.004 C 
BRANCH  14  15
ATOM     15  C   UNL     1       2.330  -1.680   6.617  1.00  0.00     0.000 C 
BRANCH  15  16
ATOM     16  C   UNL     1       2.807  -0.548   5.688  1.00  0.00    -0.000 C 
BRANCH  16  17
ATOM     17  C   UNL     1       3.708   0.503   6.361  1.00  0.00    -0.003 C 
ATOM     18  C   UNL     1       3.524   0.569   7.877  1.00  0.00     0.004 C 
ENDBRANCH  16  17
ENDBRANCH  15  16
ENDBRANCH  14  15
ENDBRANCH  13  14
ENDBRANCH  12  13
ENDBRANCH  10  11
ENDBRANCH   1  10
TORSDOF 13
ENDMDL
MODEL 2
REMARK VINA RESULT:    -3.620      3.250      5.760
REMARK INTER + INTRA:          -8.903
REMARK INTER:                  -6.853
REMARK INTRA:                  -2.050
REMARK UNBOUND:                -2.531
REMARK SMILES CCCCCCC=CCCCCCCCC(=O)[O-]
REMARK SMILES IDX 10 1 11 2 12 3 13 4 14 5 15 6 16 7 17 8 18 9 9 10 8 11 7 12
REMARK SMILES IDX 6 13 5 14 4 15 3 16 2 17 1 18
REMARK H PARENT
REMARK Flexibility Score: inf
ROOT
ATOM      1  C   UNL     1       6.584  -0.821   3.965  1.00  0.00     0.004 C 
ENDROOT
BRANCH   1   2
ATOM      2  C   UNL     1       5.813  -1.165   2.680  1.00  0.00     0.000 C 
BRANCH   2   3
ATOM      3  C   UNL     1       4.383  -1.664   2.952  1.00  0.00     0.000 C 
BRANCH   3   4
ATOM      4  C   UNL     1       4.080  -2.014   4.421  1.00  0.00     0.000 C 
BRANCH   4   5
ATOM      5  C   UNL     1       2.968  -1.139   5.029  1.00  0.00     0.006 C 
BRANCH   5   6
ATOM      6  C   UNL     1       3.468   0.269   5.379  1.00  0.00     0.053 C 
BRANCH   6   7
ATOM      7  C   UNL     1       3.823   0.387   6.830  1.00  0.00     0.041 C 
ATOM      8  O   UNL     1       3.150   1.134   7.589  1.00  0.00    -0.550 OA
ATOM      9  O   UNL     1       4.913  -0.308   7.337  1.00  0.00    -0.550 OA
ENDBRANCH   6   7
ENDBRANCH   5   6
ENDBRANCH   4   5
ENDBRANCH   3   4
ENDBRANCH   2   3
ENDBRANCH   1   2
BRANCH   1  10
ATOM     10  C   UNL     1       7.821  -1.708   4.158  1.00  0.00     0.027 C 
BRANCH  10  11
ATOM     11  C   UNL     1       7.511  -2.927   4.992  1.00  0.00    -0.031 C 
ATOM     12  C   UNL     1       7.455  -4.195   4.539  1.00  0.00    -0.031 C 
BRANCH  12  13
ATOM     13  C   UNL     1       7.744  -4.637   3.124  1.00  0.00     0.027 C 
BRANCH  13  14
ATOM     14  C   UNL     1       6.450  -4.881   2.335  1.00  0.00     0.004 C 
BRANCH  14  15
ATOM     15  C   UNL     1       5.319  -5.420   3.226  1.00  0.00     0.000 C 
BRANCH  15  16
ATOM     16  C   UNL     1       3.926  -5.259   2.590  1.00  0.00    -0.000 C 
BRANCH  16  17
ATOM     17  C   UNL     1       3.839  -5.680   1.111  1.00  0.00    -0.003 C 
ATOM     18  C   UNL     1       4.081  -7.173   0.897  1.00  0.00     0.004 C 
ENDBRANCH  16  17
ENDBRANCH  15  16
ENDBRANCH  14  15
ENDBRANCH  13  14
ENDBRANCH  12  13
ENDBRANCH  10  11
ENDBRANCH   1  10
TORSDOF 13
ENDMDL
MODEL 3
REMARK VINA RESULT:    -3.607      1.478      2.567
REMARK INTER + INTRA:          -8.879
REMARK INTER:                  -7.110
REMARK INTRA:                  -1.769
REMARK UNBOUND:                -2.531
REMARK SMILES CCCCCCC=CCCCCCCCC(=O)[O-]
REMARK SMILES IDX 10 1 11 2 12 3 13 4 14 5 15 6 16 7 17 8 18 9 9 10 8 11 7 12
REMARK SMILES IDX 6 13 5 14 4 15 3 16 2 17 1 18
REMARK H PARENT
REMARK Flexibility Score: inf
ROOT
ATOM      1  C   UNL     1       7.318  -1.394   4.209  1.00  0.00     0.004 C 
ENDROOT
BRANCH   1   2
ATOM      2  C   UNL     1       7.552  -2.716   3.462  1.00  0.00     0.000 C 
BRANCH   2   3
ATOM      3  C   UNL     1       7.332  -3.955   4.349  1.00  0.00     0.000 C 
BRANCH   3   4
ATOM      4  C   UNL     1       5.998  -4.691   4.127  1.00  0.00     0.000 C 
BRANCH   4   5
ATOM      5  C   UNL     1       5.613  -4.799   2.641  1.00  0.00     0.006 C 
BRANCH   5   6
ATOM      6  C   UNL     1       4.114  -5.069   2.450  1.00  0.00     0.053 C 
BRANCH   6   7
ATOM      7  C   UNL     1       3.834  -5.747   1.144  1.00  0.00     0.041 C 
ATOM      8  O   UNL     1       2.929  -5.312   0.384  1.00  0.00    -0.550 OA
ATOM      9  O   UNL     1       4.556  -6.876   0.777  1.00  0.00    -0.550 OA
ENDBRANCH   6   7
ENDBRANCH   5   6
ENDBRANCH   4   5
ENDBRANCH   3   4
ENDBRANCH   2   3
ENDBRANCH   1   2
BRANCH   1  10
ATOM     10  C   UNL     1       6.409  -0.435   3.430  1.00  0.00     0.027 C 
BRANCH  10  11
ATOM     11  C   UNL     1       5.355  -1.178   2.644  1.00  0.00    -0.031 C 
ATOM     12  C   UNL     1       4.099  -1.432   3.059  1.00  0.00    -0.031 C 
BRANCH  12  13
ATOM     13  C   UNL     1       3.495  -0.975   4.366  1.00  0.00     0.027 C 
BRANCH  13  14
ATOM     14  C   UNL     1       3.625  -2.050   5.453  1.00  0.00     0.004 C 
BRANCH  14  15
ATOM     15  C   UNL     1       2.562  -1.897   6.553  1.00  0.00     0.000 C 
BRANCH  15  16
ATOM     16  C   UNL     1       3.104  -1.206   7.818  1.00  0.00    -0.000 C 
BRANCH  16  17
ATOM     17  C   UNL     1       4.215  -0.171   7.565  1.00  0.00    -0.003 C 
ATOM     18  C   UNL     1       3.689   1.260   7.462  1.00  0.00     0.004 C 
ENDBRANCH  16  17
ENDBRANCH  15  16
ENDBRANCH  14  15
ENDBRANCH  13  14
ENDBRANCH  12  13
ENDBRANCH  10  11
ENDBRANCH   1  10
TORSDOF 13
ENDMDL
MODEL 4
REMARK VINA RESULT:    -3.592      2.951      4.145
REMARK INTER + INTRA:          -8.854
REMARK INTER:                  -6.103
REMARK INTRA:                  -2.751
REMARK UNBOUND:                -2.531
REMARK SMILES CCCCCCC=CCCCCCCCC(=O)[O-]
REMARK SMILES IDX 10 1 11 2 12 3 13 4 14 5 15 6 16 7 17 8 18 9 9 10 8 11 7 12
REMARK SMILES IDX 6 13 5 14 4 15 3 16 2 17 1 18
REMARK H PARENT
REMARK Flexibility Score: inf
ROOT
ATOM      1  C   UNL     1       3.738   0.234   5.938  1.00  0.00     0.004 C 
ENDROOT
BRANCH   1   2
ATOM      2  C   UNL     1       2.887  -0.772   5.146  1.00  0.00     0.000 C 
BRANCH   2   3
ATOM      3  C   UNL     1       3.488  -1.116   3.771  1.00  0.00     0.000 C 
BRANCH   3   4
ATOM      4  C   UNL     1       4.310  -2.418   3.723  1.00  0.00     0.000 C 
BRANCH   4   5
ATOM      5  C   UNL     1       5.734  -2.209   3.180  1.00  0.00     0.006 C 
BRANCH   5   6
ATOM      6  C   UNL     1       6.034  -0.730   2.899  1.00  0.00     0.053 C 
BRANCH   6   7
ATOM      7  C   UNL     1       7.391  -0.335   3.397  1.00  0.00     0.041 C 
ATOM      8  O   UNL     1       8.020   0.606   2.844  1.00  0.00    -0.550 OA
ATOM      9  O   UNL     1       7.972  -1.024   4.454  1.00  0.00    -0.550 OA
ENDBRANCH   6   7
ENDBRANCH   5   6
ENDBRANCH   4   5
ENDBRANCH   3   4
ENDBRANCH   2   3
ENDBRANCH   1   2
BRANCH   1  10
ATOM     10  C   UNL     1       4.317  -0.374   7.222  1.00  0.00     0.027 C 
BRANCH  10  11
ATOM     11  C   UNL     1       5.637  -1.063   6.969  1.00  0.00    -0.031 C 
ATOM     12  C   UNL     1       5.921  -2.348   7.259  1.00  0.00    -0.031 C 
BRANCH  12  13
ATOM     13  C   UNL     1       4.954  -3.352   7.842  1.00  0.00     0.027 C 
BRANCH  13  14
ATOM     14  C   UNL     1       4.389  -4.283   6.762  1.00  0.00     0.004 C 
BRANCH  14  15
ATOM     15  C   UNL     1       2.857  -4.197   6.664  1.00  0.00     0.000 C 
BRANCH  15  16
ATOM     16  C   UNL     1       2.196  -3.741   7.978  1.00  0.00    -0.000 C 
BRANCH  16  17
ATOM     17  C   UNL     1       1.247  -2.537   7.841  1.00  0.00    -0.003 C 
ATOM     18  C   UNL     1       1.305  -1.588   9.037  1.00  0.00     0.004 C 
ENDBRANCH  16  17
ENDBRANCH  15  16
ENDBRANCH  14  15
ENDBRANCH  13  14
ENDBRANCH  12  13
ENDBRANCH  10  11
ENDBRANCH   1  10
TORSDOF 13
ENDMDL
MODEL 5
REMARK VINA RESULT:    -3.582      1.825      4.004
REMARK INTER + INTRA:          -8.835
REMARK INTER:                  -7.226
REMARK INTRA:                  -1.609
REMARK UNBOUND:                -2.531
REMARK SMILES CCCCCCC=CCCCCCCCC(=O)[O-]
REMARK SMILES IDX 10 1 11 2 12 3 13 4 14 5 15 6 16 7 17 8 18 9 9 10 8 11 7 12
REMARK SMILES IDX 6 13 5 14 4 15 3 16 2 17 1 18
REMARK H PARENT
REMARK Flexibility Score: inf
ROOT
ATOM      1  C   UNL     1       4.678  -5.034   2.933  1.00  0.00     0.004 C 
ENDROOT
BRANCH   1   2
ATOM      2  C   UNL     1       3.664  -4.956   1.781  1.00  0.00     0.000 C 
BRANCH   2   3
ATOM      3  C   UNL     1       3.891  -6.033   0.705  1.00  0.00     0.000 C 
BRANCH   3   4
ATOM      4  C   UNL     1       5.268  -6.723   0.750  1.00  0.00     0.000 C 
BRANCH   4   5
ATOM      5  C   UNL     1       5.168  -8.253   0.876  1.00  0.00     0.006 C 
BRANCH   5   6
ATOM      6  C   UNL     1       3.769  -8.706   1.316  1.00  0.00     0.053 C 
BRANCH   6   7
ATOM      7  C   UNL     1       3.648  -8.762   2.808  1.00  0.00     0.041 C 
ATOM      8  O   UNL     1       2.512  -8.736   3.354  1.00  0.00    -0.550 OA
ATOM      9  O   UNL     1       4.789  -8.816   3.598  1.00  0.00    -0.550 OA
ENDBRANCH   6   7
ENDBRANCH   5   6
ENDBRANCH   4   5
ENDBRANCH   3   4
ENDBRANCH   2   3
ENDBRANCH   1   2
BRANCH   1  10
ATOM     10  C   UNL     1       5.216  -3.654   3.332  1.00  0.00     0.027 C 
BRANCH  10  11
ATOM     11  C   UNL     1       4.346  -2.540   2.804  1.00  0.00    -0.031 C 
ATOM     12  C   UNL     1       4.336  -1.270   3.255  1.00  0.00    -0.031 C 
BRANCH  12  13
ATOM     13  C   UNL     1       5.231  -0.714   4.338  1.00  0.00     0.027 C 
BRANCH  13  14
ATOM     14  C   UNL     1       4.432  -0.348   5.596  1.00  0.00     0.004 C 
BRANCH  14  15
ATOM     15  C   UNL     1       2.915  -0.424   5.364  1.00  0.00     0.000 C 
BRANCH  15  16
ATOM     16  C   UNL     1       2.262  -1.634   6.057  1.00  0.00    -0.000 C 
BRANCH  16  17
ATOM     17  C   UNL     1       3.232  -2.523   6.856  1.00  0.00    -0.003 C 
ATOM     18  C   UNL     1       3.194  -3.989   6.426  1.00  0.00     0.004 C 
ENDBRANCH  16  17
ENDBRANCH  15  16
ENDBRANCH  14  15
ENDBRANCH  13  14
ENDBRANCH  12  13
ENDBRANCH  10  11
ENDBRANCH   1  10
TORSDOF 13
ENDMDL
MODEL 6
REMARK VINA RESULT:    -3.559      1.391      3.078
REMARK INTER + INTRA:          -8.795
REMARK INTER:                  -6.425
REMARK INTRA:                  -2.371
REMARK UNBOUND:                -2.531
REMARK SMILES CCCCCCC=CCCCCCCCC(=O)[O-]
REMARK SMILES IDX 10 1 11 2 12 3 13 4 14 5 15 6 16 7 17 8 18 9 9 10 8 11 7 12
REMARK SMILES IDX 6 13 5 14 4 15 3 16 2 17 1 18
REMARK H PARENT
REMARK Flexibility Score: inf
ROOT
ATOM      1  C   UNL     1       4.537  -1.112   3.953  1.00  0.00     0.004 C 
ENDROOT
BRANCH   1   2
ATOM      2  C   UNL     1       4.471  -2.275   2.951  1.00  0.00     0.000 C 
BRANCH   2   3
ATOM      3  C   UNL     1       5.598  -3.306   3.152  1.00  0.00     0.000 C 
BRANCH   3   4
ATOM      4  C   UNL     1       5.297  -4.717   2.614  1.00  0.00     0.000 C 
BRANCH   4   5
ATOM      5  C   UNL     1       3.832  -4.892   2.176  1.00  0.00     0.006 C 
BRANCH   5   6
ATOM      6  C   UNL     1       3.703  -5.778   0.929  1.00  0.00     0.053 C 
BRANCH   6   7
ATOM      7  C   UNL     1       4.161  -7.179   1.194  1.00  0.00     0.041 C 
ATOM      8  O   UNL     1       3.506  -7.924   1.971  1.00  0.00    -0.550 OA
ATOM      9  O   UNL     1       5.324  -7.655   0.603  1.00  0.00    -0.550 OA
ENDBRANCH   6   7
ENDBRANCH   5   6
ENDBRANCH   4   5
ENDBRANCH   3   4
ENDBRANCH   2   3
ENDBRANCH   1   2
BRANCH   1  10
ATOM     10  C   UNL     1       3.168  -0.791   4.566  1.00  0.00     0.027 C 
BRANCH  10  11
ATOM     11  C   UNL     1       3.266  -0.528   6.050  1.00  0.00    -0.031 C 
ATOM     12  C   UNL     1       2.651  -1.238   7.016  1.00  0.00    -0.031 C 
BRANCH  12  13
ATOM     13  C   UNL     1       1.790  -2.460   6.796  1.00  0.00     0.027 C 
BRANCH  13  14
ATOM     14  C   UNL     1       2.530  -3.747   7.184  1.00  0.00     0.004 C 
BRANCH  14  15
ATOM     15  C   UNL     1       3.416  -4.274   6.044  1.00  0.00     0.000 C 
BRANCH  15  16
ATOM     16  C   UNL     1       4.861  -4.562   6.493  1.00  0.00    -0.000 C 
BRANCH  16  17
ATOM     17  C   UNL     1       5.463  -3.515   7.447  1.00  0.00    -0.003 C 
ATOM     18  C   UNL     1       6.412  -2.542   6.748  1.00  0.00     0.004 C 
ENDBRANCH  16  17
ENDBRANCH  15  16
ENDBRANCH  14  15
ENDBRANCH  13  14
ENDBRANCH  12  13
ENDBRANCH  10  11
ENDBRANCH   1  10
TORSDOF 13
ENDMDL
MODEL 7
REMARK VINA RESULT:    -3.555      3.553      6.173
REMARK INTER + INTRA:          -8.788
REMARK INTER:                  -6.569
REMARK INTRA:                  -2.220
REMARK UNBOUND:                -2.531
REMARK SMILES CCCCCCC=CCCCCCCCC(=O)[O-]
REMARK SMILES IDX 10 1 11 2 12 3 13 4 14 5 15 6 16 7 17 8 18 9 9 10 8 11 7 12
REMARK SMILES IDX 6 13 5 14 4 15 3 16 2 17 1 18
REMARK H PARENT
REMARK Flexibility Score: inf
ROOT
ATOM      1  C   UNL     1       4.402  -1.514   2.977  1.00  0.00     0.004 C 
ENDROOT
BRANCH   1   2
ATOM      2  C   UNL     1       4.021  -1.198   4.433  1.00  0.00     0.000 C 
BRANCH   2   3
ATOM      3  C   UNL     1       3.825  -2.461   5.290  1.00  0.00     0.000 C 
BRANCH   3   4
ATOM      4  C   UNL     1       4.605  -2.478   6.618  1.00  0.00     0.000 C 
BRANCH   4   5
ATOM      5  C   UNL     1       5.213  -1.110   6.974  1.00  0.00     0.006 C 
BRANCH   5   6
ATOM      6  C   UNL     1       4.949  -0.723   8.435  1.00  0.00     0.053 C 
BRANCH   6   7
ATOM      7  C   UNL     1       3.924   0.364   8.545  1.00  0.00     0.041 C 
ATOM      8  O   UNL     1       3.603   0.823   9.673  1.00  0.00    -0.550 OA
ATOM      9  O   UNL     1       3.303   0.853   7.402  1.00  0.00    -0.550 OA
ENDBRANCH   6   7
ENDBRANCH   5   6
ENDBRANCH   4   5
ENDBRANCH   3   4
ENDBRANCH   2   3
ENDBRANCH   1   2
BRANCH   1  10
ATOM     10  C   UNL     1       5.737  -0.876   2.572  1.00  0.00     0.027 C 
BRANCH  10  11
ATOM     11  C   UNL     1       6.684  -0.766   3.743  1.00  0.00    -0.031 C 
ATOM     12  C   UNL     1       7.589  -1.694   4.111  1.00  0.00    -0.031 C 
BRANCH  12  13
ATOM     13  C   UNL     1       7.859  -2.994   3.390  1.00  0.00     0.027 C 
BRANCH  13  14
ATOM     14  C   UNL     1       6.902  -4.102   3.848  1.00  0.00     0.004 C 
BRANCH  14  15
ATOM     15  C   UNL     1       6.229  -4.815   2.664  1.00  0.00     0.000 C 
BRANCH  15  16
ATOM     16  C   UNL     1       4.793  -5.275   2.979  1.00  0.00    -0.000 C 
BRANCH  16  17
ATOM     17  C   UNL     1       3.764  -4.983   1.872  1.00  0.00    -0.003 C 
ATOM     18  C   UNL     1       3.783  -6.019   0.748  1.00  0.00     0.004 C 
ENDBRANCH  16  17
ENDBRANCH  15  16
ENDBRANCH  14  15
ENDBRANCH  13  14
ENDBRANCH  12  13
ENDBRANCH  10  11
ENDBRANCH   1  10
TORSDOF 13
ENDMDL
MODEL 8
REMARK VINA RESULT:    -3.514      1.563      2.984
REMARK INTER + INTRA:          -8.715
REMARK INTER:                  -6.367
REMARK INTRA:                  -2.348
REMARK UNBOUND:                -2.531
REMARK SMILES CCCCCCC=CCCCCCCCC(=O)[O-]
REMARK SMILES IDX 10 1 11 2 12 3 13 4 14 5 15 6 16 7 17 8 18 9 9 10 8 11 7 12
REMARK SMILES IDX 6 13 5 14 4 15 3 16 2 17 1 18
REMARK H PARENT
REMARK Flexibility Score: inf
ROOT
ATOM      1  C   UNL     1       3.132  -0.677   4.833  1.00  0.00     0.004 C 
ENDROOT
BRANCH   1   2
ATOM      2  C   UNL     1       4.433  -1.017   4.089  1.00  0.00     0.000 C 
BRANCH   2   3
ATOM      3  C   UNL     1       4.323  -2.296   3.239  1.00  0.00     0.000 C 
BRANCH   3   4
ATOM      4  C   UNL     1       5.635  -3.086   3.073  1.00  0.00     0.000 C 
BRANCH   4   5
ATOM      5  C   UNL     1       5.408  -4.601   2.928  1.00  0.00     0.006 C 
BRANCH   5   6
ATOM      6  C   UNL     1       3.974  -4.932   2.492  1.00  0.00     0.053 C 
BRANCH   6   7
ATOM      7  C   UNL     1       3.951  -5.756   1.242  1.00  0.00     0.041 C 
ATOM      8  O   UNL     1       4.794  -6.676   1.072  1.00  0.00    -0.550 OA
ATOM      9  O   UNL     1       3.013  -5.492   0.251  1.00  0.00    -0.550 OA
ENDBRANCH   6   7
ENDBRANCH   5   6
ENDBRANCH   4   5
ENDBRANCH   3   4
ENDBRANCH   2   3
ENDBRANCH   1   2
BRANCH   1  10
ATOM     10  C   UNL     1       3.346   0.364   5.939  1.00  0.00     0.027 C 
BRANCH  10  11
ATOM     11  C   UNL     1       4.494  -0.010   6.846  1.00  0.00    -0.031 C 
ATOM     12  C   UNL     1       4.385  -0.647   8.028  1.00  0.00    -0.031 C 
BRANCH  12  13
ATOM     13  C   UNL     1       3.100  -1.150   8.641  1.00  0.00     0.027 C 
BRANCH  13  14
ATOM     14  C   UNL     1       2.997  -2.679   8.558  1.00  0.00     0.004 C 
BRANCH  14  15
ATOM     15  C   UNL     1       2.207  -3.143   7.323  1.00  0.00     0.000 C 
BRANCH  15  16
ATOM     16  C   UNL     1       3.039  -4.027   6.376  1.00  0.00    -0.000 C 
BRANCH  16  17
ATOM     17  C   UNL     1       4.563  -3.939   6.581  1.00  0.00    -0.003 C 
ATOM     18  C   UNL     1       5.243  -5.307   6.619  1.00  0.00     0.004 C 
ENDBRANCH  16  17
ENDBRANCH  15  16
ENDBRANCH  14  15
ENDBRANCH  13  14
ENDBRANCH  12  13
ENDBRANCH  10  11
ENDBRANCH   1  10
TORSDOF 13
ENDMDL
MODEL 9
REMARK VINA RESULT:    -3.498      1.528      2.511
REMARK INTER + INTRA:          -8.689
REMARK INTER:                  -6.610
REMARK INTRA:                  -2.079
REMARK UNBOUND:                -2.531
REMARK SMILES CCCCCCC=CCCCCCCCC(=O)[O-]
REMARK SMILES IDX 10 1 11 2 12 3 13 4 14 5 15 6 16 7 17 8 18 9 9 10 8 11 7 12
REMARK SMILES IDX 6 13 5 14 4 15 3 16 2 17 1 18
REMARK H PARENT
REMARK Flexibility Score: inf
ROOT
ATOM      1  C   UNL     1       4.214  -0.153   6.336  1.00  0.00     0.004 C 
ENDROOT
BRANCH   1   2
ATOM      2  C   UNL     1       4.732  -0.372   4.905  1.00  0.00     0.000 C 
BRANCH   2   3
ATOM      3  C   UNL     1       3.710  -1.082   3.999  1.00  0.00     0.000 C 
BRANCH   3   4
ATOM      4  C   UNL     1       4.307  -2.113   3.022  1.00  0.00     0.000 C 
BRANCH   4   5
ATOM      5  C   UNL     1       4.445  -3.516   3.640  1.00  0.00     0.006 C 
BRANCH   5   6
ATOM      6  C   UNL     1       4.876  -4.564   2.606  1.00  0.00     0.053 C 
BRANCH   6   7
ATOM      7  C   UNL     1       3.768  -5.522   2.291  1.00  0.00     0.041 C 
ATOM      8  O   UNL     1       3.276  -5.564   1.132  1.00  0.00    -0.550 OA
ATOM      9  O   UNL     1       3.262  -6.350   3.284  1.00  0.00    -0.550 OA
ENDBRANCH   6   7
ENDBRANCH   5   6
ENDBRANCH   4   5
ENDBRANCH   3   4
ENDBRANCH   2   3
ENDBRANCH   1   2
BRANCH   1  10
ATOM     10  C   UNL     1       5.145  -0.759   7.393  1.00  0.00     0.027 C 
BRANCH  10  11
ATOM     11  C   UNL     1       5.823  -2.011   6.890  1.00  0.00    -0.031 C 
ATOM     12  C   UNL     1       5.467  -3.274   7.197  1.00  0.00    -0.031 C 
BRANCH  12  13
ATOM     13  C   UNL     1       4.292  -3.672   8.059  1.00  0.00     0.027 C 
BRANCH  13  14
ATOM     14  C   UNL     1       3.120  -4.186   7.212  1.00  0.00     0.004 C 
BRANCH  14  15
ATOM     15  C   UNL     1       2.224  -3.044   6.706  1.00  0.00     0.000 C 
BRANCH  15  16
ATOM     16  C   UNL     1       1.582  -2.234   7.849  1.00  0.00    -0.000 C 
BRANCH  16  17
ATOM     17  C   UNL     1       0.125  -2.613   8.170  1.00  0.00    -0.003 C 
ATOM     18  C   UNL     1      -0.584  -3.307   7.007  1.00  0.00     0.004 C 
ENDBRANCH  16  17
ENDBRANCH  15  16
ENDBRANCH  14  15
ENDBRANCH  13  14
ENDBRANCH  12  13
ENDBRANCH  10  11
ENDBRANCH   1  10
TORSDOF 13
ENDMDL
