MODEL 1
REMARK VINA RESULT:    -3.930      0.000      0.000
REMARK INTER + INTRA:          -6.200
REMARK INTER:                  -5.997
REMARK INTRA:                  -0.203
REMARK UNBOUND:                -0.203
REMARK SMILES CC1=CCC[C@@H](C)C(=O)C[C@H](C(C)C)C(=O)C1
REMARK SMILES IDX 8 1 9 2 6 3 7 4 5 5 4 6 3 7 2 8 1 9 10 11 11 12 15 13 16 14
REMARK SMILES IDX 17 15 12 17 13 18 14 19
REMARK H PARENT
REMARK Flexibility Score: 70.00
ROOT
ATOM      1  C   UNL     1      21.507  29.855  37.888  1.00  0.00     0.136 C 
ATOM      2  O   UNL     1      20.369  30.011  38.310  1.00  0.00    -0.299 OA
ENDROOT
BRANCH   1   3
ATOM      3  C   UNL     1      22.112  28.463  37.872  1.00  0.00     0.053 C 
ATOM      4  C   UNL     1      21.202  27.493  37.106  1.00  0.00     0.016 C 
BRANCH   3   5
ATOM      5  C   UNL     1      22.363  27.964  39.313  1.00  0.00     0.015 C 
BRANCH   5   6
ATOM      6  C   UNL     1      23.546  28.701  39.971  1.00  0.00     0.028 C 
BRANCH   6   7
ATOM      7  C   UNL     1      24.844  28.532  39.219  1.00  0.00    -0.028 C 
ATOM      8  C   UNL     1      25.660  29.540  38.824  1.00  0.00    -0.070 CG0
ATOM      9  C   UNL     1      26.866  29.177  37.995  1.00  0.00     0.039 C 
ATOM     10  G   UNL     1      25.449  30.997  39.212  1.00  0.00     0.000 G0
ENDBRANCH   6   7
ENDBRANCH   5   6
ENDBRANCH   3   5
ENDBRANCH   1   3
BRANCH   1  11
ATOM     11  C   UNL     1      22.272  31.055  37.380  1.00  0.00     0.087 C 
BRANCH  11  12
ATOM     12  C   UNL     1      23.038  31.789  38.514  1.00  0.00     0.066 C 
BRANCH  12  13
ATOM     13  C   UNL     1      24.540  31.766  38.271  1.00  0.00     0.140 C 
ATOM     14  O   UNL     1      25.027  32.402  37.348  1.00  0.00    -0.299 OA
BRANCH  13  15
ATOM     15  C   UNL     1      25.445  31.001  39.208  1.00  0.00     0.106 CG0
ATOM     16  G   UNL     1      25.668  29.550  38.805  1.00  0.00     0.000 G0
ENDBRANCH  13  15
ENDBRANCH  12  13
BRANCH  12  17
ATOM     17  C   UNL     1      22.513  33.238  38.783  1.00  0.00    -0.006 C 
ATOM     18  C   UNL     1      20.990  33.320  38.988  1.00  0.00     0.008 C 
ATOM     19  C   UNL     1      23.233  33.885  39.979  1.00  0.00     0.008 C 
ENDBRANCH  12  17
ENDBRANCH  11  12
ENDBRANCH   1  11
TORSDOF 1
ENDMDL
MODEL 2
REMARK VINA RESULT:    -3.893      1.892      2.764
REMARK INTER + INTRA:          -6.144
REMARK INTER:                  -6.256
REMARK INTRA:                   0.112
REMARK UNBOUND:                -0.203
REMARK SMILES CC1=CCC[C@@H](C)C(=O)C[C@H](C(C)C)C(=O)C1
REMARK SMILES IDX 8 1 9 2 6 3 7 4 5 5 4 6 3 7 2 8 1 9 10 11 11 12 15 13 16 14
REMARK SMILES IDX 17 15 12 17 13 18 14 19
REMARK H PARENT
REMARK Flexibility Score: 70.00
ROOT
ATOM      1  C   UNL     1      19.864  30.362  37.114  1.00  0.00     0.136 C 
ATOM      2  O   UNL     1      19.264  30.605  38.152  1.00  0.00    -0.299 OA
ENDROOT
BRANCH   1   3
ATOM      3  C   UNL     1      19.331  29.295  36.176  1.00  0.00     0.053 C 
ATOM      4  C   UNL     1      17.797  29.336  36.134  1.00  0.00     0.016 C 
BRANCH   3   5
ATOM      5  C   UNL     1      19.834  27.897  36.602  1.00  0.00     0.015 C 
BRANCH   5   6
ATOM      6  C   UNL     1      21.374  27.834  36.636  1.00  0.00     0.028 C 
BRANCH   6   7
ATOM      7  C   UNL     1      21.936  27.764  38.035  1.00  0.00    -0.028 C 
ATOM      8  C   UNL     1      22.878  28.594  38.546  1.00  0.00    -0.070 CG0
ATOM      9  C   UNL     1      23.386  28.302  39.936  1.00  0.00     0.039 C 
ATOM     10  G   UNL     1      23.408  29.820  37.815  1.00  0.00     0.000 G0
ENDBRANCH   6   7
ENDBRANCH   5   6
ENDBRANCH   3   5
ENDBRANCH   1   3
BRANCH   1  11
ATOM     11  C   UNL     1      21.114  31.147  36.789  1.00  0.00     0.087 C 
BRANCH  11  12
ATOM     12  C   UNL     1      21.732  31.818  38.045  1.00  0.00     0.066 C 
BRANCH  12  13
ATOM     13  C   UNL     1      23.045  31.155  38.435  1.00  0.00     0.140 C 
ATOM     14  O   UNL     1      23.765  31.659  39.285  1.00  0.00    -0.299 OA
BRANCH  13  15
ATOM     15  C   UNL     1      23.437  29.834  37.815  1.00  0.00     0.106 CG0
ATOM     16  G   UNL     1      22.903  28.618  38.560  1.00  0.00     0.000 G0
ENDBRANCH  13  15
ENDBRANCH  12  13
BRANCH  12  17
ATOM     17  C   UNL     1      21.880  33.369  37.913  1.00  0.00    -0.006 C 
ATOM     18  C   UNL     1      21.173  33.960  36.680  1.00  0.00     0.008 C 
ATOM     19  C   UNL     1      21.396  34.092  39.183  1.00  0.00     0.008 C 
ENDBRANCH  12  17
ENDBRANCH  11  12
ENDBRANCH   1  11
TORSDOF 1
ENDMDL
MODEL 3
REMARK VINA RESULT:    -3.887      2.850      4.751
REMARK INTER + INTRA:          -6.135
REMARK INTER:                  -5.817
REMARK INTRA:                  -0.318
REMARK UNBOUND:                -0.203
REMARK SMILES CC1=CCC[C@@H](C)C(=O)C[C@H](C(C)C)C(=O)C1
REMARK SMILES IDX 8 1 9 2 6 3 7 4 5 5 4 6 3 7 2 8 1 9 10 11 11 12 15 13 16 14
REMARK SMILES IDX 17 15 12 17 13 18 14 19
REMARK H PARENT
REMARK Flexibility Score: 70.00
ROOT
ATOM      1  C   UNL     1      21.740  28.573  37.396  1.00  0.00     0.136 C 
ATOM      2  O   UNL     1      22.635  28.291  36.611  1.00  0.00    -0.299 OA
ENDROOT
BRANCH   1   3
ATOM      3  C   UNL     1      20.399  27.872  37.281  1.00  0.00     0.053 C 
ATOM      4  C   UNL     1      20.600  26.370  37.028  1.00  0.00     0.016 C 
BRANCH   3   5
ATOM      5  C   UNL     1      19.547  28.511  36.162  1.00  0.00     0.015 C 
BRANCH   5   6
ATOM      6  C   UNL     1      18.576  29.569  36.721  1.00  0.00     0.028 C 
BRANCH   6   7
ATOM      7  C   UNL     1      18.815  30.950  36.161  1.00  0.00    -0.028 C 
ATOM      8  C   UNL     1      19.416  31.973  36.820  1.00  0.00    -0.070 CG0
ATOM      9  C   UNL     1      19.474  33.311  36.127  1.00  0.00     0.039 C 
ATOM     10  G   UNL     1      20.069  31.827  38.187  1.00  0.00     0.000 G0
ENDBRANCH   6   7
ENDBRANCH   5   6
ENDBRANCH   3   5
ENDBRANCH   1   3
BRANCH   1  11
ATOM     11  C   UNL     1      22.003  29.604  38.469  1.00  0.00     0.087 C 
BRANCH  11  12
ATOM     12  C   UNL     1      22.513  30.948  37.883  1.00  0.00     0.066 C 
BRANCH  12  13
ATOM     13  C   UNL     1      21.562  32.090  38.213  1.00  0.00     0.140 C 
ATOM     14  O   UNL     1      21.994  33.212  38.431  1.00  0.00    -0.299 OA
BRANCH  13  15
ATOM     15  C   UNL     1      20.070  31.853  38.215  1.00  0.00     0.106 CG0
ATOM     16  G   UNL     1      19.424  31.969  36.841  1.00  0.00     0.000 G0
ENDBRANCH  13  15
ENDBRANCH  12  13
BRANCH  12  17
ATOM     17  C   UNL     1      23.987  31.284  38.283  1.00  0.00    -0.006 C 
ATOM     18  C   UNL     1      24.643  30.224  39.188  1.00  0.00     0.008 C 
ATOM     19  C   UNL     1      24.867  31.525  37.045  1.00  0.00     0.008 C 
ENDBRANCH  12  17
ENDBRANCH  11  12
ENDBRANCH   1  11
TORSDOF 1
ENDMDL
MODEL 4
REMARK VINA RESULT:    -3.733      2.918      5.111
REMARK INTER + INTRA:          -5.900
REMARK INTER:                  -5.927
REMARK INTRA:                   0.027
REMARK UNBOUND:                -0.203
REMARK SMILES CC1=CCC[C@@H](C)C(=O)C[C@H](C(C)C)C(=O)C1
REMARK SMILES IDX 8 1 9 2 6 3 7 4 5 5 4 6 3 7 2 8 1 9 10 11 11 12 15 13 16 14
REMARK SMILES IDX 17 15 12 17 13 18 14 19
REMARK H PARENT
REMARK Flexibility Score: 70.00
ROOT
ATOM      1  C   UNL     1      20.336  32.849  34.935  1.00  0.00     0.136 C 
ATOM      2  O   UNL     1      19.812  33.129  33.865  1.00  0.00    -0.299 OA
ENDROOT
BRANCH   1   3
ATOM      3  C   UNL     1      21.763  33.289  35.203  1.00  0.00     0.053 C 
ATOM      4  C   UNL     1      21.898  34.808  35.028  1.00  0.00     0.016 C 
BRANCH   3   5
ATOM      5  C   UNL     1      22.746  32.536  34.277  1.00  0.00     0.015 C 
BRANCH   5   6
ATOM      6  C   UNL     1      23.543  31.464  35.046  1.00  0.00     0.028 C 
BRANCH   6   7
ATOM      7  C   UNL     1      23.847  31.857  36.471  1.00  0.00    -0.028 C 
ATOM      8  C   UNL     1      23.259  31.332  37.574  1.00  0.00    -0.070 CG0
ATOM      9  C   UNL     1      23.625  31.926  38.911  1.00  0.00     0.039 C 
ATOM     10  G   UNL     1      22.295  30.154  37.536  1.00  0.00     0.000 G0
ENDBRANCH   6   7
ENDBRANCH   5   6
ENDBRANCH   3   5
ENDBRANCH   1   3
BRANCH   1  11
ATOM     11  C   UNL     1      19.537  32.085  35.966  1.00  0.00     0.087 C 
BRANCH  11  12
ATOM     12  C   UNL     1      20.092  30.654  36.198  1.00  0.00     0.066 C 
BRANCH  12  13
ATOM     13  C   UNL     1      20.832  30.558  37.525  1.00  0.00     0.140 C 
ATOM     14  O   UNL     1      20.244  30.760  38.578  1.00  0.00    -0.299 OA
BRANCH  13  15
ATOM     15  C   UNL     1      22.286  30.152  37.550  1.00  0.00     0.106 CG0
ATOM     16  G   UNL     1      23.256  31.326  37.563  1.00  0.00     0.000 G0
ENDBRANCH  13  15
ENDBRANCH  12  13
BRANCH  12  17
ATOM     17  C   UNL     1      19.008  29.535  36.053  1.00  0.00    -0.006 C 
ATOM     18  C   UNL     1      19.555  28.110  36.251  1.00  0.00     0.008 C 
ATOM     19  C   UNL     1      17.822  29.772  37.004  1.00  0.00     0.008 C 
ENDBRANCH  12  17
ENDBRANCH  11  12
ENDBRANCH   1  11
TORSDOF 1
ENDMDL
MODEL 5
REMARK VINA RESULT:    -3.713      2.015      4.102
REMARK INTER + INTRA:          -5.869
REMARK INTER:                  -5.707
REMARK INTRA:                  -0.163
REMARK UNBOUND:                -0.203
REMARK SMILES CC1=CCC[C@@H](C)C(=O)C[C@H](C(C)C)C(=O)C1
REMARK SMILES IDX 8 1 9 2 6 3 7 4 5 5 4 6 3 7 2 8 1 9 10 11 11 12 15 13 16 14
REMARK SMILES IDX 17 15 12 17 13 18 14 19
REMARK H PARENT
REMARK Flexibility Score: 70.00
ROOT
ATOM      1  C   UNL     1      22.682  28.811  38.691  1.00  0.00     0.136 C 
ATOM      2  O   UNL     1      21.909  28.556  39.604  1.00  0.00    -0.299 OA
ENDROOT
BRANCH   1   3
ATOM      3  C   UNL     1      24.175  28.640  38.908  1.00  0.00     0.053 C 
ATOM      4  C   UNL     1      24.469  28.323  40.381  1.00  0.00     0.016 C 
BRANCH   3   5
ATOM      5  C   UNL     1      24.938  29.904  38.452  1.00  0.00     0.015 C 
BRANCH   5   6
ATOM      6  C   UNL     1      24.556  31.134  39.299  1.00  0.00     0.028 C 
BRANCH   6   7
ATOM      7  C   UNL     1      24.457  32.405  38.491  1.00  0.00    -0.028 C 
ATOM      8  C   UNL     1      23.308  32.956  38.029  1.00  0.00    -0.070 CG0
ATOM      9  C   UNL     1      23.421  34.178  37.153  1.00  0.00     0.039 C 
ATOM     10  G   UNL     1      21.921  32.436  38.385  1.00  0.00     0.000 G0
ENDBRANCH   6   7
ENDBRANCH   5   6
ENDBRANCH   3   5
ENDBRANCH   1   3
BRANCH   1  11
ATOM     11  C   UNL     1      22.125  29.274  37.364  1.00  0.00     0.087 C 
BRANCH  11  12
ATOM     12  C   UNL     1      20.885  30.193  37.535  1.00  0.00     0.066 C 
BRANCH  12  13
ATOM     13  C   UNL     1      21.241  31.651  37.285  1.00  0.00     0.140 C 
ATOM     14  O   UNL     1      20.953  32.186  36.224  1.00  0.00    -0.299 OA
BRANCH  13  15
ATOM     15  C   UNL     1      21.900  32.465  38.374  1.00  0.00     0.106 CG0
ATOM     16  G   UNL     1      23.300  32.950  38.022  1.00  0.00     0.000 G0
ENDBRANCH  13  15
ENDBRANCH  12  13
BRANCH  12  17
ATOM     17  C   UNL     1      19.653  29.740  36.686  1.00  0.00    -0.006 C 
ATOM     18  C   UNL     1      19.585  28.220  36.447  1.00  0.00     0.008 C 
ATOM     19  C   UNL     1      18.331  30.226  37.306  1.00  0.00     0.008 C 
ENDBRANCH  12  17
ENDBRANCH  11  12
ENDBRANCH   1  11
TORSDOF 1
ENDMDL
MODEL 6
REMARK VINA RESULT:    -3.554      2.630      4.408
REMARK INTER + INTRA:          -5.626
REMARK INTER:                  -5.328
REMARK INTRA:                  -0.298
REMARK UNBOUND:                -0.203
REMARK SMILES CC1=CCC[C@@H](C)C(=O)C[C@H](C(C)C)C(=O)C1
REMARK SMILES IDX 8 1 9 2 6 3 7 4 5 5 4 6 3 7 2 8 1 9 10 11 11 12 15 13 16 14
REMARK SMILES IDX 17 15 12 17 13 18 14 19
REMARK H PARENT
REMARK Flexibility Score: 70.00
ROOT
ATOM      1  C   UNL     1      23.854  29.277  38.600  1.00  0.00     0.136 C 
ATOM      2  O   UNL     1      24.791  28.490  38.595  1.00  0.00    -0.299 OA
ENDROOT
BRANCH   1   3
ATOM      3  C   UNL     1      22.449  28.762  38.852  1.00  0.00     0.053 C 
ATOM      4  C   UNL     1      22.379  28.033  40.201  1.00  0.00     0.016 C 
BRANCH   3   5
ATOM      5  C   UNL     1      21.995  27.836  37.700  1.00  0.00     0.015 C 
BRANCH   5   6
ATOM      6  C   UNL     1      21.077  28.574  36.707  1.00  0.00     0.028 C 
BRANCH   6   7
ATOM      7  C   UNL     1      20.235  29.645  37.358  1.00  0.00    -0.028 C 
ATOM      8  C   UNL     1      20.393  30.981  37.187  1.00  0.00    -0.070 CG0
ATOM      9  C   UNL     1      19.516  31.898  38.003  1.00  0.00     0.039 C 
ATOM     10  G   UNL     1      21.367  31.595  36.190  1.00  0.00     0.000 G0
ENDBRANCH   6   7
ENDBRANCH   5   6
ENDBRANCH   3   5
ENDBRANCH   1   3
BRANCH   1  11
ATOM     11  C   UNL     1      24.129  30.745  38.370  1.00  0.00     0.087 C 
BRANCH  11  12
ATOM     12  C   UNL     1      23.870  31.169  36.899  1.00  0.00     0.066 C 
BRANCH  12  13
ATOM     13  C   UNL     1      22.671  32.101  36.797  1.00  0.00     0.140 C 
ATOM     14  O   UNL     1      22.758  33.265  37.159  1.00  0.00    -0.299 OA
BRANCH  13  15
ATOM     15  C   UNL     1      21.380  31.605  36.189  1.00  0.00     0.106 CG0
ATOM     16  G   UNL     1      20.416  30.993  37.197  1.00  0.00     0.000 G0
ENDBRANCH  13  15
ENDBRANCH  12  13
BRANCH  12  17
ATOM     17  C   UNL     1      25.132  31.764  36.192  1.00  0.00    -0.006 C 
ATOM     18  C   UNL     1      26.128  32.435  37.155  1.00  0.00     0.008 C 
ATOM     19  C   UNL     1      25.860  30.701  35.351  1.00  0.00     0.008 C 
ENDBRANCH  12  17
ENDBRANCH  11  12
ENDBRANCH   1  11
TORSDOF 1
ENDMDL
MODEL 7
REMARK VINA RESULT:    -3.465      2.378      4.284
REMARK INTER + INTRA:          -5.490
REMARK INTER:                  -5.413
REMARK INTRA:                  -0.078
REMARK UNBOUND:                -0.203
REMARK SMILES CC1=CCC[C@@H](C)C(=O)C[C@H](C(C)C)C(=O)C1
REMARK SMILES IDX 8 1 9 2 6 3 7 4 5 5 4 6 3 7 2 8 1 9 10 11 11 12 15 13 16 14
REMARK SMILES IDX 17 15 12 17 13 18 14 19
REMARK H PARENT
REMARK Flexibility Score: 70.00
ROOT
ATOM      1  C   UNL     1      24.405  30.527  37.626  1.00  0.00     0.136 C 
ATOM      2  O   UNL     1      24.839  30.023  36.600  1.00  0.00    -0.299 OA
ENDROOT
BRANCH   1   3
ATOM      3  C   UNL     1      24.863  29.992  38.971  1.00  0.00     0.053 C 
ATOM      4  C   UNL     1      26.396  29.965  39.043  1.00  0.00     0.016 C 
BRANCH   3   5
ATOM      5  C   UNL     1      24.273  28.586  39.225  1.00  0.00     0.015 C 
BRANCH   5   6
ATOM      6  C   UNL     1      22.754  28.646  39.481  1.00  0.00     0.028 C 
BRANCH   6   7
ATOM      7  C   UNL     1      21.935  28.132  38.322  1.00  0.00    -0.028 C 
ATOM      8  C   UNL     1      21.054  28.864  37.596  1.00  0.00    -0.070 CG0
ATOM      9  C   UNL     1      20.255  28.146  36.538  1.00  0.00     0.039 C 
ATOM     10  G   UNL     1      20.867  30.366  37.762  1.00  0.00     0.000 G0
ENDBRANCH   6   7
ENDBRANCH   5   6
ENDBRANCH   3   5
ENDBRANCH   1   3
BRANCH   1  11
ATOM     11  C   UNL     1      23.434  31.681  37.524  1.00  0.00     0.087 C 
BRANCH  11  12
ATOM     12  C   UNL     1      22.589  31.625  36.223  1.00  0.00     0.066 C 
BRANCH  12  13
ATOM     13  C   UNL     1      21.165  31.171  36.511  1.00  0.00     0.140 C 
ATOM     14  O   UNL     1      20.268  31.399  35.711  1.00  0.00    -0.299 OA
BRANCH  13  15
ATOM     15  C   UNL     1      20.862  30.382  37.762  1.00  0.00     0.106 CG0
ATOM     16  G   UNL     1      21.057  28.879  37.609  1.00  0.00     0.000 G0
ENDBRANCH  13  15
ENDBRANCH  12  13
BRANCH  12  17
ATOM     17  C   UNL     1      22.621  32.956  35.402  1.00  0.00    -0.006 C 
ATOM     18  C   UNL     1      23.578  34.017  35.974  1.00  0.00     0.008 C 
ATOM     19  C   UNL     1      22.957  32.697  33.923  1.00  0.00     0.008 C 
ENDBRANCH  12  17
ENDBRANCH  11  12
ENDBRANCH   1  11
TORSDOF 1
ENDMDL
MODEL 8
REMARK VINA RESULT:    -3.447      2.209      4.264
REMARK INTER + INTRA:          -5.464
REMARK INTER:                  -5.302
REMARK INTRA:                  -0.161
REMARK UNBOUND:                -0.203
REMARK SMILES CC1=CCC[C@@H](C)C(=O)C[C@H](C(C)C)C(=O)C1
REMARK SMILES IDX 8 1 9 2 6 3 7 4 5 5 4 6 3 7 2 8 1 9 10 11 11 12 15 13 16 14
REMARK SMILES IDX 17 15 12 17 13 18 14 19
REMARK H PARENT
REMARK Flexibility Score: 70.00
ROOT
ATOM      1  C   UNL     1      20.995  28.925  37.637  1.00  0.00     0.136 C 
ATOM      2  O   UNL     1      21.643  28.013  37.143  1.00  0.00    -0.299 OA
ENDROOT
BRANCH   1   3
ATOM      3  C   UNL     1      19.580  29.183  37.151  1.00  0.00     0.053 C 
ATOM      4  C   UNL     1      19.287  28.356  35.891  1.00  0.00     0.016 C 
BRANCH   3   5
ATOM      5  C   UNL     1      19.364  30.690  36.885  1.00  0.00     0.015 C 
BRANCH   5   6
ATOM      6  C   UNL     1      20.389  31.241  35.875  1.00  0.00     0.028 C 
BRANCH   6   7
ATOM      7  C   UNL     1      20.824  32.654  36.180  1.00  0.00    -0.028 C 
ATOM      8  C   UNL     1      22.041  33.017  36.654  1.00  0.00    -0.070 CG0
ATOM      9  C   UNL     1      22.253  34.472  36.992  1.00  0.00     0.039 C 
ATOM     10  G   UNL     1      23.206  32.050  36.817  1.00  0.00     0.000 G0
ENDBRANCH   6   7
ENDBRANCH   5   6
ENDBRANCH   3   5
ENDBRANCH   1   3
BRANCH   1  11
ATOM     11  C   UNL     1      21.619  29.761  38.731  1.00  0.00     0.087 C 
BRANCH  11  12
ATOM     12  C   UNL     1      23.128  30.027  38.479  1.00  0.00     0.066 C 
BRANCH  12  13
ATOM     13  C   UNL     1      23.390  31.502  38.208  1.00  0.00     0.140 C 
ATOM     14  O   UNL     1      23.787  32.235  39.102  1.00  0.00    -0.299 OA
BRANCH  13  15
ATOM     15  C   UNL     1      23.217  32.055  36.813  1.00  0.00     0.106 CG0
ATOM     16  G   UNL     1      22.044  33.016  36.669  1.00  0.00     0.000 G0
ENDBRANCH  13  15
ENDBRANCH  12  13
BRANCH  12  17
ATOM     17  C   UNL     1      24.055  29.469  39.609  1.00  0.00    -0.006 C 
ATOM     18  C   UNL     1      23.487  28.231  40.325  1.00  0.00     0.008 C 
ATOM     19  C   UNL     1      25.466  29.160  39.078  1.00  0.00     0.008 C 
ENDBRANCH  12  17
ENDBRANCH  11  12
ENDBRANCH   1  11
TORSDOF 1
ENDMDL
MODEL 9
REMARK VINA RESULT:    -3.443      2.939      5.167
REMARK INTER + INTRA:          -5.458
REMARK INTER:                  -5.090
REMARK INTRA:                  -0.368
REMARK UNBOUND:                -0.203
REMARK SMILES CC1=CCC[C@@H](C)C(=O)C[C@H](C(C)C)C(=O)C1
REMARK SMILES IDX 8 1 9 2 6 3 7 4 5 5 4 6 3 7 2 8 1 9 10 11 11 12 15 13 16 14
REMARK SMILES IDX 17 15 12 17 13 18 14 19
REMARK H PARENT
REMARK Flexibility Score: 70.00
ROOT
ATOM      1  C   UNL     1      21.533  32.923  36.136  1.00  0.00     0.136 C 
ATOM      2  O   UNL     1      22.079  33.986  36.399  1.00  0.00    -0.299 OA
ENDROOT
BRANCH   1   3
ATOM      3  C   UNL     1      20.017  32.857  36.083  1.00  0.00     0.053 C 
ATOM      4  C   UNL     1      19.466  33.940  35.145  1.00  0.00     0.016 C 
BRANCH   3   5
ATOM      5  C   UNL     1      19.418  32.997  37.501  1.00  0.00     0.015 C 
BRANCH   5   6
ATOM      6  C   UNL     1      19.248  31.626  38.184  1.00  0.00     0.028 C 
BRANCH   6   7
ATOM      7  C   UNL     1      18.835  30.533  37.228  1.00  0.00    -0.028 C 
ATOM      8  C   UNL     1      19.556  29.419  36.948  1.00  0.00    -0.070 CG0
ATOM      9  C   UNL     1      19.022  28.489  35.888  1.00  0.00     0.039 C 
ATOM     10  G   UNL     1      20.839  29.040  37.676  1.00  0.00     0.000 G0
ENDBRANCH   6   7
ENDBRANCH   5   6
ENDBRANCH   3   5
ENDBRANCH   1   3
BRANCH   1  11
ATOM     11  C   UNL     1      22.387  31.708  35.856  1.00  0.00     0.087 C 
BRANCH  11  12
ATOM     12  C   UNL     1      22.643  30.862  37.132  1.00  0.00     0.066 C 
BRANCH  12  13
ATOM     13  C   UNL     1      22.113  29.444  36.969  1.00  0.00     0.140 C 
ATOM     14  O   UNL     1      22.731  28.625  36.305  1.00  0.00    -0.299 OA
BRANCH  13  15
ATOM     15  C   UNL     1      20.848  29.025  37.679  1.00  0.00     0.106 CG0
ATOM     16  G   UNL     1      19.570  29.433  36.959  1.00  0.00     0.000 G0
ENDBRANCH  13  15
ENDBRANCH  12  13
BRANCH  12  17
ATOM     17  C   UNL     1      24.135  30.875  37.600  1.00  0.00    -0.006 C 
ATOM     18  C   UNL     1      25.114  31.415  36.541  1.00  0.00     0.008 C 
ATOM     19  C   UNL     1      24.308  31.658  38.913  1.00  0.00     0.008 C 
ENDBRANCH  12  17
ENDBRANCH  11  12
ENDBRANCH   1  11
TORSDOF 1
ENDMDL
