MODEL 1
REMARK VINA RESULT:    -5.566      0.000      0.000
REMARK INTER + INTRA:          -7.206
REMARK INTER:                  -6.705
REMARK INTRA:                  -0.501
REMARK UNBOUND:                -0.501
REMARK SMILES O=c1ccn([C@H]2O[C@@H](CO)[C@@H](O)[C@H]2O)c(=O)[nH]1
REMARK SMILES IDX 6 1 13 2 11 3 8 4 7 5 5 6 3 7 4 8 2 9 17 10 1 11 15 12 16 14
REMARK SMILES IDX 14 15 12 17 9 19 10 20
REMARK H PARENT 17 13 14 16 12 18 10 21
REMARK Flexibility Score: inf
ROOT
ATOM      1  C   UNL     1      21.789   9.852  12.521  1.00  0.00     0.255 C 
ATOM      2  C   UNL     1      23.320   9.809  12.323  1.00  0.00     0.196 C 
ATOM      3  C   UNL     1      23.698  11.259  12.056  1.00  0.00     0.179 C 
ATOM      4  C   UNL     1      22.341  11.889  11.716  1.00  0.00     0.178 C 
ATOM      5  O   UNL     1      21.354  11.195  12.442  1.00  0.00    -0.347 OA
ENDROOT
BRANCH   1   6
ATOM      6  N   UNL     1      21.345   9.209  13.780  1.00  0.00    -0.271 N 
ATOM      7  C   UNL     1      20.324   7.310  14.837  1.00  0.00     0.090 A 
ATOM      8  C   UNL     1      20.750   7.980  13.693  1.00  0.00     0.099 A 
ATOM      9  C   UNL     1      20.524   7.912  16.074  1.00  0.00     0.253 A 
ATOM     10  N   UNL     1      21.130   9.125  16.144  1.00  0.00    -0.274 N 
ATOM     11  O   UNL     1      20.147   7.330  17.125  1.00  0.00    -0.269 OA
ATOM     12  C   UNL     1      21.546   9.772  15.019  1.00  0.00     0.330 A 
ATOM     13  H   UNL     1      21.284   9.566  17.079  1.00  0.00     0.175 HD
ATOM     14  O   UNL     1      22.124  10.887  15.139  1.00  0.00    -0.248 OA
ENDBRANCH   1   6
BRANCH   2  15
ATOM     15  O   UNL     1      24.040   9.219  13.382  1.00  0.00    -0.386 OA
ATOM     16  H   UNL     1      24.867   9.741  13.541  1.00  0.00     0.211 HD
ENDBRANCH   2  15
BRANCH   3  17
ATOM     17  O   UNL     1      24.329  11.870  13.159  1.00  0.00    -0.387 OA
ATOM     18  H   UNL     1      23.740  12.595  13.495  1.00  0.00     0.211 HD
ENDBRANCH   3  17
BRANCH   4  19
ATOM     19  C   UNL     1      22.246  13.397  11.995  1.00  0.00     0.191 C 
BRANCH  19  20
ATOM     20  O   UNL     1      22.256  13.650  13.374  1.00  0.00    -0.394 OA
ATOM     21  H   UNL     1      22.363  12.771  13.824  1.00  0.00     0.210 HD
ENDBRANCH  19  20
ENDBRANCH   4  19
TORSDOF 5
ENDMDL
MODEL 2
REMARK VINA RESULT:    -5.560      1.735      2.761
REMARK INTER + INTRA:          -7.199
REMARK INTER:                  -6.917
REMARK INTRA:                  -0.281
REMARK UNBOUND:                -0.501
REMARK SMILES O=c1ccn([C@H]2O[C@@H](CO)[C@@H](O)[C@H]2O)c(=O)[nH]1
REMARK SMILES IDX 6 1 13 2 11 3 8 4 7 5 5 6 3 7 4 8 2 9 17 10 1 11 15 12 16 14
REMARK SMILES IDX 14 15 12 17 9 19 10 20
REMARK H PARENT 17 13 14 16 12 18 10 21
REMARK Flexibility Score: inf
ROOT
ATOM      1  C   UNL     1      23.073  10.846  13.815  1.00  0.00     0.255 C 
ATOM      2  C   UNL     1      22.314  12.094  13.314  1.00  0.00     0.196 C 
ATOM      3  C   UNL     1      23.205  12.650  12.212  1.00  0.00     0.179 C 
ATOM      4  C   UNL     1      24.536  11.936  12.481  1.00  0.00     0.178 C 
ATOM      5  O   UNL     1      24.239  10.674  13.033  1.00  0.00    -0.347 OA
ENDROOT
BRANCH   1   6
ATOM      6  N   UNL     1      22.241   9.621  13.827  1.00  0.00    -0.271 N 
ATOM      7  C   UNL     1      21.563   7.618  12.688  1.00  0.00     0.090 A 
ATOM      8  C   UNL     1      22.304   8.795  12.737  1.00  0.00     0.099 A 
ATOM      9  C   UNL     1      20.761   7.291  13.775  1.00  0.00     0.253 A 
ATOM     10  N   UNL     1      20.720   8.113  14.855  1.00  0.00    -0.274 N 
ATOM     11  O   UNL     1      20.077   6.234  13.757  1.00  0.00    -0.269 OA
ATOM     12  C   UNL     1      21.452   9.262  14.896  1.00  0.00     0.330 A 
ATOM     13  H   UNL     1      20.121   7.855  15.672  1.00  0.00     0.175 HD
ATOM     14  O   UNL     1      21.398   9.980  15.932  1.00  0.00    -0.248 OA
ENDBRANCH   1   6
BRANCH   2  15
ATOM     15  O   UNL     1      20.985  11.857  12.906  1.00  0.00    -0.386 OA
ATOM     16  H   UNL     1      20.707  10.958  13.217  1.00  0.00     0.211 HD
ENDBRANCH   2  15
BRANCH   3  17
ATOM     17  O   UNL     1      22.696  12.400  10.921  1.00  0.00    -0.387 OA
ATOM     18  H   UNL     1      22.162  11.564  10.951  1.00  0.00     0.211 HD
ENDBRANCH   3  17
BRANCH   4  19
ATOM     19  C   UNL     1      25.439  11.779  11.249  1.00  0.00     0.191 C 
BRANCH  19  20
ATOM     20  O   UNL     1      26.477  10.871  11.503  1.00  0.00    -0.394 OA
ATOM     21  H   UNL     1      26.797  11.055  12.424  1.00  0.00     0.210 HD
ENDBRANCH  19  20
ENDBRANCH   4  19
TORSDOF 5
ENDMDL
MODEL 3
REMARK VINA RESULT:    -5.007     17.196     18.129
REMARK INTER + INTRA:          -6.533
REMARK INTER:                  -5.996
REMARK INTRA:                  -0.537
REMARK UNBOUND:                -0.501
REMARK SMILES O=c1ccn([C@H]2O[C@@H](CO)[C@@H](O)[C@H]2O)c(=O)[nH]1
REMARK SMILES IDX 6 1 13 2 11 3 8 4 7 5 5 6 3 7 4 8 2 9 17 10 1 11 15 12 16 14
REMARK SMILES IDX 14 15 12 17 9 19 10 20
REMARK H PARENT 17 13 14 16 12 18 10 21
REMARK Flexibility Score: inf
ROOT
ATOM      1  C   UNL     1      20.138   0.023  -1.490  1.00  0.00     0.255 C 
ATOM      2  C   UNL     1      21.058   0.422  -0.315  1.00  0.00     0.196 C 
ATOM      3  C   UNL     1      21.121   1.940  -0.394  1.00  0.00     0.179 C 
ATOM      4  C   UNL     1      20.599   2.212  -1.812  1.00  0.00     0.178 C 
ATOM      5  O   UNL     1      19.675   1.197  -2.128  1.00  0.00    -0.347 OA
ENDROOT
BRANCH   1   6
ATOM      6  N   UNL     1      19.017  -0.854  -1.084  1.00  0.00    -0.271 N 
ATOM      7  C   UNL     1      16.732  -1.024  -0.365  1.00  0.00     0.090 A 
ATOM      8  C   UNL     1      17.833  -0.260  -0.740  1.00  0.00     0.099 A 
ATOM      9  C   UNL     1      16.855  -2.409  -0.355  1.00  0.00     0.253 A 
ATOM     10  N   UNL     1      18.031  -2.984  -0.714  1.00  0.00    -0.274 N 
ATOM     11  O   UNL     1      15.875  -3.125  -0.019  1.00  0.00    -0.269 OA
ATOM     12  C   UNL     1      19.103  -2.228  -1.082  1.00  0.00     0.330 A 
ATOM     13  H   UNL     1      18.112  -4.026  -0.712  1.00  0.00     0.175 HD
ATOM     14  O   UNL     1      20.167  -2.811  -1.429  1.00  0.00    -0.248 OA
ENDBRANCH   1   6
BRANCH   2  15
ATOM     15  O   UNL     1      20.655  -0.067   0.946  1.00  0.00    -0.386 OA
ATOM     16  H   UNL     1      21.381  -0.624   1.322  1.00  0.00     0.211 HD
ENDBRANCH   2  15
BRANCH   3  17
ATOM     17  O   UNL     1      20.353   2.571   0.606  1.00  0.00    -0.387 OA
ATOM     18  H   UNL     1      20.971   2.949   1.285  1.00  0.00     0.211 HD
ENDBRANCH   3  17
BRANCH   4  19
ATOM     19  C   UNL     1      19.959   3.595  -2.005  1.00  0.00     0.191 C 
BRANCH  19  20
ATOM     20  O   UNL     1      18.668   3.628  -1.461  1.00  0.00    -0.394 OA
ATOM     21  H   UNL     1      18.524   4.551  -1.124  1.00  0.00     0.210 HD
ENDBRANCH  19  20
ENDBRANCH   4  19
TORSDOF 5
ENDMDL
MODEL 4
REMARK VINA RESULT:    -4.756     11.842     13.365
REMARK INTER + INTRA:          -6.231
REMARK INTER:                  -5.956
REMARK INTRA:                  -0.274
REMARK UNBOUND:                -0.501
REMARK SMILES O=c1ccn([C@H]2O[C@@H](CO)[C@@H](O)[C@H]2O)c(=O)[nH]1
REMARK SMILES IDX 6 1 13 2 11 3 8 4 7 5 5 6 3 7 4 8 2 9 17 10 1 11 15 12 16 14
REMARK SMILES IDX 14 15 12 17 9 19 10 20
REMARK H PARENT 17 13 14 16 12 18 10 21
REMARK Flexibility Score: inf
ROOT
ATOM      1  C   UNL     1      29.313   1.877   6.735  1.00  0.00     0.255 C 
ATOM      2  C   UNL     1      28.228   2.964   6.897  1.00  0.00     0.196 C 
ATOM      3  C   UNL     1      27.129   2.536   5.935  1.00  0.00     0.179 C 
ATOM      4  C   UNL     1      27.859   1.522   5.042  1.00  0.00     0.178 C 
ATOM      5  O   UNL     1      28.848   0.898   5.826  1.00  0.00    -0.347 OA
ENDROOT
BRANCH   1   6
ATOM      6  N   UNL     1      29.730   1.271   8.021  1.00  0.00    -0.271 N 
ATOM      7  C   UNL     1      29.443  -0.501   9.616  1.00  0.00     0.090 A 
ATOM      8  C   UNL     1      29.090   0.132   8.427  1.00  0.00     0.099 A 
ATOM      9  C   UNL     1      30.468   0.044  10.381  1.00  0.00     0.253 A 
ATOM     10  N   UNL     1      31.103   1.167   9.956  1.00  0.00    -0.274 N 
ATOM     11  O   UNL     1      30.807  -0.506  11.462  1.00  0.00    -0.269 OA
ATOM     12  C   UNL     1      30.753   1.777   8.790  1.00  0.00     0.330 A 
ATOM     13  H   UNL     1      31.879   1.565  10.533  1.00  0.00     0.175 HD
ATOM     14  O   UNL     1      31.390   2.805   8.428  1.00  0.00    -0.248 OA
ENDBRANCH   1   6
BRANCH   2  15
ATOM     15  O   UNL     1      27.781   3.165   8.219  1.00  0.00    -0.386 OA
ATOM     16  H   UNL     1      28.358   2.649   8.837  1.00  0.00     0.211 HD
ENDBRANCH   2  15
BRANCH   3  17
ATOM     17  O   UNL     1      26.011   1.985   6.594  1.00  0.00    -0.387 OA
ATOM     18  H   UNL     1      25.335   1.737   5.911  1.00  0.00     0.211 HD
ENDBRANCH   3  17
BRANCH   4  19
ATOM     19  C   UNL     1      26.949   0.468   4.394  1.00  0.00     0.191 C 
BRANCH  19  20
ATOM     20  O   UNL     1      27.552  -0.078   3.252  1.00  0.00    -0.394 OA
ATOM     21  H   UNL     1      28.469  -0.351   3.518  1.00  0.00     0.210 HD
ENDBRANCH  19  20
ENDBRANCH   4  19
TORSDOF 5
ENDMDL
MODEL 5
REMARK VINA RESULT:    -4.752     17.066     18.521
REMARK INTER + INTRA:          -6.225
REMARK INTER:                  -5.686
REMARK INTRA:                  -0.539
REMARK UNBOUND:                -0.501
REMARK SMILES O=c1ccn([C@H]2O[C@@H](CO)[C@@H](O)[C@H]2O)c(=O)[nH]1
REMARK SMILES IDX 6 1 13 2 11 3 8 4 7 5 5 6 3 7 4 8 2 9 17 10 1 11 15 12 16 14
REMARK SMILES IDX 14 15 12 17 9 19 10 20
REMARK H PARENT 17 13 14 16 12 18 10 21
REMARK Flexibility Score: inf
ROOT
ATOM      1  C   UNL     1      19.179  -0.180   0.280  1.00  0.00     0.255 C 
ATOM      2  C   UNL     1      19.993  -1.436  -0.102  1.00  0.00     0.196 C 
ATOM      3  C   UNL     1      18.935  -2.500  -0.354  1.00  0.00     0.179 C 
ATOM      4  C   UNL     1      17.693  -1.883   0.303  1.00  0.00     0.178 C 
ATOM      5  O   UNL     1      17.801  -0.483   0.188  1.00  0.00    -0.347 OA
ENDROOT
BRANCH   1   6
ATOM      6  N   UNL     1      19.529   1.011  -0.527  1.00  0.00    -0.271 N 
ATOM      7  C   UNL     1      19.090   2.340  -2.478  1.00  0.00     0.090 A 
ATOM      8  C   UNL     1      18.826   1.231  -1.680  1.00  0.00     0.099 A 
ATOM      9  C   UNL     1      20.079   3.230  -2.074  1.00  0.00     0.253 A 
ATOM     10  N   UNL     1      20.757   3.007  -0.919  1.00  0.00    -0.274 N 
ATOM     11  O   UNL     1      20.340   4.242  -2.777  1.00  0.00    -0.269 OA
ATOM     12  C   UNL     1      20.490   1.919  -0.143  1.00  0.00     0.330 A 
ATOM     13  H   UNL     1      21.493   3.686  -0.618  1.00  0.00     0.175 HD
ATOM     14  O   UNL     1      21.132   1.769   0.932  1.00  0.00    -0.248 OA
ENDBRANCH   1   6
BRANCH   2  15
ATOM     15  O   UNL     1      20.890  -1.258  -1.177  1.00  0.00    -0.386 OA
ATOM     16  H   UNL     1      21.818  -1.306  -0.834  1.00  0.00     0.211 HD
ENDBRANCH   2  15
BRANCH   3  17
ATOM     17  O   UNL     1      18.754  -2.775  -1.726  1.00  0.00    -0.387 OA
ATOM     18  H   UNL     1      18.549  -1.923  -2.192  1.00  0.00     0.211 HD
ENDBRANCH   3  17
BRANCH   4  19
ATOM     19  C   UNL     1      16.355  -2.365  -0.277  1.00  0.00     0.191 C 
BRANCH  19  20
ATOM     20  O   UNL     1      16.024  -1.643  -1.433  1.00  0.00    -0.394 OA
ATOM     21  H   UNL     1      15.232  -1.088  -1.205  1.00  0.00     0.210 HD
ENDBRANCH  19  20
ENDBRANCH   4  19
TORSDOF 5
ENDMDL
MODEL 6
REMARK VINA RESULT:    -4.724     11.825     13.312
REMARK INTER + INTRA:          -6.192
REMARK INTER:                  -5.901
REMARK INTRA:                  -0.291
REMARK UNBOUND:                -0.501
REMARK SMILES O=c1ccn([C@H]2O[C@@H](CO)[C@@H](O)[C@H]2O)c(=O)[nH]1
REMARK SMILES IDX 6 1 13 2 11 3 8 4 7 5 5 6 3 7 4 8 2 9 17 10 1 11 15 12 16 14
REMARK SMILES IDX 14 15 12 17 9 19 10 20
REMARK H PARENT 17 13 14 16 12 18 10 21
REMARK Flexibility Score: inf
ROOT
ATOM      1  C   UNL     1      30.543   2.054   8.045  1.00  0.00     0.255 C 
ATOM      2  C   UNL     1      29.913   3.261   8.775  1.00  0.00     0.196 C 
ATOM      3  C   UNL     1      28.854   3.768   7.806  1.00  0.00     0.179 C 
ATOM      4  C   UNL     1      29.268   3.089   6.493  1.00  0.00     0.178 C 
ATOM      5  O   UNL     1      29.866   1.857   6.819  1.00  0.00    -0.347 OA
ENDROOT
BRANCH   1   6
ATOM      6  N   UNL     1      30.559   0.820   8.863  1.00  0.00    -0.271 N 
ATOM      7  C   UNL     1      29.419  -1.184   9.534  1.00  0.00     0.090 A 
ATOM      8  C   UNL     1      29.464   0.001   8.805  1.00  0.00     0.099 A 
ATOM      9  C   UNL     1      30.515  -1.526  10.317  1.00  0.00     0.253 A 
ATOM     10  N   UNL     1      31.601  -0.711  10.351  1.00  0.00    -0.274 N 
ATOM     11  O   UNL     1      30.501  -2.592  10.988  1.00  0.00    -0.269 OA
ATOM     12  C   UNL     1      31.637   0.446   9.633  1.00  0.00     0.330 A 
ATOM     13  H   UNL     1      32.425  -0.980  10.936  1.00  0.00     0.175 HD
ATOM     14  O   UNL     1      32.678   1.158   9.680  1.00  0.00    -0.248 OA
ENDBRANCH   1   6
BRANCH   2  15
ATOM     15  O   UNL     1      29.416   2.981  10.065  1.00  0.00    -0.386 OA
ATOM     16  H   UNL     1      29.193   2.018  10.123  1.00  0.00     0.211 HD
ENDBRANCH   2  15
BRANCH   3  17
ATOM     17  O   UNL     1      27.544   3.437   8.208  1.00  0.00    -0.387 OA
ATOM     18  H   UNL     1      27.309   2.555   7.820  1.00  0.00     0.211 HD
ENDBRANCH   3  17
BRANCH   4  19
ATOM     19  C   UNL     1      28.121   2.877   5.493  1.00  0.00     0.191 C 
BRANCH  19  20
ATOM     20  O   UNL     1      28.349   1.739   4.706  1.00  0.00    -0.394 OA
ATOM     21  H   UNL     1      29.051   1.985   4.047  1.00  0.00     0.210 HD
ENDBRANCH  19  20
ENDBRANCH   4  19
TORSDOF 5
ENDMDL
MODEL 7
REMARK VINA RESULT:    -4.660     11.651     13.212
REMARK INTER + INTRA:          -6.114
REMARK INTER:                  -5.574
REMARK INTRA:                  -0.540
REMARK UNBOUND:                -0.501
REMARK SMILES O=c1ccn([C@H]2O[C@@H](CO)[C@@H](O)[C@H]2O)c(=O)[nH]1
REMARK SMILES IDX 6 1 13 2 11 3 8 4 7 5 5 6 3 7 4 8 2 9 17 10 1 11 15 12 16 14
REMARK SMILES IDX 14 15 12 17 9 19 10 20
REMARK H PARENT 17 13 14 16 12 18 10 21
REMARK Flexibility Score: inf
ROOT
ATOM      1  C   UNL     1      30.644   2.155   8.084  1.00  0.00     0.255 C 
ATOM      2  C   UNL     1      29.924   3.367   8.716  1.00  0.00     0.196 C 
ATOM      3  C   UNL     1      28.819   3.698   7.723  1.00  0.00     0.179 C 
ATOM      4  C   UNL     1      29.275   2.942   6.468  1.00  0.00     0.178 C 
ATOM      5  O   UNL     1      29.975   1.796   6.891  1.00  0.00    -0.347 OA
ENDROOT
BRANCH   1   6
ATOM      6  N   UNL     1      30.769   1.003   9.007  1.00  0.00    -0.271 N 
ATOM      7  C   UNL     1      32.163  -0.255  10.503  1.00  0.00     0.090 A 
ATOM      8  C   UNL     1      31.979   0.797   9.611  1.00  0.00     0.099 A 
ATOM      9  C   UNL     1      31.086  -1.091  10.777  1.00  0.00     0.253 A 
ATOM     10  N   UNL     1      29.888  -0.865  10.181  1.00  0.00    -0.274 N 
ATOM     11  O   UNL     1      31.224  -2.053  11.578  1.00  0.00    -0.269 OA
ATOM     12  C   UNL     1      29.716   0.170   9.311  1.00  0.00     0.330 A 
ATOM     13  H   UNL     1      29.081  -1.493  10.398  1.00  0.00     0.175 HD
ATOM     14  O   UNL     1      28.577   0.352   8.801  1.00  0.00    -0.248 OA
ENDBRANCH   1   6
BRANCH   2  15
ATOM     15  O   UNL     1      29.463   3.163  10.034  1.00  0.00    -0.386 OA
ATOM     16  H   UNL     1      28.487   2.996  10.012  1.00  0.00     0.211 HD
ENDBRANCH   2  15
BRANCH   3  17
ATOM     17  O   UNL     1      27.543   3.300   8.174  1.00  0.00    -0.387 OA
ATOM     18  H   UNL     1      27.567   2.326   8.363  1.00  0.00     0.211 HD
ENDBRANCH   3  17
BRANCH   4  19
ATOM     19  C   UNL     1      28.140   2.550   5.509  1.00  0.00     0.191 C 
BRANCH  19  20
ATOM     20  O   UNL     1      27.476   1.402   5.965  1.00  0.00    -0.394 OA
ATOM     21  H   UNL     1      26.754   1.713   6.572  1.00  0.00     0.210 HD
ENDBRANCH  19  20
ENDBRANCH   4  19
TORSDOF 5
ENDMDL
MODEL 8
REMARK VINA RESULT:    -4.621     12.292     13.593
REMARK INTER + INTRA:          -6.068
REMARK INTER:                  -5.687
REMARK INTRA:                  -0.380
REMARK UNBOUND:                -0.501
REMARK SMILES O=c1ccn([C@H]2O[C@@H](CO)[C@@H](O)[C@H]2O)c(=O)[nH]1
REMARK SMILES IDX 6 1 13 2 11 3 8 4 7 5 5 6 3 7 4 8 2 9 17 10 1 11 15 12 16 14
REMARK SMILES IDX 14 15 12 17 9 19 10 20
REMARK H PARENT 17 13 14 16 12 18 10 21
REMARK Flexibility Score: inf
ROOT
ATOM      1  C   UNL     1      26.969   1.572   6.370  1.00  0.00     0.255 C 
ATOM      2  C   UNL     1      27.260   0.230   5.664  1.00  0.00     0.196 C 
ATOM      3  C   UNL     1      25.906  -0.199   5.115  1.00  0.00     0.179 C 
ATOM      4  C   UNL     1      24.940   0.694   5.904  1.00  0.00     0.178 C 
ATOM      5  O   UNL     1      25.607   1.903   6.182  1.00  0.00    -0.347 OA
ENDROOT
BRANCH   1   6
ATOM      6  N   UNL     1      27.861   2.669   5.929  1.00  0.00    -0.271 N 
ATOM      7  C   UNL     1      28.369   4.327   4.268  1.00  0.00     0.090 A 
ATOM      8  C   UNL     1      27.583   3.277   4.735  1.00  0.00     0.099 A 
ATOM      9  C   UNL     1      29.439   4.754   5.045  1.00  0.00     0.253 A 
ATOM     10  N   UNL     1      29.692   4.151   6.235  1.00  0.00    -0.274 N 
ATOM     11  O   UNL     1      30.168   5.701   4.646  1.00  0.00    -0.269 OA
ATOM     12  C   UNL     1      28.916   3.126   6.686  1.00  0.00     0.330 A 
ATOM     13  H   UNL     1      30.494   4.484   6.817  1.00  0.00     0.175 HD
ATOM     14  O   UNL     1      29.179   2.614   7.808  1.00  0.00    -0.248 OA
ENDBRANCH   1   6
BRANCH   2  15
ATOM     15  O   UNL     1      28.280   0.279   4.691  1.00  0.00    -0.386 OA
ATOM     16  H   UNL     1      29.091   0.677   5.094  1.00  0.00     0.211 HD
ENDBRANCH   2  15
BRANCH   3  17
ATOM     17  O   UNL     1      25.804  -0.025   3.719  1.00  0.00    -0.387 OA
ATOM     18  H   UNL     1      24.928  -0.384   3.422  1.00  0.00     0.211 HD
ENDBRANCH   3  17
BRANCH   4  19
ATOM     19  C   UNL     1      23.604   0.972   5.198  1.00  0.00     0.191 C 
BRANCH  19  20
ATOM     20  O   UNL     1      22.990  -0.224   4.802  1.00  0.00    -0.394 OA
ATOM     21  H   UNL     1      22.891  -0.778   5.620  1.00  0.00     0.210 HD
ENDBRANCH  19  20
ENDBRANCH   4  19
TORSDOF 5
ENDMDL
MODEL 9
REMARK VINA RESULT:    -4.519     17.485     18.818
REMARK INTER + INTRA:          -5.945
REMARK INTER:                  -5.399
REMARK INTRA:                  -0.547
REMARK UNBOUND:                -0.501
REMARK SMILES O=c1ccn([C@H]2O[C@@H](CO)[C@@H](O)[C@H]2O)c(=O)[nH]1
REMARK SMILES IDX 6 1 13 2 11 3 8 4 7 5 5 6 3 7 4 8 2 9 17 10 1 11 15 12 16 14
REMARK SMILES IDX 14 15 12 17 9 19 10 20
REMARK H PARENT 17 13 14 16 12 18 10 21
REMARK Flexibility Score: inf
ROOT
ATOM      1  C   UNL     1      20.200  -1.262  -0.387  1.00  0.00     0.255 C 
ATOM      2  C   UNL     1      19.549  -2.402  -1.201  1.00  0.00     0.196 C 
ATOM      3  C   UNL     1      18.673  -3.125  -0.188  1.00  0.00     0.179 C 
ATOM      4  C   UNL     1      19.225  -2.605   1.146  1.00  0.00     0.178 C 
ATOM      5  O   UNL     1      19.693  -1.294   0.933  1.00  0.00    -0.347 OA
ENDROOT
BRANCH   1   6
ATOM      6  N   UNL     1      20.023   0.072  -1.005  1.00  0.00    -0.271 N 
ATOM      7  C   UNL     1      20.998   1.868  -2.267  1.00  0.00     0.090 A 
ATOM      8  C   UNL     1      21.097   0.625  -1.648  1.00  0.00     0.099 A 
ATOM      9  C   UNL     1      19.778   2.535  -2.228  1.00  0.00     0.253 A 
ATOM     10  N   UNL     1      18.718   1.966  -1.599  1.00  0.00    -0.274 N 
ATOM     11  O   UNL     1      19.660   3.662  -2.777  1.00  0.00    -0.269 OA
ATOM     12  C   UNL     1      18.824   0.748  -0.998  1.00  0.00     0.330 A 
ATOM     13  H   UNL     1      17.802   2.471  -1.581  1.00  0.00     0.175 HD
ATOM     14  O   UNL     1      17.803   0.252  -0.447  1.00  0.00    -0.248 OA
ENDBRANCH   1   6
BRANCH   2  15
ATOM     15  O   UNL     1      18.859  -1.986  -2.358  1.00  0.00    -0.386 OA
ATOM     16  H   UNL     1      19.516  -1.774  -3.068  1.00  0.00     0.211 HD
ENDBRANCH   2  15
BRANCH   3  17
ATOM     17  O   UNL     1      17.300  -2.851  -0.361  1.00  0.00    -0.387 OA
ATOM     18  H   UNL     1      16.937  -2.514   0.498  1.00  0.00     0.211 HD
ENDBRANCH   3  17
BRANCH   4  19
ATOM     19  C   UNL     1      18.220  -2.631   2.308  1.00  0.00     0.191 C 
BRANCH  19  20
ATOM     20  O   UNL     1      17.354  -1.530   2.243  1.00  0.00    -0.394 OA
ATOM     21  H   UNL     1      16.437  -1.880   2.397  1.00  0.00     0.210 HD
ENDBRANCH  19  20
ENDBRANCH   4  19
TORSDOF 5
ENDMDL
