MODEL 1
REMARK VINA RESULT:    -3.749      0.000      0.000
REMARK INTER + INTRA:          -9.632
REMARK INTER:                  -7.036
REMARK INTRA:                  -2.596
REMARK UNBOUND:                -2.596
REMARK SMILES O=C([O-])CCCCCCCCCCCCCCC(=O)[O-]
REMARK SMILES IDX 10 1 9 2 8 3 7 4 6 5 5 6 4 7 2 8 1 9 3 10 11 11 12 12 13 13
REMARK SMILES IDX 14 14 15 15 16 16 17 17 18 18 19 19 20 20
REMARK H PARENT
REMARK Flexibility Score: inf
ROOT
ATOM      1  C   UNL     1       3.769  39.814  -8.273  1.00  0.00     0.000 C 
ENDROOT
BRANCH   1   2
ATOM      2  C   UNL     1       4.789  39.977  -7.131  1.00  0.00     0.000 C 
BRANCH   2   3
ATOM      3  C   UNL     1       5.952  38.977  -7.216  1.00  0.00     0.000 C 
BRANCH   3   4
ATOM      4  C   UNL     1       5.965  38.035  -6.005  1.00  0.00     0.000 C 
BRANCH   4   5
ATOM      5  C   UNL     1       4.919  38.443  -4.944  1.00  0.00     0.000 C 
BRANCH   5   6
ATOM      6  C   UNL     1       3.813  37.389  -4.737  1.00  0.00     0.006 C 
BRANCH   6   7
ATOM      7  C   UNL     1       2.415  37.977  -4.490  1.00  0.00     0.053 C 
BRANCH   7   8
ATOM      8  C   UNL     1       1.415  36.932  -4.093  1.00  0.00     0.041 C 
ATOM      9  O   UNL     1       0.745  36.331  -4.973  1.00  0.00    -0.550 OA
ATOM     10  O   UNL     1       1.187  36.656  -2.750  1.00  0.00    -0.550 OA
ENDBRANCH   7   8
ENDBRANCH   6   7
ENDBRANCH   5   6
ENDBRANCH   4   5
ENDBRANCH   3   4
ENDBRANCH   2   3
ENDBRANCH   1   2
BRANCH   1  11
ATOM     11  C   UNL     1       3.647  38.389  -8.848  1.00  0.00     0.000 C 
BRANCH  11  12
ATOM     12  C   UNL     1       2.400  37.641  -8.351  1.00  0.00     0.000 C 
BRANCH  12  13
ATOM     13  C   UNL     1       2.731  36.183  -8.009  1.00  0.00     0.000 C 
BRANCH  13  14
ATOM     14  C   UNL     1       4.219  35.848  -8.211  1.00  0.00     0.000 C 
BRANCH  14  15
ATOM     15  C   UNL     1       4.708  34.663  -7.352  1.00  0.00     0.000 C 
BRANCH  15  16
ATOM     16  C   UNL     1       6.185  34.326  -7.610  1.00  0.00     0.006 C 
BRANCH  16  17
ATOM     17  C   UNL     1       7.035  34.590  -6.364  1.00  0.00     0.053 C 
BRANCH  17  18
ATOM     18  C   UNL     1       6.477  33.860  -5.184  1.00  0.00     0.041 C 
ATOM     19  O   UNL     1       6.509  32.603  -5.143  1.00  0.00    -0.550 OA
ATOM     20  O   UNL     1       5.965  34.572  -4.105  1.00  0.00    -0.550 OA
ENDBRANCH  17  18
ENDBRANCH  16  17
ENDBRANCH  15  16
ENDBRANCH  14  15
ENDBRANCH  13  14
ENDBRANCH  12  13
ENDBRANCH  11  12
ENDBRANCH   1  11
TORSDOF 15
ENDMDL
MODEL 2
REMARK VINA RESULT:    -3.618      1.655      2.609
REMARK INTER + INTRA:          -9.387
REMARK INTER:                  -6.652
REMARK INTRA:                  -2.734
REMARK UNBOUND:                -2.596
REMARK SMILES O=C([O-])CCCCCCCCCCCCCCC(=O)[O-]
REMARK SMILES IDX 10 1 9 2 8 3 7 4 6 5 5 6 4 7 2 8 1 9 3 10 11 11 12 12 13 13
REMARK SMILES IDX 14 14 15 15 16 16 17 17 18 18 19 19 20 20
REMARK H PARENT
REMARK Flexibility Score: inf
ROOT
ATOM      1  C   UNL     1       5.972  38.473  -6.223  1.00  0.00     0.000 C 
ENDROOT
BRANCH   1   2
ATOM      2  C   UNL     1       5.256  38.319  -4.868  1.00  0.00     0.000 C 
BRANCH   2   3
ATOM      3  C   UNL     1       4.858  36.869  -4.559  1.00  0.00     0.000 C 
BRANCH   3   4
ATOM      4  C   UNL     1       3.335  36.728  -4.428  1.00  0.00     0.000 C 
BRANCH   4   5
ATOM      5  C   UNL     1       2.623  38.098  -4.440  1.00  0.00     0.000 C 
BRANCH   5   6
ATOM      6  C   UNL     1       1.631  38.262  -5.609  1.00  0.00     0.006 C 
BRANCH   6   7
ATOM      7  C   UNL     1       0.794  37.009  -5.911  1.00  0.00     0.053 C 
BRANCH   7   8
ATOM      8  C   UNL     1       0.001  37.141  -7.177  1.00  0.00     0.041 C 
ATOM      9  O   UNL     1       0.442  37.835  -8.131  1.00  0.00    -0.550 OA
ATOM     10  O   UNL     1      -1.247  36.540  -7.288  1.00  0.00    -0.550 OA
ENDBRANCH   7   8
ENDBRANCH   6   7
ENDBRANCH   5   6
ENDBRANCH   4   5
ENDBRANCH   3   4
ENDBRANCH   2   3
ENDBRANCH   1   2
BRANCH   1  11
ATOM     11  C   UNL     1       5.276  39.406  -7.233  1.00  0.00     0.000 C 
BRANCH  11  12
ATOM     12  C   UNL     1       4.179  38.703  -8.048  1.00  0.00     0.000 C 
BRANCH  12  13
ATOM     13  C   UNL     1       4.636  37.312  -8.504  1.00  0.00     0.000 C 
BRANCH  13  14
ATOM     14  C   UNL     1       3.656  36.200  -8.094  1.00  0.00     0.000 C 
BRANCH  14  15
ATOM     15  C   UNL     1       4.352  34.918  -7.587  1.00  0.00     0.000 C 
BRANCH  15  16
ATOM     16  C   UNL     1       5.815  34.826  -8.050  1.00  0.00     0.006 C 
BRANCH  16  17
ATOM     17  C   UNL     1       6.770  34.817  -6.853  1.00  0.00     0.053 C 
BRANCH  17  18
ATOM     18  C   UNL     1       6.847  33.449  -6.255  1.00  0.00     0.041 C 
ATOM     19  O   UNL     1       7.107  32.453  -6.980  1.00  0.00    -0.550 OA
ATOM     20  O   UNL     1       6.682  33.278  -4.886  1.00  0.00    -0.550 OA
ENDBRANCH  17  18
ENDBRANCH  16  17
ENDBRANCH  15  16
ENDBRANCH  14  15
ENDBRANCH  13  14
ENDBRANCH  12  13
ENDBRANCH  11  12
ENDBRANCH   1  11
TORSDOF 15
ENDMDL
MODEL 3
REMARK VINA RESULT:    -3.537      1.436      2.803
REMARK INTER + INTRA:          -9.235
REMARK INTER:                  -7.062
REMARK INTRA:                  -2.173
REMARK UNBOUND:                -2.596
REMARK SMILES O=C([O-])CCCCCCCCCCCCCCC(=O)[O-]
REMARK SMILES IDX 10 1 9 2 8 3 7 4 6 5 5 6 4 7 2 8 1 9 3 10 11 11 12 12 13 13
REMARK SMILES IDX 14 14 15 15 16 16 17 17 18 18 19 19 20 20
REMARK H PARENT
REMARK Flexibility Score: inf
ROOT
ATOM      1  C   UNL     1       5.324  39.747  -7.233  1.00  0.00     0.000 C 
ENDROOT
BRANCH   1   2
ATOM      2  C   UNL     1       3.811  39.459  -7.245  1.00  0.00     0.000 C 
BRANCH   2   3
ATOM      3  C   UNL     1       3.351  38.706  -8.502  1.00  0.00     0.000 C 
BRANCH   3   4
ATOM      4  C   UNL     1       2.040  37.951  -8.248  1.00  0.00     0.000 C 
BRANCH   4   5
ATOM      5  C   UNL     1       2.166  36.947  -7.082  1.00  0.00     0.000 C 
BRANCH   5   6
ATOM      6  C   UNL     1       1.118  37.162  -5.972  1.00  0.00     0.006 C 
BRANCH   6   7
ATOM      7  C   UNL     1       1.703  37.634  -4.631  1.00  0.00     0.053 C 
BRANCH   7   8
ATOM      8  C   UNL     1       1.795  36.526  -3.624  1.00  0.00     0.041 C 
ATOM      9  O   UNL     1       2.539  35.534  -3.842  1.00  0.00    -0.550 OA
ATOM     10  O   UNL     1       1.023  36.563  -2.470  1.00  0.00    -0.550 OA
ENDBRANCH   7   8
ENDBRANCH   6   7
ENDBRANCH   5   6
ENDBRANCH   4   5
ENDBRANCH   3   4
ENDBRANCH   2   3
ENDBRANCH   1   2
BRANCH   1  11
ATOM     11  C   UNL     1       6.174  38.762  -6.407  1.00  0.00     0.000 C 
BRANCH  11  12
ATOM     12  C   UNL     1       5.366  38.022  -5.329  1.00  0.00     0.000 C 
BRANCH  12  13
ATOM     13  C   UNL     1       5.461  36.503  -5.514  1.00  0.00     0.000 C 
BRANCH  13  14
ATOM     14  C   UNL     1       6.070  36.106  -6.870  1.00  0.00     0.000 C 
BRANCH  14  15
ATOM     15  C   UNL     1       6.864  34.783  -6.827  1.00  0.00     0.000 C 
BRANCH  15  16
ATOM     16  C   UNL     1       6.881  34.157  -5.423  1.00  0.00     0.006 C 
BRANCH  16  17
ATOM     17  C   UNL     1       6.416  32.699  -5.466  1.00  0.00     0.053 C 
BRANCH  17  18
ATOM     18  C   UNL     1       5.068  32.597  -6.105  1.00  0.00     0.041 C 
ATOM     19  O   UNL     1       4.067  33.129  -5.560  1.00  0.00    -0.550 OA
ATOM     20  O   UNL     1       4.927  31.956  -7.330  1.00  0.00    -0.550 OA
ENDBRANCH  17  18
ENDBRANCH  16  17
ENDBRANCH  15  16
ENDBRANCH  14  15
ENDBRANCH  13  14
ENDBRANCH  12  13
ENDBRANCH  11  12
ENDBRANCH   1  11
TORSDOF 15
ENDMDL
MODEL 4
REMARK VINA RESULT:    -3.512      2.126      5.756
REMARK INTER + INTRA:          -9.188
REMARK INTER:                  -7.639
REMARK INTRA:                  -1.549
REMARK UNBOUND:                -2.596
REMARK SMILES O=C([O-])CCCCCCCCCCCCCCC(=O)[O-]
REMARK SMILES IDX 10 1 9 2 8 3 7 4 6 5 5 6 4 7 2 8 1 9 3 10 11 11 12 12 13 13
REMARK SMILES IDX 14 14 15 15 16 16 17 17 18 18 19 19 20 20
REMARK H PARENT
REMARK Flexibility Score: inf
ROOT
ATOM      1  C   UNL     1       3.129  38.391  -7.740  1.00  0.00     0.000 C 
ENDROOT
BRANCH   1   2
ATOM      2  C   UNL     1       3.864  39.487  -6.945  1.00  0.00     0.000 C 
BRANCH   2   3
ATOM      3  C   UNL     1       5.303  39.718  -7.428  1.00  0.00     0.000 C 
BRANCH   3   4
ATOM      4  C   UNL     1       6.293  38.821  -6.673  1.00  0.00     0.000 C 
BRANCH   4   5
ATOM      5  C   UNL     1       5.666  38.210  -5.401  1.00  0.00     0.000 C 
BRANCH   5   6
ATOM      6  C   UNL     1       5.603  36.670  -5.428  1.00  0.00     0.006 C 
BRANCH   6   7
ATOM      7  C   UNL     1       5.994  36.043  -6.776  1.00  0.00     0.053 C 
BRANCH   7   8
ATOM      8  C   UNL     1       6.767  34.768  -6.613  1.00  0.00     0.041 C 
ATOM      9  O   UNL     1       7.092  34.369  -5.464  1.00  0.00    -0.550 OA
ATOM     10  O   UNL     1       7.171  34.046  -7.729  1.00  0.00    -0.550 OA
ENDBRANCH   7   8
ENDBRANCH   6   7
ENDBRANCH   5   6
ENDBRANCH   4   5
ENDBRANCH   3   4
ENDBRANCH   2   3
ENDBRANCH   1   2
BRANCH   1  11
ATOM     11  C   UNL     1       2.247  37.448  -6.899  1.00  0.00     0.000 C 
BRANCH  11  12
ATOM     12  C   UNL     1       1.550  38.157  -5.727  1.00  0.00     0.000 C 
BRANCH  12  13
ATOM     13  C   UNL     1       2.181  37.757  -4.387  1.00  0.00     0.000 C 
BRANCH  13  14
ATOM     14  C   UNL     1       1.742  36.360  -3.917  1.00  0.00     0.000 C 
BRANCH  14  15
ATOM     15  C   UNL     1       0.209  36.185  -3.845  1.00  0.00     0.000 C 
BRANCH  15  16
ATOM     16  C   UNL     1      -0.266  35.785  -2.439  1.00  0.00     0.006 C 
BRANCH  16  17
ATOM     17  C   UNL     1       0.642  36.384  -1.361  1.00  0.00     0.053 C 
BRANCH  17  18
ATOM     18  C   UNL     1      -0.161  36.790  -0.166  1.00  0.00     0.041 C 
ATOM     19  O   UNL     1       0.416  37.197   0.876  1.00  0.00    -0.550 OA
ATOM     20  O   UNL     1      -1.549  36.765  -0.220  1.00  0.00    -0.550 OA
ENDBRANCH  17  18
ENDBRANCH  16  17
ENDBRANCH  15  16
ENDBRANCH  14  15
ENDBRANCH  13  14
ENDBRANCH  12  13
ENDBRANCH  11  12
ENDBRANCH   1  11
TORSDOF 15
ENDMDL
MODEL 5
REMARK VINA RESULT:    -3.492      1.631      2.557
REMARK INTER + INTRA:          -9.150
REMARK INTER:                  -6.368
REMARK INTRA:                  -2.782
REMARK UNBOUND:                -2.596
REMARK SMILES O=C([O-])CCCCCCCCCCCCCCC(=O)[O-]
REMARK SMILES IDX 10 1 9 2 8 3 7 4 6 5 5 6 4 7 2 8 1 9 3 10 11 11 12 12 13 13
REMARK SMILES IDX 14 14 15 15 16 16 17 17 18 18 19 19 20 20
REMARK H PARENT
REMARK Flexibility Score: inf
ROOT
ATOM      1  C   UNL     1       5.587  39.529  -7.237  1.00  0.00     0.000 C 
ENDROOT
BRANCH   1   2
ATOM      2  C   UNL     1       6.018  38.512  -6.164  1.00  0.00     0.000 C 
BRANCH   2   3
ATOM      3  C   UNL     1       5.060  38.459  -4.966  1.00  0.00     0.000 C 
BRANCH   3   4
ATOM      4  C   UNL     1       4.631  37.017  -4.662  1.00  0.00     0.000 C 
BRANCH   4   5
ATOM      5  C   UNL     1       3.116  36.910  -4.381  1.00  0.00     0.000 C 
BRANCH   5   6
ATOM      6  C   UNL     1       2.566  35.477  -4.523  1.00  0.00     0.006 C 
BRANCH   6   7
ATOM      7  C   UNL     1       3.648  34.395  -4.681  1.00  0.00     0.053 C 
BRANCH   7   8
ATOM      8  C   UNL     1       3.518  33.303  -3.662  1.00  0.00     0.041 C 
ATOM      9  O   UNL     1       4.170  32.234  -3.794  1.00  0.00    -0.550 OA
ATOM     10  O   UNL     1       2.640  33.442  -2.594  1.00  0.00    -0.550 OA
ENDBRANCH   7   8
ENDBRANCH   6   7
ENDBRANCH   5   6
ENDBRANCH   4   5
ENDBRANCH   3   4
ENDBRANCH   2   3
ENDBRANCH   1   2
BRANCH   1  11
ATOM     11  C   UNL     1       4.086  39.520  -7.586  1.00  0.00     0.000 C 
BRANCH  11  12
ATOM     12  C   UNL     1       3.713  38.454  -8.627  1.00  0.00     0.000 C 
BRANCH  12  13
ATOM     13  C   UNL     1       2.781  37.396  -8.024  1.00  0.00     0.000 C 
BRANCH  13  14
ATOM     14  C   UNL     1       3.359  35.973  -8.113  1.00  0.00     0.000 C 
BRANCH  14  15
ATOM     15  C   UNL     1       4.880  35.939  -8.376  1.00  0.00     0.000 C 
BRANCH  15  16
ATOM     16  C   UNL     1       5.531  34.645  -7.865  1.00  0.00     0.006 C 
BRANCH  16  17
ATOM     17  C   UNL     1       6.689  34.951  -6.910  1.00  0.00     0.053 C 
BRANCH  17  18
ATOM     18  C   UNL     1       6.901  33.816  -5.961  1.00  0.00     0.041 C 
ATOM     19  O   UNL     1       7.131  34.042  -4.744  1.00  0.00    -0.550 OA
ATOM     20  O   UNL     1       6.794  32.505  -6.410  1.00  0.00    -0.550 OA
ENDBRANCH  17  18
ENDBRANCH  16  17
ENDBRANCH  15  16
ENDBRANCH  14  15
ENDBRANCH  13  14
ENDBRANCH  12  13
ENDBRANCH  11  12
ENDBRANCH   1  11
TORSDOF 15
ENDMDL
MODEL 6
REMARK VINA RESULT:    -3.490      1.539      2.155
REMARK INTER + INTRA:          -9.147
REMARK INTER:                  -6.926
REMARK INTRA:                  -2.221
REMARK UNBOUND:                -2.596
REMARK SMILES O=C([O-])CCCCCCCCCCCCCCC(=O)[O-]
REMARK SMILES IDX 10 1 9 2 8 3 7 4 6 5 5 6 4 7 2 8 1 9 3 10 11 11 12 12 13 13
REMARK SMILES IDX 14 14 15 15 16 16 17 17 18 18 19 19 20 20
REMARK H PARENT
REMARK Flexibility Score: inf
ROOT
ATOM      1  C   UNL     1       3.927  39.143  -8.260  1.00  0.00     0.000 C 
ENDROOT
BRANCH   1   2
ATOM      2  C   UNL     1       4.420  39.672  -6.899  1.00  0.00     0.000 C 
BRANCH   2   3
ATOM      3  C   UNL     1       5.652  38.923  -6.373  1.00  0.00     0.000 C 
BRANCH   3   4
ATOM      4  C   UNL     1       5.368  38.272  -5.013  1.00  0.00     0.000 C 
BRANCH   4   5
ATOM      5  C   UNL     1       3.885  38.409  -4.604  1.00  0.00     0.000 C 
BRANCH   5   6
ATOM      6  C   UNL     1       3.166  37.056  -4.442  1.00  0.00     0.006 C 
BRANCH   6   7
ATOM      7  C   UNL     1       1.632  37.152  -4.409  1.00  0.00     0.053 C 
BRANCH   7   8
ATOM      8  C   UNL     1       1.025  37.096  -5.779  1.00  0.00     0.041 C 
ATOM      9  O   UNL     1       0.914  38.145  -6.465  1.00  0.00    -0.550 OA
ATOM     10  O   UNL     1       0.537  35.895  -6.280  1.00  0.00    -0.550 OA
ENDBRANCH   7   8
ENDBRANCH   6   7
ENDBRANCH   5   6
ENDBRANCH   4   5
ENDBRANCH   3   4
ENDBRANCH   2   3
ENDBRANCH   1   2
BRANCH   1  11
ATOM     11  C   UNL     1       4.460  37.753  -8.657  1.00  0.00     0.000 C 
BRANCH  11  12
ATOM     12  C   UNL     1       3.458  36.620  -8.384  1.00  0.00     0.000 C 
BRANCH  12  13
ATOM     13  C   UNL     1       4.100  35.504  -7.551  1.00  0.00     0.000 C 
BRANCH  13  14
ATOM     14  C   UNL     1       5.566  35.242  -7.936  1.00  0.00     0.000 C 
BRANCH  14  15
ATOM     15  C   UNL     1       6.541  35.306  -6.740  1.00  0.00     0.000 C 
BRANCH  15  16
ATOM     16  C   UNL     1       7.001  33.911  -6.288  1.00  0.00     0.006 C 
BRANCH  16  17
ATOM     17  C   UNL     1       7.374  33.039  -7.490  1.00  0.00     0.053 C 
BRANCH  17  18
ATOM     18  C   UNL     1       7.049  31.605  -7.219  1.00  0.00     0.041 C 
ATOM     19  O   UNL     1       6.520  31.271  -6.127  1.00  0.00    -0.550 OA
ATOM     20  O   UNL     1       7.283  30.642  -8.193  1.00  0.00    -0.550 OA
ENDBRANCH  17  18
ENDBRANCH  16  17
ENDBRANCH  15  16
ENDBRANCH  14  15
ENDBRANCH  13  14
ENDBRANCH  12  13
ENDBRANCH  11  12
ENDBRANCH   1  11
TORSDOF 15
ENDMDL
MODEL 7
REMARK VINA RESULT:    -3.488     10.862     13.312
REMARK INTER + INTRA:          -9.143
REMARK INTER:                  -7.647
REMARK INTRA:                  -1.496
REMARK UNBOUND:                -2.596
REMARK SMILES O=C([O-])CCCCCCCCCCCCCCC(=O)[O-]
REMARK SMILES IDX 10 1 9 2 8 3 7 4 6 5 5 6 4 7 2 8 1 9 3 10 11 11 12 12 13 13
REMARK SMILES IDX 14 14 15 15 16 16 17 17 18 18 19 19 20 20
REMARK H PARENT
REMARK Flexibility Score: inf
ROOT
ATOM      1  C   UNL     1       6.989  32.840   7.282  1.00  0.00     0.000 C 
ENDROOT
BRANCH   1   2
ATOM      2  C   UNL     1       6.221  33.091   5.970  1.00  0.00     0.000 C 
BRANCH   2   3
ATOM      3  C   UNL     1       5.364  34.364   6.008  1.00  0.00     0.000 C 
BRANCH   3   4
ATOM      4  C   UNL     1       5.324  35.048   4.635  1.00  0.00     0.000 C 
BRANCH   4   5
ATOM      5  C   UNL     1       3.936  34.928   3.969  1.00  0.00     0.000 C 
BRANCH   5   6
ATOM      6  C   UNL     1       3.923  33.990   2.746  1.00  0.00     0.006 C 
BRANCH   6   7
ATOM      7  C   UNL     1       5.231  33.212   2.529  1.00  0.00     0.053 C 
BRANCH   7   8
ATOM      8  C   UNL     1       5.944  33.627   1.277  1.00  0.00     0.041 C 
ATOM      9  O   UNL     1       5.802  32.962   0.217  1.00  0.00    -0.550 OA
ATOM     10  O   UNL     1       6.803  34.719   1.290  1.00  0.00    -0.550 OA
ENDBRANCH   7   8
ENDBRANCH   6   7
ENDBRANCH   5   6
ENDBRANCH   4   5
ENDBRANCH   3   4
ENDBRANCH   2   3
ENDBRANCH   1   2
BRANCH   1  11
ATOM     11  C   UNL     1       7.744  34.060   7.845  1.00  0.00     0.000 C 
BRANCH  11  12
ATOM     12  C   UNL     1       8.803  33.685   8.893  1.00  0.00     0.000 C 
BRANCH  12  13
ATOM     13  C   UNL     1      10.152  34.341   8.573  1.00  0.00     0.000 C 
BRANCH  13  14
ATOM     14  C   UNL     1      10.871  33.675   7.388  1.00  0.00     0.000 C 
BRANCH  14  15
ATOM     15  C   UNL     1      11.354  32.239   7.685  1.00  0.00     0.000 C 
BRANCH  15  16
ATOM     16  C   UNL     1      10.590  31.185   6.869  1.00  0.00     0.006 C 
BRANCH  16  17
ATOM     17  C   UNL     1      10.175  31.742   5.504  1.00  0.00     0.053 C 
BRANCH  17  18
ATOM     18  C   UNL     1       9.405  30.719   4.732  1.00  0.00     0.041 C 
ATOM     19  O   UNL     1       9.128  29.608   5.255  1.00  0.00    -0.550 OA
ATOM     20  O   UNL     1       8.949  31.011   3.452  1.00  0.00    -0.550 OA
ENDBRANCH  17  18
ENDBRANCH  16  17
ENDBRANCH  15  16
ENDBRANCH  14  15
ENDBRANCH  13  14
ENDBRANCH  12  13
ENDBRANCH  11  12
ENDBRANCH   1  11
TORSDOF 15
ENDMDL
MODEL 8
REMARK VINA RESULT:    -3.457      1.483      5.153
REMARK INTER + INTRA:          -9.085
REMARK INTER:                  -7.157
REMARK INTRA:                  -1.928
REMARK UNBOUND:                -2.596
REMARK SMILES O=C([O-])CCCCCCCCCCCCCCC(=O)[O-]
REMARK SMILES IDX 10 1 9 2 8 3 7 4 6 5 5 6 4 7 2 8 1 9 3 10 11 11 12 12 13 13
REMARK SMILES IDX 14 14 15 15 16 16 17 17 18 18 19 19 20 20
REMARK H PARENT
REMARK Flexibility Score: inf
ROOT
ATOM      1  C   UNL     1       4.851  39.788  -6.527  1.00  0.00     0.000 C 
ENDROOT
BRANCH   1   2
ATOM      2  C   UNL     1       5.656  38.495  -6.296  1.00  0.00     0.000 C 
BRANCH   2   3
ATOM      3  C   UNL     1       5.265  37.767  -5.002  1.00  0.00     0.000 C 
BRANCH   3   4
ATOM      4  C   UNL     1       5.190  36.250  -5.219  1.00  0.00     0.000 C 
BRANCH   4   5
ATOM      5  C   UNL     1       5.825  35.825  -6.562  1.00  0.00     0.000 C 
BRANCH   5   6
ATOM      6  C   UNL     1       6.890  34.721  -6.414  1.00  0.00     0.006 C 
BRANCH   6   7
ATOM      7  C   UNL     1       6.823  33.949  -5.086  1.00  0.00     0.053 C 
BRANCH   7   8
ATOM      8  C   UNL     1       6.220  32.585  -5.245  1.00  0.00     0.041 C 
ATOM      9  O   UNL     1       5.283  32.216  -4.490  1.00  0.00    -0.550 OA
ATOM     10  O   UNL     1       6.723  31.703  -6.194  1.00  0.00    -0.550 OA
ENDBRANCH   7   8
ENDBRANCH   6   7
ENDBRANCH   5   6
ENDBRANCH   4   5
ENDBRANCH   3   4
ENDBRANCH   2   3
ENDBRANCH   1   2
BRANCH   1  11
ATOM     11  C   UNL     1       3.620  39.641  -7.442  1.00  0.00     0.000 C 
BRANCH  11  12
ATOM     12  C   UNL     1       3.469  38.231  -8.032  1.00  0.00     0.000 C 
BRANCH  12  13
ATOM     13  C   UNL     1       2.165  37.573  -7.566  1.00  0.00     0.000 C 
BRANCH  13  14
ATOM     14  C   UNL     1       1.671  38.124  -6.217  1.00  0.00     0.000 C 
BRANCH  14  15
ATOM     15  C   UNL     1       1.119  37.036  -5.269  1.00  0.00     0.000 C 
BRANCH  15  16
ATOM     16  C   UNL     1       1.761  37.099  -3.874  1.00  0.00     0.006 C 
BRANCH  16  17
ATOM     17  C   UNL     1       1.439  35.840  -3.064  1.00  0.00     0.053 C 
BRANCH  17  18
ATOM     18  C   UNL     1       0.369  36.122  -2.059  1.00  0.00     0.041 C 
ATOM     19  O   UNL     1      -0.816  35.758  -2.276  1.00  0.00    -0.550 OA
ATOM     20  O   UNL     1       0.689  36.745  -0.859  1.00  0.00    -0.550 OA
ENDBRANCH  17  18
ENDBRANCH  16  17
ENDBRANCH  15  16
ENDBRANCH  14  15
ENDBRANCH  13  14
ENDBRANCH  12  13
ENDBRANCH  11  12
ENDBRANCH   1  11
TORSDOF 15
ENDMDL
MODEL 9
REMARK VINA RESULT:    -3.424      1.566      2.918
REMARK INTER + INTRA:          -9.022
REMARK INTER:                  -6.908
REMARK INTRA:                  -2.114
REMARK UNBOUND:                -2.596
REMARK SMILES O=C([O-])CCCCCCCCCCCCCCC(=O)[O-]
REMARK SMILES IDX 10 1 9 2 8 3 7 4 6 5 5 6 4 7 2 8 1 9 3 10 11 11 12 12 13 13
REMARK SMILES IDX 14 14 15 15 16 16 17 17 18 18 19 19 20 20
REMARK H PARENT
REMARK Flexibility Score: inf
ROOT
ATOM      1  C   UNL     1       6.041  38.512  -5.836  1.00  0.00     0.000 C 
ENDROOT
BRANCH   1   2
ATOM      2  C   UNL     1       4.885  38.121  -4.896  1.00  0.00     0.000 C 
BRANCH   2   3
ATOM      3  C   UNL     1       4.901  36.635  -4.509  1.00  0.00     0.000 C 
BRANCH   3   4
ATOM      4  C   UNL     1       3.540  35.977  -4.775  1.00  0.00     0.000 C 
BRANCH   4   5
ATOM      5  C   UNL     1       2.438  37.021  -5.062  1.00  0.00     0.000 C 
BRANCH   5   6
ATOM      6  C   UNL     1       1.453  37.208  -3.892  1.00  0.00     0.006 C 
BRANCH   6   7
ATOM      7  C   UNL     1       1.420  36.036  -2.896  1.00  0.00     0.053 C 
BRANCH   7   8
ATOM      8  C   UNL     1       0.357  36.202  -1.852  1.00  0.00     0.041 C 
ATOM      9  O   UNL     1       0.648  36.676  -0.722  1.00  0.00    -0.550 OA
ATOM     10  O   UNL     1      -0.945  35.787  -2.105  1.00  0.00    -0.550 OA
ENDBRANCH   7   8
ENDBRANCH   6   7
ENDBRANCH   5   6
ENDBRANCH   4   5
ENDBRANCH   3   4
ENDBRANCH   2   3
ENDBRANCH   1   2
BRANCH   1  11
ATOM     11  C   UNL     1       5.618  39.199  -7.148  1.00  0.00     0.000 C 
BRANCH  11  12
ATOM     12  C   UNL     1       4.122  39.550  -7.192  1.00  0.00     0.000 C 
BRANCH  12  13
ATOM     13  C   UNL     1       3.393  38.725  -8.259  1.00  0.00     0.000 C 
BRANCH  13  14
ATOM     14  C   UNL     1       4.270  37.608  -8.850  1.00  0.00     0.000 C 
BRANCH  14  15
ATOM     15  C   UNL     1       3.834  36.189  -8.424  1.00  0.00     0.000 C 
BRANCH  15  16
ATOM     16  C   UNL     1       4.852  35.116  -8.841  1.00  0.00     0.006 C 
BRANCH  16  17
ATOM     17  C   UNL     1       5.159  34.168  -7.679  1.00  0.00     0.053 C 
BRANCH  17  18
ATOM     18  C   UNL     1       6.619  34.184  -7.360  1.00  0.00     0.041 C 
ATOM     19  O   UNL     1       7.105  35.109  -6.659  1.00  0.00    -0.550 OA
ATOM     20  O   UNL     1       7.437  33.148  -7.796  1.00  0.00    -0.550 OA
ENDBRANCH  17  18
ENDBRANCH  16  17
ENDBRANCH  15  16
ENDBRANCH  14  15
ENDBRANCH  13  14
ENDBRANCH  12  13
ENDBRANCH  11  12
ENDBRANCH   1  11
TORSDOF 15
ENDMDL
