MODEL 1
REMARK VINA RESULT:    -3.974      0.000      0.000
REMARK INTER + INTRA:          -6.906
REMARK INTER:                  -6.065
REMARK INTRA:                  -0.841
REMARK UNBOUND:                -0.841
REMARK SMILES O=C([O-])CCCCCCCCC(=O)[O-]
REMARK SMILES IDX 7 1 6 2 5 3 4 4 2 5 1 6 3 7 8 8 9 9 10 10 11 11 12 12 13 13
REMARK SMILES IDX 14 14
REMARK H PARENT
REMARK Flexibility Score: inf
ROOT
ATOM      1  C   UNL     1       3.420  24.794  13.377  1.00  0.00     0.000 C 
ENDROOT
BRANCH   1   2
ATOM      2  C   UNL     1       3.371  24.454  14.876  1.00  0.00     0.000 C 
BRANCH   2   3
ATOM      3  C   UNL     1       4.325  25.324  15.712  1.00  0.00     0.006 C 
BRANCH   3   4
ATOM      4  C   UNL     1       5.666  25.558  15.004  1.00  0.00     0.053 C 
BRANCH   4   5
ATOM      5  C   UNL     1       6.640  26.280  15.883  1.00  0.00     0.041 C 
ATOM      6  O   UNL     1       7.870  26.255  15.618  1.00  0.00    -0.550 OA
ATOM      7  O   UNL     1       6.186  27.007  16.976  1.00  0.00    -0.550 OA
ENDBRANCH   4   5
ENDBRANCH   3   4
ENDBRANCH   2   3
ENDBRANCH   1   2
BRANCH   1   8
ATOM      8  C   UNL     1       2.028  25.064  12.787  1.00  0.00     0.000 C 
BRANCH   8   9
ATOM      9  C   UNL     1       2.059  26.267  11.836  1.00  0.00     0.000 C 
BRANCH   9  10
ATOM     10  C   UNL     1       3.449  26.921  11.823  1.00  0.00     0.006 C 
BRANCH  10  11
ATOM     11  C   UNL     1       3.412  28.374  12.316  1.00  0.00     0.053 C 
BRANCH  11  12
ATOM     12  C   UNL     1       4.454  28.634  13.360  1.00  0.00     0.041 C 
ATOM     13  O   UNL     1       5.649  28.846  13.024  1.00  0.00    -0.550 OA
ATOM     14  O   UNL     1       4.114  28.608  14.706  1.00  0.00    -0.550 OA
ENDBRANCH  11  12
ENDBRANCH  10  11
ENDBRANCH   9  10
ENDBRANCH   8   9
ENDBRANCH   1   8
TORSDOF 9
ENDMDL
MODEL 2
REMARK VINA RESULT:    -3.920      1.019      4.035
REMARK INTER + INTRA:          -6.823
REMARK INTER:                  -5.812
REMARK INTRA:                  -1.011
REMARK UNBOUND:                -0.841
REMARK SMILES O=C([O-])CCCCCCCCC(=O)[O-]
REMARK SMILES IDX 7 1 6 2 5 3 4 4 2 5 1 6 3 7 8 8 9 9 10 10 11 11 12 12 13 13
REMARK SMILES IDX 14 14
REMARK H PARENT
REMARK Flexibility Score: inf
ROOT
ATOM      1  C   UNL     1       3.602  24.735  13.666  1.00  0.00     0.000 C 
ENDROOT
BRANCH   1   2
ATOM      2  C   UNL     1       2.479  25.433  12.883  1.00  0.00     0.000 C 
BRANCH   2   3
ATOM      3  C   UNL     1       3.000  26.564  11.980  1.00  0.00     0.006 C 
BRANCH   3   4
ATOM      4  C   UNL     1       4.420  27.002  12.362  1.00  0.00     0.053 C 
BRANCH   4   5
ATOM      5  C   UNL     1       4.430  28.356  13.003  1.00  0.00     0.041 C 
ATOM      6  O   UNL     1       3.477  28.711  13.745  1.00  0.00    -0.550 OA
ATOM      7  O   UNL     1       5.507  29.210  12.808  1.00  0.00    -0.550 OA
ENDBRANCH   4   5
ENDBRANCH   3   4
ENDBRANCH   2   3
ENDBRANCH   1   2
BRANCH   1   8
ATOM      8  C   UNL     1       3.254  24.534  15.148  1.00  0.00     0.000 C 
BRANCH   8   9
ATOM      9  C   UNL     1       3.054  25.881  15.853  1.00  0.00     0.000 C 
BRANCH   9  10
ATOM     10  C   UNL     1       4.217  26.178  16.812  1.00  0.00     0.006 C 
BRANCH  10  11
ATOM     11  C   UNL     1       5.337  26.980  16.136  1.00  0.00     0.053 C 
BRANCH  11  12
ATOM     12  C   UNL     1       6.555  26.141  15.897  1.00  0.00     0.041 C 
ATOM     13  O   UNL     1       6.934  25.895  14.721  1.00  0.00    -0.550 OA
ATOM     14  O   UNL     1       7.252  25.602  16.970  1.00  0.00    -0.550 OA
ENDBRANCH  11  12
ENDBRANCH  10  11
ENDBRANCH   9  10
ENDBRANCH   8   9
ENDBRANCH   1   8
TORSDOF 9
ENDMDL
MODEL 3
REMARK VINA RESULT:    -3.873      0.616      3.818
REMARK INTER + INTRA:          -6.752
REMARK INTER:                  -5.852
REMARK INTRA:                  -0.900
REMARK UNBOUND:                -0.841
REMARK SMILES O=C([O-])CCCCCCCCC(=O)[O-]
REMARK SMILES IDX 7 1 6 2 5 3 4 4 2 5 1 6 3 7 8 8 9 9 10 10 11 11 12 12 13 13
REMARK SMILES IDX 14 14
REMARK H PARENT
REMARK Flexibility Score: inf
ROOT
ATOM      1  C   UNL     1       1.918  25.768  13.240  1.00  0.00     0.000 C 
ENDROOT
BRANCH   1   2
ATOM      2  C   UNL     1       1.917  26.368  11.825  1.00  0.00     0.000 C 
BRANCH   2   3
ATOM      3  C   UNL     1       2.569  27.760  11.772  1.00  0.00     0.006 C 
BRANCH   3   4
ATOM      4  C   UNL     1       4.097  27.689  11.880  1.00  0.00     0.053 C 
BRANCH   4   5
ATOM      5  C   UNL     1       4.613  28.514  13.020  1.00  0.00     0.041 C 
ATOM      6  O   UNL     1       5.706  29.128  12.912  1.00  0.00    -0.550 OA
ATOM      7  O   UNL     1       3.869  28.632  14.186  1.00  0.00    -0.550 OA
ENDBRANCH   4   5
ENDBRANCH   3   4
ENDBRANCH   2   3
ENDBRANCH   1   2
BRANCH   1   8
ATOM      8  C   UNL     1       2.819  24.529  13.357  1.00  0.00     0.000 C 
BRANCH   8   9
ATOM      9  C   UNL     1       3.103  24.194  14.827  1.00  0.00     0.000 C 
BRANCH   9  10
ATOM     10  C   UNL     1       3.957  25.288  15.485  1.00  0.00     0.006 C 
BRANCH  10  11
ATOM     11  C   UNL     1       5.328  25.439  14.810  1.00  0.00     0.053 C 
BRANCH  11  12
ATOM     12  C   UNL     1       6.282  26.224  15.658  1.00  0.00     0.041 C 
ATOM     13  O   UNL     1       7.523  26.049  15.542  1.00  0.00    -0.550 OA
ATOM     14  O   UNL     1       5.799  27.124  16.599  1.00  0.00    -0.550 OA
ENDBRANCH  11  12
ENDBRANCH  10  11
ENDBRANCH   9  10
ENDBRANCH   8   9
ENDBRANCH   1   8
TORSDOF 9
ENDMDL
MODEL 4
REMARK VINA RESULT:    -3.683      2.077      3.271
REMARK INTER + INTRA:          -6.462
REMARK INTER:                  -5.719
REMARK INTRA:                  -0.743
REMARK UNBOUND:                -0.841
REMARK SMILES O=C([O-])CCCCCCCCC(=O)[O-]
REMARK SMILES IDX 7 1 6 2 5 3 4 4 2 5 1 6 3 7 8 8 9 9 10 10 11 11 12 12 13 13
REMARK SMILES IDX 14 14
REMARK H PARENT
REMARK Flexibility Score: inf
ROOT
ATOM      1  C   UNL     1       6.841  25.807  14.606  1.00  0.00     0.000 C 
ENDROOT
BRANCH   1   2
ATOM      2  C   UNL     1       7.141  26.669  15.843  1.00  0.00     0.000 C 
BRANCH   2   3
ATOM      3  C   UNL     1       6.146  26.424  16.991  1.00  0.00     0.006 C 
BRANCH   3   4
ATOM      4  C   UNL     1       5.126  27.562  17.125  1.00  0.00     0.053 C 
BRANCH   4   5
ATOM      5  C   UNL     1       3.731  27.093  16.844  1.00  0.00     0.041 C 
ATOM      6  O   UNL     1       3.492  25.864  16.710  1.00  0.00    -0.550 OA
ATOM      7  O   UNL     1       2.691  28.010  16.766  1.00  0.00    -0.550 OA
ENDBRANCH   4   5
ENDBRANCH   3   4
ENDBRANCH   2   3
ENDBRANCH   1   2
BRANCH   1   8
ATOM      8  C   UNL     1       5.664  26.346  13.781  1.00  0.00     0.000 C 
BRANCH   8   9
ATOM      9  C   UNL     1       4.729  25.209  13.349  1.00  0.00     0.000 C 
BRANCH   9  10
ATOM     10  C   UNL     1       3.282  25.707  13.219  1.00  0.00     0.006 C 
BRANCH  10  11
ATOM     11  C   UNL     1       3.074  26.567  11.965  1.00  0.00     0.053 C 
BRANCH  11  12
ATOM     12  C   UNL     1       2.639  27.959  12.311  1.00  0.00     0.041 C 
ATOM     13  O   UNL     1       1.977  28.639  11.484  1.00  0.00    -0.550 OA
ATOM     14  O   UNL     1       2.996  28.516  13.532  1.00  0.00    -0.550 OA
ENDBRANCH  11  12
ENDBRANCH  10  11
ENDBRANCH   9  10
ENDBRANCH   8   9
ENDBRANCH   1   8
TORSDOF 9
ENDMDL
MODEL 5
REMARK VINA RESULT:    -3.682      1.606      3.739
REMARK INTER + INTRA:          -6.460
REMARK INTER:                  -5.578
REMARK INTRA:                  -0.882
REMARK UNBOUND:                -0.841
REMARK SMILES O=C([O-])CCCCCCCCC(=O)[O-]
REMARK SMILES IDX 7 1 6 2 5 3 4 4 2 5 1 6 3 7 8 8 9 9 10 10 11 11 12 12 13 13
REMARK SMILES IDX 14 14
REMARK H PARENT
REMARK Flexibility Score: inf
ROOT
ATOM      1  C   UNL     1       3.514  26.791  12.118  1.00  0.00     0.000 C 
ENDROOT
BRANCH   1   2
ATOM      2  C   UNL     1       3.092  28.167  12.657  1.00  0.00     0.000 C 
BRANCH   2   3
ATOM      3  C   UNL     1       3.746  28.500  14.009  1.00  0.00     0.006 C 
BRANCH   3   4
ATOM      4  C   UNL     1       2.738  28.466  15.165  1.00  0.00     0.053 C 
BRANCH   4   5
ATOM      5  C   UNL     1       3.383  28.050  16.452  1.00  0.00     0.041 C 
ATOM      6  O   UNL     1       4.248  28.788  16.993  1.00  0.00    -0.550 OA
ATOM      7  O   UNL     1       3.003  26.866  17.070  1.00  0.00    -0.550 OA
ENDBRANCH   4   5
ENDBRANCH   3   4
ENDBRANCH   2   3
ENDBRANCH   1   2
BRANCH   1   8
ATOM      8  C   UNL     1       3.099  25.639  13.045  1.00  0.00     0.000 C 
BRANCH   8   9
ATOM      9  C   UNL     1       4.300  24.752  13.390  1.00  0.00     0.000 C 
BRANCH   9  10
ATOM     10  C   UNL     1       4.968  25.214  14.694  1.00  0.00     0.006 C 
BRANCH  10  11
ATOM     11  C   UNL     1       6.312  25.912  14.443  1.00  0.00     0.053 C 
BRANCH  11  12
ATOM     12  C   UNL     1       6.990  26.292  15.723  1.00  0.00     0.041 C 
ATOM     13  O   UNL     1       8.166  26.740  15.708  1.00  0.00    -0.550 OA
ATOM     14  O   UNL     1       6.336  26.117  16.936  1.00  0.00    -0.550 OA
ENDBRANCH  11  12
ENDBRANCH  10  11
ENDBRANCH   9  10
ENDBRANCH   8   9
ENDBRANCH   1   8
TORSDOF 9
ENDMDL
MODEL 6
REMARK VINA RESULT:    -3.582      1.638      2.244
REMARK INTER + INTRA:          -6.307
REMARK INTER:                  -5.335
REMARK INTRA:                  -0.972
REMARK UNBOUND:                -0.841
REMARK SMILES O=C([O-])CCCCCCCCC(=O)[O-]
REMARK SMILES IDX 7 1 6 2 5 3 4 4 2 5 1 6 3 7 8 8 9 9 10 10 11 11 12 12 13 13
REMARK SMILES IDX 14 14
REMARK H PARENT
REMARK Flexibility Score: inf
ROOT
ATOM      1  C   UNL     1       4.147  26.389  12.523  1.00  0.00     0.000 C 
ENDROOT
BRANCH   1   2
ATOM      2  C   UNL     1       4.018  25.102  13.353  1.00  0.00     0.000 C 
BRANCH   2   3
ATOM      3  C   UNL     1       5.010  25.052  14.527  1.00  0.00     0.006 C 
BRANCH   3   4
ATOM      4  C   UNL     1       6.065  26.162  14.441  1.00  0.00     0.053 C 
BRANCH   4   5
ATOM      5  C   UNL     1       6.898  26.235  15.685  1.00  0.00     0.041 C 
ATOM      6  O   UNL     1       8.122  26.519  15.611  1.00  0.00    -0.550 OA
ATOM      7  O   UNL     1       6.314  26.022  16.927  1.00  0.00    -0.550 OA
ENDBRANCH   4   5
ENDBRANCH   3   4
ENDBRANCH   2   3
ENDBRANCH   1   2
BRANCH   1   8
ATOM      8  C   UNL     1       2.811  26.834  11.910  1.00  0.00     0.000 C 
BRANCH   8   9
ATOM      9  C   UNL     1       2.268  28.079  12.621  1.00  0.00     0.000 C 
BRANCH   9  10
ATOM     10  C   UNL     1       3.161  28.466  13.811  1.00  0.00     0.006 C 
BRANCH  10  11
ATOM     11  C   UNL     1       2.396  28.445  15.141  1.00  0.00     0.053 C 
BRANCH  11  12
ATOM     12  C   UNL     1       3.232  27.893  16.255  1.00  0.00     0.041 C 
ATOM     13  O   UNL     1       4.205  28.553  16.703  1.00  0.00    -0.550 OA
ATOM     14  O   UNL     1       2.956  26.635  16.775  1.00  0.00    -0.550 OA
ENDBRANCH  11  12
ENDBRANCH  10  11
ENDBRANCH   9  10
ENDBRANCH   8   9
ENDBRANCH   1   8
TORSDOF 9
ENDMDL
MODEL 7
REMARK VINA RESULT:    -3.430      2.366      3.755
REMARK INTER + INTRA:          -6.076
REMARK INTER:                  -5.047
REMARK INTRA:                  -1.029
REMARK UNBOUND:                -0.841
REMARK SMILES O=C([O-])CCCCCCCCC(=O)[O-]
REMARK SMILES IDX 7 1 6 2 5 3 4 4 2 5 1 6 3 7 8 8 9 9 10 10 11 11 12 12 13 13
REMARK SMILES IDX 14 14
REMARK H PARENT
REMARK Flexibility Score: inf
ROOT
ATOM      1  C   UNL     1       5.793  26.637  16.707  1.00  0.00     0.000 C 
ENDROOT
BRANCH   1   2
ATOM      2  C   UNL     1       6.259  26.809  15.252  1.00  0.00     0.000 C 
BRANCH   2   3
ATOM      3  C   UNL     1       6.183  25.500  14.448  1.00  0.00     0.006 C 
BRANCH   3   4
ATOM      4  C   UNL     1       5.105  25.551  13.358  1.00  0.00     0.053 C 
BRANCH   4   5
ATOM      5  C   UNL     1       3.894  24.755  13.738  1.00  0.00     0.041 C 
ATOM      6  O   UNL     1       2.876  24.759  12.997  1.00  0.00    -0.550 OA
ATOM      7  O   UNL     1       3.903  23.982  14.891  1.00  0.00    -0.550 OA
ENDBRANCH   4   5
ENDBRANCH   3   4
ENDBRANCH   2   3
ENDBRANCH   1   2
BRANCH   1   8
ATOM      8  C   UNL     1       4.656  27.599  17.082  1.00  0.00     0.000 C 
BRANCH   8   9
ATOM      9  C   UNL     1       3.403  27.322  16.242  1.00  0.00     0.000 C 
BRANCH   9  10
ATOM     10  C   UNL     1       3.036  28.542  15.383  1.00  0.00     0.006 C 
BRANCH  10  11
ATOM     11  C   UNL     1       2.410  28.139  14.040  1.00  0.00     0.053 C 
BRANCH  11  12
ATOM     12  C   UNL     1       3.331  28.415  12.891  1.00  0.00     0.041 C 
ATOM     13  O   UNL     1       4.432  28.993  13.088  1.00  0.00    -0.550 OA
ATOM     14  O   UNL     1       2.957  28.067  11.600  1.00  0.00    -0.550 OA
ENDBRANCH  11  12
ENDBRANCH  10  11
ENDBRANCH   9  10
ENDBRANCH   8   9
ENDBRANCH   1   8
TORSDOF 9
ENDMDL
MODEL 8
REMARK VINA RESULT:    -3.427      2.469      3.912
REMARK INTER + INTRA:          -6.071
REMARK INTER:                  -5.038
REMARK INTRA:                  -1.033
REMARK UNBOUND:                -0.841
REMARK SMILES O=C([O-])CCCCCCCCC(=O)[O-]
REMARK SMILES IDX 7 1 6 2 5 3 4 4 2 5 1 6 3 7 8 8 9 9 10 10 11 11 12 12 13 13
REMARK SMILES IDX 14 14
REMARK H PARENT
REMARK Flexibility Score: inf
ROOT
ATOM      1  C   UNL     1       3.105  27.914  13.403  1.00  0.00     0.000 C 
ENDROOT
BRANCH   1   2
ATOM      2  C   UNL     1       4.362  27.460  12.644  1.00  0.00     0.000 C 
BRANCH   2   3
ATOM      3  C   UNL     1       5.620  27.452  13.530  1.00  0.00     0.006 C 
BRANCH   3   4
ATOM      4  C   UNL     1       5.876  26.077  14.160  1.00  0.00     0.053 C 
BRANCH   4   5
ATOM      5  C   UNL     1       6.520  26.195  15.508  1.00  0.00     0.041 C 
ATOM      6  O   UNL     1       5.815  26.163  16.550  1.00  0.00    -0.550 OA
ATOM      7  O   UNL     1       7.900  26.305  15.612  1.00  0.00    -0.550 OA
ENDBRANCH   4   5
ENDBRANCH   3   4
ENDBRANCH   2   3
ENDBRANCH   1   2
BRANCH   1   8
ATOM      8  C   UNL     1       3.428  28.490  14.790  1.00  0.00     0.000 C 
BRANCH   8   9
ATOM      9  C   UNL     1       2.691  27.716  15.890  1.00  0.00     0.000 C 
BRANCH   9  10
ATOM     10  C   UNL     1       1.987  26.478  15.315  1.00  0.00     0.006 C 
BRANCH  10  11
ATOM     11  C   UNL     1       2.569  25.170  15.869  1.00  0.00     0.053 C 
BRANCH  11  12
ATOM     12  C   UNL     1       2.598  24.090  14.830  1.00  0.00     0.041 C 
ATOM     13  O   UNL     1       2.787  24.381  13.620  1.00  0.00    -0.550 OA
ATOM     14  O   UNL     1       2.382  22.768  15.195  1.00  0.00    -0.550 OA
ENDBRANCH  11  12
ENDBRANCH  10  11
ENDBRANCH   9  10
ENDBRANCH   8   9
ENDBRANCH   1   8
TORSDOF 9
ENDMDL
MODEL 9
REMARK VINA RESULT:    -3.402     12.214     13.279
REMARK INTER + INTRA:          -6.033
REMARK INTER:                  -5.181
REMARK INTRA:                  -0.852
REMARK UNBOUND:                -0.841
REMARK SMILES O=C([O-])CCCCCCCCC(=O)[O-]
REMARK SMILES IDX 7 1 6 2 5 3 4 4 2 5 1 6 3 7 8 8 9 9 10 10 11 11 12 12 13 13
REMARK SMILES IDX 14 14
REMARK H PARENT
REMARK Flexibility Score: inf
ROOT
ATOM      1  C   UNL     1       3.333  19.127   6.802  1.00  0.00     0.000 C 
ENDROOT
BRANCH   1   2
ATOM      2  C   UNL     1       3.335  18.718   8.283  1.00  0.00     0.000 C 
BRANCH   2   3
ATOM      3  C   UNL     1       3.646  17.225   8.486  1.00  0.00     0.006 C 
BRANCH   3   4
ATOM      4  C   UNL     1       5.112  16.893   8.183  1.00  0.00     0.053 C 
BRANCH   4   5
ATOM      5  C   UNL     1       5.237  15.730   7.246  1.00  0.00     0.041 C 
ATOM      6  O   UNL     1       4.232  15.016   6.987  1.00  0.00    -0.550 OA
ATOM      7  O   UNL     1       6.453  15.455   6.635  1.00  0.00    -0.550 OA
ENDBRANCH   4   5
ENDBRANCH   3   4
ENDBRANCH   2   3
ENDBRANCH   1   2
BRANCH   1   8
ATOM      8  C   UNL     1       2.019  18.768   6.091  1.00  0.00     0.000 C 
BRANCH   8   9
ATOM      9  C   UNL     1       2.284  18.280   4.662  1.00  0.00     0.000 C 
BRANCH   9  10
ATOM     10  C   UNL     1       3.623  17.531   4.575  1.00  0.00     0.006 C 
BRANCH  10  11
ATOM     11  C   UNL     1       3.800  16.812   3.231  1.00  0.00     0.053 C 
BRANCH  11  12
ATOM     12  C   UNL     1       4.505  15.500   3.390  1.00  0.00     0.041 C 
ATOM     13  O   UNL     1       3.860  14.469   3.714  1.00  0.00    -0.550 OA
ATOM     14  O   UNL     1       5.881  15.424   3.216  1.00  0.00    -0.550 OA
ENDBRANCH  11  12
ENDBRANCH  10  11
ENDBRANCH   9  10
ENDBRANCH   8   9
ENDBRANCH   1   8
TORSDOF 9
ENDMDL
