MODEL 1
REMARK VINA RESULT:    -5.971      0.000      0.000
REMARK INTER + INTRA:          -6.416
REMARK INTER:                  -6.320
REMARK INTRA:                  -0.096
REMARK UNBOUND:                -0.096
REMARK SMILES C=C(C)[C@H]1CC=C(C)C(=O)C1
REMARK SMILES IDX 8 1 7 2 6 3 5 4 4 5 11 6 9 7 10 8 2 9 1 10 3 11
REMARK H PARENT
REMARK Flexibility Score: inf
ROOT
ATOM      1  C   UNL     1       0.382  12.510  31.927  1.00  0.00     0.048 C 
ATOM      2  C   UNL     1       1.425  13.017  30.970  1.00  0.00    -0.012 C 
ATOM      3  C   UNL     1       2.712  13.094  31.351  1.00  0.00    -0.019 C 
ATOM      4  C   UNL     1       3.778  13.670  30.457  1.00  0.00     0.036 C 
ATOM      5  C   UNL     1       3.446  13.435  28.971  1.00  0.00     0.025 C 
ATOM      6  C   UNL     1       2.046  13.986  28.641  1.00  0.00     0.089 C 
ATOM      7  C   UNL     1       1.024  13.455  29.609  1.00  0.00     0.158 C 
ATOM      8  O   UNL     1      -0.189  13.427  29.269  1.00  0.00    -0.295 OA
ENDROOT
BRANCH   5   9
ATOM      9  C   UNL     1       4.511  14.023  28.056  1.00  0.00    -0.077 C 
ATOM     10  C   UNL     1       5.691  14.448  28.538  1.00  0.00     0.008 C 
ATOM     11  C   UNL     1       4.255  14.139  26.575  1.00  0.00     0.039 C 
ENDBRANCH   5   9
TORSDOF 1
ENDMDL
MODEL 2
REMARK VINA RESULT:    -5.852      2.515      3.948
REMARK INTER + INTRA:          -6.290
REMARK INTER:                  -6.194
REMARK INTRA:                  -0.096
REMARK UNBOUND:                -0.096
REMARK SMILES C=C(C)[C@H]1CC=C(C)C(=O)C1
REMARK SMILES IDX 8 1 7 2 6 3 5 4 4 5 11 6 9 7 10 8 2 9 1 10 3 11
REMARK H PARENT
REMARK Flexibility Score: inf
ROOT
ATOM      1  C   UNL     1       2.957  11.421  26.111  1.00  0.00     0.048 C 
ATOM      2  C   UNL     1       3.512  12.109  27.327  1.00  0.00    -0.012 C 
ATOM      3  C   UNL     1       4.028  13.346  27.228  1.00  0.00    -0.019 C 
ATOM      4  C   UNL     1       4.668  14.042  28.400  1.00  0.00     0.036 C 
ATOM      5  C   UNL     1       4.029  13.596  29.730  1.00  0.00     0.025 C 
ATOM      6  C   UNL     1       4.081  12.062  29.861  1.00  0.00     0.089 C 
ATOM      7  C   UNL     1       3.511  11.404  28.634  1.00  0.00     0.158 C 
ATOM      8  O   UNL     1       3.072  10.226  28.717  1.00  0.00    -0.295 OA
ENDROOT
BRANCH   5   9
ATOM      9  C   UNL     1       4.676  14.284  30.924  1.00  0.00    -0.077 C 
ATOM     10  C   UNL     1       4.252  14.055  32.178  1.00  0.00     0.008 C 
ATOM     11  C   UNL     1       5.819  15.245  30.715  1.00  0.00     0.039 C 
ENDBRANCH   5   9
TORSDOF 1
ENDMDL
MODEL 3
REMARK VINA RESULT:    -5.769      2.917      3.907
REMARK INTER + INTRA:          -6.202
REMARK INTER:                  -6.106
REMARK INTRA:                  -0.096
REMARK UNBOUND:                -0.096
REMARK SMILES C=C(C)[C@H]1CC=C(C)C(=O)C1
REMARK SMILES IDX 8 1 7 2 6 3 5 4 4 5 11 6 9 7 10 8 2 9 1 10 3 11
REMARK H PARENT
REMARK Flexibility Score: inf
ROOT
ATOM      1  C   UNL     1       5.493  15.518  32.472  1.00  0.00     0.048 C 
ATOM      2  C   UNL     1       5.108  14.750  31.238  1.00  0.00    -0.012 C 
ATOM      3  C   UNL     1       4.199  13.763  31.311  1.00  0.00    -0.019 C 
ATOM      4  C   UNL     1       3.842  12.914  30.120  1.00  0.00     0.036 C 
ATOM      5  C   UNL     1       3.988  13.707  28.807  1.00  0.00     0.025 C 
ATOM      6  C   UNL     1       5.404  14.303  28.696  1.00  0.00     0.089 C 
ATOM      7  C   UNL     1       5.756  15.071  29.941  1.00  0.00     0.158 C 
ATOM      8  O   UNL     1       6.643  15.964  29.882  1.00  0.00    -0.295 OA
ENDROOT
BRANCH   5   9
ATOM      9  C   UNL     1       3.641  12.855  27.593  1.00  0.00    -0.077 C 
ATOM     10  C   UNL     1       3.747  13.340  26.344  1.00  0.00     0.008 C 
ATOM     11  C   UNL     1       3.167  11.436  27.776  1.00  0.00     0.039 C 
ENDBRANCH   5   9
TORSDOF 1
ENDMDL
MODEL 4
REMARK VINA RESULT:    -5.753      2.631      4.671
REMARK INTER + INTRA:          -6.185
REMARK INTER:                  -6.088
REMARK INTRA:                  -0.097
REMARK UNBOUND:                -0.096
REMARK SMILES C=C(C)[C@H]1CC=C(C)C(=O)C1
REMARK SMILES IDX 8 1 7 2 6 3 5 4 4 5 11 6 9 7 10 8 2 9 1 10 3 11
REMARK H PARENT
REMARK Flexibility Score: inf
ROOT
ATOM      1  C   UNL     1       7.226  16.349  29.165  1.00  0.00     0.048 C 
ATOM      2  C   UNL     1       6.107  15.361  28.981  1.00  0.00    -0.012 C 
ATOM      3  C   UNL     1       5.728  14.991  27.746  1.00  0.00    -0.019 C 
ATOM      4  C   UNL     1       4.562  14.067  27.511  1.00  0.00     0.036 C 
ATOM      5  C   UNL     1       4.390  13.078  28.679  1.00  0.00     0.025 C 
ATOM      6  C   UNL     1       4.271  13.840  30.013  1.00  0.00     0.089 C 
ATOM      7  C   UNL     1       5.408  14.814  30.171  1.00  0.00     0.158 C 
ATOM      8  O   UNL     1       5.732  15.198  31.327  1.00  0.00    -0.295 OA
ENDROOT
BRANCH   5   9
ATOM      9  C   UNL     1       3.206  12.146  28.459  1.00  0.00    -0.077 C 
ATOM     10  C   UNL     1       2.422  11.756  29.478  1.00  0.00     0.008 C 
ATOM     11  C   UNL     1       2.890  11.640  27.074  1.00  0.00     0.039 C 
ENDBRANCH   5   9
TORSDOF 1
ENDMDL
MODEL 5
REMARK VINA RESULT:    -5.717      1.819      4.382
REMARK INTER + INTRA:          -6.148
REMARK INTER:                  -6.060
REMARK INTRA:                  -0.088
REMARK UNBOUND:                -0.096
REMARK SMILES C=C(C)[C@H]1CC=C(C)C(=O)C1
REMARK SMILES IDX 8 1 7 2 6 3 5 4 4 5 11 6 9 7 10 8 2 9 1 10 3 11
REMARK H PARENT
REMARK Flexibility Score: inf
ROOT
ATOM      1  C   UNL     1       6.258  15.061  28.042  1.00  0.00     0.048 C 
ATOM      2  C   UNL     1       5.096  14.367  28.697  1.00  0.00    -0.012 C 
ATOM      3  C   UNL     1       5.034  14.271  30.037  1.00  0.00    -0.019 C 
ATOM      4  C   UNL     1       3.932  13.517  30.734  1.00  0.00     0.036 C 
ATOM      5  C   UNL     1       2.625  13.562  29.920  1.00  0.00     0.025 C 
ATOM      6  C   UNL     1       2.867  13.050  28.488  1.00  0.00     0.089 C 
ATOM      7  C   UNL     1       4.029  13.768  27.857  1.00  0.00     0.158 C 
ATOM      8  O   UNL     1       4.112  13.816  26.600  1.00  0.00    -0.295 OA
ENDROOT
BRANCH   5   9
ATOM      9  C   UNL     1       1.506  12.793  30.610  1.00  0.00    -0.077 C 
ATOM     10  C   UNL     1       0.442  13.424  31.134  1.00  0.00     0.008 C 
ATOM     11  C   UNL     1       1.575  11.291  30.715  1.00  0.00     0.039 C 
ENDBRANCH   5   9
TORSDOF 1
ENDMDL
MODEL 6
REMARK VINA RESULT:    -5.693      1.431      2.229
REMARK INTER + INTRA:          -6.122
REMARK INTER:                  -6.028
REMARK INTRA:                  -0.094
REMARK UNBOUND:                -0.096
REMARK SMILES C=C(C)[C@H]1CC=C(C)C(=O)C1
REMARK SMILES IDX 8 1 7 2 6 3 5 4 4 5 11 6 9 7 10 8 2 9 1 10 3 11
REMARK H PARENT
REMARK Flexibility Score: inf
ROOT
ATOM      1  C   UNL     1       0.008  12.654  31.857  1.00  0.00     0.048 C 
ATOM      2  C   UNL     1       1.051  12.902  30.803  1.00  0.00    -0.012 C 
ATOM      3  C   UNL     1       0.826  13.797  29.825  1.00  0.00    -0.019 C 
ATOM      4  C   UNL     1       1.806  14.020  28.704  1.00  0.00     0.036 C 
ATOM      5  C   UNL     1       3.252  13.759  29.167  1.00  0.00     0.025 C 
ATOM      6  C   UNL     1       3.373  12.349  29.776  1.00  0.00     0.089 C 
ATOM      7  C   UNL     1       2.322  12.135  30.832  1.00  0.00     0.158 C 
ATOM      8  O   UNL     1       2.513  11.261  31.720  1.00  0.00    -0.295 OA
ENDROOT
BRANCH   5   9
ATOM      9  C   UNL     1       4.252  13.970  28.038  1.00  0.00    -0.077 C 
ATOM     10  C   UNL     1       3.934  13.694  26.762  1.00  0.00     0.008 C 
ATOM     11  C   UNL     1       5.631  14.499  28.339  1.00  0.00     0.039 C 
ENDBRANCH   5   9
TORSDOF 1
ENDMDL
MODEL 7
REMARK VINA RESULT:    -5.614      1.924      2.931
REMARK INTER + INTRA:          -6.038
REMARK INTER:                  -5.943
REMARK INTRA:                  -0.096
REMARK UNBOUND:                -0.096
REMARK SMILES C=C(C)[C@H]1CC=C(C)C(=O)C1
REMARK SMILES IDX 8 1 7 2 6 3 5 4 4 5 11 6 9 7 10 8 2 9 1 10 3 11
REMARK H PARENT
REMARK Flexibility Score: inf
ROOT
ATOM      1  C   UNL     1       4.899  14.599  32.857  1.00  0.00     0.048 C 
ATOM      2  C   UNL     1       4.546  14.292  31.429  1.00  0.00    -0.012 C 
ATOM      3  C   UNL     1       5.352  14.695  30.431  1.00  0.00    -0.019 C 
ATOM      4  C   UNL     1       4.999  14.481  28.983  1.00  0.00     0.036 C 
ATOM      5  C   UNL     1       4.150  13.209  28.797  1.00  0.00     0.025 C 
ATOM      6  C   UNL     1       2.903  13.262  29.700  1.00  0.00     0.089 C 
ATOM      7  C   UNL     1       3.290  13.562  31.123  1.00  0.00     0.158 C 
ATOM      8  O   UNL     1       2.511  13.227  32.055  1.00  0.00    -0.295 OA
ENDROOT
BRANCH   5   9
ATOM      9  C   UNL     1       3.777  12.989  27.337  1.00  0.00    -0.077 C 
ATOM     10  C   UNL     1       4.025  13.922  26.403  1.00  0.00     0.008 C 
ATOM     11  C   UNL     1       3.116  11.702  26.912  1.00  0.00     0.039 C 
ENDBRANCH   5   9
TORSDOF 1
ENDMDL
MODEL 8
REMARK VINA RESULT:    -5.613      2.312      2.546
REMARK INTER + INTRA:          -6.038
REMARK INTER:                  -5.942
REMARK INTRA:                  -0.095
REMARK UNBOUND:                -0.096
REMARK SMILES C=C(C)[C@H]1CC=C(C)C(=O)C1
REMARK SMILES IDX 8 1 7 2 6 3 5 4 4 5 11 6 9 7 10 8 2 9 1 10 3 11
REMARK H PARENT
REMARK Flexibility Score: inf
ROOT
ATOM      1  C   UNL     1       2.884  10.675  32.062  1.00  0.00     0.048 C 
ATOM      2  C   UNL     1       3.379  11.656  31.035  1.00  0.00    -0.012 C 
ATOM      3  C   UNL     1       3.735  12.899  31.403  1.00  0.00    -0.019 C 
ATOM      4  C   UNL     1       4.160  13.939  30.401  1.00  0.00     0.036 C 
ATOM      5  C   UNL     1       4.841  13.291  29.180  1.00  0.00     0.025 C 
ATOM      6  C   UNL     1       3.921  12.222  28.559  1.00  0.00     0.089 C 
ATOM      7  C   UNL     1       3.450  11.253  29.608  1.00  0.00     0.158 C 
ATOM      8  O   UNL     1       3.071  10.103  29.256  1.00  0.00    -0.295 OA
ENDROOT
BRANCH   5   9
ATOM      9  C   UNL     1       5.264  14.333  28.153  1.00  0.00    -0.077 C 
ATOM     10  C   UNL     1       4.598  14.486  26.996  1.00  0.00     0.008 C 
ATOM     11  C   UNL     1       6.453  15.220  28.422  1.00  0.00     0.039 C 
ENDBRANCH   5   9
TORSDOF 1
ENDMDL
MODEL 9
REMARK VINA RESULT:    -5.531      2.291      4.727
REMARK INTER + INTRA:          -5.951
REMARK INTER:                  -5.862
REMARK INTRA:                  -0.089
REMARK UNBOUND:                -0.096
REMARK SMILES C=C(C)[C@H]1CC=C(C)C(=O)C1
REMARK SMILES IDX 8 1 7 2 6 3 5 4 4 5 11 6 9 7 10 8 2 9 1 10 3 11
REMARK H PARENT
REMARK Flexibility Score: inf
ROOT
ATOM      1  C   UNL     1       6.330  15.147  28.378  1.00  0.00     0.048 C 
ATOM      2  C   UNL     1       5.198  14.323  28.926  1.00  0.00    -0.012 C 
ATOM      3  C   UNL     1       4.450  13.568  28.103  1.00  0.00    -0.019 C 
ATOM      4  C   UNL     1       3.258  12.791  28.593  1.00  0.00     0.036 C 
ATOM      5  C   UNL     1       3.444  12.349  30.058  1.00  0.00     0.025 C 
ATOM      6  C   UNL     1       3.753  13.568  30.949  1.00  0.00     0.089 C 
ATOM      7  C   UNL     1       4.894  14.366  30.379  1.00  0.00     0.158 C 
ATOM      8  O   UNL     1       5.565  15.111  31.143  1.00  0.00    -0.295 OA
ENDROOT
BRANCH   5   9
ATOM      9  C   UNL     1       2.239  11.572  30.569  1.00  0.00    -0.077 C 
ATOM     10  C   UNL     1       2.207  10.229  30.535  1.00  0.00     0.008 C 
ATOM     11  C   UNL     1       1.048  12.306  31.131  1.00  0.00     0.039 C 
ENDBRANCH   5   9
TORSDOF 1
ENDMDL
