MODEL 1
REMARK VINA RESULT:    -4.316      0.000      0.000
REMARK INTER + INTRA:          -6.131
REMARK INTER:                  -5.830
REMARK INTRA:                  -0.301
REMARK UNBOUND:                -0.301
REMARK SMILES CCCCCCCC(=O)[O-]
REMARK SMILES IDX 5 1 6 2 7 3 8 4 9 5 10 6 4 7 3 8 2 9 1 10
REMARK H PARENT
REMARK Flexibility Score: inf
ROOT
ATOM      1  C   UNL     1     -22.585 -28.003  39.902  1.00  0.00     0.000 C 
ENDROOT
BRANCH   1   2
ATOM      2  C   UNL     1     -22.989 -29.323  40.575  1.00  0.00     0.006 C 
BRANCH   2   3
ATOM      3  C   UNL     1     -24.389 -29.219  41.188  1.00  0.00     0.053 C 
BRANCH   3   4
ATOM      4  C   UNL     1     -25.423 -29.088  40.114  1.00  0.00     0.041 C 
ATOM      5  O   UNL     1     -26.136 -28.053  40.043  1.00  0.00    -0.550 OA
ATOM      6  O   UNL     1     -25.636 -30.132  39.223  1.00  0.00    -0.550 OA
ENDBRANCH   3   4
ENDBRANCH   2   3
ENDBRANCH   1   2
BRANCH   1   7
ATOM      7  C   UNL     1     -22.112 -28.190  38.449  1.00  0.00     0.000 C 
BRANCH   7   8
ATOM      8  C   UNL     1     -21.073 -27.161  37.967  1.00  0.00    -0.000 C 
BRANCH   8   9
ATOM      9  C   UNL     1     -20.660 -26.168  39.063  1.00  0.00    -0.003 C 
ATOM     10  C   UNL     1     -19.143 -26.022  39.130  1.00  0.00     0.004 C 
ENDBRANCH   8   9
ENDBRANCH   7   8
ENDBRANCH   1   7
TORSDOF 6
ENDMDL
MODEL 2
REMARK VINA RESULT:    -4.243      1.885      2.451
REMARK INTER + INTRA:          -6.033
REMARK INTER:                  -5.718
REMARK INTRA:                  -0.315
REMARK UNBOUND:                -0.301
REMARK SMILES CCCCCCCC(=O)[O-]
REMARK SMILES IDX 5 1 6 2 7 3 8 4 9 5 10 6 4 7 3 8 2 9 1 10
REMARK H PARENT
REMARK Flexibility Score: inf
ROOT
ATOM      1  C   UNL     1     -23.391 -29.296  40.523  1.00  0.00     0.000 C 
ENDROOT
BRANCH   1   2
ATOM      2  C   UNL     1     -24.261 -28.432  41.449  1.00  0.00     0.006 C 
BRANCH   2   3
ATOM      3  C   UNL     1     -25.558 -28.015  40.749  1.00  0.00     0.053 C 
BRANCH   3   4
ATOM      4  C   UNL     1     -25.966 -26.641  41.176  1.00  0.00     0.041 C 
ATOM      5  O   UNL     1     -25.097 -25.807  41.543  1.00  0.00    -0.550 OA
ATOM      6  O   UNL     1     -27.311 -26.296  41.219  1.00  0.00    -0.550 OA
ENDBRANCH   3   4
ENDBRANCH   2   3
ENDBRANCH   1   2
BRANCH   1   7
ATOM      7  C   UNL     1     -22.623 -28.470  39.476  1.00  0.00     0.000 C 
BRANCH   7   8
ATOM      8  C   UNL     1     -21.932 -27.208  40.024  1.00  0.00    -0.000 C 
BRANCH   8   9
ATOM      9  C   UNL     1     -20.947 -26.583  39.025  1.00  0.00    -0.003 C 
ATOM     10  C   UNL     1     -21.028 -27.273  37.667  1.00  0.00     0.004 C 
ENDBRANCH   8   9
ENDBRANCH   7   8
ENDBRANCH   1   7
TORSDOF 6
ENDMDL
MODEL 3
REMARK VINA RESULT:    -4.222      1.748      2.689
REMARK INTER + INTRA:          -6.005
REMARK INTER:                  -5.665
REMARK INTRA:                  -0.339
REMARK UNBOUND:                -0.301
REMARK SMILES CCCCCCCC(=O)[O-]
REMARK SMILES IDX 5 1 6 2 7 3 8 4 9 5 10 6 4 7 3 8 2 9 1 10
REMARK H PARENT
REMARK Flexibility Score: inf
ROOT
ATOM      1  C   UNL     1     -21.129 -27.012  38.444  1.00  0.00     0.000 C 
ENDROOT
BRANCH   1   2
ATOM      2  C   UNL     1     -22.150 -28.137  38.217  1.00  0.00     0.006 C 
BRANCH   2   3
ATOM      3  C   UNL     1     -22.664 -28.686  39.551  1.00  0.00     0.053 C 
BRANCH   3   4
ATOM      4  C   UNL     1     -24.072 -29.174  39.410  1.00  0.00     0.041 C 
ATOM      5  O   UNL     1     -24.626 -29.191  38.279  1.00  0.00    -0.550 OA
ATOM      6  O   UNL     1     -24.790 -29.562  40.534  1.00  0.00    -0.550 OA
ENDBRANCH   3   4
ENDBRANCH   2   3
ENDBRANCH   1   2
BRANCH   1   7
ATOM      7  C   UNL     1     -21.115 -26.496  39.894  1.00  0.00     0.000 C 
BRANCH   7   8
ATOM      8  C   UNL     1     -20.542 -25.079  40.074  1.00  0.00    -0.000 C 
BRANCH   8   9
ATOM      9  C   UNL     1     -21.569 -24.083  40.633  1.00  0.00    -0.003 C 
ATOM     10  C   UNL     1     -22.796 -24.808  41.181  1.00  0.00     0.004 C 
ENDBRANCH   8   9
ENDBRANCH   7   8
ENDBRANCH   1   7
TORSDOF 6
ENDMDL
MODEL 4
REMARK VINA RESULT:    -4.157      1.167      1.775
REMARK INTER + INTRA:          -5.917
REMARK INTER:                  -5.671
REMARK INTRA:                  -0.246
REMARK UNBOUND:                -0.301
REMARK SMILES CCCCCCCC(=O)[O-]
REMARK SMILES IDX 5 1 6 2 7 3 8 4 9 5 10 6 4 7 3 8 2 9 1 10
REMARK H PARENT
REMARK Flexibility Score: inf
ROOT
ATOM      1  C   UNL     1     -21.914 -28.157  38.165  1.00  0.00     0.000 C 
ENDROOT
BRANCH   1   2
ATOM      2  C   UNL     1     -22.521 -28.627  39.495  1.00  0.00     0.006 C 
BRANCH   2   3
ATOM      3  C   UNL     1     -24.008 -28.958  39.331  1.00  0.00     0.053 C 
BRANCH   3   4
ATOM      4  C   UNL     1     -24.787 -28.469  40.511  1.00  0.00     0.041 C 
ATOM      5  O   UNL     1     -24.291 -28.528  41.667  1.00  0.00    -0.550 OA
ATOM      6  O   UNL     1     -26.082 -27.996  40.342  1.00  0.00    -0.550 OA
ENDBRANCH   3   4
ENDBRANCH   2   3
ENDBRANCH   1   2
BRANCH   1   7
ATOM      7  C   UNL     1     -21.111 -26.851  38.299  1.00  0.00     0.000 C 
BRANCH   7   8
ATOM      8  C   UNL     1     -20.947 -26.334  39.740  1.00  0.00    -0.000 C 
BRANCH   8   9
ATOM      9  C   UNL     1     -19.893 -25.224  39.862  1.00  0.00    -0.003 C 
ATOM     10  C   UNL     1     -18.566 -25.655  39.245  1.00  0.00     0.004 C 
ENDBRANCH   8   9
ENDBRANCH   7   8
ENDBRANCH   1   7
TORSDOF 6
ENDMDL
MODEL 5
REMARK VINA RESULT:    -4.150      2.884      4.815
REMARK INTER + INTRA:          -5.906
REMARK INTER:                  -5.597
REMARK INTRA:                  -0.309
REMARK UNBOUND:                -0.301
REMARK SMILES CCCCCCCC(=O)[O-]
REMARK SMILES IDX 5 1 6 2 7 3 8 4 9 5 10 6 4 7 3 8 2 9 1 10
REMARK H PARENT
REMARK Flexibility Score: inf
ROOT
ATOM      1  C   UNL     1     -21.053 -26.933  38.446  1.00  0.00     0.000 C 
ENDROOT
BRANCH   1   2
ATOM      2  C   UNL     1     -21.079 -26.469  39.910  1.00  0.00     0.006 C 
BRANCH   2   3
ATOM      3  C   UNL     1     -21.178 -24.942  39.998  1.00  0.00     0.053 C 
BRANCH   3   4
ATOM      4  C   UNL     1     -22.177 -24.541  41.036  1.00  0.00     0.041 C 
ATOM      5  O   UNL     1     -23.203 -25.242  41.234  1.00  0.00    -0.550 OA
ATOM      6  O   UNL     1     -22.001 -23.363  41.751  1.00  0.00    -0.550 OA
ENDBRANCH   3   4
ENDBRANCH   2   3
ENDBRANCH   1   2
BRANCH   1   7
ATOM      7  C   UNL     1     -21.990 -28.125  38.177  1.00  0.00     0.000 C 
BRANCH   7   8
ATOM      8  C   UNL     1     -22.802 -28.601  39.395  1.00  0.00    -0.000 C 
BRANCH   8   9
ATOM      9  C   UNL     1     -24.180 -29.161  39.015  1.00  0.00    -0.003 C 
ATOM     10  C   UNL     1     -24.356 -29.208  37.500  1.00  0.00     0.004 C 
ENDBRANCH   8   9
ENDBRANCH   7   8
ENDBRANCH   1   7
TORSDOF 6
ENDMDL
MODEL 6
REMARK VINA RESULT:    -4.002      3.535      5.464
REMARK INTER + INTRA:          -5.708
REMARK INTER:                  -5.430
REMARK INTRA:                  -0.278
REMARK UNBOUND:                -0.301
REMARK SMILES CCCCCCCC(=O)[O-]
REMARK SMILES IDX 5 1 6 2 7 3 8 4 9 5 10 6 4 7 3 8 2 9 1 10
REMARK H PARENT
REMARK Flexibility Score: inf
ROOT
ATOM      1  C   UNL     1     -22.508 -28.269  39.554  1.00  0.00     0.000 C 
ENDROOT
BRANCH   1   2
ATOM      2  C   UNL     1     -21.732 -27.009  39.968  1.00  0.00     0.006 C 
BRANCH   2   3
ATOM      3  C   UNL     1     -20.731 -26.602  38.882  1.00  0.00     0.053 C 
BRANCH   3   4
ATOM      4  C   UNL     1     -19.730 -25.633  39.428  1.00  0.00     0.041 C 
ATOM      5  O   UNL     1     -20.115 -24.595  40.027  1.00  0.00    -0.550 OA
ATOM      6  O   UNL     1     -18.373 -25.850  39.231  1.00  0.00    -0.550 OA
ENDBRANCH   3   4
ENDBRANCH   2   3
ENDBRANCH   1   2
BRANCH   1   7
ATOM      7  C   UNL     1     -22.973 -29.109  40.757  1.00  0.00     0.000 C 
BRANCH   7   8
ATOM      8  C   UNL     1     -24.500 -29.213  40.925  1.00  0.00    -0.000 C 
BRANCH   8   9
ATOM      9  C   UNL     1     -25.207 -27.853  40.832  1.00  0.00    -0.003 C 
ATOM     10  C   UNL     1     -24.928 -27.003  42.068  1.00  0.00     0.004 C 
ENDBRANCH   8   9
ENDBRANCH   7   8
ENDBRANCH   1   7
TORSDOF 6
ENDMDL
MODEL 7
REMARK VINA RESULT:    -3.972      3.246      5.201
REMARK INTER + INTRA:          -5.666
REMARK INTER:                  -5.324
REMARK INTRA:                  -0.342
REMARK UNBOUND:                -0.301
REMARK SMILES CCCCCCCC(=O)[O-]
REMARK SMILES IDX 5 1 6 2 7 3 8 4 9 5 10 6 4 7 3 8 2 9 1 10
REMARK H PARENT
REMARK Flexibility Score: inf
ROOT
ATOM      1  C   UNL     1     -24.919 -27.261  41.804  1.00  0.00     0.000 C 
ENDROOT
BRANCH   1   2
ATOM      2  C   UNL     1     -25.743 -27.942  40.702  1.00  0.00     0.006 C 
BRANCH   2   3
ATOM      3  C   UNL     1     -25.116 -29.280  40.298  1.00  0.00     0.053 C 
BRANCH   3   4
ATOM      4  C   UNL     1     -24.103 -29.079  39.216  1.00  0.00     0.041 C 
ATOM      5  O   UNL     1     -24.452 -29.114  38.006  1.00  0.00    -0.550 OA
ATOM      6  O   UNL     1     -22.764 -28.904  39.540  1.00  0.00    -0.550 OA
ENDBRANCH   3   4
ENDBRANCH   2   3
ENDBRANCH   1   2
BRANCH   1   7
ATOM      7  C   UNL     1     -24.944 -25.725  41.711  1.00  0.00     0.000 C 
BRANCH   7   8
ATOM      8  C   UNL     1     -26.347 -25.094  41.758  1.00  0.00    -0.000 C 
BRANCH   8   9
ATOM      9  C   UNL     1     -27.119 -25.444  43.039  1.00  0.00    -0.003 C 
ATOM     10  C   UNL     1     -28.493 -26.022  42.712  1.00  0.00     0.004 C 
ENDBRANCH   8   9
ENDBRANCH   7   8
ENDBRANCH   1   7
TORSDOF 6
ENDMDL
MODEL 8
REMARK VINA RESULT:    -3.898      2.937      4.432
REMARK INTER + INTRA:          -5.567
REMARK INTER:                  -5.150
REMARK INTRA:                  -0.416
REMARK UNBOUND:                -0.301
REMARK SMILES CCCCCCCC(=O)[O-]
REMARK SMILES IDX 5 1 6 2 7 3 8 4 9 5 10 6 4 7 3 8 2 9 1 10
REMARK H PARENT
REMARK Flexibility Score: inf
ROOT
ATOM      1  C   UNL     1     -25.425 -28.551  40.100  1.00  0.00     0.000 C 
ENDROOT
BRANCH   1   2
ATOM      2  C   UNL     1     -24.181 -29.310  39.614  1.00  0.00     0.006 C 
BRANCH   2   3
ATOM      3  C   UNL     1     -22.915 -28.774  40.289  1.00  0.00     0.053 C 
BRANCH   3   4
ATOM      4  C   UNL     1     -22.143 -27.909  39.343  1.00  0.00     0.041 C 
ATOM      5  O   UNL     1     -22.080 -28.205  38.121  1.00  0.00    -0.550 OA
ATOM      6  O   UNL     1     -21.449 -26.804  39.820  1.00  0.00    -0.550 OA
ENDBRANCH   3   4
ENDBRANCH   2   3
ENDBRANCH   1   2
BRANCH   1   7
ATOM      7  C   UNL     1     -25.160 -27.705  41.359  1.00  0.00     0.000 C 
BRANCH   7   8
ATOM      8  C   UNL     1     -26.198 -26.602  41.632  1.00  0.00    -0.000 C 
BRANCH   8   9
ATOM      9  C   UNL     1     -25.600 -25.189  41.577  1.00  0.00    -0.003 C 
ATOM     10  C   UNL     1     -24.075 -25.237  41.580  1.00  0.00     0.004 C 
ENDBRANCH   8   9
ENDBRANCH   7   8
ENDBRANCH   1   7
TORSDOF 6
ENDMDL
MODEL 9
REMARK VINA RESULT:    -3.856      3.594      5.139
REMARK INTER + INTRA:          -5.510
REMARK INTER:                  -5.076
REMARK INTRA:                  -0.433
REMARK UNBOUND:                -0.301
REMARK SMILES CCCCCCCC(=O)[O-]
REMARK SMILES IDX 5 1 6 2 7 3 8 4 9 5 10 6 4 7 3 8 2 9 1 10
REMARK H PARENT
REMARK Flexibility Score: inf
ROOT
ATOM      1  C   UNL     1     -25.252 -26.900  41.964  1.00  0.00     0.000 C 
ENDROOT
BRANCH   1   2
ATOM      2  C   UNL     1     -24.985 -25.444  41.554  1.00  0.00     0.006 C 
BRANCH   2   3
ATOM      3  C   UNL     1     -23.482 -25.153  41.513  1.00  0.00     0.053 C 
BRANCH   3   4
ATOM      4  C   UNL     1     -23.231 -23.751  41.056  1.00  0.00     0.041 C 
ATOM      5  O   UNL     1     -24.197 -22.994  40.775  1.00  0.00    -0.550 OA
ATOM      6  O   UNL     1     -21.930 -23.295  40.891  1.00  0.00    -0.550 OA
ENDBRANCH   3   4
ENDBRANCH   2   3
ENDBRANCH   1   2
BRANCH   1   7
ATOM      7  C   UNL     1     -25.882 -27.736  40.836  1.00  0.00     0.000 C 
BRANCH   7   8
ATOM      8  C   UNL     1     -25.105 -29.011  40.461  1.00  0.00    -0.000 C 
BRANCH   8   9
ATOM      9  C   UNL     1     -23.657 -29.004  40.973  1.00  0.00    -0.003 C 
ATOM     10  C   UNL     1     -22.679 -28.663  39.853  1.00  0.00     0.004 C 
ENDBRANCH   8   9
ENDBRANCH   7   8
ENDBRANCH   1   7
TORSDOF 6
ENDMDL
