MODEL 1
REMARK VINA RESULT:    -3.361      0.000      0.000
REMARK INTER + INTRA:          -4.001
REMARK INTER:                  -3.950
REMARK INTRA:                  -0.051
REMARK UNBOUND:                -0.051
REMARK SMILES O=C([O-])CCC(=O)[O-]
REMARK SMILES IDX 4 1 2 2 1 3 3 4 5 5 6 6 7 7 8 8
REMARK H PARENT
REMARK Flexibility Score: inf
ROOT
ATOM      1  C   UNL     1      49.781  40.489  59.241  1.00  0.00     0.059 C 
ENDROOT
BRANCH   1   2
ATOM      2  C   UNL     1      48.517  41.266  59.040  1.00  0.00     0.042 C 
ATOM      3  O   UNL     1      47.398  40.711  59.195  1.00  0.00    -0.550 OA
ATOM      4  O   UNL     1      48.575  42.597  58.642  1.00  0.00    -0.550 OA
ENDBRANCH   1   2
BRANCH   1   5
ATOM      5  C   UNL     1      49.551  38.983  59.064  1.00  0.00     0.059 C 
BRANCH   5   6
ATOM      6  C   UNL     1      50.566  38.375  58.146  1.00  0.00     0.042 C 
ATOM      7  O   UNL     1      51.642  38.980  57.901  1.00  0.00    -0.550 OA
ATOM      8  O   UNL     1      50.305  37.158  57.531  1.00  0.00    -0.550 OA
ENDBRANCH   5   6
ENDBRANCH   1   5
TORSDOF 3
ENDMDL
MODEL 2
REMARK VINA RESULT:    -3.355      0.177      4.083
REMARK INTER + INTRA:          -3.995
REMARK INTER:                  -3.945
REMARK INTRA:                  -0.050
REMARK UNBOUND:                -0.051
REMARK SMILES O=C([O-])CCC(=O)[O-]
REMARK SMILES IDX 4 1 2 2 1 3 3 4 5 5 6 6 7 7 8 8
REMARK H PARENT
REMARK Flexibility Score: inf
ROOT
ATOM      1  C   UNL     1      49.418  38.870  59.091  1.00  0.00     0.059 C 
ENDROOT
BRANCH   1   2
ATOM      2  C   UNL     1      50.435  38.324  58.136  1.00  0.00     0.042 C 
ATOM      3  O   UNL     1      50.167  37.316  57.431  1.00  0.00    -0.550 OA
ATOM      4  O   UNL     1      51.694  38.906  58.054  1.00  0.00    -0.550 OA
ENDBRANCH   1   2
BRANCH   1   5
ATOM      5  C   UNL     1      49.644  40.362  59.363  1.00  0.00     0.059 C 
BRANCH   5   6
ATOM      6  C   UNL     1      48.420  41.169  59.057  1.00  0.00     0.042 C 
ATOM      7  O   UNL     1      47.282  40.632  59.088  1.00  0.00    -0.550 OA
ATOM      8  O   UNL     1      48.541  42.505  58.698  1.00  0.00    -0.550 OA
ENDBRANCH   5   6
ENDBRANCH   1   5
TORSDOF 3
ENDMDL
MODEL 3
REMARK VINA RESULT:    -3.200     10.545     11.129
REMARK INTER + INTRA:          -3.813
REMARK INTER:                  -3.695
REMARK INTRA:                  -0.118
REMARK UNBOUND:                -0.051
REMARK SMILES O=C([O-])CCC(=O)[O-]
REMARK SMILES IDX 4 1 2 2 1 3 3 4 5 5 6 6 7 7 8 8
REMARK H PARENT
REMARK Flexibility Score: inf
ROOT
ATOM      1  C   UNL     1      52.207  42.294  47.713  1.00  0.00     0.059 C 
ENDROOT
BRANCH   1   2
ATOM      2  C   UNL     1      52.715  43.093  48.874  1.00  0.00     0.042 C 
ATOM      3  O   UNL     1      52.711  42.602  50.032  1.00  0.00    -0.550 OA
ATOM      4  O   UNL     1      53.157  44.396  48.681  1.00  0.00    -0.550 OA
ENDBRANCH   1   2
BRANCH   1   5
ATOM      5  C   UNL     1      52.026  40.817  48.081  1.00  0.00     0.059 C 
BRANCH   5   6
ATOM      6  C   UNL     1      53.200  39.993  47.650  1.00  0.00     0.042 C 
ATOM      7  O   UNL     1      53.274  39.564  46.469  1.00  0.00    -0.550 OA
ATOM      8  O   UNL     1      54.192  39.666  48.564  1.00  0.00    -0.550 OA
ENDBRANCH   5   6
ENDBRANCH   1   5
TORSDOF 3
ENDMDL
MODEL 4
REMARK VINA RESULT:    -3.165      9.424     10.692
REMARK INTER + INTRA:          -3.772
REMARK INTER:                  -3.662
REMARK INTRA:                  -0.110
REMARK UNBOUND:                -0.051
REMARK SMILES O=C([O-])CCC(=O)[O-]
REMARK SMILES IDX 4 1 2 2 1 3 3 4 5 5 6 6 7 7 8 8
REMARK H PARENT
REMARK Flexibility Score: inf
ROOT
ATOM      1  C   UNL     1      52.145  40.533  48.222  1.00  0.00     0.059 C 
ENDROOT
BRANCH   1   2
ATOM      2  C   UNL     1      53.312  39.859  47.568  1.00  0.00     0.042 C 
ATOM      3  O   UNL     1      53.283  39.593  46.338  1.00  0.00    -0.550 OA
ATOM      4  O   UNL     1      54.416  39.489  48.326  1.00  0.00    -0.550 OA
ENDBRANCH   1   2
BRANCH   1   5
ATOM      5  C   UNL     1      51.840  39.923  49.595  1.00  0.00     0.059 C 
BRANCH   5   6
ATOM      6  C   UNL     1      52.204  40.858  50.707  1.00  0.00     0.042 C 
ATOM      7  O   UNL     1      51.881  40.588  51.894  1.00  0.00    -0.550 OA
ATOM      8  O   UNL     1      52.863  42.047  50.427  1.00  0.00    -0.550 OA
ENDBRANCH   5   6
ENDBRANCH   1   5
TORSDOF 3
ENDMDL
MODEL 5
REMARK VINA RESULT:    -3.163     10.491     11.657
REMARK INTER + INTRA:          -3.769
REMARK INTER:                  -3.660
REMARK INTRA:                  -0.109
REMARK UNBOUND:                -0.051
REMARK SMILES O=C([O-])CCC(=O)[O-]
REMARK SMILES IDX 4 1 2 2 1 3 3 4 5 5 6 6 7 7 8 8
REMARK H PARENT
REMARK Flexibility Score: inf
ROOT
ATOM      1  C   UNL     1      51.975  40.768  48.114  1.00  0.00     0.059 C 
ENDROOT
BRANCH   1   2
ATOM      2  C   UNL     1      53.147  39.912  47.745  1.00  0.00     0.042 C 
ATOM      3  O   UNL     1      53.960  39.535  48.628  1.00  0.00    -0.550 OA
ATOM      4  O   UNL     1      53.363  39.564  46.417  1.00  0.00    -0.550 OA
ENDBRANCH   1   2
BRANCH   1   5
ATOM      5  C   UNL     1      52.209  42.236  47.739  1.00  0.00     0.059 C 
BRANCH   5   6
ATOM      6  C   UNL     1      52.718  43.028  48.904  1.00  0.00     0.042 C 
ATOM      7  O   UNL     1      52.793  42.500  50.045  1.00  0.00    -0.550 OA
ATOM      8  O   UNL     1      53.072  44.360  48.738  1.00  0.00    -0.550 OA
ENDBRANCH   5   6
ENDBRANCH   1   5
TORSDOF 3
ENDMDL
MODEL 6
REMARK VINA RESULT:    -3.148      9.512     10.281
REMARK INTER + INTRA:          -3.751
REMARK INTER:                  -3.641
REMARK INTRA:                  -0.110
REMARK UNBOUND:                -0.051
REMARK SMILES O=C([O-])CCC(=O)[O-]
REMARK SMILES IDX 4 1 2 2 1 3 3 4 5 5 6 6 7 7 8 8
REMARK H PARENT
REMARK Flexibility Score: inf
ROOT
ATOM      1  C   UNL     1      51.847  39.974  49.505  1.00  0.00     0.059 C 
ENDROOT
BRANCH   1   2
ATOM      2  C   UNL     1      52.218  40.922  50.604  1.00  0.00     0.042 C 
ATOM      3  O   UNL     1      51.807  40.727  51.777  1.00  0.00    -0.550 OA
ATOM      4  O   UNL     1      52.987  42.046  50.322  1.00  0.00    -0.550 OA
ENDBRANCH   1   2
BRANCH   1   5
ATOM      5  C   UNL     1      52.187  40.550  48.125  1.00  0.00     0.059 C 
BRANCH   5   6
ATOM      6  C   UNL     1      53.353  39.843  47.505  1.00  0.00     0.042 C 
ATOM      7  O   UNL     1      53.379  39.630  46.265  1.00  0.00    -0.550 OA
ATOM      8  O   UNL     1      54.391  39.384  48.304  1.00  0.00    -0.550 OA
ENDBRANCH   5   6
ENDBRANCH   1   5
TORSDOF 3
ENDMDL
MODEL 7
REMARK VINA RESULT:    -3.136     10.462     11.449
REMARK INTER + INTRA:          -3.737
REMARK INTER:                  -3.616
REMARK INTRA:                  -0.122
REMARK UNBOUND:                -0.051
REMARK SMILES O=C([O-])CCC(=O)[O-]
REMARK SMILES IDX 4 1 2 2 1 3 3 4 5 5 6 6 7 7 8 8
REMARK H PARENT
REMARK Flexibility Score: inf
ROOT
ATOM      1  C   UNL     1      52.217  41.750  47.720  1.00  0.00     0.059 C 
ENDROOT
BRANCH   1   2
ATOM      2  C   UNL     1      53.311  41.609  46.707  1.00  0.00     0.042 C 
ATOM      3  O   UNL     1      53.869  42.631  46.229  1.00  0.00    -0.550 OA
ATOM      4  O   UNL     1      53.688  40.348  46.262  1.00  0.00    -0.550 OA
ENDBRANCH   1   2
BRANCH   1   5
ATOM      5  C   UNL     1      51.777  40.388  48.269  1.00  0.00     0.059 C 
BRANCH   5   6
ATOM      6  C   UNL     1      52.370  40.121  49.618  1.00  0.00     0.042 C 
ATOM      7  O   UNL     1      51.733  40.422  50.661  1.00  0.00    -0.550 OA
ATOM      8  O   UNL     1      53.643  39.577  49.723  1.00  0.00    -0.550 OA
ENDBRANCH   5   6
ENDBRANCH   1   5
TORSDOF 3
ENDMDL
MODEL 8
REMARK VINA RESULT:    -3.123     10.489     11.393
REMARK INTER + INTRA:          -3.722
REMARK INTER:                  -3.600
REMARK INTRA:                  -0.122
REMARK UNBOUND:                -0.051
REMARK SMILES O=C([O-])CCC(=O)[O-]
REMARK SMILES IDX 4 1 2 2 1 3 3 4 5 5 6 6 7 7 8 8
REMARK H PARENT
REMARK Flexibility Score: inf
ROOT
ATOM      1  C   UNL     1      51.851  40.374  48.277  1.00  0.00     0.059 C 
ENDROOT
BRANCH   1   2
ATOM      2  C   UNL     1      52.498  40.156  49.610  1.00  0.00     0.042 C 
ATOM      3  O   UNL     1      53.662  39.681  49.681  1.00  0.00    -0.550 OA
ATOM      4  O   UNL     1      51.800  40.441  50.777  1.00  0.00    -0.550 OA
ENDBRANCH   1   2
BRANCH   1   5
ATOM      5  C   UNL     1      52.209  41.746  47.694  1.00  0.00     0.059 C 
BRANCH   5   6
ATOM      6  C   UNL     1      53.288  41.640  46.660  1.00  0.00     0.042 C 
ATOM      7  O   UNL     1      53.789  42.681  46.157  1.00  0.00    -0.550 OA
ATOM      8  O   UNL     1      53.710  40.393  46.221  1.00  0.00    -0.550 OA
ENDBRANCH   5   6
ENDBRANCH   1   5
TORSDOF 3
ENDMDL
MODEL 9
REMARK VINA RESULT:    -3.121     10.500     11.400
REMARK INTER + INTRA:          -3.719
REMARK INTER:                  -3.595
REMARK INTRA:                  -0.124
REMARK UNBOUND:                -0.051
REMARK SMILES O=C([O-])CCC(=O)[O-]
REMARK SMILES IDX 4 1 2 2 1 3 3 4 5 5 6 6 7 7 8 8
REMARK H PARENT
REMARK Flexibility Score: inf
ROOT
ATOM      1  C   UNL     1      51.846  40.376  48.266  1.00  0.00     0.059 C 
ENDROOT
BRANCH   1   2
ATOM      2  C   UNL     1      52.491  40.139  49.597  1.00  0.00     0.042 C 
ATOM      3  O   UNL     1      51.873  40.412  50.659  1.00  0.00    -0.550 OA
ATOM      4  O   UNL     1      53.791  39.655  49.663  1.00  0.00    -0.550 OA
ENDBRANCH   1   2
BRANCH   1   5
ATOM      5  C   UNL     1      52.236  41.741  47.686  1.00  0.00     0.059 C 
BRANCH   5   6
ATOM      6  C   UNL     1      53.331  41.616  46.672  1.00  0.00     0.042 C 
ATOM      7  O   UNL     1      53.865  42.647  46.185  1.00  0.00    -0.550 OA
ATOM      8  O   UNL     1      53.735  40.361  46.236  1.00  0.00    -0.550 OA
ENDBRANCH   5   6
ENDBRANCH   1   5
TORSDOF 3
ENDMDL
