MODEL 1
REMARK VINA RESULT:    -4.100      0.000      0.000
REMARK INTER + INTRA:          -4.363
REMARK INTER:                  -4.340
REMARK INTRA:                  -0.024
REMARK UNBOUND:                -0.024
REMARK SMILES O=C([O-])c1cccnc1
REMARK SMILES IDX 4 1 5 2 9 3 6 4 8 5 7 6 2 7 1 8 3 9
REMARK H PARENT
REMARK Flexibility Score: inf
ROOT
ATOM      1  C   UNL     1      34.889 106.265 266.945  1.00  0.00     0.016 A 
ATOM      2  C   UNL     1      34.887 104.861 266.993  1.00  0.00     0.013 A 
ATOM      3  C   UNL     1      34.885 106.891 265.687  1.00  0.00     0.120 A 
ATOM      4  C   UNL     1      34.880 104.119 265.811  1.00  0.00     0.021 A 
ATOM      5  N   UNL     1      34.878 106.145 264.550  1.00  0.00    -0.264 NA
ATOM      6  C   UNL     1      34.876 104.786 264.585  1.00  0.00     0.111 A 
ENDROOT
BRANCH   1   7
ATOM      7  C   UNL     1      34.895 107.069 268.186  1.00  0.00     0.073 C 
ATOM      8  O   UNL     1      34.917 108.328 268.133  1.00  0.00    -0.545 OA
ATOM      9  O   UNL     1      34.875 106.447 269.429  1.00  0.00    -0.545 OA
ENDBRANCH   1   7
TORSDOF 1
ENDMDL
MODEL 2
REMARK VINA RESULT:    -3.977      2.864      3.874
REMARK INTER + INTRA:          -4.234
REMARK INTER:                  -4.209
REMARK INTRA:                  -0.024
REMARK UNBOUND:                -0.024
REMARK SMILES O=C([O-])c1cccnc1
REMARK SMILES IDX 4 1 5 2 9 3 6 4 8 5 7 6 2 7 1 8 3 9
REMARK H PARENT
REMARK Flexibility Score: inf
ROOT
ATOM      1  C   UNL     1      34.884 106.070 266.128  1.00  0.00     0.016 A 
ATOM      2  C   UNL     1      34.892 107.438 266.448  1.00  0.00     0.013 A 
ATOM      3  C   UNL     1      34.876 105.137 267.179  1.00  0.00     0.120 A 
ATOM      4  C   UNL     1      34.891 107.845 267.784  1.00  0.00     0.021 A 
ATOM      5  N   UNL     1      34.875 105.560 268.471  1.00  0.00    -0.264 NA
ATOM      6  C   UNL     1      34.883 106.881 268.793  1.00  0.00     0.111 A 
ENDROOT
BRANCH   1   7
ATOM      7  C   UNL     1      34.883 105.618 264.720  1.00  0.00     0.073 C 
ATOM      8  O   UNL     1      34.880 106.455 263.779  1.00  0.00    -0.545 OA
ATOM      9  O   UNL     1      34.888 104.261 264.415  1.00  0.00    -0.545 OA
ENDBRANCH   1   7
TORSDOF 1
ENDMDL
MODEL 3
REMARK VINA RESULT:    -3.972      2.814      3.710
REMARK INTER + INTRA:          -4.228
REMARK INTER:                  -4.204
REMARK INTRA:                  -0.024
REMARK UNBOUND:                -0.024
REMARK SMILES O=C([O-])c1cccnc1
REMARK SMILES IDX 4 1 5 2 9 3 6 4 8 5 7 6 2 7 1 8 3 9
REMARK H PARENT
REMARK Flexibility Score: inf
ROOT
ATOM      1  C   UNL     1      34.891 106.025 266.059  1.00  0.00     0.016 A 
ATOM      2  C   UNL     1      34.875 105.168 267.172  1.00  0.00     0.013 A 
ATOM      3  C   UNL     1      34.906 107.412 266.282  1.00  0.00     0.120 A 
ATOM      4  C   UNL     1      34.875 105.697 268.464  1.00  0.00     0.021 A 
ATOM      5  N   UNL     1      34.906 107.902 267.551  1.00  0.00    -0.264 NA
ATOM      6  C   UNL     1      34.891 107.082 268.635  1.00  0.00     0.111 A 
ENDROOT
BRANCH   1   7
ATOM      7  C   UNL     1      34.892 105.484 264.682  1.00  0.00     0.073 C 
ATOM      8  O   UNL     1      34.898 104.240 264.483  1.00  0.00    -0.545 OA
ATOM      9  O   UNL     1      34.886 106.342 263.588  1.00  0.00    -0.545 OA
ENDBRANCH   1   7
TORSDOF 1
ENDMDL
MODEL 4
REMARK VINA RESULT:    -3.850      1.104      1.753
REMARK INTER + INTRA:          -4.099
REMARK INTER:                  -4.075
REMARK INTRA:                  -0.024
REMARK UNBOUND:                -0.024
REMARK SMILES O=C([O-])c1cccnc1
REMARK SMILES IDX 4 1 5 2 9 3 6 4 8 5 7 6 2 7 1 8 3 9
REMARK H PARENT
REMARK Flexibility Score: inf
ROOT
ATOM      1  C   UNL     1      34.898 106.536 266.286  1.00  0.00     0.016 A 
ATOM      2  C   UNL     1      34.911 106.944 264.941  1.00  0.00     0.013 A 
ATOM      3  C   UNL     1      34.879 105.160 266.567  1.00  0.00     0.120 A 
ATOM      4  C   UNL     1      34.906 105.992 263.920  1.00  0.00     0.021 A 
ATOM      5  N   UNL     1      34.875 104.253 265.553  1.00  0.00    -0.264 NA
ATOM      6  C   UNL     1      34.887 104.636 264.249  1.00  0.00     0.111 A 
ENDROOT
BRANCH   1   7
ATOM      7  C   UNL     1      34.904 107.528 267.382  1.00  0.00     0.073 C 
ATOM      8  O   UNL     1      34.875 108.762 267.129  1.00  0.00    -0.545 OA
ATOM      9  O   UNL     1      34.940 107.113 268.709  1.00  0.00    -0.545 OA
ENDBRANCH   1   7
TORSDOF 1
ENDMDL
MODEL 5
REMARK VINA RESULT:    -3.465      1.275      2.166
REMARK INTER + INTRA:          -3.692
REMARK INTER:                  -3.668
REMARK INTRA:                  -0.024
REMARK UNBOUND:                -0.024
REMARK SMILES O=C([O-])c1cccnc1
REMARK SMILES IDX 4 1 5 2 9 3 6 4 8 5 7 6 2 7 1 8 3 9
REMARK H PARENT
REMARK Flexibility Score: inf
ROOT
ATOM      1  C   UNL     1      34.893 106.346 267.510  1.00  0.00     0.016 A 
ATOM      2  C   UNL     1      34.901 107.692 267.109  1.00  0.00     0.013 A 
ATOM      3  C   UNL     1      34.879 105.352 266.517  1.00  0.00     0.120 A 
ATOM      4  C   UNL     1      34.897 108.019 265.752  1.00  0.00     0.021 A 
ATOM      5  N   UNL     1      34.875 105.697 265.201  1.00  0.00    -0.264 NA
ATOM      6  C   UNL     1      34.883 106.997 264.802  1.00  0.00     0.111 A 
ENDROOT
BRANCH   1   7
ATOM      7  C   UNL     1      34.898 105.978 268.943  1.00  0.00     0.073 C 
ATOM      8  O   UNL     1      34.903 106.870 269.832  1.00  0.00    -0.545 OA
ATOM      9  O   UNL     1      34.895 104.642 269.328  1.00  0.00    -0.545 OA
ENDBRANCH   1   7
TORSDOF 1
ENDMDL
MODEL 6
REMARK VINA RESULT:    -3.256      5.972      7.058
REMARK INTER + INTRA:          -3.470
REMARK INTER:                  -3.452
REMARK INTRA:                  -0.018
REMARK UNBOUND:                -0.024
REMARK SMILES O=C([O-])c1cccnc1
REMARK SMILES IDX 4 1 5 2 9 3 6 4 8 5 7 6 2 7 1 8 3 9
REMARK H PARENT
REMARK Flexibility Score: inf
ROOT
ATOM      1  C   UNL     1      37.296 105.851 260.589  1.00  0.00     0.016 A 
ATOM      2  C   UNL     1      36.420 106.457 259.673  1.00  0.00     0.013 A 
ATOM      3  C   UNL     1      38.254 104.945 260.101  1.00  0.00     0.120 A 
ATOM      4  C   UNL     1      36.512 106.157 258.312  1.00  0.00     0.021 A 
ATOM      5  N   UNL     1      38.322 104.671 258.771  1.00  0.00    -0.264 NA
ATOM      6  C   UNL     1      37.480 105.251 257.876  1.00  0.00     0.111 A 
ENDROOT
BRANCH   1   7
ATOM      7  C   UNL     1      37.216 106.156 262.034  1.00  0.00     0.073 C 
ATOM      8  O   UNL     1      38.233 106.556 262.661  1.00  0.00    -0.545 OA
ATOM      9  O   UNL     1      36.016 106.006 262.721  1.00  0.00    -0.545 OA
ENDBRANCH   1   7
TORSDOF 1
ENDMDL
MODEL 7
REMARK VINA RESULT:    -3.219      2.611      3.336
REMARK INTER + INTRA:          -3.431
REMARK INTER:                  -3.407
REMARK INTRA:                  -0.024
REMARK UNBOUND:                -0.024
REMARK SMILES O=C([O-])c1cccnc1
REMARK SMILES IDX 4 1 5 2 9 3 6 4 8 5 7 6 2 7 1 8 3 9
REMARK H PARENT
REMARK Flexibility Score: inf
ROOT
ATOM      1  C   UNL     1      34.901 106.833 267.465  1.00  0.00     0.016 A 
ATOM      2  C   UNL     1      34.876 105.435 267.319  1.00  0.00     0.013 A 
ATOM      3  C   UNL     1      34.923 107.369 268.764  1.00  0.00     0.120 A 
ATOM      4  C   UNL     1      34.875 104.613 268.447  1.00  0.00     0.021 A 
ATOM      5  N   UNL     1      34.921 106.545 269.846  1.00  0.00    -0.264 NA
ATOM      6  C   UNL     1      34.897 105.192 269.716  1.00  0.00     0.111 A 
ENDROOT
BRANCH   1   7
ATOM      7  C   UNL     1      34.904 107.721 266.283  1.00  0.00     0.073 C 
ATOM      8  O   UNL     1      34.934 108.973 266.424  1.00  0.00    -0.545 OA
ATOM      9  O   UNL     1      34.876 107.188 265.000  1.00  0.00    -0.545 OA
ENDBRANCH   1   7
TORSDOF 1
ENDMDL
