MODEL 1
REMARK VINA RESULT:     4.466      0.000      0.000
REMARK INTER + INTRA:           8.366
REMARK INTER:                   6.294
REMARK INTRA:                   2.072
REMARK UNBOUND:                 2.072
REMARK SMILES CC1=CCC(=C(C)C)C(=O)CC(C)=CCC1
REMARK SMILES IDX 12 1 14 2 13 3 15 4 16 5 2 6 1 7 3 8 11 10 9 11 10 12 5 13
REMARK SMILES IDX 6 14 7 15 8 16 4 17
REMARK H PARENT
REMARK Flexibility Score: 60.00
ROOT
ATOM      1  C   UNL     1      -2.433   6.374   9.026  1.00  0.00    -0.070 C 
ATOM      2  C   UNL     1      -2.559   6.184   7.693  1.00  0.00    -0.027 C 
ATOM      3  C   UNL     1      -1.587   7.528   9.501  1.00  0.00     0.039 C 
ENDROOT
BRANCH   2   4
ATOM      4  C   UNL     1      -3.313   5.044   7.043  1.00  0.00     0.032 C 
BRANCH   4   5
ATOM      5  C   UNL     1      -2.919   3.689   7.647  1.00  0.00     0.034 C 
BRANCH   5   6
ATOM      6  C   UNL     1      -4.024   2.643   7.566  1.00  0.00    -0.077 C 
ATOM      7  C   UNL     1      -4.185   1.852   6.293  1.00  0.00     0.039 C 
ATOM      8  C   UNL     1      -4.886   2.394   8.577  1.00  0.00    -0.023 CG0
ATOM      9  G   UNL     1      -4.840   3.031   9.947  1.00  0.00     0.000 G0
ENDBRANCH   5   6
ENDBRANCH   4   5
ENDBRANCH   2   4
BRANCH   1  10
ATOM     10  C   UNL     1      -3.102   5.483  10.054  1.00  0.00     0.111 C 
BRANCH  10  11
ATOM     11  C   UNL     1      -4.598   5.615   9.997  1.00  0.00     0.163 C 
ATOM     12  O   UNL     1      -5.117   6.763   9.991  1.00  0.00    -0.294 OA
BRANCH  11  13
ATOM     13  C   UNL     1      -5.478   4.419   9.972  1.00  0.00    -0.002 C 
ATOM     14  C   UNL     1      -6.832   4.562   9.986  1.00  0.00    -0.069 C 
ATOM     15  C   UNL     1      -7.472   5.926  10.125  1.00  0.00     0.039 C 
ATOM     16  C   UNL     1      -7.744   3.361   9.906  1.00  0.00     0.039 C 
BRANCH  13  17
ATOM     17  C   UNL     1      -4.846   3.032   9.928  1.00  0.00     0.066 CG0
ATOM     18  G   UNL     1      -4.874   2.394   8.558  1.00  0.00     0.000 G0
ENDBRANCH  13  17
ENDBRANCH  11  13
ENDBRANCH  10  11
ENDBRANCH   1  10
TORSDOF 0
ENDMDL
MODEL 2
REMARK VINA RESULT:     4.973      1.319      3.569
REMARK INTER + INTRA:           9.081
REMARK INTER:                   6.610
REMARK INTRA:                   2.471
REMARK UNBOUND:                 2.072
REMARK SMILES CC1=CCC(=C(C)C)C(=O)CC(C)=CCC1
REMARK SMILES IDX 12 1 14 2 13 3 15 4 16 5 2 6 1 7 3 8 11 10 9 11 10 12 5 13
REMARK SMILES IDX 6 14 7 15 8 16 4 17
REMARK H PARENT
REMARK Flexibility Score: 60.00
ROOT
ATOM      1  C   UNL     1      -2.879   6.687   9.679  1.00  0.00    -0.070 C 
ATOM      2  C   UNL     1      -4.162   6.926  10.033  1.00  0.00    -0.027 C 
ATOM      3  C   UNL     1      -1.836   7.708  10.058  1.00  0.00     0.039 C 
ENDROOT
BRANCH   2   4
ATOM      4  C   UNL     1      -5.342   6.046   9.681  1.00  0.00     0.032 C 
BRANCH   4   5
ATOM      5  C   UNL     1      -5.115   4.593  10.122  1.00  0.00     0.034 C 
BRANCH   5   6
ATOM      6  C   UNL     1      -5.892   3.578   9.295  1.00  0.00    -0.077 C 
ATOM      7  C   UNL     1      -7.378   3.448   9.511  1.00  0.00     0.039 C 
ATOM      8  C   UNL     1      -5.314   2.767   8.380  1.00  0.00    -0.023 CG0
ATOM      9  G   UNL     1      -3.859   2.798   7.976  1.00  0.00     0.000 G0
ENDBRANCH   5   6
ENDBRANCH   4   5
ENDBRANCH   2   4
BRANCH   1  10
ATOM     10  C   UNL     1      -2.449   5.445   8.922  1.00  0.00     0.111 C 
BRANCH  10  11
ATOM     11  C   UNL     1      -3.249   5.274   7.661  1.00  0.00     0.163 C 
ATOM     12  O   UNL     1      -3.756   6.287   7.109  1.00  0.00    -0.294 OA
BRANCH  11  13
ATOM     13  C   UNL     1      -3.474   3.933   7.066  1.00  0.00    -0.002 C 
ATOM     14  C   UNL     1      -3.319   3.740   5.727  1.00  0.00    -0.069 C 
ATOM     15  C   UNL     1      -3.011   4.897   4.801  1.00  0.00     0.039 C 
ATOM     16  C   UNL     1      -3.489   2.372   5.111  1.00  0.00     0.039 C 
BRANCH  13  17
ATOM     17  C   UNL     1      -3.878   2.775   7.973  1.00  0.00     0.066 CG0
ATOM     18  G   UNL     1      -5.340   2.784   8.355  1.00  0.00     0.000 G0
ENDBRANCH  13  17
ENDBRANCH  11  13
ENDBRANCH  10  11
ENDBRANCH   1  10
TORSDOF 0
ENDMDL
MODEL 3
REMARK VINA RESULT:     5.606      1.439      3.568
REMARK INTER + INTRA:           9.972
REMARK INTER:                   7.954
REMARK INTRA:                   2.018
REMARK UNBOUND:                 2.072
REMARK SMILES CC1=CCC(=C(C)C)C(=O)CC(C)=CCC1
REMARK SMILES IDX 12 1 14 2 13 3 15 4 16 5 2 6 1 7 3 8 11 10 9 11 10 12 5 13
REMARK SMILES IDX 6 14 7 15 8 16 4 17
REMARK H PARENT
REMARK Flexibility Score: 60.00
ROOT
ATOM      1  C   UNL     1      -5.033   6.116  10.068  1.00  0.00    -0.070 C 
ATOM      2  C   UNL     1      -6.259   5.544  10.024  1.00  0.00    -0.027 C 
ATOM      3  C   UNL     1      -4.952   7.621  10.060  1.00  0.00     0.039 C 
ENDROOT
BRANCH   2   4
ATOM      4  C   UNL     1      -6.524   4.056   9.961  1.00  0.00     0.032 C 
BRANCH   4   5
ATOM      5  C   UNL     1      -5.249   3.268   9.628  1.00  0.00     0.034 C 
BRANCH   5   6
ATOM      6  C   UNL     1      -5.257   2.660   8.232  1.00  0.00    -0.077 C 
ATOM      7  C   UNL     1      -6.523   2.018   7.724  1.00  0.00     0.039 C 
ATOM      8  C   UNL     1      -4.175   2.648   7.421  1.00  0.00    -0.023 CG0
ATOM      9  G   UNL     1      -2.845   3.299   7.723  1.00  0.00     0.000 G0
ENDBRANCH   5   6
ENDBRANCH   4   5
ENDBRANCH   2   4
BRANCH   1  10
ATOM     10  C   UNL     1      -3.749   5.312  10.125  1.00  0.00     0.111 C 
BRANCH  10  11
ATOM     11  C   UNL     1      -2.864   5.618   8.949  1.00  0.00     0.163 C 
ATOM     12  O   UNL     1      -2.031   6.560   9.030  1.00  0.00    -0.294 OA
BRANCH  11  13
ATOM     13  C   UNL     1      -2.970   4.848   7.683  1.00  0.00    -0.002 C 
ATOM     14  C   UNL     1      -3.154   5.496   6.499  1.00  0.00    -0.069 C 
ATOM     15  C   UNL     1      -3.350   6.995   6.450  1.00  0.00     0.039 C 
ATOM     16  C   UNL     1      -3.209   4.735   5.195  1.00  0.00     0.039 C 
BRANCH  13  17
ATOM     17  C   UNL     1      -2.869   3.327   7.727  1.00  0.00     0.066 CG0
ATOM     18  G   UNL     1      -4.165   2.622   7.399  1.00  0.00     0.000 G0
ENDBRANCH  13  17
ENDBRANCH  11  13
ENDBRANCH  10  11
ENDBRANCH   1  10
TORSDOF 0
ENDMDL
