MODEL 1
REMARK VINA RESULT:    -6.297      0.000      0.000
REMARK INTER + INTRA:          -7.862
REMARK INTER:                  -7.586
REMARK INTRA:                  -0.276
REMARK UNBOUND:                -0.276
REMARK SMILES O=c1c(O)c(-c2ccc(O)c(O)c2)oc2cc(O)cc(O)c12
REMARK SMILES IDX 5 1 3 2 2 3 1 4 22 5 20 6 19 7 17 8 16 9 15 10 14 11 6 12
REMARK SMILES IDX 7 13 8 14 9 15 13 16 11 17 10 18 12 20 4 22 21 24 18 26
REMARK H PARENT 10 19 12 21 4 23 21 25 18 27
REMARK Flexibility Score: inf
ROOT
ATOM      1  C   UNL     1       2.135 -11.491 -32.785  1.00  0.00     0.180 A 
ATOM      2  C   UNL     1       0.983 -10.692 -32.652  1.00  0.00     0.208 A 
ATOM      3  C   UNL     1       0.304 -10.680 -31.424  1.00  0.00     0.238 A 
ATOM      4  O   UNL     1      -0.723  -9.959 -31.290  1.00  0.00    -0.285 OA
ATOM      5  C   UNL     1       0.771 -11.477 -30.360  1.00  0.00     0.111 A 
ATOM      6  C   UNL     1       0.143 -11.525 -29.092  1.00  0.00     0.134 A 
ATOM      7  C   UNL     1       0.666 -12.352 -28.087  1.00  0.00     0.093 A 
ATOM      8  C   UNL     1       1.803 -13.131 -28.326  1.00  0.00     0.123 A 
ATOM      9  C   UNL     1       2.427 -13.087 -29.573  1.00  0.00     0.094 A 
ATOM     10  C   UNL     1       1.922 -12.268 -30.589  1.00  0.00     0.146 A 
ATOM     11  O   UNL     1       2.539 -12.242 -31.764  1.00  0.00    -0.452 OA
ENDROOT
BRANCH   1  12
ATOM     12  C   UNL     1       2.917 -11.543 -34.042  1.00  0.00     0.025 A 
ATOM     13  C   UNL     1       4.102 -10.798 -34.148  1.00  0.00     0.016 A 
ATOM     14  C   UNL     1       4.844 -10.815 -35.331  1.00  0.00     0.051 A 
ATOM     15  C   UNL     1       4.405 -11.565 -36.429  1.00  0.00     0.157 A 
ATOM     16  C   UNL     1       2.468 -12.278 -35.154  1.00  0.00     0.062 A 
ATOM     17  C   UNL     1       3.213 -12.294 -36.342  1.00  0.00     0.158 A 
BRANCH  15  18
ATOM     18  O   UNL     1       5.144 -11.587 -37.611  1.00  0.00    -0.504 OA
ATOM     19  H   UNL     1       5.681 -10.783 -37.915  1.00  0.00     0.293 HD
ENDBRANCH  15  18
BRANCH  17  20
ATOM     20  O   UNL     1       2.770 -13.028 -37.442  1.00  0.00    -0.504 OA
ATOM     21  H   UNL     1       2.663 -12.602 -38.355  1.00  0.00     0.293 HD
ENDBRANCH  17  20
ENDBRANCH   1  12
BRANCH   2  22
ATOM     22  O   UNL     1       0.510  -9.948 -33.737  1.00  0.00    -0.502 OA
ATOM     23  H   UNL     1       0.764  -8.978 -33.882  1.00  0.00     0.293 HD
ENDBRANCH   2  22
BRANCH   6  24
ATOM     24  O   UNL     1      -0.993 -10.760 -28.825  1.00  0.00    -0.507 OA
ATOM     25  H   UNL     1      -0.927  -9.816 -28.465  1.00  0.00     0.293 HD
ENDBRANCH   6  24
BRANCH   8  26
ATOM     26  O   UNL     1       2.322 -13.954 -27.328  1.00  0.00    -0.508 OA
ATOM     27  H   UNL     1       2.752 -14.845 -27.548  1.00  0.00     0.293 HD
ENDBRANCH   8  26
TORSDOF 6
ENDMDL
MODEL 2
REMARK VINA RESULT:    -6.196      1.499      7.087
REMARK INTER + INTRA:          -7.739
REMARK INTER:                  -7.448
REMARK INTRA:                  -0.291
REMARK UNBOUND:                -0.276
REMARK SMILES O=c1c(O)c(-c2ccc(O)c(O)c2)oc2cc(O)cc(O)c12
REMARK SMILES IDX 5 1 3 2 2 3 1 4 22 5 20 6 19 7 17 8 16 9 15 10 14 11 6 12
REMARK SMILES IDX 7 13 8 14 9 15 13 16 11 17 10 18 12 20 4 22 21 24 18 26
REMARK H PARENT 10 19 12 21 4 23 21 25 18 27
REMARK Flexibility Score: inf
ROOT
ATOM      1  C   UNL     1       2.708 -11.640 -31.877  1.00  0.00     0.180 A 
ATOM      2  C   UNL     1       3.847 -10.814 -31.925  1.00  0.00     0.208 A 
ATOM      3  C   UNL     1       4.485 -10.610 -33.158  1.00  0.00     0.238 A 
ATOM      4  O   UNL     1       5.500  -9.862 -33.215  1.00  0.00    -0.285 OA
ATOM      5  C   UNL     1       3.989 -11.246 -34.314  1.00  0.00     0.111 A 
ATOM      6  C   UNL     1       4.575 -11.096 -35.594  1.00  0.00     0.134 A 
ATOM      7  C   UNL     1       4.027 -11.771 -36.695  1.00  0.00     0.093 A 
ATOM      8  C   UNL     1       2.906 -12.593 -36.539  1.00  0.00     0.123 A 
ATOM      9  C   UNL     1       2.323 -12.745 -35.280  1.00  0.00     0.094 A 
ATOM     10  C   UNL     1       2.854 -12.079 -34.170  1.00  0.00     0.146 A 
ATOM     11  O   UNL     1       2.277 -12.236 -32.985  1.00  0.00    -0.452 OA
ENDROOT
BRANCH   1  12
ATOM     12  C   UNL     1       1.969 -11.890 -30.618  1.00  0.00     0.025 A 
ATOM     13  C   UNL     1       0.804 -11.156 -30.344  1.00  0.00     0.016 A 
ATOM     14  C   UNL     1       0.103 -11.360 -29.153  1.00  0.00     0.051 A 
ATOM     15  C   UNL     1       0.564 -12.289 -28.213  1.00  0.00     0.157 A 
ATOM     16  C   UNL     1       2.441 -12.807 -29.661  1.00  0.00     0.062 A 
ATOM     17  C   UNL     1       1.737 -13.011 -28.465  1.00  0.00     0.158 A 
BRANCH  15  18
ATOM     18  O   UNL     1      -0.134 -12.497 -27.024  1.00  0.00    -0.504 OA
ATOM     19  H   UNL     1      -0.959 -13.085 -26.990  1.00  0.00     0.293 HD
ENDBRANCH  15  18
BRANCH  17  20
ATOM     20  O   UNL     1       2.203 -13.924 -27.520  1.00  0.00    -0.504 OA
ATOM     21  H   UNL     1       3.193 -14.048 -27.344  1.00  0.00     0.293 HD
ENDBRANCH  17  20
ENDBRANCH   1  12
BRANCH   2  22
ATOM     22  O   UNL     1       4.349 -10.233 -30.757  1.00  0.00    -0.502 OA
ATOM     23  H   UNL     1       5.193  -9.675 -30.748  1.00  0.00     0.293 HD
ENDBRANCH   2  22
BRANCH   6  24
ATOM     24  O   UNL     1       5.695 -10.283 -35.780  1.00  0.00    -0.507 OA
ATOM     25  H   UNL     1       6.542 -10.412 -35.241  1.00  0.00     0.293 HD
ENDBRANCH   6  24
BRANCH   8  26
ATOM     26  O   UNL     1       2.361 -13.266 -37.632  1.00  0.00    -0.508 OA
ATOM     27  H   UNL     1       2.791 -14.104 -38.004  1.00  0.00     0.293 HD
ENDBRANCH   8  26
TORSDOF 6
ENDMDL
MODEL 3
REMARK VINA RESULT:    -6.063      1.200      2.893
REMARK INTER + INTRA:          -7.579
REMARK INTER:                  -7.315
REMARK INTRA:                  -0.264
REMARK UNBOUND:                -0.276
REMARK SMILES O=c1c(O)c(-c2ccc(O)c(O)c2)oc2cc(O)cc(O)c12
REMARK SMILES IDX 5 1 3 2 2 3 1 4 22 5 20 6 19 7 17 8 16 9 15 10 14 11 6 12
REMARK SMILES IDX 7 13 8 14 9 15 13 16 11 17 10 18 12 20 4 22 21 24 18 26
REMARK H PARENT 10 19 12 21 4 23 21 25 18 27
REMARK Flexibility Score: inf
ROOT
ATOM      1  C   UNL     1       2.375 -11.685 -32.644  1.00  0.00     0.180 A 
ATOM      2  C   UNL     1       2.863 -12.424 -31.549  1.00  0.00     0.208 A 
ATOM      3  C   UNL     1       2.140 -12.414 -30.347  1.00  0.00     0.238 A 
ATOM      4  O   UNL     1       2.561 -13.082 -29.363  1.00  0.00    -0.285 OA
ATOM      5  C   UNL     1       0.956 -11.654 -30.252  1.00  0.00     0.111 A 
ATOM      6  C   UNL     1       0.170 -11.587 -29.076  1.00  0.00     0.134 A 
ATOM      7  C   UNL     1      -0.991 -10.800 -29.059  1.00  0.00     0.093 A 
ATOM      8  C   UNL     1      -1.379 -10.079 -30.193  1.00  0.00     0.123 A 
ATOM      9  C   UNL     1      -0.609 -10.142 -31.355  1.00  0.00     0.094 A 
ATOM     10  C   UNL     1       0.552 -10.922 -31.393  1.00  0.00     0.146 A 
ATOM     11  O   UNL     1       1.263 -10.968 -32.513  1.00  0.00    -0.452 OA
ENDROOT
BRANCH   1  12
ATOM     12  C   UNL     1       3.072 -11.661 -33.951  1.00  0.00     0.025 A 
ATOM     13  C   UNL     1       4.226 -10.877 -34.103  1.00  0.00     0.016 A 
ATOM     14  C   UNL     1       4.887 -10.823 -35.333  1.00  0.00     0.051 A 
ATOM     15  C   UNL     1       4.396 -11.540 -36.431  1.00  0.00     0.157 A 
ATOM     16  C   UNL     1       2.569 -12.363 -35.062  1.00  0.00     0.062 A 
ATOM     17  C   UNL     1       3.233 -12.308 -36.296  1.00  0.00     0.158 A 
BRANCH  15  18
ATOM     18  O   UNL     1       5.054 -11.490 -37.659  1.00  0.00    -0.504 OA
ATOM     19  H   UNL     1       4.921 -12.210 -38.360  1.00  0.00     0.293 HD
ENDBRANCH  15  18
BRANCH  17  20
ATOM     20  O   UNL     1       2.737 -13.009 -37.395  1.00  0.00    -0.504 OA
ATOM     21  H   UNL     1       1.870 -13.530 -37.345  1.00  0.00     0.293 HD
ENDBRANCH  17  20
ENDBRANCH   1  12
BRANCH   2  22
ATOM     22  O   UNL     1       4.065 -13.131 -31.653  1.00  0.00    -0.502 OA
ATOM     23  H   UNL     1       4.442 -13.675 -30.887  1.00  0.00     0.293 HD
ENDBRANCH   2  22
BRANCH   6  24
ATOM     24  O   UNL     1       0.532 -12.295 -27.929  1.00  0.00    -0.507 OA
ATOM     25  H   UNL     1      -0.148 -12.553 -27.225  1.00  0.00     0.293 HD
ENDBRANCH   6  24
BRANCH   8  26
ATOM     26  O   UNL     1      -2.532  -9.295 -30.177  1.00  0.00    -0.508 OA
ATOM     27  H   UNL     1      -3.435  -9.677 -30.431  1.00  0.00     0.293 HD
ENDBRANCH   8  26
TORSDOF 6
ENDMDL
MODEL 4
REMARK VINA RESULT:    -5.962      2.483      7.220
REMARK INTER + INTRA:          -7.458
REMARK INTER:                  -7.318
REMARK INTRA:                  -0.140
REMARK UNBOUND:                -0.276
REMARK SMILES O=c1c(O)c(-c2ccc(O)c(O)c2)oc2cc(O)cc(O)c12
REMARK SMILES IDX 5 1 3 2 2 3 1 4 22 5 20 6 19 7 17 8 16 9 15 10 14 11 6 12
REMARK SMILES IDX 7 13 8 14 9 15 13 16 11 17 10 18 12 20 4 22 21 24 18 26
REMARK H PARENT 10 19 12 21 4 23 21 25 18 27
REMARK Flexibility Score: inf
ROOT
ATOM      1  C   UNL     1       2.363 -11.844 -29.198  1.00  0.00     0.180 A 
ATOM      2  C   UNL     1       1.030 -11.828 -29.650  1.00  0.00     0.208 A 
ATOM      3  C   UNL     1       0.781 -11.848 -31.031  1.00  0.00     0.238 A 
ATOM      4  O   UNL     1      -0.410 -11.845 -31.448  1.00  0.00    -0.285 OA
ATOM      5  C   UNL     1       1.864 -11.864 -31.935  1.00  0.00     0.111 A 
ATOM      6  C   UNL     1       1.700 -11.882 -33.341  1.00  0.00     0.134 A 
ATOM      7  C   UNL     1       2.829 -11.888 -34.173  1.00  0.00     0.093 A 
ATOM      8  C   UNL     1       4.117 -11.877 -33.626  1.00  0.00     0.123 A 
ATOM      9  C   UNL     1       4.284 -11.860 -32.241  1.00  0.00     0.094 A 
ATOM     10  C   UNL     1       3.171 -11.855 -31.394  1.00  0.00     0.146 A 
ATOM     11  O   UNL     1       3.359 -11.845 -30.080  1.00  0.00    -0.452 OA
ENDROOT
BRANCH   1  12
ATOM     12  C   UNL     1       2.706 -11.844 -27.758  1.00  0.00     0.025 A 
ATOM     13  C   UNL     1       2.292 -12.914 -26.949  1.00  0.00     0.016 A 
ATOM     14  C   UNL     1       2.587 -12.924 -25.584  1.00  0.00     0.051 A 
ATOM     15  C   UNL     1       3.285 -11.858 -25.004  1.00  0.00     0.157 A 
ATOM     16  C   UNL     1       3.389 -10.764 -27.167  1.00  0.00     0.062 A 
ATOM     17  C   UNL     1       3.684 -10.774 -25.796  1.00  0.00     0.158 A 
BRANCH  15  18
ATOM     18  O   UNL     1       3.583 -11.865 -23.642  1.00  0.00    -0.504 OA
ATOM     19  H   UNL     1       2.881 -12.096 -22.948  1.00  0.00     0.293 HD
ENDBRANCH  15  18
BRANCH  17  20
ATOM     20  O   UNL     1       4.366  -9.707 -25.214  1.00  0.00    -0.504 OA
ATOM     21  H   UNL     1       5.375  -9.708 -25.123  1.00  0.00     0.293 HD
ENDBRANCH  17  20
ENDBRANCH   1  12
BRANCH   2  22
ATOM     22  O   UNL     1      -0.026 -11.762 -28.736  1.00  0.00    -0.502 OA
ATOM     23  H   UNL     1      -0.648 -12.543 -28.569  1.00  0.00     0.293 HD
ENDBRANCH   2  22
BRANCH   6  24
ATOM     24  O   UNL     1       0.428 -11.893 -33.916  1.00  0.00    -0.507 OA
ATOM     25  H   UNL     1       0.106 -11.141 -34.513  1.00  0.00     0.293 HD
ENDBRANCH   6  24
BRANCH   8  26
ATOM     26  O   UNL     1       5.240 -11.881 -34.453  1.00  0.00    -0.508 OA
ATOM     27  H   UNL     1       5.396 -12.620 -35.127  1.00  0.00     0.293 HD
ENDBRANCH   8  26
TORSDOF 6
ENDMDL
MODEL 5
REMARK VINA RESULT:    -5.913      2.166      2.988
REMARK INTER + INTRA:          -7.399
REMARK INTER:                  -7.531
REMARK INTRA:                   0.132
REMARK UNBOUND:                -0.276
REMARK SMILES O=c1c(O)c(-c2ccc(O)c(O)c2)oc2cc(O)cc(O)c12
REMARK SMILES IDX 5 1 3 2 2 3 1 4 22 5 20 6 19 7 17 8 16 9 15 10 14 11 6 12
REMARK SMILES IDX 7 13 8 14 9 15 13 16 11 17 10 18 12 20 4 22 21 24 18 26
REMARK H PARENT 10 19 12 21 4 23 21 25 18 27
REMARK Flexibility Score: inf
ROOT
ATOM      1  C   UNL     1       3.439 -11.424 -31.651  1.00  0.00     0.180 A 
ATOM      2  C   UNL     1       4.131 -10.344 -31.070  1.00  0.00     0.208 A 
ATOM      3  C   UNL     1       4.090 -10.182 -29.677  1.00  0.00     0.238 A 
ATOM      4  O   UNL     1       4.715  -9.224 -29.144  1.00  0.00    -0.285 OA
ATOM      5  C   UNL     1       3.346 -11.086 -28.892  1.00  0.00     0.111 A 
ATOM      6  C   UNL     1       3.250 -10.993 -27.482  1.00  0.00     0.134 A 
ATOM      7  C   UNL     1       2.482 -11.928 -26.773  1.00  0.00     0.093 A 
ATOM      8  C   UNL     1       1.808 -12.953 -27.446  1.00  0.00     0.123 A 
ATOM      9  C   UNL     1       1.900 -13.050 -28.835  1.00  0.00     0.094 A 
ATOM     10  C   UNL     1       2.662 -12.129 -29.561  1.00  0.00     0.146 A 
ATOM     11  O   UNL     1       2.736 -12.248 -30.881  1.00  0.00    -0.452 OA
ENDROOT
BRANCH   1  12
ATOM     12  C   UNL     1       3.450 -11.672 -33.111  1.00  0.00     0.025 A 
ATOM     13  C   UNL     1       2.294 -12.165 -33.736  1.00  0.00     0.016 A 
ATOM     14  C   UNL     1       2.289 -12.426 -35.109  1.00  0.00     0.051 A 
ATOM     15  C   UNL     1       3.442 -12.212 -35.873  1.00  0.00     0.157 A 
ATOM     16  C   UNL     1       4.614 -11.477 -33.879  1.00  0.00     0.062 A 
ATOM     17  C   UNL     1       4.608 -11.740 -35.256  1.00  0.00     0.158 A 
BRANCH  15  18
ATOM     18  O   UNL     1       3.440 -12.468 -37.243  1.00  0.00    -0.504 OA
ATOM     19  H   UNL     1       2.585 -12.695 -37.738  1.00  0.00     0.293 HD
ENDBRANCH  15  18
BRANCH  17  20
ATOM     20  O   UNL     1       5.759 -11.542 -36.016  1.00  0.00    -0.504 OA
ATOM     21  H   UNL     1       6.428 -12.288 -36.172  1.00  0.00     0.293 HD
ENDBRANCH  17  20
ENDBRANCH   1  12
BRANCH   2  22
ATOM     22  O   UNL     1       4.821  -9.432 -31.874  1.00  0.00    -0.502 OA
ATOM     23  H   UNL     1       5.749  -9.099 -31.644  1.00  0.00     0.293 HD
ENDBRANCH   2  22
BRANCH   6  24
ATOM     24  O   UNL     1       3.911  -9.981 -26.783  1.00  0.00    -0.507 OA
ATOM     25  H   UNL     1       3.709  -9.002 -26.946  1.00  0.00     0.293 HD
ENDBRANCH   6  24
BRANCH   8  26
ATOM     26  O   UNL     1       1.043 -13.881 -26.742  1.00  0.00    -0.508 OA
ATOM     27  H   UNL     1       0.079 -13.693 -26.496  1.00  0.00     0.293 HD
ENDBRANCH   8  26
TORSDOF 6
ENDMDL
MODEL 6
REMARK VINA RESULT:    -5.852      1.742      7.062
REMARK INTER + INTRA:          -7.325
REMARK INTER:                  -7.004
REMARK INTRA:                  -0.322
REMARK UNBOUND:                -0.276
REMARK SMILES O=c1c(O)c(-c2ccc(O)c(O)c2)oc2cc(O)cc(O)c12
REMARK SMILES IDX 5 1 3 2 2 3 1 4 22 5 20 6 19 7 17 8 16 9 15 10 14 11 6 12
REMARK SMILES IDX 7 13 8 14 9 15 13 16 11 17 10 18 12 20 4 22 21 24 18 26
REMARK H PARENT 10 19 12 21 4 23 21 25 18 27
REMARK Flexibility Score: inf
ROOT
ATOM      1  C   UNL     1       2.795 -11.373 -33.056  1.00  0.00     0.180 A 
ATOM      2  C   UNL     1       2.494 -12.075 -34.239  1.00  0.00     0.208 A 
ATOM      3  C   UNL     1       3.281 -11.853 -35.379  1.00  0.00     0.238 A 
ATOM      4  O   UNL     1       3.027 -12.485 -36.441  1.00  0.00    -0.285 OA
ATOM      5  C   UNL     1       4.338 -10.922 -35.326  1.00  0.00     0.111 A 
ATOM      6  C   UNL     1       5.177 -10.637 -36.431  1.00  0.00     0.134 A 
ATOM      7  C   UNL     1       6.203  -9.690 -36.301  1.00  0.00     0.093 A 
ATOM      8  C   UNL     1       6.406  -9.023 -35.088  1.00  0.00     0.123 A 
ATOM      9  C   UNL     1       5.584  -9.301 -33.995  1.00  0.00     0.094 A 
ATOM     10  C   UNL     1       4.555 -10.243 -34.104  1.00  0.00     0.146 A 
ATOM     11  O   UNL     1       3.792 -10.492 -33.048  1.00  0.00    -0.452 OA
ENDROOT
BRANCH   1  12
ATOM     12  C   UNL     1       2.024 -11.567 -31.807  1.00  0.00     0.025 A 
ATOM     13  C   UNL     1       0.867 -10.804 -31.585  1.00  0.00     0.016 A 
ATOM     14  C   UNL     1       0.135 -10.956 -30.404  1.00  0.00     0.051 A 
ATOM     15  C   UNL     1       0.558 -11.861 -29.423  1.00  0.00     0.157 A 
ATOM     16  C   UNL     1       2.457 -12.460 -30.810  1.00  0.00     0.062 A 
ATOM     17  C   UNL     1       1.723 -12.611 -29.624  1.00  0.00     0.158 A 
BRANCH  15  18
ATOM     18  O   UNL     1      -0.170 -12.017 -28.245  1.00  0.00    -0.504 OA
ATOM     19  H   UNL     1      -0.757 -12.828 -28.089  1.00  0.00     0.293 HD
ENDBRANCH  15  18
BRANCH  17  20
ATOM     20  O   UNL     1       2.150 -13.501 -28.640  1.00  0.00    -0.504 OA
ATOM     21  H   UNL     1       2.876 -13.251 -27.978  1.00  0.00     0.293 HD
ENDBRANCH  17  20
ENDBRANCH   1  12
BRANCH   2  22
ATOM     22  O   UNL     1       1.410 -12.956 -34.281  1.00  0.00    -0.502 OA
ATOM     23  H   UNL     1       0.464 -12.645 -34.466  1.00  0.00     0.293 HD
ENDBRANCH   2  22
BRANCH   6  24
ATOM     24  O   UNL     1       4.998 -11.286 -37.655  1.00  0.00    -0.507 OA
ATOM     25  H   UNL     1       5.780 -11.513 -38.257  1.00  0.00     0.293 HD
ENDBRANCH   6  24
BRANCH   8  26
ATOM     26  O   UNL     1       7.425  -8.081 -34.957  1.00  0.00    -0.508 OA
ATOM     27  H   UNL     1       8.381  -8.297 -35.213  1.00  0.00     0.293 HD
ENDBRANCH   8  26
TORSDOF 6
ENDMDL
MODEL 7
REMARK VINA RESULT:    -5.821      1.981      7.226
REMARK INTER + INTRA:          -7.288
REMARK INTER:                  -7.022
REMARK INTRA:                  -0.266
REMARK UNBOUND:                -0.276
REMARK SMILES O=c1c(O)c(-c2ccc(O)c(O)c2)oc2cc(O)cc(O)c12
REMARK SMILES IDX 5 1 3 2 2 3 1 4 22 5 20 6 19 7 17 8 16 9 15 10 14 11 6 12
REMARK SMILES IDX 7 13 8 14 9 15 13 16 11 17 10 18 12 20 4 22 21 24 18 26
REMARK H PARENT 10 19 12 21 4 23 21 25 18 27
REMARK Flexibility Score: inf
ROOT
ATOM      1  C   UNL     1       2.394 -11.810 -30.207  1.00  0.00     0.180 A 
ATOM      2  C   UNL     1       3.540 -10.994 -30.158  1.00  0.00     0.208 A 
ATOM      3  C   UNL     1       4.216 -10.703 -31.353  1.00  0.00     0.238 A 
ATOM      4  O   UNL     1       5.238  -9.964 -31.323  1.00  0.00    -0.285 OA
ATOM      5  C   UNL     1       3.751 -11.246 -32.568  1.00  0.00     0.111 A 
ATOM      6  C   UNL     1       4.377 -11.005 -33.815  1.00  0.00     0.134 A 
ATOM      7  C   UNL     1       3.858 -11.589 -34.979  1.00  0.00     0.093 A 
ATOM      8  C   UNL     1       2.726 -12.410 -34.920  1.00  0.00     0.123 A 
ATOM      9  C   UNL     1       2.104 -12.650 -33.693  1.00  0.00     0.094 A 
ATOM     10  C   UNL     1       2.606 -12.075 -32.521  1.00  0.00     0.146 A 
ATOM     11  O   UNL     1       1.992 -12.316 -31.369  1.00  0.00    -0.452 OA
ENDROOT
BRANCH   1  12
ATOM     12  C   UNL     1       1.615 -12.146 -28.993  1.00  0.00     0.025 A 
ATOM     13  C   UNL     1       2.103 -13.119 -28.107  1.00  0.00     0.016 A 
ATOM     14  C   UNL     1       1.375 -13.467 -26.966  1.00  0.00     0.051 A 
ATOM     15  C   UNL     1       0.142 -12.859 -26.703  1.00  0.00     0.157 A 
ATOM     16  C   UNL     1       0.365 -11.553 -28.736  1.00  0.00     0.062 A 
ATOM     17  C   UNL     1      -0.366 -11.903 -27.592  1.00  0.00     0.158 A 
BRANCH  15  18
ATOM     18  O   UNL     1      -0.586 -13.201 -25.565  1.00  0.00    -0.504 OA
ATOM     19  H   UNL     1      -0.612 -14.154 -25.219  1.00  0.00     0.293 HD
ENDBRANCH  15  18
BRANCH  17  20
ATOM     20  O   UNL     1      -1.601 -11.310 -27.336  1.00  0.00    -0.504 OA
ATOM     21  H   UNL     1      -2.265 -11.123 -28.078  1.00  0.00     0.293 HD
ENDBRANCH  17  20
ENDBRANCH   1  12
BRANCH   2  22
ATOM     22  O   UNL     1       4.010 -10.508 -28.935  1.00  0.00    -0.502 OA
ATOM     23  H   UNL     1       4.530 -11.085 -28.285  1.00  0.00     0.293 HD
ENDBRANCH   2  22
BRANCH   6  24
ATOM     24  O   UNL     1       5.508 -10.191 -33.905  1.00  0.00    -0.507 OA
ATOM     25  H   UNL     1       5.457  -9.245 -34.263  1.00  0.00     0.293 HD
ENDBRANCH   6  24
BRANCH   8  26
ATOM     26  O   UNL     1       2.210 -12.993 -36.076  1.00  0.00    -0.508 OA
ATOM     27  H   UNL     1       1.677 -12.453 -36.747  1.00  0.00     0.293 HD
ENDBRANCH   8  26
TORSDOF 6
ENDMDL
MODEL 8
REMARK VINA RESULT:    -5.819      1.912      7.006
REMARK INTER + INTRA:          -7.285
REMARK INTER:                  -7.157
REMARK INTRA:                  -0.128
REMARK UNBOUND:                -0.276
REMARK SMILES O=c1c(O)c(-c2ccc(O)c(O)c2)oc2cc(O)cc(O)c12
REMARK SMILES IDX 5 1 3 2 2 3 1 4 22 5 20 6 19 7 17 8 16 9 15 10 14 11 6 12
REMARK SMILES IDX 7 13 8 14 9 15 13 16 11 17 10 18 12 20 4 22 21 24 18 26
REMARK H PARENT 10 19 12 21 4 23 21 25 18 27
REMARK Flexibility Score: inf
ROOT
ATOM      1  C   UNL     1       3.007 -11.577 -32.209  1.00  0.00     0.180 A 
ATOM      2  C   UNL     1       2.175 -12.309 -33.078  1.00  0.00     0.208 A 
ATOM      3  C   UNL     1       2.491 -12.352 -34.444  1.00  0.00     0.238 A 
ATOM      4  O   UNL     1       1.759 -13.014 -35.230  1.00  0.00    -0.285 OA
ATOM      5  C   UNL     1       3.617 -11.650 -34.922  1.00  0.00     0.111 A 
ATOM      6  C   UNL     1       4.003 -11.639 -36.285  1.00  0.00     0.134 A 
ATOM      7  C   UNL     1       5.132 -10.908 -36.682  1.00  0.00     0.093 A 
ATOM      8  C   UNL     1       5.881 -10.189 -35.745  1.00  0.00     0.123 A 
ATOM      9  C   UNL     1       5.506 -10.197 -34.400  1.00  0.00     0.094 A 
ATOM     10  C   UNL     1       4.384 -10.920 -33.984  1.00  0.00     0.146 A 
ATOM     11  O   UNL     1       4.052 -10.915 -32.698  1.00  0.00    -0.452 OA
ENDROOT
BRANCH   1  12
ATOM     12  C   UNL     1       2.751 -11.499 -30.753  1.00  0.00     0.025 A 
ATOM     13  C   UNL     1       2.607 -10.243 -30.143  1.00  0.00     0.016 A 
ATOM     14  C   UNL     1       2.385 -10.146 -28.767  1.00  0.00     0.051 A 
ATOM     15  C   UNL     1       2.320 -11.301 -27.979  1.00  0.00     0.157 A 
ATOM     16  C   UNL     1       2.705 -12.657 -29.954  1.00  0.00     0.062 A 
ATOM     17  C   UNL     1       2.484 -12.559 -28.573  1.00  0.00     0.158 A 
BRANCH  15  18
ATOM     18  O   UNL     1       2.096 -11.208 -26.607  1.00  0.00    -0.504 OA
ATOM     19  H   UNL     1       1.624 -11.945 -26.096  1.00  0.00     0.293 HD
ENDBRANCH  15  18
BRANCH  17  20
ATOM     20  O   UNL     1       2.433 -13.707 -27.784  1.00  0.00    -0.504 OA
ATOM     21  H   UNL     1       1.758 -14.442 -27.959  1.00  0.00     0.293 HD
ENDBRANCH  17  20
ENDBRANCH   1  12
BRANCH   2  22
ATOM     22  O   UNL     1       1.037 -12.955 -32.588  1.00  0.00    -0.502 OA
ATOM     23  H   UNL     1       1.007 -13.955 -32.430  1.00  0.00     0.293 HD
ENDBRANCH   2  22
BRANCH   6  24
ATOM     24  O   UNL     1       3.275 -12.346 -37.243  1.00  0.00    -0.507 OA
ATOM     25  H   UNL     1       3.270 -13.359 -37.268  1.00  0.00     0.293 HD
ENDBRANCH   6  24
BRANCH   8  26
ATOM     26  O   UNL     1       7.002  -9.461 -36.139  1.00  0.00    -0.508 OA
ATOM     27  H   UNL     1       7.870  -9.920 -36.388  1.00  0.00     0.293 HD
ENDBRANCH   8  26
TORSDOF 6
ENDMDL
MODEL 9
REMARK VINA RESULT:    -5.717      3.988      6.424
REMARK INTER + INTRA:          -7.163
REMARK INTER:                  -7.003
REMARK INTRA:                  -0.160
REMARK UNBOUND:                -0.276
REMARK SMILES O=c1c(O)c(-c2ccc(O)c(O)c2)oc2cc(O)cc(O)c12
REMARK SMILES IDX 5 1 3 2 2 3 1 4 22 5 20 6 19 7 17 8 16 9 15 10 14 11 6 12
REMARK SMILES IDX 7 13 8 14 9 15 13 16 11 17 10 18 12 20 4 22 21 24 18 26
REMARK H PARENT 10 19 12 21 4 23 21 25 18 27
REMARK Flexibility Score: inf
ROOT
ATOM      1  C   UNL     1       2.520 -11.782 -26.930  1.00  0.00     0.180 A 
ATOM      2  C   UNL     1       1.451 -12.289 -26.168  1.00  0.00     0.208 A 
ATOM      3  C   UNL     1       1.518 -12.213 -24.768  1.00  0.00     0.238 A 
ATOM      4  O   UNL     1       0.561 -12.654 -24.075  1.00  0.00    -0.285 OA
ATOM      5  C   UNL     1       2.657 -11.652 -24.154  1.00  0.00     0.111 A 
ATOM      6  C   UNL     1       2.806 -11.541 -22.751  1.00  0.00     0.134 A 
ATOM      7  C   UNL     1       3.974 -10.978 -22.217  1.00  0.00     0.093 A 
ATOM      8  C   UNL     1       4.996 -10.525 -23.059  1.00  0.00     0.123 A 
ATOM      9  C   UNL     1       4.854 -10.632 -24.444  1.00  0.00     0.094 A 
ATOM     10  C   UNL     1       3.696 -11.189 -24.996  1.00  0.00     0.146 A 
ATOM     11  O   UNL     1       3.585 -11.273 -26.316  1.00  0.00    -0.452 OA
ENDROOT
BRANCH   1  12
ATOM     12  C   UNL     1       2.515 -11.809 -28.410  1.00  0.00     0.025 A 
ATOM     13  C   UNL     1       2.449 -10.601 -29.122  1.00  0.00     0.016 A 
ATOM     14  C   UNL     1       2.422 -10.603 -30.519  1.00  0.00     0.051 A 
ATOM     15  C   UNL     1       2.444 -11.813 -31.223  1.00  0.00     0.157 A 
ATOM     16  C   UNL     1       2.516 -13.023 -29.121  1.00  0.00     0.062 A 
ATOM     17  C   UNL     1       2.487 -13.025 -30.523  1.00  0.00     0.158 A 
BRANCH  15  18
ATOM     18  O   UNL     1       2.419 -11.820 -32.617  1.00  0.00    -0.504 OA
ATOM     19  H   UNL     1       3.271 -11.764 -33.163  1.00  0.00     0.293 HD
ENDBRANCH  15  18
BRANCH  17  20
ATOM     20  O   UNL     1       2.494 -14.229 -31.227  1.00  0.00    -0.504 OA
ATOM     21  H   UNL     1       1.637 -14.650 -31.566  1.00  0.00     0.293 HD
ENDBRANCH  17  20
ENDBRANCH   1  12
BRANCH   2  22
ATOM     22  O   UNL     1       0.355 -12.885 -26.798  1.00  0.00    -0.502 OA
ATOM     23  H   UNL     1      -0.292 -13.490 -26.305  1.00  0.00     0.293 HD
ENDBRANCH   2  22
BRANCH   6  24
ATOM     24  O   UNL     1       1.804 -11.984 -21.885  1.00  0.00    -0.507 OA
ATOM     25  H   UNL     1       1.706 -12.962 -21.640  1.00  0.00     0.293 HD
ENDBRANCH   6  24
BRANCH   8  26
ATOM     26  O   UNL     1       6.158  -9.967 -22.530  1.00  0.00    -0.508 OA
ATOM     27  H   UNL     1       6.952 -10.542 -22.276  1.00  0.00     0.293 HD
ENDBRANCH   8  26
TORSDOF 6
ENDMDL
