MODEL 1
REMARK VINA RESULT:    -7.009      0.000      0.000
REMARK INTER + INTRA:          -9.605
REMARK INTER:                  -9.467
REMARK INTRA:                  -0.138
REMARK UNBOUND:                -0.138
REMARK SMILES O=c1c(-c2ccc(O)cc2)coc2c([C@@H]3O[C@H](CO)[C@@H](O)[C@H](O)[C@@H]3O)c(O)ccc12
REMARK SMILES IDX 3 1 11 2 12 3 13 4 30 5 2 6 1 7 29 8 28 9 26 10 14 11 4 12
REMARK SMILES IDX 5 13 6 14 7 15 10 16 9 17 8 18 15 20 24 21 16 22 22 23 17 24
REMARK SMILES IDX 20 25 25 26 23 28 18 30 19 31 21 33 27 35
REMARK H PARENT 8 19 25 27 23 29 19 32 21 34 27 36
REMARK Flexibility Score: inf
ROOT
ATOM      1  C   UNL     1      13.667  -5.720 -11.176  1.00  0.00     0.065 A 
ATOM      2  C   UNL     1      12.709  -5.301 -10.241  1.00  0.00     0.208 A 
ATOM      3  O   UNL     1      11.677  -6.074  -9.928  1.00  0.00    -0.463 OA
ATOM      4  C   UNL     1      11.478  -7.280 -10.457  1.00  0.00     0.147 A 
ATOM      5  C   UNL     1      12.398  -7.781 -11.409  1.00  0.00     0.066 A 
ATOM      6  C   UNL     1      13.500  -6.984 -11.772  1.00  0.00     0.200 A 
ATOM      7  O   UNL     1      14.326  -7.393 -12.633  1.00  0.00    -0.288 OA
ATOM      8  C   UNL     1      12.190  -9.046 -11.975  1.00  0.00     0.020 A 
ATOM      9  C   UNL     1      11.076  -9.798 -11.618  1.00  0.00     0.047 A 
ATOM     10  C   UNL     1      10.150  -9.317 -10.687  1.00  0.00     0.125 A 
ATOM     11  C   UNL     1      10.354  -8.052 -10.066  1.00  0.00     0.069 A 
ENDROOT
BRANCH   1  12
ATOM     12  C   UNL     1      14.816  -4.834 -11.504  1.00  0.00    -0.011 A 
ATOM     13  C   UNL     1      15.771  -4.503 -10.526  1.00  0.00     0.013 A 
ATOM     14  C   UNL     1      16.829  -3.640 -10.834  1.00  0.00     0.047 A 
ATOM     15  C   UNL     1      16.950  -3.104 -12.123  1.00  0.00     0.115 A 
ATOM     16  C   UNL     1      14.944  -4.289 -12.795  1.00  0.00     0.013 A 
ATOM     17  C   UNL     1      16.009  -3.438 -13.102  1.00  0.00     0.047 A 
BRANCH  15  18
ATOM     18  O   UNL     1      18.000  -2.246 -12.442  1.00  0.00    -0.508 OA
ATOM     19  H   UNL     1      18.905  -2.599 -12.728  1.00  0.00     0.293 HD
ENDBRANCH  15  18
ENDBRANCH   1  12
BRANCH  11  20
ATOM     20  C   UNL     1       9.392  -7.495  -9.011  1.00  0.00     0.188 C 
ATOM     21  C   UNL     1       9.983  -7.521  -7.574  1.00  0.00     0.179 C 
ATOM     22  O   UNL     1       8.968  -6.189  -9.360  1.00  0.00    -0.362 OA
ATOM     23  C   UNL     1       9.356  -6.411  -6.683  1.00  0.00     0.177 C 
ATOM     24  C   UNL     1       7.783  -5.842  -8.654  1.00  0.00     0.176 C 
ATOM     25  C   UNL     1       7.909  -6.070  -7.108  1.00  0.00     0.177 C 
BRANCH  21  26
ATOM     26  O   UNL     1      11.385  -7.414  -7.588  1.00  0.00    -0.387 OA
ATOM     27  H   UNL     1      11.740  -8.343  -7.587  1.00  0.00     0.211 HD
ENDBRANCH  21  26
BRANCH  23  28
ATOM     28  O   UNL     1      10.157  -5.253  -6.648  1.00  0.00    -0.387 OA
ATOM     29  H   UNL     1      10.758  -5.268  -7.436  1.00  0.00     0.211 HD
ENDBRANCH  23  28
BRANCH  24  30
ATOM     30  C   UNL     1       7.436  -4.383  -8.986  1.00  0.00     0.191 C 
BRANCH  30  31
ATOM     31  O   UNL     1       6.159  -4.059  -8.499  1.00  0.00    -0.394 OA
ATOM     32  H   UNL     1       5.526  -4.131  -9.261  1.00  0.00     0.210 HD
ENDBRANCH  30  31
ENDBRANCH  24  30
BRANCH  25  33
ATOM     33  O   UNL     1       7.067  -7.125  -6.715  1.00  0.00    -0.388 OA
ATOM     34  H   UNL     1       6.134  -6.797  -6.810  1.00  0.00     0.211 HD
ENDBRANCH  25  33
ENDBRANCH  11  20
BRANCH  10  35
ATOM     35  O   UNL     1       9.042 -10.125 -10.426  1.00  0.00    -0.507 OA
ATOM     36  H   UNL     1       8.088  -9.799 -10.440  1.00  0.00     0.293 HD
ENDBRANCH  10  35
TORSDOF 9
ENDMDL
MODEL 2
REMARK VINA RESULT:    -6.985      7.183     10.829
REMARK INTER + INTRA:          -9.573
REMARK INTER:                  -8.933
REMARK INTRA:                  -0.640
REMARK UNBOUND:                -0.138
REMARK SMILES O=c1c(-c2ccc(O)cc2)coc2c([C@@H]3O[C@H](CO)[C@@H](O)[C@H](O)[C@@H]3O)c(O)ccc12
REMARK SMILES IDX 3 1 11 2 12 3 13 4 30 5 2 6 1 7 29 8 28 9 26 10 14 11 4 12
REMARK SMILES IDX 5 13 6 14 7 15 10 16 9 17 8 18 15 20 24 21 16 22 22 23 17 24
REMARK SMILES IDX 20 25 25 26 23 28 18 30 19 31 21 33 27 35
REMARK H PARENT 8 19 25 27 23 29 19 32 21 34 27 36
REMARK Flexibility Score: inf
ROOT
ATOM      1  C   UNL     1      19.374  -1.606 -18.434  1.00  0.00     0.065 A 
ATOM      2  C   UNL     1      19.265  -2.987 -18.647  1.00  0.00     0.208 A 
ATOM      3  O   UNL     1      18.655  -3.768 -17.764  1.00  0.00    -0.463 OA
ATOM      4  C   UNL     1      18.103  -3.312 -16.640  1.00  0.00     0.147 A 
ATOM      5  C   UNL     1      18.167  -1.928 -16.348  1.00  0.00     0.066 A 
ATOM      6  C   UNL     1      18.816  -1.072 -17.257  1.00  0.00     0.200 A 
ATOM      7  O   UNL     1      18.908   0.162 -17.014  1.00  0.00    -0.288 OA
ATOM      8  C   UNL     1      17.596  -1.444 -15.163  1.00  0.00     0.020 A 
ATOM      9  C   UNL     1      16.987  -2.319 -14.271  1.00  0.00     0.047 A 
ATOM     10  C   UNL     1      16.922  -3.690 -14.537  1.00  0.00     0.125 A 
ATOM     11  C   UNL     1      17.459  -4.208 -15.750  1.00  0.00     0.069 A 
ENDROOT
BRANCH   1  12
ATOM     12  C   UNL     1      20.061  -0.755 -19.442  1.00  0.00    -0.011 A 
ATOM     13  C   UNL     1      20.046  -1.101 -20.806  1.00  0.00     0.013 A 
ATOM     14  C   UNL     1      20.726  -0.314 -21.742  1.00  0.00     0.047 A 
ATOM     15  C   UNL     1      21.419   0.832 -21.331  1.00  0.00     0.115 A 
ATOM     16  C   UNL     1      20.762   0.396 -19.038  1.00  0.00     0.013 A 
ATOM     17  C   UNL     1      21.429   1.186 -19.979  1.00  0.00     0.047 A 
BRANCH  15  18
ATOM     18  O   UNL     1      22.097   1.624 -22.255  1.00  0.00    -0.508 OA
ATOM     19  H   UNL     1      22.269   1.306 -23.201  1.00  0.00     0.293 HD
ENDBRANCH  15  18
ENDBRANCH   1  12
BRANCH  11  20
ATOM     20  C   UNL     1      17.381  -5.696 -16.108  1.00  0.00     0.188 C 
ATOM     21  C   UNL     1      18.520  -6.537 -15.468  1.00  0.00     0.179 C 
ATOM     22  O   UNL     1      16.111  -6.226 -15.770  1.00  0.00    -0.362 OA
ATOM     23  C   UNL     1      18.086  -8.016 -15.262  1.00  0.00     0.177 C 
ATOM     24  C   UNL     1      15.874  -7.442 -16.469  1.00  0.00     0.176 C 
ATOM     25  C   UNL     1      17.046  -8.471 -16.312  1.00  0.00     0.177 C 
BRANCH  21  26
ATOM     26  O   UNL     1      18.961  -5.975 -14.257  1.00  0.00    -0.387 OA
ATOM     27  H   UNL     1      19.148  -6.736 -13.644  1.00  0.00     0.211 HD
ENDBRANCH  21  26
BRANCH  23  28
ATOM     28  O   UNL     1      17.615  -8.246 -13.954  1.00  0.00    -0.387 OA
ATOM     29  H   UNL     1      16.828  -8.845 -14.009  1.00  0.00     0.211 HD
ENDBRANCH  23  28
BRANCH  24  30
ATOM     30  C   UNL     1      14.538  -8.024 -15.982  1.00  0.00     0.191 C 
BRANCH  30  31
ATOM     31  O   UNL     1      14.544  -8.165 -14.585  1.00  0.00    -0.394 OA
ATOM     32  H   UNL     1      14.034  -8.990 -14.371  1.00  0.00     0.210 HD
ENDBRANCH  30  31
ENDBRANCH  24  30
BRANCH  25  33
ATOM     33  O   UNL     1      17.699  -8.636 -17.546  1.00  0.00    -0.388 OA
ATOM     34  H   UNL     1      17.651  -9.603 -17.768  1.00  0.00     0.211 HD
ENDBRANCH  25  33
ENDBRANCH  11  20
BRANCH  10  35
ATOM     35  O   UNL     1      16.330  -4.493 -13.560  1.00  0.00    -0.507 OA
ATOM     36  H   UNL     1      16.718  -5.364 -13.233  1.00  0.00     0.293 HD
ENDBRANCH  10  35
TORSDOF 9
ENDMDL
MODEL 3
REMARK VINA RESULT:    -6.901      1.982      7.788
REMARK INTER + INTRA:          -9.459
REMARK INTER:                  -9.085
REMARK INTRA:                  -0.375
REMARK UNBOUND:                -0.138
REMARK SMILES O=c1c(-c2ccc(O)cc2)coc2c([C@@H]3O[C@H](CO)[C@@H](O)[C@H](O)[C@@H]3O)c(O)ccc12
REMARK SMILES IDX 3 1 11 2 12 3 13 4 30 5 2 6 1 7 29 8 28 9 26 10 14 11 4 12
REMARK SMILES IDX 5 13 6 14 7 15 10 16 9 17 8 18 15 20 24 21 16 22 22 23 17 24
REMARK SMILES IDX 20 25 25 26 23 28 18 30 19 31 21 33 27 35
REMARK H PARENT 8 19 25 27 23 29 19 32 21 34 27 36
REMARK Flexibility Score: inf
ROOT
ATOM      1  C   UNL     1      11.764  -6.793 -10.170  1.00  0.00     0.065 A 
ATOM      2  C   UNL     1      12.552  -5.641 -10.044  1.00  0.00     0.208 A 
ATOM      3  O   UNL     1      13.645  -5.477 -10.779  1.00  0.00    -0.463 OA
ATOM      4  C   UNL     1      14.063  -6.367 -11.678  1.00  0.00     0.147 A 
ATOM      5  C   UNL     1      13.324  -7.559 -11.870  1.00  0.00     0.066 A 
ATOM      6  C   UNL     1      12.164  -7.770 -11.100  1.00  0.00     0.200 A 
ATOM      7  O   UNL     1      11.496  -8.832 -11.232  1.00  0.00    -0.288 OA
ATOM      8  C   UNL     1      13.763  -8.503 -12.808  1.00  0.00     0.020 A 
ATOM      9  C   UNL     1      14.927  -8.279 -13.534  1.00  0.00     0.047 A 
ATOM     10  C   UNL     1      15.677  -7.113 -13.352  1.00  0.00     0.125 A 
ATOM     11  C   UNL     1      15.237  -6.118 -12.434  1.00  0.00     0.069 A 
ENDROOT
BRANCH   1  12
ATOM     12  C   UNL     1      10.542  -6.946  -9.335  1.00  0.00    -0.011 A 
ATOM     13  C   UNL     1       9.342  -6.305  -9.690  1.00  0.00     0.013 A 
ATOM     14  C   UNL     1       8.208  -6.427  -8.878  1.00  0.00     0.047 A 
ATOM     15  C   UNL     1       8.257  -7.197  -7.709  1.00  0.00     0.115 A 
ATOM     16  C   UNL     1      10.582  -7.716  -8.157  1.00  0.00     0.013 A 
ATOM     17  C   UNL     1       9.444  -7.845  -7.357  1.00  0.00     0.047 A 
BRANCH  15  18
ATOM     18  O   UNL     1       7.134  -7.327  -6.895  1.00  0.00    -0.508 OA
ATOM     19  H   UNL     1       7.210  -7.623  -5.930  1.00  0.00     0.293 HD
ENDBRANCH  15  18
ENDBRANCH   1  12
BRANCH  11  20
ATOM     20  C   UNL     1      15.999  -4.805 -12.225  1.00  0.00     0.188 C 
ATOM     21  C   UNL     1      15.375  -3.609 -12.997  1.00  0.00     0.179 C 
ATOM     22  O   UNL     1      16.117  -4.509 -10.845  1.00  0.00    -0.362 OA
ATOM     23  C   UNL     1      15.688  -2.257 -12.296  1.00  0.00     0.177 C 
ATOM     24  C   UNL     1      17.158  -3.566 -10.622  1.00  0.00     0.176 C 
ATOM     25  C   UNL     1      17.029  -2.294 -11.528  1.00  0.00     0.177 C 
BRANCH  21  26
ATOM     26  O   UNL     1      13.989  -3.771 -13.169  1.00  0.00    -0.387 OA
ATOM     27  H   UNL     1      13.817  -3.724 -14.148  1.00  0.00     0.211 HD
ENDBRANCH  21  26
BRANCH  23  28
ATOM     28  O   UNL     1      14.636  -1.849 -11.453  1.00  0.00    -0.387 OA
ATOM     29  H   UNL     1      14.352  -2.628 -10.912  1.00  0.00     0.211 HD
ENDBRANCH  23  28
BRANCH  24  30
ATOM     30  C   UNL     1      17.166  -3.202  -9.129  1.00  0.00     0.191 C 
BRANCH  30  31
ATOM     31  O   UNL     1      17.681  -4.263  -8.367  1.00  0.00    -0.394 OA
ATOM     32  H   UNL     1      18.671  -4.190  -8.392  1.00  0.00     0.210 HD
ENDBRANCH  30  31
ENDBRANCH  24  30
BRANCH  25  33
ATOM     33  O   UNL     1      18.079  -2.270 -12.462  1.00  0.00    -0.388 OA
ATOM     34  H   UNL     1      17.662  -2.190 -13.361  1.00  0.00     0.211 HD
ENDBRANCH  25  33
ENDBRANCH  11  20
BRANCH  10  35
ATOM     35  O   UNL     1      16.854  -7.000 -14.094  1.00  0.00    -0.507 OA
ATOM     36  H   UNL     1      17.283  -6.123 -14.344  1.00  0.00     0.293 HD
ENDBRANCH  10  35
TORSDOF 9
ENDMDL
MODEL 4
REMARK VINA RESULT:    -6.877     10.277     13.770
REMARK INTER + INTRA:          -9.427
REMARK INTER:                  -8.849
REMARK INTRA:                  -0.578
REMARK UNBOUND:                -0.138
REMARK SMILES O=c1c(-c2ccc(O)cc2)coc2c([C@@H]3O[C@H](CO)[C@@H](O)[C@H](O)[C@@H]3O)c(O)ccc12
REMARK SMILES IDX 3 1 11 2 12 3 13 4 30 5 2 6 1 7 29 8 28 9 26 10 14 11 4 12
REMARK SMILES IDX 5 13 6 14 7 15 10 16 9 17 8 18 15 20 24 21 16 22 22 23 17 24
REMARK SMILES IDX 20 25 25 26 23 28 18 30 19 31 21 33 27 35
REMARK H PARENT 8 19 25 27 23 29 19 32 21 34 27 36
REMARK Flexibility Score: inf
ROOT
ATOM      1  C   UNL     1       5.168   3.847  -8.537  1.00  0.00     0.065 A 
ATOM      2  C   UNL     1       5.722   2.827  -9.323  1.00  0.00     0.208 A 
ATOM      3  O   UNL     1       5.816   2.954 -10.640  1.00  0.00    -0.463 OA
ATOM      4  C   UNL     1       5.412   4.038 -11.302  1.00  0.00     0.147 A 
ATOM      5  C   UNL     1       4.842   5.117 -10.585  1.00  0.00     0.066 A 
ATOM      6  C   UNL     1       4.717   5.011  -9.186  1.00  0.00     0.200 A 
ATOM      7  O   UNL     1       4.194   5.947  -8.521  1.00  0.00    -0.288 OA
ATOM      8  C   UNL     1       4.407   6.255 -11.276  1.00  0.00     0.020 A 
ATOM      9  C   UNL     1       4.518   6.319 -12.660  1.00  0.00     0.047 A 
ATOM     10  C   UNL     1       5.068   5.259 -13.389  1.00  0.00     0.125 A 
ATOM     11  C   UNL     1       5.554   4.104 -12.712  1.00  0.00     0.069 A 
ENDROOT
BRANCH   1  12
ATOM     12  C   UNL     1       5.079   3.677  -7.062  1.00  0.00    -0.011 A 
ATOM     13  C   UNL     1       6.057   2.949  -6.361  1.00  0.00     0.013 A 
ATOM     14  C   UNL     1       5.945   2.764  -4.978  1.00  0.00     0.047 A 
ATOM     15  C   UNL     1       4.862   3.310  -4.278  1.00  0.00     0.115 A 
ATOM     16  C   UNL     1       3.993   4.220  -6.351  1.00  0.00     0.013 A 
ATOM     17  C   UNL     1       3.892   4.043  -4.968  1.00  0.00     0.047 A 
BRANCH  15  18
ATOM     18  O   UNL     1       4.741   3.134  -2.901  1.00  0.00    -0.508 OA
ATOM     19  H   UNL     1       4.097   3.688  -2.350  1.00  0.00     0.293 HD
ENDBRANCH  15  18
ENDBRANCH   1  12
BRANCH  11  20
ATOM     20  C   UNL     1       6.202   2.933 -13.457  1.00  0.00     0.188 C 
ATOM     21  C   UNL     1       5.198   1.794 -13.789  1.00  0.00     0.179 C 
ATOM     22  O   UNL     1       6.858   3.386 -14.628  1.00  0.00    -0.362 OA
ATOM     23  C   UNL     1       5.642   0.996 -15.048  1.00  0.00     0.177 C 
ATOM     24  C   UNL     1       7.799   2.420 -15.080  1.00  0.00     0.176 C 
ATOM     25  C   UNL     1       7.179   0.987 -15.222  1.00  0.00     0.177 C 
BRANCH  21  26
ATOM     26  O   UNL     1       3.891   2.285 -13.948  1.00  0.00    -0.387 OA
ATOM     27  H   UNL     1       3.829   2.630 -14.880  1.00  0.00     0.211 HD
ENDBRANCH  21  26
BRANCH  23  28
ATOM     28  O   UNL     1       5.006   1.463 -16.215  1.00  0.00    -0.387 OA
ATOM     29  H   UNL     1       5.590   1.260 -16.989  1.00  0.00     0.211 HD
ENDBRANCH  23  28
BRANCH  24  30
ATOM     30  C   UNL     1       8.396   2.914 -16.407  1.00  0.00     0.191 C 
BRANCH  30  31
ATOM     31  O   UNL     1       7.434   2.859 -17.429  1.00  0.00    -0.394 OA
ATOM     32  H   UNL     1       7.576   3.652 -18.009  1.00  0.00     0.210 HD
ENDBRANCH  30  31
ENDBRANCH  24  30
BRANCH  25  33
ATOM     33  O   UNL     1       7.733   0.134 -14.252  1.00  0.00    -0.388 OA
ATOM     34  H   UNL     1       7.838  -0.757 -14.681  1.00  0.00     0.211 HD
ENDBRANCH  25  33
ENDBRANCH  11  20
BRANCH  10  35
ATOM     35  O   UNL     1       5.096   5.397 -14.777  1.00  0.00    -0.507 OA
ATOM     36  H   UNL     1       5.694   4.862 -15.387  1.00  0.00     0.293 HD
ENDBRANCH  10  35
TORSDOF 9
ENDMDL
MODEL 5
REMARK VINA RESULT:    -6.819      3.232      9.281
REMARK INTER + INTRA:          -9.349
REMARK INTER:                  -8.128
REMARK INTRA:                  -1.221
REMARK UNBOUND:                -0.138
REMARK SMILES O=c1c(-c2ccc(O)cc2)coc2c([C@@H]3O[C@H](CO)[C@@H](O)[C@H](O)[C@@H]3O)c(O)ccc12
REMARK SMILES IDX 3 1 11 2 12 3 13 4 30 5 2 6 1 7 29 8 28 9 26 10 14 11 4 12
REMARK SMILES IDX 5 13 6 14 7 15 10 16 9 17 8 18 15 20 24 21 16 22 22 23 17 24
REMARK SMILES IDX 20 25 25 26 23 28 18 30 19 31 21 33 27 35
REMARK H PARENT 8 19 25 27 23 29 19 32 21 34 27 36
REMARK Flexibility Score: inf
ROOT
ATOM      1  C   UNL     1      11.941  -7.591 -11.136  1.00  0.00     0.065 A 
ATOM      2  C   UNL     1      12.627  -8.356 -12.089  1.00  0.00     0.208 A 
ATOM      3  O   UNL     1      13.778  -7.938 -12.601  1.00  0.00    -0.463 OA
ATOM      4  C   UNL     1      14.360  -6.791 -12.253  1.00  0.00     0.147 A 
ATOM      5  C   UNL     1      13.734  -5.957 -11.295  1.00  0.00     0.066 A 
ATOM      6  C   UNL     1      12.507  -6.367 -10.739  1.00  0.00     0.200 A 
ATOM      7  O   UNL     1      11.914  -5.635  -9.899  1.00  0.00    -0.288 OA
ATOM      8  C   UNL     1      14.338  -4.747 -10.931  1.00  0.00     0.020 A 
ATOM      9  C   UNL     1      15.536  -4.356 -11.519  1.00  0.00     0.047 A 
ATOM     10  C   UNL     1      16.165  -5.161 -12.474  1.00  0.00     0.125 A 
ATOM     11  C   UNL     1      15.597  -6.415 -12.838  1.00  0.00     0.069 A 
ENDROOT
BRANCH   1  12
ATOM     12  C   UNL     1      10.654  -8.088 -10.578  1.00  0.00    -0.011 A 
ATOM     13  C   UNL     1       9.432  -7.781 -11.203  1.00  0.00     0.013 A 
ATOM     14  C   UNL     1       8.225  -8.223 -10.650  1.00  0.00     0.047 A 
ATOM     15  C   UNL     1       8.224  -8.985  -9.474  1.00  0.00     0.115 A 
ATOM     16  C   UNL     1      10.643  -8.852  -9.396  1.00  0.00     0.013 A 
ATOM     17  C   UNL     1       9.436  -9.302  -8.855  1.00  0.00     0.047 A 
BRANCH  15  18
ATOM     18  O   UNL     1       7.028  -9.433  -8.917  1.00  0.00    -0.508 OA
ATOM     19  H   UNL     1       6.286  -8.791  -8.669  1.00  0.00     0.293 HD
ENDBRANCH  15  18
ENDBRANCH   1  12
BRANCH  11  20
ATOM     20  C   UNL     1      16.264  -7.352 -13.849  1.00  0.00     0.188 C 
ATOM     21  C   UNL     1      15.799  -7.101 -15.310  1.00  0.00     0.179 C 
ATOM     22  O   UNL     1      17.675  -7.274 -13.748  1.00  0.00    -0.362 OA
ATOM     23  C   UNL     1      16.891  -7.523 -16.334  1.00  0.00     0.177 C 
ATOM     24  C   UNL     1      18.284  -8.412 -14.346  1.00  0.00     0.176 C 
ATOM     25  C   UNL     1      17.773  -8.678 -15.804  1.00  0.00     0.177 C 
BRANCH  21  26
ATOM     26  O   UNL     1      15.422  -5.761 -15.511  1.00  0.00    -0.387 OA
ATOM     27  H   UNL     1      15.564  -5.569 -16.477  1.00  0.00     0.211 HD
ENDBRANCH  21  26
BRANCH  23  28
ATOM     28  O   UNL     1      17.683  -6.430 -16.736  1.00  0.00    -0.387 OA
ATOM     29  H   UNL     1      17.148  -5.603 -16.628  1.00  0.00     0.211 HD
ENDBRANCH  23  28
BRANCH  24  30
ATOM     30  C   UNL     1      19.808  -8.220 -14.305  1.00  0.00     0.191 C 
BRANCH  30  31
ATOM     31  O   UNL     1      20.179  -7.079 -15.034  1.00  0.00    -0.394 OA
ATOM     32  H   UNL     1      19.459  -6.906 -15.696  1.00  0.00     0.210 HD
ENDBRANCH  30  31
ENDBRANCH  24  30
BRANCH  25  33
ATOM     33  O   UNL     1      17.019  -9.864 -15.832  1.00  0.00    -0.388 OA
ATOM     34  H   UNL     1      17.668 -10.616 -15.843  1.00  0.00     0.211 HD
ENDBRANCH  25  33
ENDBRANCH  11  20
BRANCH  10  35
ATOM     35  O   UNL     1      17.340  -4.663 -13.040  1.00  0.00    -0.507 OA
ATOM     36  H   UNL     1      18.263  -4.998 -12.812  1.00  0.00     0.293 HD
ENDBRANCH  10  35
TORSDOF 9
ENDMDL
MODEL 6
REMARK VINA RESULT:    -6.793      2.349      8.329
REMARK INTER + INTRA:          -9.314
REMARK INTER:                  -8.317
REMARK INTRA:                  -0.997
REMARK UNBOUND:                -0.138
REMARK SMILES O=c1c(-c2ccc(O)cc2)coc2c([C@@H]3O[C@H](CO)[C@@H](O)[C@H](O)[C@@H]3O)c(O)ccc12
REMARK SMILES IDX 3 1 11 2 12 3 13 4 30 5 2 6 1 7 29 8 28 9 26 10 14 11 4 12
REMARK SMILES IDX 5 13 6 14 7 15 10 16 9 17 8 18 15 20 24 21 16 22 22 23 17 24
REMARK SMILES IDX 20 25 25 26 23 28 18 30 19 31 21 33 27 35
REMARK H PARENT 8 19 25 27 23 29 19 32 21 34 27 36
REMARK Flexibility Score: inf
ROOT
ATOM      1  C   UNL     1      11.791  -6.352 -10.524  1.00  0.00     0.065 A 
ATOM      2  C   UNL     1      12.602  -5.288 -10.939  1.00  0.00     0.208 A 
ATOM      3  O   UNL     1      13.660  -5.497 -11.713  1.00  0.00    -0.463 OA
ATOM      4  C   UNL     1      14.020  -6.702 -12.151  1.00  0.00     0.147 A 
ATOM      5  C   UNL     1      13.254  -7.833 -11.779  1.00  0.00     0.066 A 
ATOM      6  C   UNL     1      12.130  -7.649 -10.951  1.00  0.00     0.200 A 
ATOM      7  O   UNL     1      11.440  -8.639 -10.585  1.00  0.00    -0.288 OA
ATOM      8  C   UNL     1      13.632  -9.105 -12.231  1.00  0.00     0.020 A 
ATOM      9  C   UNL     1      14.763  -9.258 -13.024  1.00  0.00     0.047 A 
ATOM     10  C   UNL     1      15.539  -8.155 -13.395  1.00  0.00     0.125 A 
ATOM     11  C   UNL     1      15.159  -6.846 -12.984  1.00  0.00     0.069 A 
ENDROOT
BRANCH   1  12
ATOM     12  C   UNL     1      10.609  -6.086  -9.659  1.00  0.00    -0.011 A 
ATOM     13  C   UNL     1       9.401  -5.625 -10.213  1.00  0.00     0.013 A 
ATOM     14  C   UNL     1       8.307  -5.343  -9.388  1.00  0.00     0.047 A 
ATOM     15  C   UNL     1       8.402  -5.527  -8.002  1.00  0.00     0.115 A 
ATOM     16  C   UNL     1      10.696  -6.266  -8.266  1.00  0.00     0.013 A 
ATOM     17  C   UNL     1       9.596  -5.996  -7.447  1.00  0.00     0.047 A 
BRANCH  15  18
ATOM     18  O   UNL     1       7.318  -5.253  -7.171  1.00  0.00    -0.508 OA
ATOM     19  H   UNL     1       6.527  -5.881  -7.106  1.00  0.00     0.293 HD
ENDBRANCH  15  18
ENDBRANCH   1  12
BRANCH  11  20
ATOM     20  C   UNL     1      15.951  -5.600 -13.393  1.00  0.00     0.188 C 
ATOM     21  C   UNL     1      16.871  -5.064 -12.262  1.00  0.00     0.179 C 
ATOM     22  O   UNL     1      16.694  -5.844 -14.575  1.00  0.00    -0.362 OA
ATOM     23  C   UNL     1      18.095  -4.298 -12.840  1.00  0.00     0.177 C 
ATOM     24  C   UNL     1      17.071  -4.620 -15.192  1.00  0.00     0.176 C 
ATOM     25  C   UNL     1      17.777  -3.633 -14.199  1.00  0.00     0.177 C 
BRANCH  21  26
ATOM     26  O   UNL     1      17.292  -6.096 -11.404  1.00  0.00    -0.387 OA
ATOM     27  H   UNL     1      16.573  -6.783 -11.414  1.00  0.00     0.211 HD
ENDBRANCH  21  26
BRANCH  23  28
ATOM     28  O   UNL     1      19.231  -5.124 -12.937  1.00  0.00    -0.387 OA
ATOM     29  H   UNL     1      19.051  -5.960 -12.437  1.00  0.00     0.211 HD
ENDBRANCH  23  28
BRANCH  24  30
ATOM     30  C   UNL     1      17.963  -4.944 -16.400  1.00  0.00     0.191 C 
BRANCH  30  31
ATOM     31  O   UNL     1      18.985  -5.834 -16.030  1.00  0.00    -0.394 OA
ATOM     32  H   UNL     1      18.807  -6.695 -16.493  1.00  0.00     0.210 HD
ENDBRANCH  30  31
ENDBRANCH  24  30
BRANCH  25  33
ATOM     33  O   UNL     1      16.949  -2.520 -13.969  1.00  0.00    -0.388 OA
ATOM     34  H   UNL     1      16.447  -2.706 -13.132  1.00  0.00     0.211 HD
ENDBRANCH  25  33
ENDBRANCH  11  20
BRANCH  10  35
ATOM     35  O   UNL     1      16.680  -8.416 -14.155  1.00  0.00    -0.507 OA
ATOM     36  H   UNL     1      17.200  -9.278 -14.119  1.00  0.00     0.293 HD
ENDBRANCH  10  35
TORSDOF 9
ENDMDL
MODEL 7
REMARK VINA RESULT:    -6.725      2.475      7.998
REMARK INTER + INTRA:          -9.221
REMARK INTER:                  -8.007
REMARK INTRA:                  -1.214
REMARK UNBOUND:                -0.138
REMARK SMILES O=c1c(-c2ccc(O)cc2)coc2c([C@@H]3O[C@H](CO)[C@@H](O)[C@H](O)[C@@H]3O)c(O)ccc12
REMARK SMILES IDX 3 1 11 2 12 3 13 4 30 5 2 6 1 7 29 8 28 9 26 10 14 11 4 12
REMARK SMILES IDX 5 13 6 14 7 15 10 16 9 17 8 18 15 20 24 21 16 22 22 23 17 24
REMARK SMILES IDX 20 25 25 26 23 28 18 30 19 31 21 33 27 35
REMARK H PARENT 8 19 25 27 23 29 19 32 21 34 27 36
REMARK Flexibility Score: inf
ROOT
ATOM      1  C   UNL     1      11.655  -7.210 -10.357  1.00  0.00     0.065 A 
ATOM      2  C   UNL     1      12.045  -5.901 -10.041  1.00  0.00     0.208 A 
ATOM      3  O   UNL     1      13.116  -5.353 -10.603  1.00  0.00    -0.463 OA
ATOM      4  C   UNL     1      13.879  -5.983 -11.494  1.00  0.00     0.147 A 
ATOM      5  C   UNL     1      13.556  -7.309 -11.871  1.00  0.00     0.066 A 
ATOM      6  C   UNL     1      12.432  -7.925 -11.287  1.00  0.00     0.200 A 
ATOM      7  O   UNL     1      12.130  -9.113 -11.586  1.00  0.00    -0.288 OA
ATOM      8  C   UNL     1      14.359  -7.980 -12.801  1.00  0.00     0.020 A 
ATOM      9  C   UNL     1      15.479  -7.356 -13.339  1.00  0.00     0.047 A 
ATOM     10  C   UNL     1      15.822  -6.050 -12.972  1.00  0.00     0.125 A 
ATOM     11  C   UNL     1      15.004  -5.328 -12.058  1.00  0.00     0.069 A 
ENDROOT
BRANCH   1  12
ATOM     12  C   UNL     1      10.448  -7.796  -9.715  1.00  0.00    -0.011 A 
ATOM     13  C   UNL     1       9.239  -7.909 -10.423  1.00  0.00     0.013 A 
ATOM     14  C   UNL     1       8.099  -8.429  -9.799  1.00  0.00     0.047 A 
ATOM     15  C   UNL     1       8.156  -8.850  -8.464  1.00  0.00     0.115 A 
ATOM     16  C   UNL     1      10.496  -8.220  -8.374  1.00  0.00     0.013 A 
ATOM     17  C   UNL     1       9.358  -8.750  -7.758  1.00  0.00     0.047 A 
BRANCH  15  18
ATOM     18  O   UNL     1       7.029  -9.372  -7.833  1.00  0.00    -0.508 OA
ATOM     19  H   UNL     1       6.351  -9.931  -8.335  1.00  0.00     0.293 HD
ENDBRANCH  15  18
ENDBRANCH   1  12
BRANCH  11  20
ATOM     20  C   UNL     1      15.311  -3.883 -11.652  1.00  0.00     0.188 C 
ATOM     21  C   UNL     1      16.304  -3.783 -10.461  1.00  0.00     0.179 C 
ATOM     22  O   UNL     1      15.780  -3.140 -12.764  1.00  0.00    -0.362 OA
ATOM     23  C   UNL     1      17.100  -2.448 -10.496  1.00  0.00     0.177 C 
ATOM     24  C   UNL     1      15.656  -1.744 -12.521  1.00  0.00     0.176 C 
ATOM     25  C   UNL     1      16.296  -1.306 -11.158  1.00  0.00     0.177 C 
BRANCH  21  26
ATOM     26  O   UNL     1      17.180  -4.883 -10.423  1.00  0.00    -0.387 OA
ATOM     27  H   UNL     1      16.708  -5.637 -10.869  1.00  0.00     0.211 HD
ENDBRANCH  21  26
BRANCH  23  28
ATOM     28  O   UNL     1      18.356  -2.604 -11.116  1.00  0.00    -0.387 OA
ATOM     29  H   UNL     1      19.057  -2.524 -10.420  1.00  0.00     0.211 HD
ENDBRANCH  23  28
BRANCH  24  30
ATOM     30  C   UNL     1      16.279  -0.992 -13.708  1.00  0.00     0.191 C 
BRANCH  30  31
ATOM     31  O   UNL     1      17.680  -1.081 -13.664  1.00  0.00    -0.394 OA
ATOM     32  H   UNL     1      17.925  -1.415 -12.762  1.00  0.00     0.210 HD
ENDBRANCH  30  31
ENDBRANCH  24  30
BRANCH  25  33
ATOM     33  O   UNL     1      15.284  -0.899 -10.270  1.00  0.00    -0.388 OA
ATOM     34  H   UNL     1      15.496  -1.307  -9.389  1.00  0.00     0.211 HD
ENDBRANCH  25  33
ENDBRANCH  11  20
BRANCH  10  35
ATOM     35  O   UNL     1      16.988  -5.525 -13.531  1.00  0.00    -0.507 OA
ATOM     36  H   UNL     1      17.896  -5.955 -13.454  1.00  0.00     0.293 HD
ENDBRANCH  10  35
TORSDOF 9
ENDMDL
MODEL 8
REMARK VINA RESULT:    -6.711      3.338      8.810
REMARK INTER + INTRA:          -9.203
REMARK INTER:                  -7.996
REMARK INTRA:                  -1.207
REMARK UNBOUND:                -0.138
REMARK SMILES O=c1c(-c2ccc(O)cc2)coc2c([C@@H]3O[C@H](CO)[C@@H](O)[C@H](O)[C@@H]3O)c(O)ccc12
REMARK SMILES IDX 3 1 11 2 12 3 13 4 30 5 2 6 1 7 29 8 28 9 26 10 14 11 4 12
REMARK SMILES IDX 5 13 6 14 7 15 10 16 9 17 8 18 15 20 24 21 16 22 22 23 17 24
REMARK SMILES IDX 20 25 25 26 23 28 18 30 19 31 21 33 27 35
REMARK H PARENT 8 19 25 27 23 29 19 32 21 34 27 36
REMARK Flexibility Score: inf
ROOT
ATOM      1  C   UNL     1      11.720  -8.174 -11.596  1.00  0.00     0.065 A 
ATOM      2  C   UNL     1      12.979  -7.587 -11.403  1.00  0.00     0.208 A 
ATOM      3  O   UNL     1      13.946  -7.735 -12.300  1.00  0.00    -0.463 OA
ATOM      4  C   UNL     1      13.798  -8.428 -13.429  1.00  0.00     0.147 A 
ATOM      5  C   UNL     1      12.558  -9.053 -13.703  1.00  0.00     0.066 A 
ATOM      6  C   UNL     1      11.513  -8.924 -12.768  1.00  0.00     0.200 A 
ATOM      7  O   UNL     1      10.403  -9.487 -12.973  1.00  0.00    -0.288 OA
ATOM      8  C   UNL     1      12.399  -9.789 -14.884  1.00  0.00     0.020 A 
ATOM      9  C   UNL     1      13.459  -9.921 -15.774  1.00  0.00     0.047 A 
ATOM     10  C   UNL     1      14.695  -9.320 -15.517  1.00  0.00     0.125 A 
ATOM     11  C   UNL     1      14.876  -8.534 -14.344  1.00  0.00     0.069 A 
ENDROOT
BRANCH   1  12
ATOM     12  C   UNL     1      10.655  -7.988 -10.574  1.00  0.00    -0.011 A 
ATOM     13  C   UNL     1      10.589  -8.822  -9.443  1.00  0.00     0.013 A 
ATOM     14  C   UNL     1       9.561  -8.662  -8.506  1.00  0.00     0.047 A 
ATOM     15  C   UNL     1       8.595  -7.663  -8.681  1.00  0.00     0.115 A 
ATOM     16  C   UNL     1       9.679  -6.989 -10.743  1.00  0.00     0.013 A 
ATOM     17  C   UNL     1       8.663  -6.824  -9.798  1.00  0.00     0.047 A 
BRANCH  15  18
ATOM     18  O   UNL     1       7.570  -7.493  -7.754  1.00  0.00    -0.508 OA
ATOM     19  H   UNL     1       7.489  -8.087  -6.938  1.00  0.00     0.293 HD
ENDBRANCH  15  18
ENDBRANCH   1  12
BRANCH  11  20
ATOM     20  C   UNL     1      16.197  -7.822 -14.034  1.00  0.00     0.188 C 
ATOM     21  C   UNL     1      17.275  -8.770 -13.439  1.00  0.00     0.179 C 
ATOM     22  O   UNL     1      16.689  -7.156 -15.184  1.00  0.00    -0.362 OA
ATOM     23  C   UNL     1      18.711  -8.265 -13.753  1.00  0.00     0.177 C 
ATOM     24  C   UNL     1      17.643  -6.166 -14.820  1.00  0.00     0.176 C 
ATOM     25  C   UNL     1      18.772  -6.725 -13.886  1.00  0.00     0.177 C 
BRANCH  21  26
ATOM     26  O   UNL     1      17.105 -10.093 -13.887  1.00  0.00    -0.387 OA
ATOM     27  H   UNL     1      17.181 -10.068 -14.879  1.00  0.00     0.211 HD
ENDBRANCH  21  26
BRANCH  23  28
ATOM     28  O   UNL     1      19.249  -8.890 -14.895  1.00  0.00    -0.387 OA
ATOM     29  H   UNL     1      19.525  -8.186 -15.534  1.00  0.00     0.211 HD
ENDBRANCH  23  28
BRANCH  24  30
ATOM     30  C   UNL     1      18.221  -5.558 -16.107  1.00  0.00     0.191 C 
BRANCH  30  31
ATOM     31  O   UNL     1      18.957  -6.520 -16.817  1.00  0.00    -0.394 OA
ATOM     32  H   UNL     1      19.917  -6.289 -16.715  1.00  0.00     0.210 HD
ENDBRANCH  30  31
ENDBRANCH  24  30
BRANCH  25  33
ATOM     33  O   UNL     1      18.648  -6.161 -12.605  1.00  0.00    -0.388 OA
ATOM     34  H   UNL     1      17.835  -6.558 -12.194  1.00  0.00     0.211 HD
ENDBRANCH  25  33
ENDBRANCH  11  20
BRANCH  10  35
ATOM     35  O   UNL     1      15.710  -9.547 -16.448  1.00  0.00    -0.507 OA
ATOM     36  H   UNL     1      15.693  -9.210 -17.398  1.00  0.00     0.293 HD
ENDBRANCH  10  35
TORSDOF 9
ENDMDL
MODEL 9
REMARK VINA RESULT:    -6.473      1.450      2.557
REMARK INTER + INTRA:          -8.881
REMARK INTER:                  -7.683
REMARK INTRA:                  -1.198
REMARK UNBOUND:                -0.138
REMARK SMILES O=c1c(-c2ccc(O)cc2)coc2c([C@@H]3O[C@H](CO)[C@@H](O)[C@H](O)[C@@H]3O)c(O)ccc12
REMARK SMILES IDX 3 1 11 2 12 3 13 4 30 5 2 6 1 7 29 8 28 9 26 10 14 11 4 12
REMARK SMILES IDX 5 13 6 14 7 15 10 16 9 17 8 18 15 20 24 21 16 22 22 23 17 24
REMARK SMILES IDX 20 25 25 26 23 28 18 30 19 31 21 33 27 35
REMARK H PARENT 8 19 25 27 23 29 19 32 21 34 27 36
REMARK Flexibility Score: inf
ROOT
ATOM      1  C   UNL     1      14.545  -5.222 -11.839  1.00  0.00     0.065 A 
ATOM      2  C   UNL     1      13.450  -4.839 -11.051  1.00  0.00     0.208 A 
ATOM      3  O   UNL     1      12.500  -5.710 -10.733  1.00  0.00    -0.463 OA
ATOM      4  C   UNL     1      12.516  -6.985 -11.120  1.00  0.00     0.147 A 
ATOM      5  C   UNL     1      13.586  -7.455 -11.917  1.00  0.00     0.066 A 
ATOM      6  C   UNL     1      14.606  -6.556 -12.282  1.00  0.00     0.200 A 
ATOM      7  O   UNL     1      15.562  -6.940 -13.010  1.00  0.00    -0.288 OA
ATOM      8  C   UNL     1      13.604  -8.793 -12.334  1.00  0.00     0.020 A 
ATOM      9  C   UNL     1      12.567  -9.650 -11.981  1.00  0.00     0.047 A 
ATOM     10  C   UNL     1      11.495  -9.202 -11.202  1.00  0.00     0.125 A 
ATOM     11  C   UNL     1      11.468  -7.858 -10.731  1.00  0.00     0.069 A 
ENDROOT
BRANCH   1  12
ATOM     12  C   UNL     1      15.596  -4.225 -12.177  1.00  0.00    -0.011 A 
ATOM     13  C   UNL     1      16.702  -4.030 -11.330  1.00  0.00     0.013 A 
ATOM     14  C   UNL     1      17.667  -3.065 -11.638  1.00  0.00     0.047 A 
ATOM     15  C   UNL     1      17.545  -2.289 -12.798  1.00  0.00     0.115 A 
ATOM     16  C   UNL     1      15.480  -3.440 -13.339  1.00  0.00     0.013 A 
ATOM     17  C   UNL     1      16.453  -2.486 -13.649  1.00  0.00     0.047 A 
BRANCH  15  18
ATOM     18  O   UNL     1      18.501  -1.327 -13.116  1.00  0.00    -0.508 OA
ATOM     19  H   UNL     1      19.480  -1.565 -13.215  1.00  0.00     0.293 HD
ENDBRANCH  15  18
ENDBRANCH   1  12
BRANCH  11  20
ATOM     20  C   UNL     1      10.338  -7.327  -9.843  1.00  0.00     0.188 C 
ATOM     21  C   UNL     1       9.075  -6.913 -10.648  1.00  0.00     0.179 C 
ATOM     22  O   UNL     1      10.009  -8.267  -8.836  1.00  0.00    -0.362 OA
ATOM     23  C   UNL     1       7.788  -7.030  -9.783  1.00  0.00     0.177 C 
ATOM     24  C   UNL     1       9.299  -7.638  -7.776  1.00  0.00     0.176 C 
ATOM     25  C   UNL     1       8.072  -6.803  -8.280  1.00  0.00     0.177 C 
BRANCH  21  26
ATOM     26  O   UNL     1       8.947  -7.660 -11.832  1.00  0.00    -0.387 OA
ATOM     27  H   UNL     1       9.713  -8.295 -11.851  1.00  0.00     0.211 HD
ENDBRANCH  21  26
BRANCH  23  28
ATOM     28  O   UNL     1       7.127  -8.256  -9.990  1.00  0.00    -0.387 OA
ATOM     29  H   UNL     1       7.097  -8.431 -10.965  1.00  0.00     0.211 HD
ENDBRANCH  23  28
BRANCH  24  30
ATOM     30  C   UNL     1       8.875  -8.721  -6.772  1.00  0.00     0.191 C 
BRANCH  30  31
ATOM     31  O   UNL     1       8.373  -9.846  -7.445  1.00  0.00    -0.394 OA
ATOM     32  H   UNL     1       7.534 -10.113  -6.986  1.00  0.00     0.210 HD
ENDBRANCH  30  31
ENDBRANCH  24  30
BRANCH  25  33
ATOM     33  O   UNL     1       8.315  -5.433  -8.073  1.00  0.00    -0.388 OA
ATOM     34  H   UNL     1       9.183  -5.366  -7.593  1.00  0.00     0.211 HD
ENDBRANCH  25  33
ENDBRANCH  11  20
BRANCH  10  35
ATOM     35  O   UNL     1      10.481 -10.124 -10.938  1.00  0.00    -0.507 OA
ATOM     36  H   UNL     1       9.971 -10.624 -11.649  1.00  0.00     0.293 HD
ENDBRANCH  10  35
TORSDOF 9
ENDMDL
