MODEL 1
REMARK VINA RESULT:    -1.486      0.000      0.000
REMARK INTER + INTRA:          -3.363
REMARK INTER:                  -3.745
REMARK INTRA:                   0.382
REMARK UNBOUND:                 0.382
REMARK SMILES CCCCCCCCCCCCCCCCCCCCCCCCCCCC(=O)[O-]
REMARK SMILES IDX 15 1 16 2 17 3 18 4 19 5 20 6 21 7 22 8 23 9 24 10 25 11
REMARK SMILES IDX 26 12 27 13 28 14 29 15 30 16 14 17 13 18 12 19 11 20 10 21
REMARK SMILES IDX 9 22 8 23 7 24 6 25 5 26 4 27 3 28 2 29 1 30
REMARK H PARENT
REMARK Flexibility Score: inf
ROOT
ATOM      1  C   UNL     1      57.450   0.467  23.971  1.00  0.00     0.000 C 
ENDROOT
BRANCH   1   2
ATOM      2  C   UNL     1      57.731   1.452  22.825  1.00  0.00     0.000 C 
BRANCH   2   3
ATOM      3  C   UNL     1      56.627   1.390  21.758  1.00  0.00     0.000 C 
BRANCH   3   4
ATOM      4  C   UNL     1      55.868   0.048  21.749  1.00  0.00     0.000 C 
BRANCH   4   5
ATOM      5  C   UNL     1      56.625  -1.142  22.375  1.00  0.00     0.000 C 
BRANCH   5   6
ATOM      6  C   UNL     1      58.022  -1.359  21.768  1.00  0.00     0.000 C 
BRANCH   6   7
ATOM      7  C   UNL     1      58.885  -2.320  22.602  1.00  0.00     0.000 C 
BRANCH   7   8
ATOM      8  C   UNL     1      58.305  -2.551  24.011  1.00  0.00     0.000 C 
BRANCH   8   9
ATOM      9  C   UNL     1      59.195  -1.968  25.120  1.00  0.00     0.000 C 
BRANCH   9  10
ATOM     10  C   UNL     1      60.685  -1.983  24.752  1.00  0.00     0.000 C 
BRANCH  10  11
ATOM     11  C   UNL     1      61.334  -0.623  25.031  1.00  0.00     0.000 C 
BRANCH  11  12
ATOM     12  C   UNL     1      62.666  -0.483  24.280  1.00  0.00     0.006 C 
BRANCH  12  13
ATOM     13  C   UNL     1      63.739   0.215  25.125  1.00  0.00     0.053 C 
BRANCH  13  14
ATOM     14  C   UNL     1      63.762   1.695  24.885  1.00  0.00     0.041 C 
ATOM     15  O   UNL     1      62.723   2.384  25.065  1.00  0.00    -0.550 OA
ATOM     16  O   UNL     1      64.940   2.318  24.489  1.00  0.00    -0.550 OA
ENDBRANCH  13  14
ENDBRANCH  12  13
ENDBRANCH  11  12
ENDBRANCH  10  11
ENDBRANCH   9  10
ENDBRANCH   8   9
ENDBRANCH   7   8
ENDBRANCH   6   7
ENDBRANCH   5   6
ENDBRANCH   4   5
ENDBRANCH   3   4
ENDBRANCH   2   3
ENDBRANCH   1   2
BRANCH   1  17
ATOM     17  C   UNL     1      56.559   1.083  25.071  1.00  0.00     0.000 C 
BRANCH  17  18
ATOM     18  C   UNL     1      55.067   0.724  24.935  1.00  0.00     0.000 C 
BRANCH  18  19
ATOM     19  C   UNL     1      54.141   1.946  25.060  1.00  0.00     0.000 C 
BRANCH  19  20
ATOM     20  C   UNL     1      53.885   2.669  23.723  1.00  0.00     0.000 C 
BRANCH  20  21
ATOM     21  C   UNL     1      52.416   3.080  23.494  1.00  0.00     0.000 C 
BRANCH  21  22
ATOM     22  C   UNL     1      51.448   2.450  24.507  1.00  0.00    -0.000 C 
BRANCH  22  23
ATOM     23  C   UNL     1      50.608   1.348  23.849  1.00  0.00    -0.000 C 
BRANCH  23  24
ATOM     24  C   UNL     1      50.730   0.027  24.623  1.00  0.00    -0.000 C 
BRANCH  24  25
ATOM     25  C   UNL     1      50.010  -1.135  23.919  1.00  0.00    -0.000 C 
BRANCH  25  26
ATOM     26  C   UNL     1      50.880  -1.799  22.841  1.00  0.00    -0.000 C 
BRANCH  26  27
ATOM     27  C   UNL     1      50.523  -1.264  21.446  1.00  0.00    -0.000 C 
BRANCH  27  28
ATOM     28  C   UNL     1      51.759  -0.830  20.643  1.00  0.00    -0.000 C 
BRANCH  28  29
ATOM     29  C   UNL     1      51.470   0.358  19.715  1.00  0.00    -0.003 C 
ATOM     30  C   UNL     1      51.578   1.682  20.465  1.00  0.00     0.004 C 
ENDBRANCH  28  29
ENDBRANCH  27  28
ENDBRANCH  26  27
ENDBRANCH  25  26
ENDBRANCH  24  25
ENDBRANCH  23  24
ENDBRANCH  22  23
ENDBRANCH  21  22
ENDBRANCH  20  21
ENDBRANCH  19  20
ENDBRANCH  18  19
ENDBRANCH  17  18
ENDBRANCH   1  17
TORSDOF 26
ENDMDL
MODEL 2
REMARK VINA RESULT:     0.146      3.353     10.813
REMARK INTER + INTRA:           0.751
REMARK INTER:                   1.770
REMARK INTRA:                  -1.019
REMARK UNBOUND:                 0.382
REMARK SMILES CCCCCCCCCCCCCCCCCCCCCCCCCCCC(=O)[O-]
REMARK SMILES IDX 15 1 16 2 17 3 18 4 19 5 20 6 21 7 22 8 23 9 24 10 25 11
REMARK SMILES IDX 26 12 27 13 28 14 29 15 30 16 14 17 13 18 12 19 11 20 10 21
REMARK SMILES IDX 9 22 8 23 7 24 6 25 5 26 4 27 3 28 2 29 1 30
REMARK H PARENT
REMARK Flexibility Score: inf
ROOT
ATOM      1  C   UNL     1      56.934   0.080  20.381  1.00  0.00     0.000 C 
ENDROOT
BRANCH   1   2
ATOM      2  C   UNL     1      57.083   0.912  21.664  1.00  0.00     0.000 C 
BRANCH   2   3
ATOM      3  C   UNL     1      55.714   1.378  22.185  1.00  0.00     0.000 C 
BRANCH   3   4
ATOM      4  C   UNL     1      55.428   0.918  23.629  1.00  0.00     0.000 C 
BRANCH   4   5
ATOM      5  C   UNL     1      55.048   2.042  24.616  1.00  0.00     0.000 C 
BRANCH   5   6
ATOM      6  C   UNL     1      53.592   1.952  25.105  1.00  0.00     0.000 C 
BRANCH   6   7
ATOM      7  C   UNL     1      52.577   2.057  23.955  1.00  0.00     0.000 C 
BRANCH   7   8
ATOM      8  C   UNL     1      51.362   2.930  24.326  1.00  0.00     0.000 C 
BRANCH   8   9
ATOM      9  C   UNL     1      50.231   2.842  23.289  1.00  0.00     0.000 C 
BRANCH   9  10
ATOM     10  C   UNL     1      50.250   1.523  22.506  1.00  0.00     0.000 C 
BRANCH  10  11
ATOM     11  C   UNL     1      50.708   1.749  21.061  1.00  0.00     0.000 C 
BRANCH  11  12
ATOM     12  C   UNL     1      50.246   0.601  20.150  1.00  0.00     0.006 C 
BRANCH  12  13
ATOM     13  C   UNL     1      51.419  -0.254  19.652  1.00  0.00     0.053 C 
BRANCH  13  14
ATOM     14  C   UNL     1      52.381  -0.577  20.755  1.00  0.00     0.041 C 
ATOM     15  O   UNL     1      53.353   0.189  20.994  1.00  0.00    -0.550 OA
ATOM     16  O   UNL     1      52.190  -1.710  21.537  1.00  0.00    -0.550 OA
ENDBRANCH  13  14
ENDBRANCH  12  13
ENDBRANCH  11  12
ENDBRANCH  10  11
ENDBRANCH   9  10
ENDBRANCH   8   9
ENDBRANCH   7   8
ENDBRANCH   6   7
ENDBRANCH   5   6
ENDBRANCH   4   5
ENDBRANCH   3   4
ENDBRANCH   2   3
ENDBRANCH   1   2
BRANCH   1  17
ATOM     17  C   UNL     1      56.567  -1.391  20.674  1.00  0.00     0.000 C 
BRANCH  17  18
ATOM     18  C   UNL     1      57.772  -2.263  21.079  1.00  0.00     0.000 C 
BRANCH  18  19
ATOM     19  C   UNL     1      57.745  -2.672  22.561  1.00  0.00     0.000 C 
BRANCH  19  20
ATOM     20  C   UNL     1      58.444  -1.666  23.496  1.00  0.00     0.000 C 
BRANCH  20  21
ATOM     21  C   UNL     1      59.788  -2.159  24.070  1.00  0.00     0.000 C 
BRANCH  21  22
ATOM     22  C   UNL     1      60.948  -1.185  23.813  1.00  0.00    -0.000 C 
BRANCH  22  23
ATOM     23  C   UNL     1      61.762  -0.954  25.093  1.00  0.00    -0.000 C 
BRANCH  23  24
ATOM     24  C   UNL     1      62.423   0.432  25.082  1.00  0.00    -0.000 C 
BRANCH  24  25
ATOM     25  C   UNL     1      63.958   0.350  25.066  1.00  0.00    -0.000 C 
BRANCH  25  26
ATOM     26  C   UNL     1      64.621   1.734  25.004  1.00  0.00    -0.000 C 
BRANCH  26  27
ATOM     27  C   UNL     1      65.947   1.671  24.232  1.00  0.00    -0.000 C 
BRANCH  27  28
ATOM     28  C   UNL     1      67.120   1.201  25.105  1.00  0.00    -0.000 C 
BRANCH  28  29
ATOM     29  C   UNL     1      67.418  -0.296  24.935  1.00  0.00    -0.003 C 
ATOM     30  C   UNL     1      68.910  -0.580  25.076  1.00  0.00     0.004 C 
ENDBRANCH  28  29
ENDBRANCH  27  28
ENDBRANCH  26  27
ENDBRANCH  25  26
ENDBRANCH  24  25
ENDBRANCH  23  24
ENDBRANCH  22  23
ENDBRANCH  21  22
ENDBRANCH  20  21
ENDBRANCH  19  20
ENDBRANCH  18  19
ENDBRANCH  17  18
ENDBRANCH   1  17
TORSDOF 26
ENDMDL
MODEL 3
REMARK VINA RESULT:     0.398      3.989      7.585
REMARK INTER + INTRA:           1.385
REMARK INTER:                   2.816
REMARK INTRA:                  -1.431
REMARK UNBOUND:                 0.382
REMARK SMILES CCCCCCCCCCCCCCCCCCCCCCCCCCCC(=O)[O-]
REMARK SMILES IDX 15 1 16 2 17 3 18 4 19 5 20 6 21 7 22 8 23 9 24 10 25 11
REMARK SMILES IDX 26 12 27 13 28 14 29 15 30 16 14 17 13 18 12 19 11 20 10 21
REMARK SMILES IDX 9 22 8 23 7 24 6 25 5 26 4 27 3 28 2 29 1 30
REMARK H PARENT
REMARK Flexibility Score: inf
ROOT
ATOM      1  C   UNL     1      58.057  -1.856  24.053  1.00  0.00     0.000 C 
ENDROOT
BRANCH   1   2
ATOM      2  C   UNL     1      59.053  -1.274  25.068  1.00  0.00     0.000 C 
BRANCH   2   3
ATOM      3  C   UNL     1      59.144   0.256  24.942  1.00  0.00     0.000 C 
BRANCH   3   4
ATOM      4  C   UNL     1      57.785   0.960  25.125  1.00  0.00     0.000 C 
BRANCH   4   5
ATOM      5  C   UNL     1      56.836   0.889  23.910  1.00  0.00     0.000 C 
BRANCH   5   6
ATOM      6  C   UNL     1      55.719   1.947  23.950  1.00  0.00     0.000 C 
BRANCH   6   7
ATOM      7  C   UNL     1      54.370   1.361  24.397  1.00  0.00     0.000 C 
BRANCH   7   8
ATOM      8  C   UNL     1      53.409   2.445  24.925  1.00  0.00     0.000 C 
BRANCH   8   9
ATOM      9  C   UNL     1      51.937   2.133  24.612  1.00  0.00     0.000 C 
BRANCH   9  10
ATOM     10  C   UNL     1      51.467   2.762  23.293  1.00  0.00     0.000 C 
BRANCH  10  11
ATOM     11  C   UNL     1      52.660   3.119  22.399  1.00  0.00     0.000 C 
BRANCH  11  12
ATOM     12  C   UNL     1      52.427   2.649  20.956  1.00  0.00     0.006 C 
BRANCH  12  13
ATOM     13  C   UNL     1      50.949   2.344  20.675  1.00  0.00     0.053 C 
BRANCH  13  14
ATOM     14  C   UNL     1      50.784   1.399  19.523  1.00  0.00     0.041 C 
ATOM     15  O   UNL     1      51.416   0.309  19.500  1.00  0.00    -0.550 OA
ATOM     16  O   UNL     1      49.910   1.709  18.488  1.00  0.00    -0.550 OA
ENDBRANCH  13  14
ENDBRANCH  12  13
ENDBRANCH  11  12
ENDBRANCH  10  11
ENDBRANCH   9  10
ENDBRANCH   8   9
ENDBRANCH   7   8
ENDBRANCH   6   7
ENDBRANCH   5   6
ENDBRANCH   4   5
ENDBRANCH   3   4
ENDBRANCH   2   3
ENDBRANCH   1   2
BRANCH   1  17
ATOM     17  C   UNL     1      58.752  -2.362  22.770  1.00  0.00     0.000 C 
BRANCH  17  18
ATOM     18  C   UNL     1      58.064  -1.904  21.469  1.00  0.00     0.000 C 
BRANCH  18  19
ATOM     19  C   UNL     1      57.540  -0.461  21.543  1.00  0.00     0.000 C 
BRANCH  19  20
ATOM     20  C   UNL     1      56.334  -0.190  20.623  1.00  0.00     0.000 C 
BRANCH  20  21
ATOM     21  C   UNL     1      55.213  -1.245  20.716  1.00  0.00     0.000 C 
BRANCH  21  22
ATOM     22  C   UNL     1      54.529  -1.279  22.091  1.00  0.00    -0.000 C 
BRANCH  22  23
ATOM     23  C   UNL     1      53.258  -0.418  22.090  1.00  0.00    -0.000 C 
BRANCH  23  24
ATOM     24  C   UNL     1      52.092  -1.158  22.760  1.00  0.00    -0.000 C 
BRANCH  24  25
ATOM     25  C   UNL     1      50.958  -1.482  21.773  1.00  0.00    -0.000 C 
BRANCH  25  26
ATOM     26  C   UNL     1      49.887  -2.395  22.387  1.00  0.00    -0.000 C 
BRANCH  26  27
ATOM     27  C   UNL     1      50.109  -2.557  23.899  1.00  0.00    -0.000 C 
BRANCH  27  28
ATOM     28  C   UNL     1      50.867  -3.846  24.251  1.00  0.00    -0.000 C 
BRANCH  28  29
ATOM     29  C   UNL     1      49.932  -5.053  24.414  1.00  0.00    -0.003 C 
ATOM     30  C   UNL     1      49.888  -5.891  23.140  1.00  0.00     0.004 C 
ENDBRANCH  28  29
ENDBRANCH  27  28
ENDBRANCH  26  27
ENDBRANCH  25  26
ENDBRANCH  24  25
ENDBRANCH  23  24
ENDBRANCH  22  23
ENDBRANCH  21  22
ENDBRANCH  20  21
ENDBRANCH  19  20
ENDBRANCH  18  19
ENDBRANCH  17  18
ENDBRANCH   1  17
TORSDOF 26
ENDMDL
MODEL 4
REMARK VINA RESULT:     0.921      4.029      9.870
REMARK INTER + INTRA:           2.703
REMARK INTER:                   4.344
REMARK INTRA:                  -1.640
REMARK UNBOUND:                 0.382
REMARK SMILES CCCCCCCCCCCCCCCCCCCCCCCCCCCC(=O)[O-]
REMARK SMILES IDX 15 1 16 2 17 3 18 4 19 5 20 6 21 7 22 8 23 9 24 10 25 11
REMARK SMILES IDX 26 12 27 13 28 14 29 15 30 16 14 17 13 18 12 19 11 20 10 21
REMARK SMILES IDX 9 22 8 23 7 24 6 25 5 26 4 27 3 28 2 29 1 30
REMARK H PARENT
REMARK Flexibility Score: inf
ROOT
ATOM      1  C   UNL     1      56.797   1.121  21.017  1.00  0.00     0.000 C 
ENDROOT
BRANCH   1   2
ATOM      2  C   UNL     1      57.439   1.459  22.371  1.00  0.00     0.000 C 
BRANCH   2   3
ATOM      3  C   UNL     1      57.007   2.851  22.858  1.00  0.00     0.000 C 
BRANCH   3   4
ATOM      4  C   UNL     1      56.908   2.952  24.393  1.00  0.00     0.000 C 
BRANCH   4   5
ATOM      5  C   UNL     1      55.474   3.016  24.959  1.00  0.00     0.000 C 
BRANCH   5   6
ATOM      6  C   UNL     1      54.439   2.302  24.070  1.00  0.00     0.000 C 
BRANCH   6   7
ATOM      7  C   UNL     1      53.067   2.995  24.092  1.00  0.00     0.000 C 
BRANCH   7   8
ATOM      8  C   UNL     1      51.913   1.998  24.322  1.00  0.00     0.000 C 
BRANCH   8   9
ATOM      9  C   UNL     1      51.505   1.260  23.037  1.00  0.00     0.000 C 
BRANCH   9  10
ATOM     10  C   UNL     1      50.144   1.721  22.498  1.00  0.00     0.000 C 
BRANCH  10  11
ATOM     11  C   UNL     1      50.278   2.290  21.081  1.00  0.00     0.000 C 
BRANCH  11  12
ATOM     12  C   UNL     1      50.987   1.293  20.153  1.00  0.00     0.006 C 
BRANCH  12  13
ATOM     13  C   UNL     1      50.009   0.300  19.510  1.00  0.00     0.053 C 
BRANCH  13  14
ATOM     14  C   UNL     1      50.081  -1.051  20.155  1.00  0.00     0.041 C 
ATOM     15  O   UNL     1      50.059  -2.094  19.449  1.00  0.00    -0.550 OA
ATOM     16  O   UNL     1      50.199  -1.157  21.536  1.00  0.00    -0.550 OA
ENDBRANCH  13  14
ENDBRANCH  12  13
ENDBRANCH  11  12
ENDBRANCH  10  11
ENDBRANCH   9  10
ENDBRANCH   8   9
ENDBRANCH   7   8
ENDBRANCH   6   7
ENDBRANCH   5   6
ENDBRANCH   4   5
ENDBRANCH   3   4
ENDBRANCH   2   3
ENDBRANCH   1   2
BRANCH   1  17
ATOM     17  C   UNL     1      56.202  -0.303  20.986  1.00  0.00     0.000 C 
BRANCH  17  18
ATOM     18  C   UNL     1      54.999  -0.495  21.930  1.00  0.00     0.000 C 
BRANCH  18  19
ATOM     19  C   UNL     1      55.142  -1.723  22.844  1.00  0.00     0.000 C 
BRANCH  19  20
ATOM     20  C   UNL     1      55.640  -1.386  24.263  1.00  0.00     0.000 C 
BRANCH  20  21
ATOM     21  C   UNL     1      56.872  -0.460  24.302  1.00  0.00     0.000 C 
BRANCH  21  22
ATOM     22  C   UNL     1      58.039  -1.041  25.116  1.00  0.00    -0.000 C 
BRANCH  22  23
ATOM     23  C   UNL     1      59.247  -0.095  25.090  1.00  0.00    -0.000 C 
BRANCH  23  24
ATOM     24  C   UNL     1      60.349  -0.636  24.168  1.00  0.00    -0.000 C 
BRANCH  24  25
ATOM     25  C   UNL     1      60.934  -1.966  24.668  1.00  0.00    -0.000 C 
BRANCH  25  26
ATOM     26  C   UNL     1      62.470  -1.964  24.687  1.00  0.00    -0.000 C 
BRANCH  26  27
ATOM     27  C   UNL     1      63.020  -0.615  24.199  1.00  0.00    -0.000 C 
BRANCH  27  28
ATOM     28  C   UNL     1      64.106  -0.048  25.125  1.00  0.00    -0.000 C 
BRANCH  28  29
ATOM     29  C   UNL     1      64.930   1.061  24.456  1.00  0.00    -0.003 C 
ATOM     30  C   UNL     1      64.479   2.441  24.925  1.00  0.00     0.004 C 
ENDBRANCH  28  29
ENDBRANCH  27  28
ENDBRANCH  26  27
ENDBRANCH  25  26
ENDBRANCH  24  25
ENDBRANCH  23  24
ENDBRANCH  22  23
ENDBRANCH  21  22
ENDBRANCH  20  21
ENDBRANCH  19  20
ENDBRANCH  18  19
ENDBRANCH  17  18
ENDBRANCH   1  17
TORSDOF 26
ENDMDL
MODEL 5
REMARK VINA RESULT:     1.094      3.954      7.270
REMARK INTER + INTRA:           3.138
REMARK INTER:                   2.626
REMARK INTRA:                   0.513
REMARK UNBOUND:                 0.382
REMARK SMILES CCCCCCCCCCCCCCCCCCCCCCCCCCCC(=O)[O-]
REMARK SMILES IDX 15 1 16 2 17 3 18 4 19 5 20 6 21 7 22 8 23 9 24 10 25 11
REMARK SMILES IDX 26 12 27 13 28 14 29 15 30 16 14 17 13 18 12 19 11 20 10 21
REMARK SMILES IDX 9 22 8 23 7 24 6 25 5 26 4 27 3 28 2 29 1 30
REMARK H PARENT
REMARK Flexibility Score: inf
ROOT
ATOM      1  C   UNL     1      58.541  -1.746  23.134  1.00  0.00     0.000 C 
ENDROOT
BRANCH   1   2
ATOM      2  C   UNL     1      59.020  -1.309  24.527  1.00  0.00     0.000 C 
BRANCH   2   3
ATOM      3  C   UNL     1      58.162  -0.156  25.071  1.00  0.00     0.000 C 
BRANCH   3   4
ATOM      4  C   UNL     1      58.787   1.232  24.826  1.00  0.00     0.000 C 
BRANCH   4   5
ATOM      5  C   UNL     1      58.218   2.007  23.618  1.00  0.00     0.000 C 
BRANCH   5   6
ATOM      6  C   UNL     1      57.121   3.014  24.007  1.00  0.00     0.000 C 
BRANCH   6   7
ATOM      7  C   UNL     1      56.141   2.446  25.045  1.00  0.00     0.000 C 
BRANCH   7   8
ATOM      8  C   UNL     1      55.131   1.463  24.420  1.00  0.00     0.000 C 
BRANCH   8   9
ATOM      9  C   UNL     1      53.737   1.561  25.059  1.00  0.00     0.000 C 
BRANCH   9  10
ATOM     10  C   UNL     1      52.812   2.534  24.315  1.00  0.00     0.000 C 
BRANCH  10  11
ATOM     11  C   UNL     1      51.469   2.677  25.039  1.00  0.00     0.000 C 
BRANCH  11  12
ATOM     12  C   UNL     1      50.356   3.084  24.061  1.00  0.00     0.006 C 
BRANCH  12  13
ATOM     13  C   UNL     1      49.876   1.905  23.205  1.00  0.00     0.053 C 
BRANCH  13  14
ATOM     14  C   UNL     1      50.223   2.089  21.758  1.00  0.00     0.041 C 
ATOM     15  O   UNL     1      50.838   3.122  21.379  1.00  0.00    -0.550 OA
ATOM     16  O   UNL     1      49.892   1.107  20.832  1.00  0.00    -0.550 OA
ENDBRANCH  13  14
ENDBRANCH  12  13
ENDBRANCH  11  12
ENDBRANCH  10  11
ENDBRANCH   9  10
ENDBRANCH   8   9
ENDBRANCH   7   8
ENDBRANCH   6   7
ENDBRANCH   5   6
ENDBRANCH   4   5
ENDBRANCH   3   4
ENDBRANCH   2   3
ENDBRANCH   1   2
BRANCH   1  17
ATOM     17  C   UNL     1      57.178  -1.126  22.759  1.00  0.00     0.000 C 
BRANCH  17  18
ATOM     18  C   UNL     1      56.069  -2.167  22.510  1.00  0.00     0.000 C 
BRANCH  18  19
ATOM     19  C   UNL     1      54.687  -1.532  22.291  1.00  0.00     0.000 C 
BRANCH  19  20
ATOM     20  C   UNL     1      54.734  -0.011  22.044  1.00  0.00     0.000 C 
BRANCH  20  21
ATOM     21  C   UNL     1      53.688   0.502  21.034  1.00  0.00     0.000 C 
BRANCH  21  22
ATOM     22  C   UNL     1      52.416  -0.358  20.991  1.00  0.00    -0.000 C 
BRANCH  22  23
ATOM     23  C   UNL     1      51.566  -0.017  19.760  1.00  0.00    -0.000 C 
BRANCH  23  24
ATOM     24  C   UNL     1      51.393  -1.243  18.854  1.00  0.00    -0.000 C 
BRANCH  24  25
ATOM     25  C   UNL     1      50.118  -2.039  19.179  1.00  0.00    -0.000 C 
BRANCH  25  26
ATOM     26  C   UNL     1      50.283  -2.935  20.416  1.00  0.00    -0.000 C 
BRANCH  26  27
ATOM     27  C   UNL     1      49.875  -2.184  21.692  1.00  0.00    -0.000 C 
BRANCH  27  28
ATOM     28  C   UNL     1      50.937  -2.275  22.799  1.00  0.00    -0.000 C 
BRANCH  28  29
ATOM     29  C   UNL     1      50.319  -2.393  24.199  1.00  0.00    -0.003 C 
ATOM     30  C   UNL     1      50.105  -1.018  24.826  1.00  0.00     0.004 C 
ENDBRANCH  28  29
ENDBRANCH  27  28
ENDBRANCH  26  27
ENDBRANCH  25  26
ENDBRANCH  24  25
ENDBRANCH  23  24
ENDBRANCH  22  23
ENDBRANCH  21  22
ENDBRANCH  20  21
ENDBRANCH  19  20
ENDBRANCH  18  19
ENDBRANCH  17  18
ENDBRANCH   1  17
TORSDOF 26
ENDMDL
MODEL 6
REMARK VINA RESULT:     1.117      1.257      2.901
REMARK INTER + INTRA:           3.196
REMARK INTER:                   5.197
REMARK INTRA:                  -2.001
REMARK UNBOUND:                 0.382
REMARK SMILES CCCCCCCCCCCCCCCCCCCCCCCCCCCC(=O)[O-]
REMARK SMILES IDX 15 1 16 2 17 3 18 4 19 5 20 6 21 7 22 8 23 9 24 10 25 11
REMARK SMILES IDX 26 12 27 13 28 14 29 15 30 16 14 17 13 18 12 19 11 20 10 21
REMARK SMILES IDX 9 22 8 23 7 24 6 25 5 26 4 27 3 28 2 29 1 30
REMARK H PARENT
REMARK Flexibility Score: inf
ROOT
ATOM      1  C   UNL     1      55.508   3.086  22.233  1.00  0.00     0.000 C 
ENDROOT
BRANCH   1   2
ATOM      2  C   UNL     1      56.626   2.123  22.659  1.00  0.00     0.000 C 
BRANCH   2   3
ATOM      3  C   UNL     1      56.270   0.669  22.308  1.00  0.00     0.000 C 
BRANCH   3   4
ATOM      4  C   UNL     1      57.427  -0.316  22.565  1.00  0.00     0.000 C 
BRANCH   4   5
ATOM      5  C   UNL     1      57.687  -1.337  21.437  1.00  0.00     0.000 C 
BRANCH   5   6
ATOM      6  C   UNL     1      58.517  -2.549  21.895  1.00  0.00     0.000 C 
BRANCH   6   7
ATOM      7  C   UNL     1      58.022  -3.132  23.229  1.00  0.00     0.000 C 
BRANCH   7   8
ATOM      8  C   UNL     1      58.289  -2.185  24.415  1.00  0.00     0.000 C 
BRANCH   8   9
ATOM      9  C   UNL     1      59.618  -2.486  25.124  1.00  0.00     0.000 C 
BRANCH   9  10
ATOM     10  C   UNL     1      60.713  -1.464  24.788  1.00  0.00     0.000 C 
BRANCH  10  11
ATOM     11  C   UNL     1      60.153  -0.037  24.796  1.00  0.00     0.000 C 
BRANCH  11  12
ATOM     12  C   UNL     1      61.279   0.995  24.951  1.00  0.00     0.006 C 
BRANCH  12  13
ATOM     13  C   UNL     1      62.671   0.364  24.810  1.00  0.00     0.053 C 
BRANCH  13  14
ATOM     14  C   UNL     1      63.763   1.379  24.968  1.00  0.00     0.041 C 
ATOM     15  O   UNL     1      63.480   2.597  25.123  1.00  0.00    -0.550 OA
ATOM     16  O   UNL     1      65.093   0.976  24.971  1.00  0.00    -0.550 OA
ENDBRANCH  13  14
ENDBRANCH  12  13
ENDBRANCH  11  12
ENDBRANCH  10  11
ENDBRANCH   9  10
ENDBRANCH   8   9
ENDBRANCH   7   8
ENDBRANCH   6   7
ENDBRANCH   5   6
ENDBRANCH   4   5
ENDBRANCH   3   4
ENDBRANCH   2   3
ENDBRANCH   1   2
BRANCH   1  17
ATOM     17  C   UNL     1      54.251   2.959  23.121  1.00  0.00     0.000 C 
BRANCH  17  18
ATOM     18  C   UNL     1      53.074   2.242  22.432  1.00  0.00     0.000 C 
BRANCH  18  19
ATOM     19  C   UNL     1      52.542   3.001  21.206  1.00  0.00     0.000 C 
BRANCH  19  20
ATOM     20  C   UNL     1      51.019   2.870  21.007  1.00  0.00     0.000 C 
BRANCH  20  21
ATOM     21  C   UNL     1      50.608   2.158  19.703  1.00  0.00     0.000 C 
BRANCH  21  22
ATOM     22  C   UNL     1      51.075   0.696  19.640  1.00  0.00    -0.000 C 
BRANCH  22  23
ATOM     23  C   UNL     1      49.880  -0.255  19.496  1.00  0.00    -0.000 C 
BRANCH  23  24
ATOM     24  C   UNL     1      49.995  -1.436  20.470  1.00  0.00    -0.000 C 
BRANCH  24  25
ATOM     25  C   UNL     1      51.440  -1.669  20.941  1.00  0.00    -0.000 C 
BRANCH  25  26
ATOM     26  C   UNL     1      51.575  -1.620  22.471  1.00  0.00    -0.000 C 
BRANCH  26  27
ATOM     27  C   UNL     1      50.212  -1.831  23.147  1.00  0.00    -0.000 C 
BRANCH  27  28
ATOM     28  C   UNL     1      49.875  -0.725  24.159  1.00  0.00    -0.000 C 
BRANCH  28  29
ATOM     29  C   UNL     1      50.389   0.653  23.718  1.00  0.00    -0.003 C 
ATOM     30  C   UNL     1      50.275   1.671  24.848  1.00  0.00     0.004 C 
ENDBRANCH  28  29
ENDBRANCH  27  28
ENDBRANCH  26  27
ENDBRANCH  25  26
ENDBRANCH  24  25
ENDBRANCH  23  24
ENDBRANCH  22  23
ENDBRANCH  21  22
ENDBRANCH  20  21
ENDBRANCH  19  20
ENDBRANCH  18  19
ENDBRANCH  17  18
ENDBRANCH   1  17
TORSDOF 26
ENDMDL
