MODEL 1
REMARK VINA RESULT:    -6.609      0.000      0.000
REMARK INTER + INTRA:          -8.082
REMARK INTER:                  -7.768
REMARK INTRA:                  -0.314
REMARK UNBOUND:                -0.314
REMARK SMILES O=c1cc(-c2ccc(O)c(O)c2)oc2cc(O)cc(O)c12
REMARK SMILES IDX 4 1 3 2 2 3 1 4 21 5 19 6 18 7 16 8 15 9 14 10 13 11 5 12
REMARK SMILES IDX 6 13 7 14 8 15 12 16 10 17 9 18 11 20 20 22 17 24
REMARK H PARENT 9 19 11 21 20 23 17 25
REMARK Flexibility Score: inf
ROOT
ATOM      1  C   UNL     1      10.308  -3.270  19.267  1.00  0.00     0.138 A 
ATOM      2  C   UNL     1      11.556  -2.659  19.087  1.00  0.00     0.100 A 
ATOM      3  C   UNL     1      11.624  -1.282  18.867  1.00  0.00     0.197 A 
ATOM      4  O   UNL     1      12.762  -0.752  18.771  1.00  0.00    -0.289 OA
ATOM      5  C   UNL     1      10.434  -0.521  18.794  1.00  0.00     0.107 A 
ATOM      6  C   UNL     1      10.380   0.881  18.534  1.00  0.00     0.134 A 
ATOM      7  C   UNL     1       9.152   1.549  18.602  1.00  0.00     0.093 A 
ATOM      8  C   UNL     1       7.969   0.858  18.861  1.00  0.00     0.123 A 
ATOM      9  C   UNL     1       8.002  -0.522  19.064  1.00  0.00     0.094 A 
ATOM     10  C   UNL     1       9.217  -1.212  19.037  1.00  0.00     0.146 A 
ATOM     11  O   UNL     1       9.208  -2.524  19.250  1.00  0.00    -0.456 OA
ENDROOT
BRANCH   1  12
ATOM     12  C   UNL     1      10.177  -4.730  19.504  1.00  0.00     0.021 A 
ATOM     13  C   UNL     1      11.281  -5.522  19.873  1.00  0.00     0.016 A 
ATOM     14  C   UNL     1      11.132  -6.895  20.080  1.00  0.00     0.051 A 
ATOM     15  C   UNL     1       9.880  -7.502  19.914  1.00  0.00     0.157 A 
ATOM     16  C   UNL     1       8.927  -5.352  19.327  1.00  0.00     0.062 A 
ATOM     17  C   UNL     1       8.778  -6.729  19.535  1.00  0.00     0.158 A 
BRANCH  15  18
ATOM     18  O   UNL     1       9.728  -8.872  20.122  1.00  0.00    -0.504 OA
ATOM     19  H   UNL     1       9.605  -9.516  19.349  1.00  0.00     0.293 HD
ENDBRANCH  15  18
BRANCH  17  20
ATOM     20  O   UNL     1       7.535  -7.338  19.367  1.00  0.00    -0.504 OA
ATOM     21  H   UNL     1       6.860  -7.382  20.123  1.00  0.00     0.293 HD
ENDBRANCH  17  20
ENDBRANCH   1  12
BRANCH   6  22
ATOM     22  O   UNL     1      11.491   1.654  18.181  1.00  0.00    -0.507 OA
ATOM     23  H   UNL     1      12.138   2.066  18.836  1.00  0.00     0.293 HD
ENDBRANCH   6  22
BRANCH   8  24
ATOM     24  O   UNL     1       6.762   1.553  18.906  1.00  0.00    -0.508 OA
ATOM     25  H   UNL     1       5.877   1.071  19.013  1.00  0.00     0.293 HD
ENDBRANCH   8  24
TORSDOF 5
ENDMDL
MODEL 2
REMARK VINA RESULT:    -6.309      1.174      2.653
REMARK INTER + INTRA:          -7.730
REMARK INTER:                  -7.436
REMARK INTRA:                  -0.294
REMARK UNBOUND:                -0.314
REMARK SMILES O=c1cc(-c2ccc(O)c(O)c2)oc2cc(O)cc(O)c12
REMARK SMILES IDX 4 1 3 2 2 3 1 4 21 5 19 6 18 7 16 8 15 9 14 10 13 11 5 12
REMARK SMILES IDX 6 13 7 14 8 15 12 16 10 17 9 18 11 20 20 22 17 24
REMARK H PARENT 9 19 11 21 20 23 17 25
REMARK Flexibility Score: inf
ROOT
ATOM      1  C   UNL     1       9.217  -2.896  19.199  1.00  0.00     0.138 A 
ATOM      2  C   UNL     1       7.980  -2.348  18.836  1.00  0.00     0.100 A 
ATOM      3  C   UNL     1       7.873  -0.974  18.615  1.00  0.00     0.197 A 
ATOM      4  O   UNL     1       6.764  -0.520  18.230  1.00  0.00    -0.289 OA
ATOM      5  C   UNL     1       9.003  -0.143  18.792  1.00  0.00     0.107 A 
ATOM      6  C   UNL     1       9.001   1.276  18.636  1.00  0.00     0.134 A 
ATOM      7  C   UNL     1      10.208   1.982  18.722  1.00  0.00     0.093 A 
ATOM      8  C   UNL     1      11.404   1.330  19.018  1.00  0.00     0.123 A 
ATOM      9  C   UNL     1      11.409  -0.050  19.227  1.00  0.00     0.094 A 
ATOM     10  C   UNL     1      10.227  -0.787  19.114  1.00  0.00     0.146 A 
ATOM     11  O   UNL     1      10.277  -2.101  19.305  1.00  0.00    -0.456 OA
ENDROOT
BRANCH   1  12
ATOM     12  C   UNL     1       9.389  -4.350  19.446  1.00  0.00     0.021 A 
ATOM     13  C   UNL     1      10.662  -4.925  19.627  1.00  0.00     0.016 A 
ATOM     14  C   UNL     1      10.795  -6.298  19.848  1.00  0.00     0.051 A 
ATOM     15  C   UNL     1       9.663  -7.121  19.884  1.00  0.00     0.157 A 
ATOM     16  C   UNL     1       8.259  -5.188  19.471  1.00  0.00     0.062 A 
ATOM     17  C   UNL     1       8.393  -6.565  19.693  1.00  0.00     0.158 A 
BRANCH  15  18
ATOM     18  O   UNL     1       9.793  -8.491  20.106  1.00  0.00    -0.504 OA
ATOM     19  H   UNL     1      10.038  -8.861  21.016  1.00  0.00     0.293 HD
ENDBRANCH  15  18
BRANCH  17  20
ATOM     20  O   UNL     1       7.268  -7.388  19.725  1.00  0.00    -0.504 OA
ATOM     21  H   UNL     1       6.374  -7.078  19.361  1.00  0.00     0.293 HD
ENDBRANCH  17  20
ENDBRANCH   1  12
BRANCH   6  22
ATOM     22  O   UNL     1       7.848   2.037  18.421  1.00  0.00    -0.507 OA
ATOM     23  H   UNL     1       6.909   1.669  18.403  1.00  0.00     0.293 HD
ENDBRANCH   6  22
BRANCH   8  24
ATOM     24  O   UNL     1      12.583   2.066  19.112  1.00  0.00    -0.508 OA
ATOM     25  H   UNL     1      13.486   1.647  18.922  1.00  0.00     0.293 HD
ENDBRANCH   8  24
TORSDOF 5
ENDMDL
MODEL 3
REMARK VINA RESULT:    -6.275      2.100      3.112
REMARK INTER + INTRA:          -7.689
REMARK INTER:                  -7.395
REMARK INTRA:                  -0.295
REMARK UNBOUND:                -0.314
REMARK SMILES O=c1cc(-c2ccc(O)c(O)c2)oc2cc(O)cc(O)c12
REMARK SMILES IDX 4 1 3 2 2 3 1 4 21 5 19 6 18 7 16 8 15 9 14 10 13 11 5 12
REMARK SMILES IDX 6 13 7 14 8 15 12 16 10 17 9 18 11 20 20 22 17 24
REMARK H PARENT 9 19 11 21 20 23 17 25
REMARK Flexibility Score: inf
ROOT
ATOM      1  C   UNL     1      10.927  -3.841  19.670  1.00  0.00     0.138 A 
ATOM      2  C   UNL     1      12.262  -4.247  19.535  1.00  0.00     0.100 A 
ATOM      3  C   UNL     1      13.273  -3.287  19.492  1.00  0.00     0.197 A 
ATOM      4  O   UNL     1      14.467  -3.683  19.432  1.00  0.00    -0.289 OA
ATOM      5  C   UNL     1      12.942  -1.913  19.552  1.00  0.00     0.107 A 
ATOM      6  C   UNL     1      13.886  -0.845  19.475  1.00  0.00     0.134 A 
ATOM      7  C   UNL     1      13.453   0.474  19.663  1.00  0.00     0.093 A 
ATOM      8  C   UNL     1      12.106   0.768  19.865  1.00  0.00     0.123 A 
ATOM      9  C   UNL     1      11.166  -0.264  19.888  1.00  0.00     0.094 A 
ATOM     10  C   UNL     1      11.571  -1.592  19.737  1.00  0.00     0.146 A 
ATOM     11  O   UNL     1      10.647  -2.547  19.780  1.00  0.00    -0.456 OA
ENDROOT
BRANCH   1  12
ATOM     12  C   UNL     1       9.812  -4.820  19.721  1.00  0.00     0.021 A 
ATOM     13  C   UNL     1       8.468  -4.406  19.802  1.00  0.00     0.016 A 
ATOM     14  C   UNL     1       7.437  -5.348  19.858  1.00  0.00     0.051 A 
ATOM     15  C   UNL     1       7.732  -6.718  19.844  1.00  0.00     0.157 A 
ATOM     16  C   UNL     1      10.096  -6.197  19.721  1.00  0.00     0.062 A 
ATOM     17  C   UNL     1       9.063  -7.142  19.777  1.00  0.00     0.158 A 
BRANCH  15  18
ATOM     18  O   UNL     1       6.706  -7.660  19.899  1.00  0.00    -0.504 OA
ATOM     19  H   UNL     1       6.729  -8.503  19.339  1.00  0.00     0.293 HD
ENDBRANCH  15  18
BRANCH  17  20
ATOM     20  O   UNL     1       9.352  -8.506  19.767  1.00  0.00    -0.504 OA
ATOM     21  H   UNL     1       9.490  -9.012  18.899  1.00  0.00     0.293 HD
ENDBRANCH  17  20
ENDBRANCH   1  12
BRANCH   6  22
ATOM     22  O   UNL     1      15.244  -1.021  19.193  1.00  0.00    -0.507 OA
ATOM     23  H   UNL     1      15.723  -0.630  18.396  1.00  0.00     0.293 HD
ENDBRANCH   6  22
BRANCH   8  24
ATOM     24  O   UNL     1      11.709   2.093  20.033  1.00  0.00    -0.508 OA
ATOM     25  H   UNL     1      11.339   2.428  20.915  1.00  0.00     0.293 HD
ENDBRANCH   8  24
TORSDOF 5
ENDMDL
MODEL 4
REMARK VINA RESULT:    -6.093      1.452      6.735
REMARK INTER + INTRA:          -7.476
REMARK INTER:                  -7.168
REMARK INTRA:                  -0.309
REMARK UNBOUND:                -0.314
REMARK SMILES O=c1cc(-c2ccc(O)c(O)c2)oc2cc(O)cc(O)c12
REMARK SMILES IDX 4 1 3 2 2 3 1 4 21 5 19 6 18 7 16 8 15 9 14 10 13 11 5 12
REMARK SMILES IDX 6 13 7 14 8 15 12 16 10 17 9 18 11 20 20 22 17 24
REMARK H PARENT 9 19 11 21 20 23 17 25
REMARK Flexibility Score: inf
ROOT
ATOM      1  C   UNL     1       9.996  -2.014  19.207  1.00  0.00     0.138 A 
ATOM      2  C   UNL     1      11.339  -2.407  19.284  1.00  0.00     0.100 A 
ATOM      3  C   UNL     1      11.653  -3.753  19.476  1.00  0.00     0.197 A 
ATOM      4  O   UNL     1      12.867  -4.085  19.478  1.00  0.00    -0.289 OA
ATOM      5  C   UNL     1      10.615  -4.704  19.625  1.00  0.00     0.107 A 
ATOM      6  C   UNL     1      10.817  -6.096  19.867  1.00  0.00     0.134 A 
ATOM      7  C   UNL     1       9.716  -6.960  19.881  1.00  0.00     0.093 A 
ATOM      8  C   UNL     1       8.418  -6.477  19.722  1.00  0.00     0.123 A 
ATOM      9  C   UNL     1       8.204  -5.110  19.539  1.00  0.00     0.094 A 
ATOM     10  C   UNL     1       9.285  -4.226  19.486  1.00  0.00     0.146 A 
ATOM     11  O   UNL     1       9.041  -2.934  19.295  1.00  0.00    -0.456 OA
ENDROOT
BRANCH   1  12
ATOM     12  C   UNL     1       9.604  -0.596  19.004  1.00  0.00     0.021 A 
ATOM     13  C   UNL     1      10.426   0.467  19.429  1.00  0.00     0.016 A 
ATOM     14  C   UNL     1      10.028   1.792  19.234  1.00  0.00     0.051 A 
ATOM     15  C   UNL     1       8.803   2.079  18.620  1.00  0.00     0.157 A 
ATOM     16  C   UNL     1       8.369  -0.297  18.401  1.00  0.00     0.062 A 
ATOM     17  C   UNL     1       7.971   1.033  18.205  1.00  0.00     0.158 A 
BRANCH  15  18
ATOM     18  O   UNL     1       8.405   3.400  18.423  1.00  0.00    -0.504 OA
ATOM     19  H   UNL     1       9.055   4.171  18.521  1.00  0.00     0.293 HD
ENDBRANCH  15  18
BRANCH  17  20
ATOM     20  O   UNL     1       6.750   1.323  17.598  1.00  0.00    -0.504 OA
ATOM     21  H   UNL     1       6.002   1.782  18.104  1.00  0.00     0.293 HD
ENDBRANCH  17  20
ENDBRANCH   1  12
BRANCH   6  22
ATOM     22  O   UNL     1      12.065  -6.672  20.123  1.00  0.00    -0.507 OA
ATOM     23  H   UNL     1      12.895  -6.520  19.570  1.00  0.00     0.293 HD
ENDBRANCH   6  22
BRANCH   8  24
ATOM     24  O   UNL     1       7.344  -7.364  19.756  1.00  0.00    -0.508 OA
ATOM     25  H   UNL     1       6.995  -7.740  20.630  1.00  0.00     0.293 HD
ENDBRANCH   8  24
TORSDOF 5
ENDMDL
MODEL 5
REMARK VINA RESULT:    -5.935      2.605      4.911
REMARK INTER + INTRA:          -7.290
REMARK INTER:                  -6.972
REMARK INTRA:                  -0.318
REMARK UNBOUND:                -0.314
REMARK SMILES O=c1cc(-c2ccc(O)c(O)c2)oc2cc(O)cc(O)c12
REMARK SMILES IDX 4 1 3 2 2 3 1 4 21 5 19 6 18 7 16 8 15 9 14 10 13 11 5 12
REMARK SMILES IDX 6 13 7 14 8 15 12 16 10 17 9 18 11 20 20 22 17 24
REMARK H PARENT 9 19 11 21 20 23 17 25
REMARK Flexibility Score: inf
ROOT
ATOM      1  C   UNL     1      11.370  -3.966  19.603  1.00  0.00     0.138 A 
ATOM      2  C   UNL     1      11.209  -2.596  19.357  1.00  0.00     0.100 A 
ATOM      3  C   UNL     1      12.328  -1.762  19.338  1.00  0.00     0.197 A 
ATOM      4  O   UNL     1      12.158  -0.548  19.053  1.00  0.00    -0.289 OA
ATOM      5  C   UNL     1      13.610  -2.300  19.598  1.00  0.00     0.107 A 
ATOM      6  C   UNL     1      14.816  -1.538  19.645  1.00  0.00     0.134 A 
ATOM      7  C   UNL     1      16.043  -2.197  19.796  1.00  0.00     0.093 A 
ATOM      8  C   UNL     1      16.103  -3.579  19.962  1.00  0.00     0.123 A 
ATOM      9  C   UNL     1      14.925  -4.329  19.972  1.00  0.00     0.094 A 
ATOM     10  C   UNL     1      13.689  -3.705  19.789  1.00  0.00     0.146 A 
ATOM     11  O   UNL     1      12.592  -4.455  19.790  1.00  0.00    -0.456 OA
ENDROOT
BRANCH   1  12
ATOM     12  C   UNL     1      10.215  -4.899  19.635  1.00  0.00     0.021 A 
ATOM     13  C   UNL     1       8.887  -4.434  19.566  1.00  0.00     0.016 A 
ATOM     14  C   UNL     1       7.818  -5.334  19.609  1.00  0.00     0.051 A 
ATOM     15  C   UNL     1       8.057  -6.708  19.729  1.00  0.00     0.157 A 
ATOM     16  C   UNL     1      10.443  -6.280  19.770  1.00  0.00     0.062 A 
ATOM     17  C   UNL     1       9.370  -7.182  19.812  1.00  0.00     0.158 A 
BRANCH  15  18
ATOM     18  O   UNL     1       6.992  -7.607  19.771  1.00  0.00    -0.504 OA
ATOM     19  H   UNL     1       7.137  -8.606  19.679  1.00  0.00     0.293 HD
ENDBRANCH  15  18
BRANCH  17  20
ATOM     20  O   UNL     1       9.603  -8.551  19.936  1.00  0.00    -0.504 OA
ATOM     21  H   UNL     1       9.328  -9.063  20.767  1.00  0.00     0.293 HD
ENDBRANCH  17  20
ENDBRANCH   1  12
BRANCH   6  22
ATOM     22  O   UNL     1      14.863  -0.142  19.575  1.00  0.00    -0.507 OA
ATOM     23  H   UNL     1      14.170   0.436  19.124  1.00  0.00     0.293 HD
ENDBRANCH   6  22
BRANCH   8  24
ATOM     24  O   UNL     1      17.340  -4.200  20.125  1.00  0.00    -0.508 OA
ATOM     25  H   UNL     1      18.205  -3.724  19.898  1.00  0.00     0.293 HD
ENDBRANCH   8  24
TORSDOF 5
ENDMDL
MODEL 6
REMARK VINA RESULT:    -5.685      1.623      7.288
REMARK INTER + INTRA:          -6.996
REMARK INTER:                  -6.713
REMARK INTRA:                  -0.283
REMARK UNBOUND:                -0.314
REMARK SMILES O=c1cc(-c2ccc(O)c(O)c2)oc2cc(O)cc(O)c12
REMARK SMILES IDX 4 1 3 2 2 3 1 4 21 5 19 6 18 7 16 8 15 9 14 10 13 11 5 12
REMARK SMILES IDX 6 13 7 14 8 15 12 16 10 17 9 18 11 20 20 22 17 24
REMARK H PARENT 9 19 11 21 20 23 17 25
REMARK Flexibility Score: inf
ROOT
ATOM      1  C   UNL     1       8.687  -2.232  19.428  1.00  0.00     0.138 A 
ATOM      2  C   UNL     1       7.512  -2.981  19.578  1.00  0.00     0.100 A 
ATOM      3  C   UNL     1       7.594  -4.359  19.786  1.00  0.00     0.197 A 
ATOM      4  O   UNL     1       6.525  -4.995  19.979  1.00  0.00    -0.289 OA
ATOM      5  C   UNL     1       8.859  -4.993  19.811  1.00  0.00     0.107 A 
ATOM      6  C   UNL     1       9.062  -6.396  19.975  1.00  0.00     0.134 A 
ATOM      7  C   UNL     1      10.364  -6.895  20.101  1.00  0.00     0.093 A 
ATOM      8  C   UNL     1      11.471  -6.052  20.010  1.00  0.00     0.123 A 
ATOM      9  C   UNL     1      11.286  -4.685  19.796  1.00  0.00     0.094 A 
ATOM     10  C   UNL     1       9.998  -4.152  19.700  1.00  0.00     0.146 A 
ATOM     11  O   UNL     1       9.864  -2.843  19.511  1.00  0.00    -0.456 OA
ENDROOT
BRANCH   1  12
ATOM     12  C   UNL     1       8.658  -0.765  19.204  1.00  0.00     0.021 A 
ATOM     13  C   UNL     1       9.642   0.085  19.745  1.00  0.00     0.016 A 
ATOM     14  C   UNL     1       9.586   1.465  19.527  1.00  0.00     0.051 A 
ATOM     15  C   UNL     1       8.543   2.018  18.774  1.00  0.00     0.157 A 
ATOM     16  C   UNL     1       7.608  -0.197  18.461  1.00  0.00     0.062 A 
ATOM     17  C   UNL     1       7.552   1.186  18.242  1.00  0.00     0.158 A 
BRANCH  15  18
ATOM     18  O   UNL     1       8.485   3.393  18.554  1.00  0.00    -0.504 OA
ATOM     19  H   UNL     1       8.730   3.799  17.659  1.00  0.00     0.293 HD
ENDBRANCH  15  18
BRANCH  17  20
ATOM     20  O   UNL     1       6.513   1.741  17.496  1.00  0.00    -0.504 OA
ATOM     21  H   UNL     1       5.632   1.256  17.370  1.00  0.00     0.293 HD
ENDBRANCH  17  20
ENDBRANCH   1  12
BRANCH   6  22
ATOM     22  O   UNL     1       8.029  -7.338  19.994  1.00  0.00    -0.507 OA
ATOM     23  H   UNL     1       7.124  -7.211  19.566  1.00  0.00     0.293 HD
ENDBRANCH   6  22
BRANCH   8  24
ATOM     24  O   UNL     1      12.753  -6.585  20.125  1.00  0.00    -0.508 OA
ATOM     25  H   UNL     1      13.499  -6.311  19.497  1.00  0.00     0.293 HD
ENDBRANCH   8  24
TORSDOF 5
ENDMDL
MODEL 7
REMARK VINA RESULT:    -5.432      3.249      6.804
REMARK INTER + INTRA:          -6.699
REMARK INTER:                  -6.381
REMARK INTRA:                  -0.317
REMARK UNBOUND:                -0.314
REMARK SMILES O=c1cc(-c2ccc(O)c(O)c2)oc2cc(O)cc(O)c12
REMARK SMILES IDX 4 1 3 2 2 3 1 4 21 5 19 6 18 7 16 8 15 9 14 10 13 11 5 12
REMARK SMILES IDX 6 13 7 14 8 15 12 16 10 17 9 18 11 20 20 22 17 24
REMARK H PARENT 9 19 11 21 20 23 17 25
REMARK Flexibility Score: inf
ROOT
ATOM      1  C   UNL     1      12.899  -3.540  19.759  1.00  0.00     0.138 A 
ATOM      2  C   UNL     1      11.889  -2.591  19.552  1.00  0.00     0.100 A 
ATOM      3  C   UNL     1      10.560  -3.008  19.464  1.00  0.00     0.197 A 
ATOM      4  O   UNL     1       9.669  -2.127  19.340  1.00  0.00    -0.289 OA
ATOM      5  C   UNL     1      10.246  -4.384  19.551  1.00  0.00     0.107 A 
ATOM      6  C   UNL     1       8.932  -4.927  19.433  1.00  0.00     0.134 A 
ATOM      7  C   UNL     1       8.728  -6.295  19.653  1.00  0.00     0.093 A 
ATOM      8  C   UNL     1       9.796  -7.148  19.926  1.00  0.00     0.123 A 
ATOM      9  C   UNL     1      11.093  -6.637  19.990  1.00  0.00     0.094 A 
ATOM     10  C   UNL     1      11.325  -5.271  19.809  1.00  0.00     0.146 A 
ATOM     11  O   UNL     1      12.573  -4.822  19.893  1.00  0.00    -0.456 OA
ENDROOT
BRANCH   1  12
ATOM     12  C   UNL     1      14.329  -3.154  19.861  1.00  0.00     0.021 A 
ATOM     13  C   UNL     1      14.734  -1.805  19.844  1.00  0.00     0.016 A 
ATOM     14  C   UNL     1      16.088  -1.469  19.931  1.00  0.00     0.051 A 
ATOM     15  C   UNL     1      17.059  -2.473  20.028  1.00  0.00     0.157 A 
ATOM     16  C   UNL     1      15.314  -4.155  19.944  1.00  0.00     0.062 A 
ATOM     17  C   UNL     1      16.672  -3.818  20.032  1.00  0.00     0.158 A 
BRANCH  15  18
ATOM     18  O   UNL     1      18.410  -2.141  20.116  1.00  0.00    -0.504 OA
ATOM     19  H   UNL     1      19.112  -2.623  19.567  1.00  0.00     0.293 HD
ENDBRANCH  15  18
BRANCH  17  20
ATOM     20  O   UNL     1      17.642  -4.814  20.124  1.00  0.00    -0.504 OA
ATOM     21  H   UNL     1      17.816  -5.458  19.360  1.00  0.00     0.293 HD
ENDBRANCH  17  20
ENDBRANCH   1  12
BRANCH   6  22
ATOM     22  O   UNL     1       7.805  -4.178  19.080  1.00  0.00    -0.507 OA
ATOM     23  H   UNL     1       6.862  -4.383  19.373  1.00  0.00     0.293 HD
ENDBRANCH   6  22
BRANCH   8  24
ATOM     24  O   UNL     1       9.558  -8.507  20.125  1.00  0.00    -0.508 OA
ATOM     25  H   UNL     1       8.714  -8.952  19.786  1.00  0.00     0.293 HD
ENDBRANCH   8  24
TORSDOF 5
ENDMDL
MODEL 8
REMARK VINA RESULT:    -5.406      3.205      5.638
REMARK INTER + INTRA:          -6.668
REMARK INTER:                  -6.370
REMARK INTRA:                  -0.298
REMARK UNBOUND:                -0.314
REMARK SMILES O=c1cc(-c2ccc(O)c(O)c2)oc2cc(O)cc(O)c12
REMARK SMILES IDX 4 1 3 2 2 3 1 4 21 5 19 6 18 7 16 8 15 9 14 10 13 11 5 12
REMARK SMILES IDX 6 13 7 14 8 15 12 16 10 17 9 18 11 20 20 22 17 24
REMARK H PARENT 9 19 11 21 20 23 17 25
REMARK Flexibility Score: inf
ROOT
ATOM      1  C   UNL     1      12.158  -3.243  18.897  1.00  0.00     0.138 A 
ATOM      2  C   UNL     1      11.228  -3.878  19.732  1.00  0.00     0.100 A 
ATOM      3  C   UNL     1       9.876  -3.874  19.387  1.00  0.00     0.197 A 
ATOM      4  O   UNL     1       9.073  -4.505  20.124  1.00  0.00    -0.289 OA
ATOM      5  C   UNL     1       9.450  -3.204  18.216  1.00  0.00     0.107 A 
ATOM      6  C   UNL     1       8.093  -3.100  17.787  1.00  0.00     0.134 A 
ATOM      7  C   UNL     1       7.804  -2.512  16.549  1.00  0.00     0.093 A 
ATOM      8  C   UNL     1       8.814  -1.971  15.755  1.00  0.00     0.123 A 
ATOM      9  C   UNL     1      10.139  -2.019  16.189  1.00  0.00     0.094 A 
ATOM     10  C   UNL     1      10.464  -2.630  17.403  1.00  0.00     0.146 A 
ATOM     11  O   UNL     1      11.739  -2.669  17.774  1.00  0.00    -0.456 OA
ENDROOT
BRANCH   1  12
ATOM     12  C   UNL     1      13.608  -3.216  19.216  1.00  0.00     0.021 A 
ATOM     13  C   UNL     1      14.260  -4.324  19.790  1.00  0.00     0.016 A 
ATOM     14  C   UNL     1      15.624  -4.268  20.090  1.00  0.00     0.051 A 
ATOM     15  C   UNL     1      16.356  -3.103  19.829  1.00  0.00     0.157 A 
ATOM     16  C   UNL     1      14.350  -2.047  18.971  1.00  0.00     0.062 A 
ATOM     17  C   UNL     1      15.718  -1.991  19.271  1.00  0.00     0.158 A 
BRANCH  15  18
ATOM     18  O   UNL     1      17.717  -3.045  20.125  1.00  0.00    -0.504 OA
ATOM     19  H   UNL     1      18.141  -3.673  20.797  1.00  0.00     0.293 HD
ENDBRANCH  15  18
BRANCH  17  20
ATOM     20  O   UNL     1      16.450  -0.832  19.016  1.00  0.00    -0.504 OA
ATOM     21  H   UNL     1      16.959  -0.706  18.148  1.00  0.00     0.293 HD
ENDBRANCH  17  20
ENDBRANCH   1  12
BRANCH   6  22
ATOM     22  O   UNL     1       6.999  -3.531  18.543  1.00  0.00    -0.507 OA
ATOM     23  H   UNL     1       6.041  -3.260  18.378  1.00  0.00     0.293 HD
ENDBRANCH   6  22
BRANCH   8  24
ATOM     24  O   UNL     1       8.488  -1.380  14.536  1.00  0.00    -0.508 OA
ATOM     25  H   UNL     1       9.166  -0.843  14.009  1.00  0.00     0.293 HD
ENDBRANCH   8  24
TORSDOF 5
ENDMDL
MODEL 9
REMARK VINA RESULT:    -5.386      3.910      7.839
REMARK INTER + INTRA:          -6.644
REMARK INTER:                  -6.360
REMARK INTRA:                  -0.284
REMARK UNBOUND:                -0.314
REMARK SMILES O=c1cc(-c2ccc(O)c(O)c2)oc2cc(O)cc(O)c12
REMARK SMILES IDX 4 1 3 2 2 3 1 4 21 5 19 6 18 7 16 8 15 9 14 10 13 11 5 12
REMARK SMILES IDX 6 13 7 14 8 15 12 16 10 17 9 18 11 20 20 22 17 24
REMARK H PARENT 9 19 11 21 20 23 17 25
REMARK Flexibility Score: inf
ROOT
ATOM      1  C   UNL     1      13.427  -1.234  19.389  1.00  0.00     0.138 A 
ATOM      2  C   UNL     1      13.068  -2.569  19.619  1.00  0.00     0.100 A 
ATOM      3  C   UNL     1      14.062  -3.518  19.860  1.00  0.00     0.197 A 
ATOM      4  O   UNL     1      13.707  -4.696  20.124  1.00  0.00    -0.289 OA
ATOM      5  C   UNL     1      15.423  -3.133  19.837  1.00  0.00     0.107 A 
ATOM      6  C   UNL     1      16.523  -4.023  20.028  1.00  0.00     0.134 A 
ATOM      7  C   UNL     1      17.823  -3.507  20.100  1.00  0.00     0.093 A 
ATOM      8  C   UNL     1      18.069  -2.146  19.930  1.00  0.00     0.123 A 
ATOM      9  C   UNL     1      17.007  -1.273  19.689  1.00  0.00     0.094 A 
ATOM     10  C   UNL     1      15.695  -1.752  19.645  1.00  0.00     0.146 A 
ATOM     11  O   UNL     1      14.709  -0.887  19.428  1.00  0.00    -0.456 OA
ENDROOT
BRANCH   1  12
ATOM     12  C   UNL     1      12.411  -0.182  19.128  1.00  0.00     0.021 A 
ATOM     13  C   UNL     1      12.596   1.147  19.555  1.00  0.00     0.016 A 
ATOM     14  C   UNL     1      11.619   2.114  19.304  1.00  0.00     0.051 A 
ATOM     15  C   UNL     1      10.440   1.770  18.631  1.00  0.00     0.157 A 
ATOM     16  C   UNL     1      11.218  -0.521  18.465  1.00  0.00     0.062 A 
ATOM     17  C   UNL     1      10.238   0.450  18.213  1.00  0.00     0.158 A 
BRANCH  15  18
ATOM     18  O   UNL     1       9.465   2.733  18.379  1.00  0.00    -0.504 OA
ATOM     19  H   UNL     1       9.600   3.456  17.682  1.00  0.00     0.293 HD
ENDBRANCH  15  18
BRANCH  17  20
ATOM     20  O   UNL     1       9.062   0.110  17.547  1.00  0.00    -0.504 OA
ATOM     21  H   UNL     1       8.330   0.792  17.381  1.00  0.00     0.293 HD
ENDBRANCH  17  20
ENDBRANCH   1  12
BRANCH   6  22
ATOM     22  O   UNL     1      16.397  -5.412  20.125  1.00  0.00    -0.507 OA
ATOM     23  H   UNL     1      16.572  -6.061  19.373  1.00  0.00     0.293 HD
ENDBRANCH   6  22
BRANCH   8  24
ATOM     24  O   UNL     1      19.377  -1.670  19.993  1.00  0.00    -0.508 OA
ATOM     25  H   UNL     1      19.904  -1.454  19.155  1.00  0.00     0.293 HD
ENDBRANCH   8  24
TORSDOF 5
ENDMDL
