MODEL 1
REMARK VINA RESULT:    -8.407      0.000      0.000
REMARK INTER + INTRA:         -15.657
REMARK INTER:                 -13.813
REMARK INTRA:                  -1.844
REMARK UNBOUND:                -1.844
REMARK SMILES C[C@@H]1O[C@@H](OC[C@H]2O[C@H](Oc3c(-c4ccc(O)c(O)c4)oc4cc(O)cc(O)c4c3=O)[C@@H](O)[C@@H](O)[C@H]2O)[C@@H](O)[C@@H](O)[C@@H]1O
REMARK SMILES IDX 7 1 36 2 34 3 32 4 9 5 8 6 6 7 5 8 4 9 1 10 2 11 42 12 3 13
REMARK SMILES IDX 40 14 38 15 43 16 41 18 39 20 37 22 35 24 10 26 11 27 12 28
REMARK SMILES IDX 30 29 21 30 29 31 31 32 22 33 27 34 23 35 26 36 24 37 13 38
REMARK SMILES IDX 20 39 14 40 18 41 15 42 16 43 19 44 17 46 28 48 25 50 33 52
REMARK H PARENT 43 17 41 19 39 21 37 23 35 25 19 45 17 47 28 49 25 51 33 53
REMARK Flexibility Score: inf
ROOT
ATOM      1  C   UNL     1      10.248  25.951  24.826  1.00  0.00     0.180 C 
ATOM      2  C   UNL     1       9.703  27.310  25.331  1.00  0.00     0.177 C 
ATOM      3  C   UNL     1      10.137  28.433  24.375  1.00  0.00     0.180 C 
ATOM      4  C   UNL     1       9.752  28.080  22.930  1.00  0.00     0.214 C 
ATOM      5  C   UNL     1      10.276  26.678  22.574  1.00  0.00     0.339 C 
ATOM      6  O   UNL     1       9.828  25.688  23.493  1.00  0.00    -0.332 OA
ENDROOT
BRANCH   1   7
ATOM      7  C   UNL     1       9.803  24.797  25.765  1.00  0.00     0.198 C 
BRANCH   7   8
ATOM      8  O   UNL     1       9.295  25.286  26.996  1.00  0.00    -0.347 OA
BRANCH   8   9
ATOM      9  C   UNL     1       8.663  24.279  27.780  1.00  0.00     0.281 C 
ATOM     10  C   UNL     1       5.321  25.818  27.957  1.00  0.00     0.041 C 
ATOM     11  C   UNL     1       6.818  25.671  28.228  1.00  0.00     0.150 C 
ATOM     12  C   UNL     1       7.125  25.773  29.738  1.00  0.00     0.174 C 
ATOM     13  O   UNL     1       7.252  24.423  27.710  1.00  0.00    -0.344 OA
ATOM     14  C   UNL     1       8.641  25.606  29.969  1.00  0.00     0.179 C 
ATOM     15  C   UNL     1       9.138  24.334  29.253  1.00  0.00     0.202 C 
BRANCH  12  16
ATOM     16  O   UNL     1       6.424  24.770  30.432  1.00  0.00    -0.388 OA
ATOM     17  H   UNL     1       7.087  24.301  31.004  1.00  0.00     0.211 HD
ENDBRANCH  12  16
BRANCH  14  18
ATOM     18  O   UNL     1       9.329  26.735  29.489  1.00  0.00    -0.387 OA
ATOM     19  H   UNL     1      10.190  26.776  29.978  1.00  0.00     0.211 HD
ENDBRANCH  14  18
BRANCH  15  20
ATOM     20  O   UNL     1      10.534  24.191  29.366  1.00  0.00    -0.385 OA
ATOM     21  H   UNL     1      10.962  24.791  28.704  1.00  0.00     0.211 HD
ENDBRANCH  15  20
ENDBRANCH   8   9
ENDBRANCH   7   8
ENDBRANCH   1   7
BRANCH   2  22
ATOM     22  O   UNL     1       8.297  27.275  25.402  1.00  0.00    -0.387 OA
ATOM     23  H   UNL     1       8.033  26.347  25.639  1.00  0.00     0.211 HD
ENDBRANCH   2  22
BRANCH   3  24
ATOM     24  O   UNL     1       9.546  29.652  24.746  1.00  0.00    -0.387 OA
ATOM     25  H   UNL     1      10.263  30.340  24.716  1.00  0.00     0.211 HD
ENDBRANCH   3  24
BRANCH   5  26
ATOM     26  O   UNL     1      11.705  26.709  22.455  1.00  0.00    -0.454 OA
BRANCH  26  27
ATOM     27  C   UNL     1      12.353  26.914  21.229  1.00  0.00     0.214 A 
ATOM     28  C   UNL     1      13.301  27.944  21.070  1.00  0.00     0.180 A 
ATOM     29  C   UNL     1      12.109  26.056  20.154  1.00  0.00     0.239 A 
ATOM     30  O   UNL     1      13.887  28.129  19.891  1.00  0.00    -0.452 OA
ATOM     31  C   UNL     1      12.726  26.295  18.910  1.00  0.00     0.111 A 
ATOM     32  O   UNL     1      11.360  25.062  20.322  1.00  0.00    -0.285 OA
ATOM     33  C   UNL     1      13.631  27.380  18.825  1.00  0.00     0.146 A 
ATOM     34  C   UNL     1      12.486  25.505  17.760  1.00  0.00     0.134 A 
ATOM     35  C   UNL     1      14.269  27.669  17.616  1.00  0.00     0.094 A 
ATOM     36  C   UNL     1      13.129  25.819  16.554  1.00  0.00     0.093 A 
ATOM     37  C   UNL     1      14.012  26.897  16.478  1.00  0.00     0.123 A 
BRANCH  28  38
ATOM     38  C   UNL     1      13.708  28.820  22.185  1.00  0.00     0.025 A 
ATOM     39  C   UNL     1      12.924  29.941  22.496  1.00  0.00     0.062 A 
ATOM     40  C   UNL     1      14.809  28.503  22.997  1.00  0.00     0.016 A 
ATOM     41  C   UNL     1      13.253  30.760  23.583  1.00  0.00     0.158 A 
ATOM     42  C   UNL     1      15.152  29.328  24.071  1.00  0.00     0.051 A 
ATOM     43  C   UNL     1      14.379  30.458  24.369  1.00  0.00     0.157 A 
BRANCH  41  44
ATOM     44  O   UNL     1      12.447  31.862  23.872  1.00  0.00    -0.504 OA
ATOM     45  H   UNL     1      12.107  32.482  23.146  1.00  0.00     0.293 HD
ENDBRANCH  41  44
BRANCH  43  46
ATOM     46  O   UNL     1      14.720  31.275  25.447  1.00  0.00    -0.504 OA
ATOM     47  H   UNL     1      14.470  31.030  26.398  1.00  0.00     0.293 HD
ENDBRANCH  43  46
ENDBRANCH  28  38
BRANCH  34  48
ATOM     48  O   UNL     1      11.612  24.419  17.805  1.00  0.00    -0.507 OA
ATOM     49  H   UNL     1      10.630  24.517  17.577  1.00  0.00     0.293 HD
ENDBRANCH  34  48
BRANCH  37  50
ATOM     50  O   UNL     1      14.628  27.196  15.265  1.00  0.00    -0.508 OA
ATOM     51  H   UNL     1      14.294  27.948  14.671  1.00  0.00     0.293 HD
ENDBRANCH  37  50
ENDBRANCH  26  27
ENDBRANCH   5  26
BRANCH   4  52
ATOM     52  O   UNL     1       8.356  28.107  22.761  1.00  0.00    -0.384 OA
ATOM     53  H   UNL     1       8.057  29.031  22.962  1.00  0.00     0.211 HD
ENDBRANCH   4  52
TORSDOF 16
ENDMDL
MODEL 2
REMARK VINA RESULT:    -8.382      2.613      5.059
REMARK INTER + INTRA:         -15.616
REMARK INTER:                 -12.767
REMARK INTRA:                  -2.849
REMARK UNBOUND:                -1.844
REMARK SMILES C[C@@H]1O[C@@H](OC[C@H]2O[C@H](Oc3c(-c4ccc(O)c(O)c4)oc4cc(O)cc(O)c4c3=O)[C@@H](O)[C@@H](O)[C@H]2O)[C@@H](O)[C@@H](O)[C@@H]1O
REMARK SMILES IDX 7 1 36 2 34 3 32 4 9 5 8 6 6 7 5 8 4 9 1 10 2 11 42 12 3 13
REMARK SMILES IDX 40 14 38 15 43 16 41 18 39 20 37 22 35 24 10 26 11 27 12 28
REMARK SMILES IDX 30 29 21 30 29 31 31 32 22 33 27 34 23 35 26 36 24 37 13 38
REMARK SMILES IDX 20 39 14 40 18 41 15 42 16 43 19 44 17 46 28 48 25 50 33 52
REMARK H PARENT 43 17 41 19 39 21 37 23 35 25 19 45 17 47 28 49 25 51 33 53
REMARK Flexibility Score: inf
ROOT
ATOM      1  C   UNL     1       8.936  25.740  22.841  1.00  0.00     0.180 C 
ATOM      2  C   UNL     1       8.707  26.038  24.343  1.00  0.00     0.177 C 
ATOM      3  C   UNL     1       9.896  26.834  24.904  1.00  0.00     0.180 C 
ATOM      4  C   UNL     1      10.165  28.072  24.034  1.00  0.00     0.214 C 
ATOM      5  C   UNL     1      10.292  27.659  22.557  1.00  0.00     0.339 C 
ATOM      6  O   UNL     1       9.153  26.936  22.103  1.00  0.00    -0.332 OA
ENDROOT
BRANCH   1   7
ATOM      7  C   UNL     1       7.735  24.954  22.247  1.00  0.00     0.198 C 
BRANCH   7   8
ATOM      8  O   UNL     1       7.372  25.438  20.964  1.00  0.00    -0.347 OA
BRANCH   8   9
ATOM      9  C   UNL     1       5.984  25.735  20.849  1.00  0.00     0.281 C 
ATOM     10  C   UNL     1       5.664  25.204  17.218  1.00  0.00     0.041 C 
ATOM     11  C   UNL     1       6.127  25.888  18.505  1.00  0.00     0.150 C 
ATOM     12  C   UNL     1       5.813  27.399  18.476  1.00  0.00     0.174 C 
ATOM     13  O   UNL     1       5.487  25.262  19.606  1.00  0.00    -0.344 OA
ATOM     14  C   UNL     1       6.282  28.049  19.795  1.00  0.00     0.179 C 
ATOM     15  C   UNL     1       5.721  27.255  20.993  1.00  0.00     0.202 C 
BRANCH  12  16
ATOM     16  O   UNL     1       4.429  27.593  18.316  1.00  0.00    -0.388 OA
ATOM     17  H   UNL     1       4.307  28.116  17.480  1.00  0.00     0.211 HD
ENDBRANCH  12  16
BRANCH  14  18
ATOM     18  O   UNL     1       7.687  28.077  19.845  1.00  0.00    -0.387 OA
ATOM     19  H   UNL     1       7.980  28.820  19.257  1.00  0.00     0.211 HD
ENDBRANCH  14  18
BRANCH  15  20
ATOM     20  O   UNL     1       6.197  27.763  22.216  1.00  0.00    -0.385 OA
ATOM     21  H   UNL     1       5.907  27.151  22.940  1.00  0.00     0.211 HD
ENDBRANCH  15  20
ENDBRANCH   8   9
ENDBRANCH   7   8
ENDBRANCH   1   7
BRANCH   2  22
ATOM     22  O   UNL     1       7.524  26.782  24.517  1.00  0.00    -0.387 OA
ATOM     23  H   UNL     1       6.989  26.692  23.685  1.00  0.00     0.211 HD
ENDBRANCH   2  22
BRANCH   3  24
ATOM     24  O   UNL     1       9.648  27.224  26.230  1.00  0.00    -0.387 OA
ATOM     25  H   UNL     1       9.264  26.435  26.696  1.00  0.00     0.211 HD
ENDBRANCH   3  24
BRANCH   5  26
ATOM     26  O   UNL     1      11.515  26.937  22.356  1.00  0.00    -0.454 OA
BRANCH  26  27
ATOM     27  C   UNL     1      12.270  27.050  21.182  1.00  0.00     0.214 A 
ATOM     28  C   UNL     1      13.301  28.005  21.067  1.00  0.00     0.180 A 
ATOM     29  C   UNL     1      12.049  26.173  20.117  1.00  0.00     0.239 A 
ATOM     30  O   UNL     1      13.990  28.103  19.934  1.00  0.00    -0.452 OA
ATOM     31  C   UNL     1      12.778  26.322  18.920  1.00  0.00     0.111 A 
ATOM     32  O   UNL     1      11.217  25.241  20.255  1.00  0.00    -0.285 OA
ATOM     33  C   UNL     1      13.763  27.336  18.875  1.00  0.00     0.146 A 
ATOM     34  C   UNL     1      12.570  25.510  17.780  1.00  0.00     0.134 A 
ATOM     35  C   UNL     1      14.514  27.535  17.713  1.00  0.00     0.094 A 
ATOM     36  C   UNL     1      13.327  25.732  16.621  1.00  0.00     0.093 A 
ATOM     37  C   UNL     1      14.290  26.741  16.583  1.00  0.00     0.123 A 
BRANCH  28  38
ATOM     38  C   UNL     1      13.683  28.889  22.184  1.00  0.00     0.025 A 
ATOM     39  C   UNL     1      12.907  30.027  22.452  1.00  0.00     0.062 A 
ATOM     40  C   UNL     1      14.750  28.567  23.039  1.00  0.00     0.016 A 
ATOM     41  C   UNL     1      13.211  30.857  23.539  1.00  0.00     0.158 A 
ATOM     42  C   UNL     1      15.068  29.402  24.112  1.00  0.00     0.051 A 
ATOM     43  C   UNL     1      14.304  30.548  24.368  1.00  0.00     0.157 A 
BRANCH  41  44
ATOM     44  O   UNL     1      12.413  31.976  23.783  1.00  0.00    -0.504 OA
ATOM     45  H   UNL     1      12.813  32.886  23.982  1.00  0.00     0.293 HD
ENDBRANCH  41  44
BRANCH  43  46
ATOM     46  O   UNL     1      14.620  31.375  25.446  1.00  0.00    -0.504 OA
ATOM     47  H   UNL     1      15.254  32.159  25.344  1.00  0.00     0.293 HD
ENDBRANCH  43  46
ENDBRANCH  28  38
BRANCH  34  48
ATOM     48  O   UNL     1      11.618  24.490  17.788  1.00  0.00    -0.507 OA
ATOM     49  H   UNL     1      11.806  23.584  17.374  1.00  0.00     0.293 HD
ENDBRANCH  34  48
BRANCH  37  50
ATOM     50  O   UNL     1      15.019  26.951  15.415  1.00  0.00    -0.508 OA
ATOM     51  H   UNL     1      14.828  26.426  14.567  1.00  0.00     0.293 HD
ENDBRANCH  37  50
ENDBRANCH  26  27
ENDBRANCH   5  26
BRANCH   4  52
ATOM     52  O   UNL     1       9.128  29.012  24.162  1.00  0.00    -0.384 OA
ATOM     53  H   UNL     1       8.920  29.342  23.250  1.00  0.00     0.211 HD
ENDBRANCH   4  52
TORSDOF 16
ENDMDL
MODEL 3
REMARK VINA RESULT:    -8.278      1.265      1.989
REMARK INTER + INTRA:         -15.445
REMARK INTER:                 -13.955
REMARK INTRA:                  -1.490
REMARK UNBOUND:                -1.844
REMARK SMILES C[C@@H]1O[C@@H](OC[C@H]2O[C@H](Oc3c(-c4ccc(O)c(O)c4)oc4cc(O)cc(O)c4c3=O)[C@@H](O)[C@@H](O)[C@H]2O)[C@@H](O)[C@@H](O)[C@@H]1O
REMARK SMILES IDX 7 1 36 2 34 3 32 4 9 5 8 6 6 7 5 8 4 9 1 10 2 11 42 12 3 13
REMARK SMILES IDX 40 14 38 15 43 16 41 18 39 20 37 22 35 24 10 26 11 27 12 28
REMARK SMILES IDX 30 29 21 30 29 31 31 32 22 33 27 34 23 35 26 36 24 37 13 38
REMARK SMILES IDX 20 39 14 40 18 41 15 42 16 43 19 44 17 46 28 48 25 50 33 52
REMARK H PARENT 43 17 41 19 39 21 37 23 35 25 19 45 17 47 28 49 25 51 33 53
REMARK Flexibility Score: inf
ROOT
ATOM      1  C   UNL     1       9.977  27.979  24.090  1.00  0.00     0.180 C 
ATOM      2  C   UNL     1       9.468  29.223  23.322  1.00  0.00     0.177 C 
ATOM      3  C   UNL     1      10.028  29.217  21.890  1.00  0.00     0.180 C 
ATOM      4  C   UNL     1       9.733  27.871  21.209  1.00  0.00     0.214 C 
ATOM      5  C   UNL     1      10.209  26.713  22.103  1.00  0.00     0.339 C 
ATOM      6  O   UNL     1       9.644  26.776  23.408  1.00  0.00    -0.332 OA
ENDROOT
BRANCH   1   7
ATOM      7  C   UNL     1       9.405  27.952  25.534  1.00  0.00     0.198 C 
BRANCH   7   8
ATOM      8  O   UNL     1       9.700  26.733  26.195  1.00  0.00    -0.347 OA
BRANCH   8   9
ATOM      9  C   UNL     1       8.541  25.963  26.494  1.00  0.00     0.281 C 
ATOM     10  C   UNL     1       8.749  26.162  30.167  1.00  0.00     0.041 C 
ATOM     11  C   UNL     1       9.164  25.750  28.754  1.00  0.00     0.150 C 
ATOM     12  C   UNL     1       9.386  24.225  28.660  1.00  0.00     0.174 C 
ATOM     13  O   UNL     1       8.156  26.167  27.845  1.00  0.00    -0.344 OA
ATOM     14  C   UNL     1       9.790  23.850  27.219  1.00  0.00     0.179 C 
ATOM     15  C   UNL     1       8.781  24.457  26.223  1.00  0.00     0.202 C 
BRANCH  12  16
ATOM     16  O   UNL     1       8.204  23.551  29.015  1.00  0.00    -0.388 OA
ATOM     17  H   UNL     1       8.313  23.257  29.958  1.00  0.00     0.211 HD
ENDBRANCH  12  16
BRANCH  14  18
ATOM     18  O   UNL     1      11.087  24.318  26.944  1.00  0.00    -0.387 OA
ATOM     19  H   UNL     1      11.677  23.522  26.904  1.00  0.00     0.211 HD
ENDBRANCH  14  18
BRANCH  15  20
ATOM     20  O   UNL     1       9.160  24.211  24.890  1.00  0.00    -0.385 OA
ATOM     21  H   UNL     1       9.037  25.048  24.373  1.00  0.00     0.211 HD
ENDBRANCH  15  20
ENDBRANCH   8   9
ENDBRANCH   7   8
ENDBRANCH   1   7
BRANCH   2  22
ATOM     22  O   UNL     1       8.060  29.221  23.271  1.00  0.00    -0.387 OA
ATOM     23  H   UNL     1       7.770  30.136  23.017  1.00  0.00     0.211 HD
ENDBRANCH   2  22
BRANCH   3  24
ATOM     24  O   UNL     1       9.475  30.267  21.139  1.00  0.00    -0.387 OA
ATOM     25  H   UNL     1       8.927  29.851  20.422  1.00  0.00     0.211 HD
ENDBRANCH   3  24
BRANCH   5  26
ATOM     26  O   UNL     1      11.643  26.675  22.128  1.00  0.00    -0.454 OA
BRANCH  26  27
ATOM     27  C   UNL     1      12.419  26.807  20.969  1.00  0.00     0.214 A 
ATOM     28  C   UNL     1      13.449  27.766  20.887  1.00  0.00     0.180 A 
ATOM     29  C   UNL     1      12.219  25.944  19.888  1.00  0.00     0.239 A 
ATOM     30  O   UNL     1      14.157  27.882  19.768  1.00  0.00    -0.452 OA
ATOM     31  C   UNL     1      12.968  26.112  18.707  1.00  0.00     0.111 A 
ATOM     32  O   UNL     1      11.387  25.009  19.999  1.00  0.00    -0.285 OA
ATOM     33  C   UNL     1      13.951  27.129  18.694  1.00  0.00     0.146 A 
ATOM     34  C   UNL     1      12.783  25.316  17.552  1.00  0.00     0.134 A 
ATOM     35  C   UNL     1      14.722  27.346  17.549  1.00  0.00     0.094 A 
ATOM     36  C   UNL     1      13.560  25.556  16.410  1.00  0.00     0.093 A 
ATOM     37  C   UNL     1      14.521  26.568  16.404  1.00  0.00     0.123 A 
BRANCH  28  38
ATOM     38  C   UNL     1      13.808  28.635  22.023  1.00  0.00     0.025 A 
ATOM     39  C   UNL     1      13.039  29.781  22.278  1.00  0.00     0.062 A 
ATOM     40  C   UNL     1      14.845  28.291  22.906  1.00  0.00     0.016 A 
ATOM     41  C   UNL     1      13.321  30.597  23.381  1.00  0.00     0.158 A 
ATOM     42  C   UNL     1      15.141  29.112  23.997  1.00  0.00     0.051 A 
ATOM     43  C   UNL     1      14.384  30.266  24.240  1.00  0.00     0.157 A 
BRANCH  41  44
ATOM     44  O   UNL     1      12.531  31.723  23.612  1.00  0.00    -0.504 OA
ATOM     45  H   UNL     1      11.739  31.953  23.022  1.00  0.00     0.293 HD
ENDBRANCH  41  44
BRANCH  43  46
ATOM     46  O   UNL     1      14.678  31.079  25.334  1.00  0.00    -0.504 OA
ATOM     47  H   UNL     1      15.194  30.727  26.133  1.00  0.00     0.293 HD
ENDBRANCH  43  46
ENDBRANCH  28  38
BRANCH  34  48
ATOM     48  O   UNL     1      11.834  24.294  17.529  1.00  0.00    -0.507 OA
ATOM     49  H   UNL     1      11.259  24.122  16.712  1.00  0.00     0.293 HD
ENDBRANCH  34  48
BRANCH  37  50
ATOM     50  O   UNL     1      15.271  26.797  15.252  1.00  0.00    -0.508 OA
ATOM     51  H   UNL     1      14.828  26.987  14.359  1.00  0.00     0.293 HD
ENDBRANCH  37  50
ENDBRANCH  26  27
ENDBRANCH   5  26
BRANCH   4  52
ATOM     52  O   UNL     1       8.357  27.725  20.960  1.00  0.00    -0.384 OA
ATOM     53  H   UNL     1       7.878  28.112  21.738  1.00  0.00     0.211 HD
ENDBRANCH   4  52
TORSDOF 16
ENDMDL
MODEL 4
REMARK VINA RESULT:    -8.265      3.557     11.129
REMARK INTER + INTRA:         -15.424
REMARK INTER:                 -13.621
REMARK INTRA:                  -1.803
REMARK UNBOUND:                -1.844
REMARK SMILES C[C@@H]1O[C@@H](OC[C@H]2O[C@H](Oc3c(-c4ccc(O)c(O)c4)oc4cc(O)cc(O)c4c3=O)[C@@H](O)[C@@H](O)[C@H]2O)[C@@H](O)[C@@H](O)[C@@H]1O
REMARK SMILES IDX 7 1 36 2 34 3 32 4 9 5 8 6 6 7 5 8 4 9 1 10 2 11 42 12 3 13
REMARK SMILES IDX 40 14 38 15 43 16 41 18 39 20 37 22 35 24 10 26 11 27 12 28
REMARK SMILES IDX 30 29 21 30 29 31 31 32 22 33 27 34 23 35 26 36 24 37 13 38
REMARK SMILES IDX 20 39 14 40 18 41 15 42 16 43 19 44 17 46 28 48 25 50 33 52
REMARK H PARENT 43 17 41 19 39 21 37 23 35 25 19 45 17 47 28 49 25 51 33 53
REMARK Flexibility Score: inf
ROOT
ATOM      1  C   UNL     1       8.092  25.175  26.289  1.00  0.00     0.180 C 
ATOM      2  C   UNL     1       8.899  26.079  27.253  1.00  0.00     0.177 C 
ATOM      3  C   UNL     1       8.481  25.796  28.705  1.00  0.00     0.180 C 
ATOM      4  C   UNL     1       8.572  24.291  29.001  1.00  0.00     0.214 C 
ATOM      5  C   UNL     1       7.803  23.497  27.932  1.00  0.00     0.339 C 
ATOM      6  O   UNL     1       8.248  23.800  26.615  1.00  0.00    -0.332 OA
ENDROOT
BRANCH   1   7
ATOM      7  C   UNL     1       8.514  25.428  24.815  1.00  0.00     0.198 C 
BRANCH   7   8
ATOM      8  O   UNL     1       9.196  26.663  24.667  1.00  0.00    -0.347 OA
BRANCH   8   9
ATOM      9  C   UNL     1       9.678  26.882  23.345  1.00  0.00     0.281 C 
ATOM     10  C   UNL     1      13.234  27.346  24.187  1.00  0.00     0.041 C 
ATOM     11  C   UNL     1      11.743  27.682  24.142  1.00  0.00     0.150 C 
ATOM     12  C   UNL     1      11.510  29.117  23.623  1.00  0.00     0.174 C 
ATOM     13  O   UNL     1      11.090  26.734  23.312  1.00  0.00    -0.344 OA
ATOM     14  C   UNL     1       9.996  29.411  23.581  1.00  0.00     0.179 C 
ATOM     15  C   UNL     1       9.269  28.281  22.823  1.00  0.00     0.202 C 
BRANCH  12  16
ATOM     16  O   UNL     1      12.057  29.250  22.334  1.00  0.00    -0.388 OA
ATOM     17  H   UNL     1      12.888  29.784  22.429  1.00  0.00     0.211 HD
ENDBRANCH  12  16
BRANCH  14  18
ATOM     18  O   UNL     1       9.490  29.523  24.889  1.00  0.00    -0.387 OA
ATOM     19  H   UNL     1       9.759  30.416  25.224  1.00  0.00     0.211 HD
ENDBRANCH  14  18
BRANCH  15  20
ATOM     20  O   UNL     1       7.874  28.466  22.837  1.00  0.00    -0.385 OA
ATOM     21  H   UNL     1       7.442  27.573  22.838  1.00  0.00     0.211 HD
ENDBRANCH  15  20
ENDBRANCH   8   9
ENDBRANCH   7   8
ENDBRANCH   1   7
BRANCH   2  22
ATOM     22  O   UNL     1      10.279  25.834  27.109  1.00  0.00    -0.387 OA
ATOM     23  H   UNL     1      10.635  25.600  28.006  1.00  0.00     0.211 HD
ENDBRANCH   2  22
BRANCH   3  24
ATOM     24  O   UNL     1       9.291  26.512  29.601  1.00  0.00    -0.387 OA
ATOM     25  H   UNL     1       8.690  26.887  30.297  1.00  0.00     0.211 HD
ENDBRANCH   3  24
BRANCH   5  26
ATOM     26  O   UNL     1       6.392  23.701  28.094  1.00  0.00    -0.454 OA
BRANCH  26  27
ATOM     27  C   UNL     1       5.584  22.820  28.824  1.00  0.00     0.214 A 
ATOM     28  C   UNL     1       4.794  23.276  29.899  1.00  0.00     0.180 A 
ATOM     29  C   UNL     1       5.504  21.474  28.459  1.00  0.00     0.239 A 
ATOM     30  O   UNL     1       4.051  22.415  30.587  1.00  0.00    -0.452 OA
ATOM     31  C   UNL     1       4.728  20.582  29.225  1.00  0.00     0.111 A 
ATOM     32  O   UNL     1       6.108  21.083  27.428  1.00  0.00    -0.285 OA
ATOM     33  C   UNL     1       4.002  21.117  30.316  1.00  0.00     0.146 A 
ATOM     34  C   UNL     1       4.642  19.196  28.952  1.00  0.00     0.134 A 
ATOM     35  C   UNL     1       3.219  20.280  31.116  1.00  0.00     0.094 A 
ATOM     36  C   UNL     1       3.859  18.372  29.773  1.00  0.00     0.093 A 
ATOM     37  C   UNL     1       3.154  18.908  30.852  1.00  0.00     0.123 A 
BRANCH  28  38
ATOM     38  C   UNL     1       4.725  24.700  30.277  1.00  0.00     0.025 A 
ATOM     39  C   UNL     1       5.770  25.261  31.027  1.00  0.00     0.062 A 
ATOM     40  C   UNL     1       3.683  25.526  29.823  1.00  0.00     0.016 A 
ATOM     41  C   UNL     1       5.761  26.623  31.354  1.00  0.00     0.158 A 
ATOM     42  C   UNL     1       3.661  26.880  30.163  1.00  0.00     0.051 A 
ATOM     43  C   UNL     1       4.695  27.436  30.929  1.00  0.00     0.157 A 
BRANCH  41  44
ATOM     44  O   UNL     1       6.820  27.151  32.093  1.00  0.00    -0.504 OA
ATOM     45  H   UNL     1       7.142  26.720  32.952  1.00  0.00     0.293 HD
ENDBRANCH  41  44
BRANCH  43  46
ATOM     46  O   UNL     1       4.673  28.790  31.259  1.00  0.00    -0.504 OA
ATOM     47  H   UNL     1       4.674  29.510  30.546  1.00  0.00     0.293 HD
ENDBRANCH  43  46
ENDBRANCH  28  38
BRANCH  34  48
ATOM     48  O   UNL     1       5.331  18.632  27.878  1.00  0.00    -0.507 OA
ATOM     49  H   UNL     1       5.848  17.765  27.975  1.00  0.00     0.293 HD
ENDBRANCH  34  48
BRANCH  37  50
ATOM     50  O   UNL     1       2.394  18.066  31.661  1.00  0.00    -0.508 OA
ATOM     51  H   UNL     1       1.772  17.368  31.266  1.00  0.00     0.293 HD
ENDBRANCH  37  50
ENDBRANCH  26  27
ENDBRANCH   5  26
BRANCH   4  52
ATOM     52  O   UNL     1       9.911  23.863  29.019  1.00  0.00    -0.384 OA
ATOM     53  H   UNL     1      10.454  24.618  29.365  1.00  0.00     0.211 HD
ENDBRANCH   4  52
TORSDOF 16
ENDMDL
MODEL 5
REMARK VINA RESULT:    -8.196      6.240     10.958
REMARK INTER + INTRA:         -15.310
REMARK INTER:                 -12.540
REMARK INTRA:                  -2.769
REMARK UNBOUND:                -1.844
REMARK SMILES C[C@@H]1O[C@@H](OC[C@H]2O[C@H](Oc3c(-c4ccc(O)c(O)c4)oc4cc(O)cc(O)c4c3=O)[C@@H](O)[C@@H](O)[C@H]2O)[C@@H](O)[C@@H](O)[C@@H]1O
REMARK SMILES IDX 7 1 36 2 34 3 32 4 9 5 8 6 6 7 5 8 4 9 1 10 2 11 42 12 3 13
REMARK SMILES IDX 40 14 38 15 43 16 41 18 39 20 37 22 35 24 10 26 11 27 12 28
REMARK SMILES IDX 30 29 21 30 29 31 31 32 22 33 27 34 23 35 26 36 24 37 13 38
REMARK SMILES IDX 20 39 14 40 18 41 15 42 16 43 19 44 17 46 28 48 25 50 33 52
REMARK H PARENT 43 17 41 19 39 21 37 23 35 25 19 45 17 47 28 49 25 51 33 53
REMARK Flexibility Score: inf
ROOT
ATOM      1  C   UNL     1       8.913  23.160  26.772  1.00  0.00     0.180 C 
ATOM      2  C   UNL     1       9.362  24.555  26.272  1.00  0.00     0.177 C 
ATOM      3  C   UNL     1       8.379  25.628  26.770  1.00  0.00     0.180 C 
ATOM      4  C   UNL     1       8.194  25.515  28.291  1.00  0.00     0.214 C 
ATOM      5  C   UNL     1       7.832  24.069  28.671  1.00  0.00     0.339 C 
ATOM      6  O   UNL     1       8.789  23.132  28.188  1.00  0.00    -0.332 OA
ENDROOT
BRANCH   1   7
ATOM      7  C   UNL     1       9.906  22.062  26.299  1.00  0.00     0.198 C 
BRANCH   7   8
ATOM      8  O   UNL     1      10.211  21.146  27.339  1.00  0.00    -0.347 OA
BRANCH   8   9
ATOM      9  C   UNL     1      11.609  20.945  27.515  1.00  0.00     0.281 C 
ATOM     10  C   UNL     1      11.445  17.543  28.920  1.00  0.00     0.041 C 
ATOM     11  C   UNL     1      11.250  19.059  28.877  1.00  0.00     0.150 C 
ATOM     12  C   UNL     1      11.821  19.731  30.143  1.00  0.00     0.174 C 
ATOM     13  O   UNL     1      11.881  19.565  27.711  1.00  0.00    -0.344 OA
ATOM     14  C   UNL     1      11.617  21.257  30.055  1.00  0.00     0.179 C 
ATOM     15  C   UNL     1      12.151  21.775  28.704  1.00  0.00     0.202 C 
BRANCH  12  16
ATOM     16  O   UNL     1      13.193  19.440  30.256  1.00  0.00    -0.388 OA
ATOM     17  H   UNL     1      13.326  19.025  31.149  1.00  0.00     0.211 HD
ENDBRANCH  12  16
BRANCH  14  18
ATOM     18  O   UNL     1      10.252  21.569  30.190  1.00  0.00    -0.387 OA
ATOM     19  H   UNL     1       9.789  21.177  29.406  1.00  0.00     0.211 HD
ENDBRANCH  14  18
BRANCH  15  20
ATOM     20  O   UNL     1      11.905  23.152  28.546  1.00  0.00    -0.385 OA
ATOM     21  H   UNL     1      11.233  23.266  27.826  1.00  0.00     0.211 HD
ENDBRANCH  15  20
ENDBRANCH   8   9
ENDBRANCH   7   8
ENDBRANCH   1   7
BRANCH   2  22
ATOM     22  O   UNL     1      10.655  24.851  26.749  1.00  0.00    -0.387 OA
ATOM     23  H   UNL     1      11.252  24.932  25.960  1.00  0.00     0.211 HD
ENDBRANCH   2  22
BRANCH   3  24
ATOM     24  O   UNL     1       8.839  26.912  26.435  1.00  0.00    -0.387 OA
ATOM     25  H   UNL     1       8.108  27.547  26.660  1.00  0.00     0.211 HD
ENDBRANCH   3  24
BRANCH   5  26
ATOM     26  O   UNL     1       6.500  23.768  28.231  1.00  0.00    -0.454 OA
BRANCH  26  27
ATOM     27  C   UNL     1       5.661  22.886  28.923  1.00  0.00     0.214 A 
ATOM     28  C   UNL     1       4.830  23.339  29.968  1.00  0.00     0.180 A 
ATOM     29  C   UNL     1       5.592  21.541  28.548  1.00  0.00     0.239 A 
ATOM     30  O   UNL     1       4.058  22.477  30.621  1.00  0.00    -0.452 OA
ATOM     31  C   UNL     1       4.783  20.648  29.279  1.00  0.00     0.111 A 
ATOM     32  O   UNL     1       6.235  21.154  27.541  1.00  0.00    -0.285 OA
ATOM     33  C   UNL     1       4.016  21.180  30.342  1.00  0.00     0.146 A 
ATOM     34  C   UNL     1       4.705  19.264  28.995  1.00  0.00     0.134 A 
ATOM     35  C   UNL     1       3.199  20.341  31.106  1.00  0.00     0.094 A 
ATOM     36  C   UNL     1       3.887  18.438  29.780  1.00  0.00     0.093 A 
ATOM     37  C   UNL     1       3.141  18.971  30.833  1.00  0.00     0.123 A 
BRANCH  28  38
ATOM     38  C   UNL     1       4.750  24.761  30.350  1.00  0.00     0.025 A 
ATOM     39  C   UNL     1       5.767  25.316  31.142  1.00  0.00     0.062 A 
ATOM     40  C   UNL     1       3.728  25.592  29.861  1.00  0.00     0.016 A 
ATOM     41  C   UNL     1       5.748  26.676  31.476  1.00  0.00     0.158 A 
ATOM     42  C   UNL     1       3.696  26.945  30.206  1.00  0.00     0.051 A 
ATOM     43  C   UNL     1       4.702  27.493  31.013  1.00  0.00     0.157 A 
BRANCH  41  44
ATOM     44  O   UNL     1       6.779  27.198  32.257  1.00  0.00    -0.504 OA
ATOM     45  H   UNL     1       6.798  28.171  32.540  1.00  0.00     0.293 HD
ENDBRANCH  41  44
BRANCH  43  46
ATOM     46  O   UNL     1       4.670  28.846  31.350  1.00  0.00    -0.504 OA
ATOM     47  H   UNL     1       4.693  29.153  32.315  1.00  0.00     0.293 HD
ENDBRANCH  43  46
ENDBRANCH  28  38
BRANCH  34  48
ATOM     48  O   UNL     1       5.435  18.703  27.947  1.00  0.00    -0.507 OA
ATOM     49  H   UNL     1       5.504  19.160  27.044  1.00  0.00     0.293 HD
ENDBRANCH  34  48
BRANCH  37  50
ATOM     50  O   UNL     1       2.347  18.128  31.606  1.00  0.00    -0.508 OA
ATOM     51  H   UNL     1       1.397  18.378  31.862  1.00  0.00     0.293 HD
ENDBRANCH  37  50
ENDBRANCH  26  27
ENDBRANCH   5  26
BRANCH   4  52
ATOM     52  O   UNL     1       9.367  25.890  28.969  1.00  0.00    -0.384 OA
ATOM     53  H   UNL     1       9.804  25.055  29.279  1.00  0.00     0.211 HD
ENDBRANCH   4  52
TORSDOF 16
ENDMDL
MODEL 6
REMARK VINA RESULT:    -7.937      3.565     11.139
REMARK INTER + INTRA:         -14.885
REMARK INTER:                 -13.186
REMARK INTRA:                  -1.699
REMARK UNBOUND:                -1.844
REMARK SMILES C[C@@H]1O[C@@H](OC[C@H]2O[C@H](Oc3c(-c4ccc(O)c(O)c4)oc4cc(O)cc(O)c4c3=O)[C@@H](O)[C@@H](O)[C@H]2O)[C@@H](O)[C@@H](O)[C@@H]1O
REMARK SMILES IDX 7 1 36 2 34 3 32 4 9 5 8 6 6 7 5 8 4 9 1 10 2 11 42 12 3 13
REMARK SMILES IDX 40 14 38 15 43 16 41 18 39 20 37 22 35 24 10 26 11 27 12 28
REMARK SMILES IDX 30 29 21 30 29 31 31 32 22 33 27 34 23 35 26 36 24 37 13 38
REMARK SMILES IDX 20 39 14 40 18 41 15 42 16 43 19 44 17 46 28 48 25 50 33 52
REMARK H PARENT 43 17 41 19 39 21 37 23 35 25 19 45 17 47 28 49 25 51 33 53
REMARK Flexibility Score: inf
ROOT
ATOM      1  C   UNL     1       8.253  24.968  26.337  1.00  0.00     0.180 C 
ATOM      2  C   UNL     1       9.029  25.932  27.268  1.00  0.00     0.177 C 
ATOM      3  C   UNL     1       8.548  25.755  28.718  1.00  0.00     0.180 C 
ATOM      4  C   UNL     1       8.613  24.274  29.123  1.00  0.00     0.214 C 
ATOM      5  C   UNL     1       7.882  23.411  28.081  1.00  0.00     0.339 C 
ATOM      6  O   UNL     1       8.384  23.618  26.765  1.00  0.00    -0.332 OA
ENDROOT
BRANCH   1   7
ATOM      7  C   UNL     1       8.739  25.113  24.868  1.00  0.00     0.198 C 
BRANCH   7   8
ATOM      8  O   UNL     1       9.594  26.233  24.705  1.00  0.00    -0.347 OA
BRANCH   8   9
ATOM      9  C   UNL     1       9.117  27.166  23.741  1.00  0.00     0.281 C 
ATOM     10  C   UNL     1      10.863  25.782  20.807  1.00  0.00     0.041 C 
ATOM     11  C   UNL     1      10.720  26.479  22.161  1.00  0.00     0.150 C 
ATOM     12  C   UNL     1      11.470  27.829  22.175  1.00  0.00     0.174 C 
ATOM     13  O   UNL     1       9.340  26.668  22.430  1.00  0.00    -0.344 OA
ATOM     14  C   UNL     1      11.290  28.504  23.551  1.00  0.00     0.179 C 
ATOM     15  C   UNL     1       9.792  28.549  23.915  1.00  0.00     0.202 C 
BRANCH  12  16
ATOM     16  O   UNL     1      10.961  28.664  21.164  1.00  0.00    -0.388 OA
ATOM     17  H   UNL     1      11.485  28.472  20.343  1.00  0.00     0.211 HD
ENDBRANCH  12  16
BRANCH  14  18
ATOM     18  O   UNL     1      12.009  27.798  24.532  1.00  0.00    -0.387 OA
ATOM     19  H   UNL     1      11.764  26.843  24.435  1.00  0.00     0.211 HD
ENDBRANCH  14  18
BRANCH  15  20
ATOM     20  O   UNL     1       9.591  29.079  25.203  1.00  0.00    -0.385 OA
ATOM     21  H   UNL     1       9.618  28.333  25.854  1.00  0.00     0.211 HD
ENDBRANCH  15  20
ENDBRANCH   8   9
ENDBRANCH   7   8
ENDBRANCH   1   7
BRANCH   2  22
ATOM     22  O   UNL     1      10.411  25.669  27.200  1.00  0.00    -0.387 OA
ATOM     23  H   UNL     1      10.646  25.104  27.981  1.00  0.00     0.211 HD
ENDBRANCH   2  22
BRANCH   3  24
ATOM     24  O   UNL     1       9.327  26.528  29.594  1.00  0.00    -0.387 OA
ATOM     25  H   UNL     1       8.712  26.884  30.289  1.00  0.00     0.211 HD
ENDBRANCH   3  24
BRANCH   5  26
ATOM     26  O   UNL     1       6.468  23.635  28.169  1.00  0.00    -0.454 OA
BRANCH  26  27
ATOM     27  C   UNL     1       5.613  22.779  28.876  1.00  0.00     0.214 A 
ATOM     28  C   UNL     1       4.799  23.261  29.920  1.00  0.00     0.180 A 
ATOM     29  C   UNL     1       5.513  21.432  28.515  1.00  0.00     0.239 A 
ATOM     30  O   UNL     1       4.012  22.423  30.587  1.00  0.00    -0.452 OA
ATOM     31  C   UNL     1       4.689  20.565  29.260  1.00  0.00     0.111 A 
ATOM     32  O   UNL     1       6.142  21.021  27.509  1.00  0.00    -0.285 OA
ATOM     33  C   UNL     1       3.940  21.124  30.322  1.00  0.00     0.146 A 
ATOM     34  C   UNL     1       4.580  19.180  28.992  1.00  0.00     0.134 A 
ATOM     35  C   UNL     1       3.110  20.312  31.100  1.00  0.00     0.094 A 
ATOM     36  C   UNL     1       3.748  18.381  29.791  1.00  0.00     0.093 A 
ATOM     37  C   UNL     1       3.020  18.940  30.842  1.00  0.00     0.123 A 
BRANCH  28  38
ATOM     38  C   UNL     1       4.752  24.689  30.287  1.00  0.00     0.025 A 
ATOM     39  C   UNL     1       5.808  25.241  31.028  1.00  0.00     0.062 A 
ATOM     40  C   UNL     1       3.719  25.526  29.833  1.00  0.00     0.016 A 
ATOM     41  C   UNL     1       5.820  26.605  31.344  1.00  0.00     0.158 A 
ATOM     42  C   UNL     1       3.718  26.883  30.162  1.00  0.00     0.051 A 
ATOM     43  C   UNL     1       4.764  27.429  30.918  1.00  0.00     0.157 A 
BRANCH  41  44
ATOM     44  O   UNL     1       6.891  27.124  32.074  1.00  0.00    -0.504 OA
ATOM     45  H   UNL     1       7.820  26.722  32.022  1.00  0.00     0.293 HD
ENDBRANCH  41  44
BRANCH  43  46
ATOM     46  O   UNL     1       4.762  28.787  31.238  1.00  0.00    -0.504 OA
ATOM     47  H   UNL     1       4.872  29.499  30.526  1.00  0.00     0.293 HD
ENDBRANCH  43  46
ENDBRANCH  28  38
BRANCH  34  48
ATOM     48  O   UNL     1       5.291  18.592  27.946  1.00  0.00    -0.507 OA
ATOM     49  H   UNL     1       6.280  18.768  27.811  1.00  0.00     0.293 HD
ENDBRANCH  34  48
BRANCH  37  50
ATOM     50  O   UNL     1       2.213  18.123  31.629  1.00  0.00    -0.508 OA
ATOM     51  H   UNL     1       1.624  17.404  31.220  1.00  0.00     0.293 HD
ENDBRANCH  37  50
ENDBRANCH  26  27
ENDBRANCH   5  26
BRANCH   4  52
ATOM     52  O   UNL     1       9.947  23.840  29.227  1.00  0.00    -0.384 OA
ATOM     53  H   UNL     1      10.327  23.846  28.310  1.00  0.00     0.211 HD
ENDBRANCH   4  52
TORSDOF 16
ENDMDL
MODEL 7
REMARK VINA RESULT:    -7.687      2.701      5.064
REMARK INTER + INTRA:         -14.474
REMARK INTER:                 -11.510
REMARK INTRA:                  -2.964
REMARK UNBOUND:                -1.844
REMARK SMILES C[C@@H]1O[C@@H](OC[C@H]2O[C@H](Oc3c(-c4ccc(O)c(O)c4)oc4cc(O)cc(O)c4c3=O)[C@@H](O)[C@@H](O)[C@H]2O)[C@@H](O)[C@@H](O)[C@@H]1O
REMARK SMILES IDX 7 1 36 2 34 3 32 4 9 5 8 6 6 7 5 8 4 9 1 10 2 11 42 12 3 13
REMARK SMILES IDX 40 14 38 15 43 16 41 18 39 20 37 22 35 24 10 26 11 27 12 28
REMARK SMILES IDX 30 29 21 30 29 31 31 32 22 33 27 34 23 35 26 36 24 37 13 38
REMARK SMILES IDX 20 39 14 40 18 41 15 42 16 43 19 44 17 46 28 48 25 50 33 52
REMARK H PARENT 43 17 41 19 39 21 37 23 35 25 19 45 17 47 28 49 25 51 33 53
REMARK Flexibility Score: inf
ROOT
ATOM      1  C   UNL     1       9.105  25.480  22.992  1.00  0.00     0.180 C 
ATOM      2  C   UNL     1       8.808  25.997  24.421  1.00  0.00     0.177 C 
ATOM      3  C   UNL     1       9.863  27.039  24.828  1.00  0.00     0.180 C 
ATOM      4  C   UNL     1       9.972  28.133  23.755  1.00  0.00     0.214 C 
ATOM      5  C   UNL     1      10.184  27.494  22.372  1.00  0.00     0.339 C 
ATOM      6  O   UNL     1       9.167  26.550  22.057  1.00  0.00    -0.332 OA
ENDROOT
BRANCH   1   7
ATOM      7  C   UNL     1       8.038  24.442  22.550  1.00  0.00     0.198 C 
BRANCH   7   8
ATOM      8  O   UNL     1       8.586  23.455  21.691  1.00  0.00    -0.347 OA
BRANCH   8   9
ATOM      9  C   UNL     1       7.695  23.055  20.656  1.00  0.00     0.281 C 
ATOM     10  C   UNL     1       7.757  19.433  21.324  1.00  0.00     0.041 C 
ATOM     11  C   UNL     1       8.304  20.794  20.892  1.00  0.00     0.150 C 
ATOM     12  C   UNL     1       8.963  20.714  19.499  1.00  0.00     0.174 C 
ATOM     13  O   UNL     1       7.239  21.731  20.892  1.00  0.00    -0.344 OA
ATOM     14  C   UNL     1       9.489  22.108  19.096  1.00  0.00     0.179 C 
ATOM     15  C   UNL     1       8.368  23.154  19.265  1.00  0.00     0.202 C 
BRANCH  12  16
ATOM     16  O   UNL     1       8.021  20.269  18.554  1.00  0.00    -0.388 OA
ATOM     17  H   UNL     1       7.430  19.622  19.021  1.00  0.00     0.211 HD
ENDBRANCH  12  16
BRANCH  14  18
ATOM     18  O   UNL     1      10.599  22.451  19.888  1.00  0.00    -0.387 OA
ATOM     19  H   UNL     1      10.451  22.047  20.781  1.00  0.00     0.211 HD
ENDBRANCH  14  18
BRANCH  15  20
ATOM     20  O   UNL     1       8.832  24.454  18.991  1.00  0.00    -0.385 OA
ATOM     21  H   UNL     1       9.509  24.397  18.269  1.00  0.00     0.211 HD
ENDBRANCH  15  20
ENDBRANCH   8   9
ENDBRANCH   7   8
ENDBRANCH   1   7
BRANCH   2  22
ATOM     22  O   UNL     1       7.529  26.586  24.470  1.00  0.00    -0.387 OA
ATOM     23  H   UNL     1       7.423  27.138  23.651  1.00  0.00     0.211 HD
ENDBRANCH   2  22
BRANCH   3  24
ATOM     24  O   UNL     1       9.538  27.613  26.068  1.00  0.00    -0.387 OA
ATOM     25  H   UNL     1      10.391  27.732  26.564  1.00  0.00     0.211 HD
ENDBRANCH   3  24
BRANCH   5  26
ATOM     26  O   UNL     1      11.500  26.929  22.293  1.00  0.00    -0.454 OA
BRANCH  26  27
ATOM     27  C   UNL     1      12.285  27.013  21.136  1.00  0.00     0.214 A 
ATOM     28  C   UNL     1      13.340  27.943  21.037  1.00  0.00     0.180 A 
ATOM     29  C   UNL     1      12.070  26.130  20.074  1.00  0.00     0.239 A 
ATOM     30  O   UNL     1      14.057  28.015  19.920  1.00  0.00    -0.452 OA
ATOM     31  C   UNL     1      12.830  26.250  18.894  1.00  0.00     0.111 A 
ATOM     32  O   UNL     1      11.214  25.218  20.202  1.00  0.00    -0.285 OA
ATOM     33  C   UNL     1      13.839  27.241  18.863  1.00  0.00     0.146 A 
ATOM     34  C   UNL     1      12.632  25.431  17.757  1.00  0.00     0.134 A 
ATOM     35  C   UNL     1      14.621  27.412  17.718  1.00  0.00     0.094 A 
ATOM     36  C   UNL     1      13.421  25.624  16.614  1.00  0.00     0.093 A 
ATOM     37  C   UNL     1      14.408  26.611  16.590  1.00  0.00     0.123 A 
BRANCH  28  38
ATOM     38  C   UNL     1      13.714  28.831  22.154  1.00  0.00     0.025 A 
ATOM     39  C   UNL     1      12.936  29.969  22.414  1.00  0.00     0.062 A 
ATOM     40  C   UNL     1      14.776  28.511  23.016  1.00  0.00     0.016 A 
ATOM     41  C   UNL     1      13.233  30.801  23.501  1.00  0.00     0.158 A 
ATOM     42  C   UNL     1      15.087  29.348  24.089  1.00  0.00     0.051 A 
ATOM     43  C   UNL     1      14.320  30.495  24.338  1.00  0.00     0.157 A 
BRANCH  41  44
ATOM     44  O   UNL     1      12.433  31.920  23.738  1.00  0.00    -0.504 OA
ATOM     45  H   UNL     1      11.469  31.965  23.428  1.00  0.00     0.293 HD
ENDBRANCH  41  44
BRANCH  43  46
ATOM     46  O   UNL     1      14.629  31.324  25.415  1.00  0.00    -0.504 OA
ATOM     47  H   UNL     1      15.483  31.204  25.949  1.00  0.00     0.293 HD
ENDBRANCH  43  46
ENDBRANCH  28  38
BRANCH  34  48
ATOM     48  O   UNL     1      11.658  24.433  17.753  1.00  0.00    -0.507 OA
ATOM     49  H   UNL     1      11.503  23.837  18.558  1.00  0.00     0.293 HD
ENDBRANCH  34  48
BRANCH  37  50
ATOM     50  O   UNL     1      15.169  26.793  15.439  1.00  0.00    -0.508 OA
ATOM     51  H   UNL     1      15.957  27.433  15.417  1.00  0.00     0.293 HD
ENDBRANCH  37  50
ENDBRANCH  26  27
ENDBRANCH   5  26
BRANCH   4  52
ATOM     52  O   UNL     1       8.811  28.925  23.724  1.00  0.00    -0.384 OA
ATOM     53  H   UNL     1       8.881  29.572  24.473  1.00  0.00     0.211 HD
ENDBRANCH   4  52
TORSDOF 16
ENDMDL
MODEL 8
REMARK VINA RESULT:    -7.670      2.651      8.330
REMARK INTER + INTRA:         -14.447
REMARK INTER:                 -11.828
REMARK INTRA:                  -2.619
REMARK UNBOUND:                -1.844
REMARK SMILES C[C@@H]1O[C@@H](OC[C@H]2O[C@H](Oc3c(-c4ccc(O)c(O)c4)oc4cc(O)cc(O)c4c3=O)[C@@H](O)[C@@H](O)[C@H]2O)[C@@H](O)[C@@H](O)[C@@H]1O
REMARK SMILES IDX 7 1 36 2 34 3 32 4 9 5 8 6 6 7 5 8 4 9 1 10 2 11 42 12 3 13
REMARK SMILES IDX 40 14 38 15 43 16 41 18 39 20 37 22 35 24 10 26 11 27 12 28
REMARK SMILES IDX 30 29 21 30 29 31 31 32 22 33 27 34 23 35 26 36 24 37 13 38
REMARK SMILES IDX 20 39 14 40 18 41 15 42 16 43 19 44 17 46 28 48 25 50 33 52
REMARK H PARENT 43 17 41 19 39 21 37 23 35 25 19 45 17 47 28 49 25 51 33 53
REMARK Flexibility Score: inf
ROOT
ATOM      1  C   UNL     1      11.717  29.528  21.384  1.00  0.00     0.180 C 
ATOM      2  C   UNL     1      12.681  30.352  22.272  1.00  0.00     0.177 C 
ATOM      3  C   UNL     1      12.241  30.259  23.743  1.00  0.00     0.180 C 
ATOM      4  C   UNL     1      12.078  28.788  24.157  1.00  0.00     0.214 C 
ATOM      5  C   UNL     1      11.169  28.057  23.155  1.00  0.00     0.339 C 
ATOM      6  O   UNL     1      11.641  28.176  21.817  1.00  0.00    -0.332 OA
ENDROOT
BRANCH   1   7
ATOM      7  C   UNL     1      12.155  29.590  19.894  1.00  0.00     0.198 C 
BRANCH   7   8
ATOM      8  O   UNL     1      12.316  28.294  19.339  1.00  0.00    -0.347 OA
BRANCH   8   9
ATOM      9  C   UNL     1      13.669  27.982  19.027  1.00  0.00     0.281 C 
ATOM     10  C   UNL     1      13.048  26.198  15.864  1.00  0.00     0.041 C 
ATOM     11  C   UNL     1      13.019  26.437  17.374  1.00  0.00     0.150 C 
ATOM     12  C   UNL     1      13.571  25.219  18.143  1.00  0.00     0.174 C 
ATOM     13  O   UNL     1      13.778  27.601  17.663  1.00  0.00    -0.344 OA
ATOM     14  C   UNL     1      13.536  25.506  19.659  1.00  0.00     0.179 C 
ATOM     15  C   UNL     1      14.214  26.861  19.946  1.00  0.00     0.202 C 
BRANCH  12  16
ATOM     16  O   UNL     1      14.893  24.961  17.738  1.00  0.00    -0.388 OA
ATOM     17  H   UNL     1      14.912  25.050  16.749  1.00  0.00     0.211 HD
ENDBRANCH  12  16
BRANCH  14  18
ATOM     18  O   UNL     1      12.206  25.520  20.117  1.00  0.00    -0.387 OA
ATOM     19  H   UNL     1      11.697  26.105  19.499  1.00  0.00     0.211 HD
ENDBRANCH  14  18
BRANCH  15  20
ATOM     20  O   UNL     1      14.127  27.203  21.308  1.00  0.00    -0.385 OA
ATOM     21  H   UNL     1      14.355  28.163  21.403  1.00  0.00     0.211 HD
ENDBRANCH  15  20
ENDBRANCH   8   9
ENDBRANCH   7   8
ENDBRANCH   1   7
BRANCH   2  22
ATOM     22  O   UNL     1      13.996  29.864  22.147  1.00  0.00    -0.387 OA
ATOM     23  H   UNL     1      14.573  30.405  22.748  1.00  0.00     0.211 HD
ENDBRANCH   2  22
BRANCH   3  24
ATOM     24  O   UNL     1      13.175  30.893  24.578  1.00  0.00    -0.387 OA
ATOM     25  H   UNL     1      13.621  31.594  24.033  1.00  0.00     0.211 HD
ENDBRANCH   3  24
BRANCH   5  26
ATOM     26  O   UNL     1       9.817  28.513  23.301  1.00  0.00    -0.454 OA
BRANCH  26  27
ATOM     27  C   UNL     1       8.722  27.786  22.815  1.00  0.00     0.214 A 
ATOM     28  C   UNL     1       8.200  26.689  23.529  1.00  0.00     0.180 A 
ATOM     29  C   UNL     1       8.089  28.177  21.632  1.00  0.00     0.239 A 
ATOM     30  O   UNL     1       7.172  26.005  23.036  1.00  0.00    -0.452 OA
ATOM     31  C   UNL     1       7.020  27.414  21.122  1.00  0.00     0.111 A 
ATOM     32  O   UNL     1       8.469  29.225  21.053  1.00  0.00    -0.285 OA
ATOM     33  C   UNL     1       6.588  26.301  21.881  1.00  0.00     0.146 A 
ATOM     34  C   UNL     1       6.367  27.713  19.903  1.00  0.00     0.134 A 
ATOM     35  C   UNL     1       5.536  25.504  21.423  1.00  0.00     0.094 A 
ATOM     36  C   UNL     1       5.319  26.895  19.456  1.00  0.00     0.093 A 
ATOM     37  C   UNL     1       4.907  25.794  20.207  1.00  0.00     0.123 A 
BRANCH  28  38
ATOM     38  C   UNL     1       8.729  26.282  24.845  1.00  0.00     0.025 A 
ATOM     39  C   UNL     1       7.903  26.382  25.975  1.00  0.00     0.062 A 
ATOM     40  C   UNL     1      10.006  25.712  24.974  1.00  0.00     0.016 A 
ATOM     41  C   UNL     1       8.357  25.952  27.229  1.00  0.00     0.158 A 
ATOM     42  C   UNL     1      10.469  25.300  26.225  1.00  0.00     0.051 A 
ATOM     43  C   UNL     1       9.651  25.417  27.357  1.00  0.00     0.157 A 
BRANCH  41  44
ATOM     44  O   UNL     1       7.507  26.056  28.331  1.00  0.00    -0.504 OA
ATOM     45  H   UNL     1       6.596  25.613  28.349  1.00  0.00     0.293 HD
ENDBRANCH  41  44
BRANCH  43  46
ATOM     46  O   UNL     1      10.114  24.997  28.603  1.00  0.00    -0.504 OA
ATOM     47  H   UNL     1       9.667  24.240  29.107  1.00  0.00     0.293 HD
ENDBRANCH  43  46
ENDBRANCH  28  38
BRANCH  34  48
ATOM     48  O   UNL     1       6.752  28.810  19.132  1.00  0.00    -0.507 OA
ATOM     49  H   UNL     1       7.173  29.632  19.550  1.00  0.00     0.293 HD
ENDBRANCH  34  48
BRANCH  37  50
ATOM     50  O   UNL     1       3.873  24.989  19.736  1.00  0.00    -0.508 OA
ATOM     51  H   UNL     1       3.360  25.222  18.891  1.00  0.00     0.293 HD
ENDBRANCH  37  50
ENDBRANCH  26  27
ENDBRANCH   5  26
BRANCH   4  52
ATOM     52  O   UNL     1      13.324  28.139  24.207  1.00  0.00    -0.384 OA
ATOM     53  H   UNL     1      13.640  28.188  25.147  1.00  0.00     0.211 HD
ENDBRANCH   4  52
TORSDOF 16
ENDMDL
MODEL 9
REMARK VINA RESULT:    -7.591      2.049      9.412
REMARK INTER + INTRA:         -14.316
REMARK INTER:                 -12.397
REMARK INTRA:                  -1.919
REMARK UNBOUND:                -1.844
REMARK SMILES C[C@@H]1O[C@@H](OC[C@H]2O[C@H](Oc3c(-c4ccc(O)c(O)c4)oc4cc(O)cc(O)c4c3=O)[C@@H](O)[C@@H](O)[C@H]2O)[C@@H](O)[C@@H](O)[C@@H]1O
REMARK SMILES IDX 7 1 36 2 34 3 32 4 9 5 8 6 6 7 5 8 4 9 1 10 2 11 42 12 3 13
REMARK SMILES IDX 40 14 38 15 43 16 41 18 39 20 37 22 35 24 10 26 11 27 12 28
REMARK SMILES IDX 30 29 21 30 29 31 31 32 22 33 27 34 23 35 26 36 24 37 13 38
REMARK SMILES IDX 20 39 14 40 18 41 15 42 16 43 19 44 17 46 28 48 25 50 33 52
REMARK H PARENT 43 17 41 19 39 21 37 23 35 25 19 45 17 47 28 49 25 51 33 53
REMARK Flexibility Score: inf
ROOT
ATOM      1  C   UNL     1      12.973  27.676  22.049  1.00  0.00     0.180 C 
ATOM      2  C   UNL     1      12.484  29.026  21.471  1.00  0.00     0.177 C 
ATOM      3  C   UNL     1      11.122  29.393  22.084  1.00  0.00     0.180 C 
ATOM      4  C   UNL     1      11.197  29.336  23.617  1.00  0.00     0.214 C 
ATOM      5  C   UNL     1      11.774  27.983  24.066  1.00  0.00     0.339 C 
ATOM      6  O   UNL     1      13.038  27.714  23.469  1.00  0.00    -0.332 OA
ENDROOT
BRANCH   1   7
ATOM      7  C   UNL     1      14.360  27.296  21.460  1.00  0.00     0.198 C 
BRANCH   7   8
ATOM      8  O   UNL     1      14.294  27.070  20.061  1.00  0.00    -0.347 OA
BRANCH   8   9
ATOM      9  C   UNL     1      13.123  26.365  19.663  1.00  0.00     0.281 C 
ATOM     10  C   UNL     1      14.677  23.059  19.186  1.00  0.00     0.041 C 
ATOM     11  C   UNL     1      14.388  24.533  18.898  1.00  0.00     0.150 C 
ATOM     12  C   UNL     1      14.004  24.747  17.419  1.00  0.00     0.174 C 
ATOM     13  O   UNL     1      13.344  24.965  19.757  1.00  0.00    -0.344 OA
ATOM     14  C   UNL     1      13.708  26.241  17.174  1.00  0.00     0.179 C 
ATOM     15  C   UNL     1      12.698  26.749  18.224  1.00  0.00     0.202 C 
BRANCH  12  16
ATOM     16  O   UNL     1      12.868  23.979  17.108  1.00  0.00    -0.388 OA
ATOM     17  H   UNL     1      12.091  24.598  17.118  1.00  0.00     0.211 HD
ENDBRANCH  12  16
BRANCH  14  18
ATOM     18  O   UNL     1      14.898  26.987  17.243  1.00  0.00    -0.387 OA
ATOM     19  H   UNL     1      14.729  27.738  17.867  1.00  0.00     0.211 HD
ENDBRANCH  14  18
BRANCH  15  20
ATOM     20  O   UNL     1      12.466  28.131  18.090  1.00  0.00    -0.385 OA
ATOM     21  H   UNL     1      11.759  28.391  18.734  1.00  0.00     0.211 HD
ENDBRANCH  15  20
ENDBRANCH   8   9
ENDBRANCH   7   8
ENDBRANCH   1   7
BRANCH   2  22
ATOM     22  O   UNL     1      13.413  30.045  21.757  1.00  0.00    -0.387 OA
ATOM     23  H   UNL     1      13.223  30.373  22.675  1.00  0.00     0.211 HD
ENDBRANCH   2  22
BRANCH   3  24
ATOM     24  O   UNL     1      10.722  30.674  21.669  1.00  0.00    -0.387 OA
ATOM     25  H   UNL     1      11.209  31.327  22.237  1.00  0.00     0.211 HD
ENDBRANCH   3  24
BRANCH   5  26
ATOM     26  O   UNL     1      10.819  26.941  23.821  1.00  0.00    -0.454 OA
BRANCH  26  27
ATOM     27  C   UNL     1       9.829  26.595  24.750  1.00  0.00     0.214 A 
ATOM     28  C   UNL     1       8.462  26.785  24.463  1.00  0.00     0.180 A 
ATOM     29  C   UNL     1      10.182  25.997  25.963  1.00  0.00     0.239 A 
ATOM     30  O   UNL     1       7.545  26.466  25.370  1.00  0.00    -0.452 OA
ATOM     31  C   UNL     1       9.187  25.695  26.913  1.00  0.00     0.111 A 
ATOM     32  O   UNL     1      11.387  25.711  26.175  1.00  0.00    -0.285 OA
ATOM     33  C   UNL     1       7.843  25.961  26.561  1.00  0.00     0.146 A 
ATOM     34  C   UNL     1       9.471  25.142  28.184  1.00  0.00     0.134 A 
ATOM     35  C   UNL     1       6.813  25.688  27.466  1.00  0.00     0.094 A 
ATOM     36  C   UNL     1       8.424  24.884  29.081  1.00  0.00     0.093 A 
ATOM     37  C   UNL     1       7.102  25.159  28.728  1.00  0.00     0.123 A 
BRANCH  28  38
ATOM     38  C   UNL     1       7.994  27.297  23.162  1.00  0.00     0.025 A 
ATOM     39  C   UNL     1       7.887  26.413  22.077  1.00  0.00     0.062 A 
ATOM     40  C   UNL     1       7.568  28.627  23.011  1.00  0.00     0.016 A 
ATOM     41  C   UNL     1       7.393  26.856  20.844  1.00  0.00     0.158 A 
ATOM     42  C   UNL     1       7.093  29.077  21.777  1.00  0.00     0.051 A 
ATOM     43  C   UNL     1       7.004  28.198  20.689  1.00  0.00     0.157 A 
BRANCH  41  44
ATOM     44  O   UNL     1       7.290  25.949  19.788  1.00  0.00    -0.504 OA
ATOM     45  H   UNL     1       6.606  26.062  19.049  1.00  0.00     0.293 HD
ENDBRANCH  41  44
BRANCH  43  46
ATOM     46  O   UNL     1       6.522  28.650  19.461  1.00  0.00    -0.504 OA
ATOM     47  H   UNL     1       5.661  28.290  19.064  1.00  0.00     0.293 HD
ENDBRANCH  43  46
ENDBRANCH  28  38
BRANCH  34  48
ATOM     48  O   UNL     1      10.782  24.852  28.565  1.00  0.00    -0.507 OA
ATOM     49  H   UNL     1      11.520  24.734  27.879  1.00  0.00     0.293 HD
ENDBRANCH  34  48
BRANCH  37  50
ATOM     50  O   UNL     1       6.081  24.907  29.641  1.00  0.00    -0.508 OA
ATOM     51  H   UNL     1       6.245  24.934  30.643  1.00  0.00     0.293 HD
ENDBRANCH  37  50
ENDBRANCH  26  27
ENDBRANCH   5  26
BRANCH   4  52
ATOM     52  O   UNL     1      12.005  30.372  24.120  1.00  0.00    -0.384 OA
ATOM     53  H   UNL     1      11.519  31.222  23.964  1.00  0.00     0.211 HD
ENDBRANCH   4  52
TORSDOF 16
ENDMDL
