MODEL 1
REMARK VINA RESULT:    -3.643      0.000      0.000
REMARK INTER + INTRA:          -4.448
REMARK INTER:                  -4.388
REMARK INTRA:                  -0.060
REMARK UNBOUND:                -0.060
REMARK SMILES CCCCCO
REMARK SMILES IDX 4 1 3 2 2 3 1 4 5 5 6 6
REMARK H PARENT 6 7
REMARK Flexibility Score: inf
ROOT
ATOM      1  C   UNL     1     -18.182  -3.342 -11.287  1.00  0.00     0.028 C 
ENDROOT
BRANCH   1   2
ATOM      2  C   UNL     1     -19.031  -2.837 -12.461  1.00  0.00     0.002 C 
BRANCH   2   3
ATOM      3  C   UNL     1     -19.542  -4.006 -13.311  1.00  0.00    -0.003 C 
ATOM      4  C   UNL     1     -18.402  -4.669 -14.079  1.00  0.00     0.004 C 
ENDBRANCH   2   3
ENDBRANCH   1   2
BRANCH   1   5
ATOM      5  C   UNL     1     -16.896  -2.524 -11.123  1.00  0.00     0.156 C 
BRANCH   5   6
ATOM      6  O   UNL     1     -16.974  -1.317 -11.832  1.00  0.00    -0.396 OA
ATOM      7  H   UNL     1     -16.795  -1.535 -12.784  1.00  0.00     0.210 HD
ENDBRANCH   5   6
ENDBRANCH   1   5
TORSDOF 4
ENDMDL
MODEL 2
REMARK VINA RESULT:    -3.558      0.831      1.339
REMARK INTER + INTRA:          -4.345
REMARK INTER:                  -4.244
REMARK INTRA:                  -0.101
REMARK UNBOUND:                -0.060
REMARK SMILES CCCCCO
REMARK SMILES IDX 4 1 3 2 2 3 1 4 5 5 6 6
REMARK H PARENT 6 7
REMARK Flexibility Score: inf
ROOT
ATOM      1  C   UNL     1     -18.167  -3.325 -11.306  1.00  0.00     0.028 C 
ENDROOT
BRANCH   1   2
ATOM      2  C   UNL     1     -18.136  -4.262 -12.521  1.00  0.00     0.002 C 
BRANCH   2   3
ATOM      3  C   UNL     1     -19.174  -3.837 -13.568  1.00  0.00    -0.003 C 
ATOM      4  C   UNL     1     -20.145  -2.809 -12.995  1.00  0.00     0.004 C 
ENDBRANCH   2   3
ENDBRANCH   1   2
BRANCH   1   5
ATOM      5  C   UNL     1     -16.884  -2.494 -11.197  1.00  0.00     0.156 C 
BRANCH   5   6
ATOM      6  O   UNL     1     -17.017  -1.271 -11.870  1.00  0.00    -0.396 OA
ATOM      7  H   UNL     1     -16.235  -1.195 -12.477  1.00  0.00     0.210 HD
ENDBRANCH   5   6
ENDBRANCH   1   5
TORSDOF 4
ENDMDL
MODEL 3
REMARK VINA RESULT:    -3.533      2.700      3.586
REMARK INTER + INTRA:          -4.315
REMARK INTER:                  -4.306
REMARK INTRA:                  -0.009
REMARK UNBOUND:                -0.060
REMARK SMILES CCCCCO
REMARK SMILES IDX 4 1 3 2 2 3 1 4 5 5 6 6
REMARK H PARENT 6 7
REMARK Flexibility Score: inf
ROOT
ATOM      1  C   UNL     1     -19.443  -4.175 -13.604  1.00  0.00     0.028 C 
ENDROOT
BRANCH   1   2
ATOM      2  C   UNL     1     -19.264  -2.865 -12.825  1.00  0.00     0.002 C 
BRANCH   2   3
ATOM      3  C   UNL     1     -20.585  -2.426 -12.182  1.00  0.00    -0.003 C 
ATOM      4  C   UNL     1     -21.405  -1.565 -13.139  1.00  0.00     0.004 C 
ENDBRANCH   2   3
ENDBRANCH   1   2
BRANCH   1   5
ATOM      5  C   UNL     1     -18.123  -4.943 -13.735  1.00  0.00     0.156 C 
BRANCH   5   6
ATOM      6  O   UNL     1     -18.167  -5.840 -14.812  1.00  0.00    -0.396 OA
ATOM      7  H   UNL     1     -17.602  -5.449 -15.530  1.00  0.00     0.210 HD
ENDBRANCH   5   6
ENDBRANCH   1   5
TORSDOF 4
ENDMDL
MODEL 4
REMARK VINA RESULT:    -3.529      3.182      3.873
REMARK INTER + INTRA:          -4.310
REMARK INTER:                  -4.301
REMARK INTRA:                  -0.010
REMARK UNBOUND:                -0.060
REMARK SMILES CCCCCO
REMARK SMILES IDX 4 1 3 2 2 3 1 4 5 5 6 6
REMARK H PARENT 6 7
REMARK Flexibility Score: inf
ROOT
ATOM      1  C   UNL     1     -21.059  -1.470 -12.442  1.00  0.00     0.028 C 
ENDROOT
BRANCH   1   2
ATOM      2  C   UNL     1     -20.659  -2.771 -13.152  1.00  0.00     0.002 C 
BRANCH   2   3
ATOM      3  C   UNL     1     -19.168  -3.067 -12.954  1.00  0.00    -0.003 C 
ATOM      4  C   UNL     1     -18.759  -4.345 -13.681  1.00  0.00     0.004 C 
ENDBRANCH   2   3
ENDBRANCH   1   2
BRANCH   1   5
ATOM      5  C   UNL     1     -22.516  -1.091 -12.730  1.00  0.00     0.156 C 
BRANCH   5   6
ATOM      6  O   UNL     1     -22.608   0.225 -13.205  1.00  0.00    -0.396 OA
ATOM      7  H   UNL     1     -22.448   0.184 -14.185  1.00  0.00     0.210 HD
ENDBRANCH   5   6
ENDBRANCH   1   5
TORSDOF 4
ENDMDL
MODEL 5
REMARK VINA RESULT:    -3.335      1.805      3.276
REMARK INTER + INTRA:          -4.077
REMARK INTER:                  -4.028
REMARK INTRA:                  -0.050
REMARK UNBOUND:                -0.060
REMARK SMILES CCCCCO
REMARK SMILES IDX 4 1 3 2 2 3 1 4 5 5 6 6
REMARK H PARENT 6 7
REMARK Flexibility Score: inf
ROOT
ATOM      1  C   UNL     1     -19.446  -3.966 -13.245  1.00  0.00     0.028 C 
ENDROOT
BRANCH   1   2
ATOM      2  C   UNL     1     -18.819  -2.799 -12.470  1.00  0.00     0.002 C 
BRANCH   2   3
ATOM      3  C   UNL     1     -18.097  -3.301 -11.214  1.00  0.00    -0.003 C 
ATOM      4  C   UNL     1     -16.768  -2.576 -11.017  1.00  0.00     0.004 C 
ENDBRANCH   2   3
ENDBRANCH   1   2
BRANCH   1   5
ATOM      5  C   UNL     1     -18.395  -4.754 -14.034  1.00  0.00     0.156 C 
BRANCH   5   6
ATOM      6  O   UNL     1     -17.966  -4.034 -15.159  1.00  0.00    -0.396 OA
ATOM      7  H   UNL     1     -18.414  -4.443 -15.945  1.00  0.00     0.210 HD
ENDBRANCH   5   6
ENDBRANCH   1   5
TORSDOF 4
ENDMDL
MODEL 6
REMARK VINA RESULT:    -3.286      2.333      3.042
REMARK INTER + INTRA:          -4.018
REMARK INTER:                  -3.992
REMARK INTRA:                  -0.025
REMARK UNBOUND:                -0.060
REMARK SMILES CCCCCO
REMARK SMILES IDX 4 1 3 2 2 3 1 4 5 5 6 6
REMARK H PARENT 6 7
REMARK Flexibility Score: inf
ROOT
ATOM      1  C   UNL     1     -20.723  -2.505 -13.149  1.00  0.00     0.028 C 
ENDROOT
BRANCH   1   2
ATOM      2  C   UNL     1     -19.303  -2.722 -12.608  1.00  0.00     0.002 C 
BRANCH   2   3
ATOM      3  C   UNL     1     -18.954  -4.215 -12.568  1.00  0.00    -0.003 C 
ATOM      4  C   UNL     1     -18.437  -4.695 -13.921  1.00  0.00     0.004 C 
ENDBRANCH   2   3
ENDBRANCH   1   2
BRANCH   1   5
ATOM      5  C   UNL     1     -21.394  -1.284 -12.510  1.00  0.00     0.156 C 
BRANCH   5   6
ATOM      6  O   UNL     1     -21.402  -1.389 -11.112  1.00  0.00    -0.396 OA
ATOM      7  H   UNL     1     -20.947  -2.244 -10.889  1.00  0.00     0.210 HD
ENDBRANCH   5   6
ENDBRANCH   1   5
TORSDOF 4
ENDMDL
MODEL 7
REMARK VINA RESULT:    -3.267      8.960     10.405
REMARK INTER + INTRA:          -3.995
REMARK INTER:                  -3.972
REMARK INTRA:                  -0.023
REMARK UNBOUND:                -0.060
REMARK SMILES CCCCCO
REMARK SMILES IDX 4 1 3 2 2 3 1 4 5 5 6 6
REMARK H PARENT 6 7
REMARK Flexibility Score: inf
ROOT
ATOM      1  C   UNL     1     -14.138  -6.984 -20.521  1.00  0.00     0.028 C 
ENDROOT
BRANCH   1   2
ATOM      2  C   UNL     1     -14.648  -8.201 -21.305  1.00  0.00     0.002 C 
BRANCH   2   3
ATOM      3  C   UNL     1     -14.976  -7.821 -22.754  1.00  0.00    -0.003 C 
ATOM      4  C   UNL     1     -13.968  -6.813 -23.301  1.00  0.00     0.004 C 
ENDBRANCH   2   3
ENDBRANCH   1   2
BRANCH   1   5
ATOM      5  C   UNL     1     -14.184  -7.223 -19.008  1.00  0.00     0.156 C 
BRANCH   5   6
ATOM      6  O   UNL     1     -15.509  -7.298 -18.551  1.00  0.00    -0.396 OA
ATOM      7  H   UNL     1     -16.068  -7.521 -19.341  1.00  0.00     0.210 HD
ENDBRANCH   5   6
ENDBRANCH   1   5
TORSDOF 4
ENDMDL
MODEL 8
REMARK VINA RESULT:    -3.144      4.433      5.158
REMARK INTER + INTRA:          -3.847
REMARK INTER:                  -3.834
REMARK INTRA:                  -0.013
REMARK UNBOUND:                -0.060
REMARK SMILES CCCCCO
REMARK SMILES IDX 4 1 3 2 2 3 1 4 5 5 6 6
REMARK H PARENT 6 7
REMARK Flexibility Score: inf
ROOT
ATOM      1  C   UNL     1     -22.565  -0.746 -12.455  1.00  0.00     0.028 C 
ENDROOT
BRANCH   1   2
ATOM      2  C   UNL     1     -21.544  -1.506 -13.312  1.00  0.00     0.002 C 
BRANCH   2   3
ATOM      3  C   UNL     1     -20.556  -2.280 -12.431  1.00  0.00    -0.003 C 
ATOM      4  C   UNL     1     -19.766  -3.296 -13.251  1.00  0.00     0.004 C 
ENDBRANCH   2   3
ENDBRANCH   1   2
BRANCH   1   5
ATOM      5  C   UNL     1     -23.800  -1.602 -12.152  1.00  0.00     0.156 C 
BRANCH   5   6
ATOM      6  O   UNL     1     -24.978  -0.930 -12.511  1.00  0.00    -0.396 OA
ATOM      7  H   UNL     1     -25.463  -1.525 -13.141  1.00  0.00     0.210 HD
ENDBRANCH   5   6
ENDBRANCH   1   5
TORSDOF 4
ENDMDL
MODEL 9
REMARK VINA RESULT:    -2.998      3.097      4.064
REMARK INTER + INTRA:          -3.671
REMARK INTER:                  -3.646
REMARK INTRA:                  -0.025
REMARK UNBOUND:                -0.060
REMARK SMILES CCCCCO
REMARK SMILES IDX 4 1 3 2 2 3 1 4 5 5 6 6
REMARK H PARENT 6 7
REMARK Flexibility Score: inf
ROOT
ATOM      1  C   UNL     1     -20.157  -2.155 -12.556  1.00  0.00     0.028 C 
ENDROOT
BRANCH   1   2
ATOM      2  C   UNL     1     -21.442  -1.687 -13.254  1.00  0.00     0.002 C 
BRANCH   2   3
ATOM      3  C   UNL     1     -22.280  -0.803 -12.323  1.00  0.00    -0.003 C 
ATOM      4  C   UNL     1     -22.484  -1.470 -10.966  1.00  0.00     0.004 C 
ENDBRANCH   2   3
ENDBRANCH   1   2
BRANCH   1   5
ATOM      5  C   UNL     1     -19.518  -3.345 -13.281  1.00  0.00     0.156 C 
BRANCH   5   6
ATOM      6  O   UNL     1     -19.511  -4.485 -12.465  1.00  0.00    -0.396 OA
ATOM      7  H   UNL     1     -19.074  -5.206 -12.989  1.00  0.00     0.210 HD
ENDBRANCH   5   6
ENDBRANCH   1   5
TORSDOF 4
ENDMDL
