MODEL 1
REMARK VINA RESULT:    -7.947      0.000      0.000
REMARK INTER + INTRA:         -11.941
REMARK INTER:                 -10.967
REMARK INTRA:                  -0.974
REMARK UNBOUND:                -0.974
REMARK SMILES CC[C@@H](CC[C@H](C)[C@@H]1CC[C@H]2[C@@H]3CC=C4C[C@H](O)CC[C@]4(C)[C@H]3CC[C@]21C)C(C)C
REMARK SMILES IDX 5 1 4 2 3 3 2 4 1 5 28 6 29 7 30 8 6 9 7 10 8 11 9 12 26 13
REMARK SMILES IDX 10 14 11 15 25 16 27 17 12 18 24 19 23 20 13 21 21 22 14 23
REMARK SMILES IDX 15 24 20 25 22 26 16 27 19 28 17 29 18 30
REMARK H PARENT 18 31
REMARK Flexibility Score: inf
ROOT
ATOM      1  C   UNL     1       1.353  26.918  44.171  1.00  0.00     0.004 C 
ENDROOT
BRANCH   1   2
ATOM      2  C   UNL     1       0.649  28.273  43.910  1.00  0.00     0.004 C 
BRANCH   2   3
ATOM      3  C   UNL     1      -0.725  28.276  43.174  1.00  0.00    -0.009 C 
BRANCH   3   4
ATOM      4  C   UNL     1      -0.638  28.915  41.767  1.00  0.00     0.000 C 
ATOM      5  C   UNL     1       0.199  30.195  41.740  1.00  0.00     0.004 C 
ENDBRANCH   3   4
BRANCH   3   6
ATOM      6  C   UNL     1      -1.988  28.695  44.014  1.00  0.00    -0.014 C 
ATOM      7  C   UNL     1      -1.625  29.273  45.389  1.00  0.00     0.007 C 
ATOM      8  C   UNL     1      -3.006  29.611  43.312  1.00  0.00     0.007 C 
ENDBRANCH   3   6
ENDBRANCH   2   3
ENDBRANCH   1   2
BRANCH   1   9
ATOM      9  C   UNL     1       2.707  26.683  43.429  1.00  0.00    -0.011 C 
ATOM     10  C   UNL     1       2.758  27.486  42.108  1.00  0.00     0.008 C 
BRANCH   9  11
ATOM     11  C   UNL     1       3.026  25.161  43.139  1.00  0.00    -0.002 C 
ATOM     12  C   UNL     1       2.191  24.203  43.994  1.00  0.00     0.005 C 
ATOM     13  C   UNL     1       4.503  24.652  43.311  1.00  0.00    -0.026 C 
ATOM     14  C   UNL     1       3.074  23.792  45.161  1.00  0.00     0.005 C 
ATOM     15  C   UNL     1       4.538  23.945  44.703  1.00  0.00    -0.001 C 
ATOM     16  C   UNL     1       4.809  23.620  42.191  1.00  0.00     0.007 C 
ATOM     17  C   UNL     1       5.553  25.790  43.222  1.00  0.00     0.012 C 
ATOM     18  C   UNL     1       5.280  22.562  44.742  1.00  0.00     0.000 C 
ATOM     19  C   UNL     1       6.176  22.940  42.344  1.00  0.00     0.005 C 
ATOM     20  C   UNL     1       6.514  22.512  43.807  1.00  0.00     0.003 C 
ATOM     21  C   UNL     1       5.694  22.249  46.198  1.00  0.00     0.031 C 
ATOM     22  C   UNL     1       7.271  21.127  43.892  1.00  0.00    -0.008 C 
ATOM     23  C   UNL     1       6.704  21.148  46.343  1.00  0.00    -0.027 C 
ATOM     24  C   UNL     1       7.536  20.758  45.356  1.00  0.00    -0.065 C 
ATOM     25  C   UNL     1       8.632  21.266  43.140  1.00  0.00     0.014 C 
ATOM     26  C   UNL     1       6.448  19.960  43.269  1.00  0.00     0.016 C 
ATOM     27  C   UNL     1       8.586  19.708  45.677  1.00  0.00     0.063 C 
ATOM     28  C   UNL     1       9.612  20.116  43.410  1.00  0.00     0.033 C 
ATOM     29  C   UNL     1       9.887  19.961  44.912  1.00  0.00     0.118 C 
BRANCH  29  30
ATOM     30  O   UNL     1      10.514  21.112  45.420  1.00  0.00    -0.393 OA
ATOM     31  H   UNL     1      11.076  21.479  44.689  1.00  0.00     0.210 HD
ENDBRANCH  29  30
ENDBRANCH   9  11
ENDBRANCH   1   9
TORSDOF 7
ENDMDL
MODEL 2
REMARK VINA RESULT:    -7.903      0.431      1.436
REMARK INTER + INTRA:         -11.880
REMARK INTER:                 -10.788
REMARK INTRA:                  -1.092
REMARK UNBOUND:                -0.974
REMARK SMILES CC[C@@H](CC[C@H](C)[C@@H]1CC[C@H]2[C@@H]3CC=C4C[C@H](O)CC[C@]4(C)[C@H]3CC[C@]21C)C(C)C
REMARK SMILES IDX 5 1 4 2 3 3 2 4 1 5 28 6 29 7 30 8 6 9 7 10 8 11 9 12 26 13
REMARK SMILES IDX 10 14 11 15 25 16 27 17 12 18 24 19 23 20 13 21 21 22 14 23
REMARK SMILES IDX 15 24 20 25 22 26 16 27 19 28 17 29 18 30
REMARK H PARENT 18 31
REMARK Flexibility Score: inf
ROOT
ATOM      1  C   UNL     1       1.238  27.012  44.208  1.00  0.00     0.004 C 
ENDROOT
BRANCH   1   2
ATOM      2  C   UNL     1      -0.011  27.220  43.314  1.00  0.00     0.004 C 
BRANCH   2   3
ATOM      3  C   UNL     1      -0.709  28.613  43.311  1.00  0.00    -0.009 C 
BRANCH   3   4
ATOM      4  C   UNL     1      -1.956  28.648  44.229  1.00  0.00     0.000 C 
ATOM      5  C   UNL     1      -2.851  29.862  43.978  1.00  0.00     0.004 C 
ENDBRANCH   3   4
BRANCH   3   6
ATOM      6  C   UNL     1      -0.892  29.321  41.919  1.00  0.00    -0.014 C 
ATOM      7  C   UNL     1       0.036  30.531  41.738  1.00  0.00     0.007 C 
ATOM      8  C   UNL     1      -0.823  28.418  40.674  1.00  0.00     0.007 C 
ENDBRANCH   3   6
ENDBRANCH   2   3
ENDBRANCH   1   2
BRANCH   1   9
ATOM      9  C   UNL     1       2.597  26.807  43.468  1.00  0.00    -0.011 C 
ATOM     10  C   UNL     1       2.648  27.641  42.167  1.00  0.00     0.008 C 
BRANCH   9  11
ATOM     11  C   UNL     1       2.932  25.294  43.144  1.00  0.00    -0.002 C 
ATOM     12  C   UNL     1       2.106  24.309  43.976  1.00  0.00     0.005 C 
ATOM     13  C   UNL     1       4.413  24.796  43.305  1.00  0.00    -0.026 C 
ATOM     14  C   UNL     1       2.992  23.880  45.134  1.00  0.00     0.005 C 
ATOM     15  C   UNL     1       4.455  24.059  44.680  1.00  0.00    -0.001 C 
ATOM     16  C   UNL     1       4.730  23.793  42.162  1.00  0.00     0.007 C 
ATOM     17  C   UNL     1       5.452  25.946  43.243  1.00  0.00     0.012 C 
ATOM     18  C   UNL     1       5.210  22.682  44.688  1.00  0.00     0.000 C 
ATOM     19  C   UNL     1       6.104  23.123  42.301  1.00  0.00     0.005 C 
ATOM     20  C   UNL     1       6.445  22.666  43.753  1.00  0.00     0.003 C 
ATOM     21  C   UNL     1       5.626  22.340  46.137  1.00  0.00     0.031 C 
ATOM     22  C   UNL     1       7.215  21.286  43.807  1.00  0.00    -0.008 C 
ATOM     23  C   UNL     1       6.647  21.245  46.257  1.00  0.00    -0.027 C 
ATOM     24  C   UNL     1       7.483  20.886  45.262  1.00  0.00    -0.065 C 
ATOM     25  C   UNL     1       8.575  21.456  43.060  1.00  0.00     0.014 C 
ATOM     26  C   UNL     1       6.404  20.126  43.158  1.00  0.00     0.016 C 
ATOM     27  C   UNL     1       8.543  19.840  45.560  1.00  0.00     0.063 C 
ATOM     28  C   UNL     1       9.567  20.309  43.305  1.00  0.00     0.033 C 
ATOM     29  C   UNL     1       9.843  20.123  44.803  1.00  0.00     0.118 C 
BRANCH  29  30
ATOM     30  O   UNL     1      10.457  21.268  45.337  1.00  0.00    -0.393 OA
ATOM     31  H   UNL     1      11.276  21.432  44.800  1.00  0.00     0.210 HD
ENDBRANCH  29  30
ENDBRANCH   9  11
ENDBRANCH   1   9
TORSDOF 7
ENDMDL
MODEL 3
REMARK VINA RESULT:    -7.783      1.317      2.991
REMARK INTER + INTRA:         -11.714
REMARK INTER:                 -10.698
REMARK INTRA:                  -1.016
REMARK UNBOUND:                -0.974
REMARK SMILES CC[C@@H](CC[C@H](C)[C@@H]1CC[C@H]2[C@@H]3CC=C4C[C@H](O)CC[C@]4(C)[C@H]3CC[C@]21C)C(C)C
REMARK SMILES IDX 5 1 4 2 3 3 2 4 1 5 28 6 29 7 30 8 6 9 7 10 8 11 9 12 26 13
REMARK SMILES IDX 10 14 11 15 25 16 27 17 12 18 24 19 23 20 13 21 21 22 14 23
REMARK SMILES IDX 15 24 20 25 22 26 16 27 19 28 17 29 18 30
REMARK H PARENT 18 31
REMARK Flexibility Score: inf
ROOT
ATOM      1  C   UNL     1       1.843  27.047  42.290  1.00  0.00     0.004 C 
ENDROOT
BRANCH   1   2
ATOM      2  C   UNL     1       0.465  27.738  42.136  1.00  0.00     0.004 C 
BRANCH   2   3
ATOM      3  C   UNL     1       0.345  29.257  42.462  1.00  0.00    -0.009 C 
BRANCH   3   4
ATOM      4  C   UNL     1      -0.558  29.526  43.691  1.00  0.00     0.000 C 
ATOM      5  C   UNL     1      -1.818  28.660  43.710  1.00  0.00     0.004 C 
ENDBRANCH   3   4
BRANCH   3   6
ATOM      6  C   UNL     1       0.123  30.236  41.250  1.00  0.00    -0.014 C 
ATOM      7  C   UNL     1      -0.072  29.500  39.917  1.00  0.00     0.007 C 
ATOM      8  C   UNL     1      -0.969  31.306  41.423  1.00  0.00     0.007 C 
ENDBRANCH   3   6
ENDBRANCH   2   3
ENDBRANCH   1   2
BRANCH   1   9
ATOM      9  C   UNL     1       1.966  25.987  43.431  1.00  0.00    -0.011 C 
ATOM     10  C   UNL     1       0.953  26.276  44.564  1.00  0.00     0.008 C 
BRANCH   9  11
ATOM     11  C   UNL     1       3.422  25.862  44.038  1.00  0.00    -0.002 C 
ATOM     12  C   UNL     1       4.484  26.572  43.194  1.00  0.00     0.005 C 
ATOM     13  C   UNL     1       4.016  24.429  44.290  1.00  0.00    -0.026 C 
ATOM     14  C   UNL     1       5.139  25.499  42.341  1.00  0.00     0.005 C 
ATOM     15  C   UNL     1       4.966  24.157  43.081  1.00  0.00    -0.001 C 
ATOM     16  C   UNL     1       4.837  24.453  45.608  1.00  0.00     0.007 C 
ATOM     17  C   UNL     1       2.926  23.332  44.417  1.00  0.00     0.012 C 
ATOM     18  C   UNL     1       6.364  23.540  43.444  1.00  0.00     0.000 C 
ATOM     19  C   UNL     1       5.591  23.144  45.882  1.00  0.00     0.005 C 
ATOM     20  C   UNL     1       6.293  22.540  44.626  1.00  0.00     0.003 C 
ATOM     21  C   UNL     1       6.955  22.853  42.192  1.00  0.00     0.031 C 
ATOM     22  C   UNL     1       7.701  21.898  44.948  1.00  0.00    -0.008 C 
ATOM     23  C   UNL     1       8.106  21.928  42.466  1.00  0.00    -0.027 C 
ATOM     24  C   UNL     1       8.343  21.359  43.665  1.00  0.00    -0.065 C 
ATOM     25  C   UNL     1       7.484  20.721  45.950  1.00  0.00     0.014 C 
ATOM     26  C   UNL     1       8.698  22.926  45.560  1.00  0.00     0.016 C 
ATOM     27  C   UNL     1       9.478  20.354  43.769  1.00  0.00     0.063 C 
ATOM     28  C   UNL     1       8.705  19.802  46.105  1.00  0.00     0.033 C 
ATOM     29  C   UNL     1       9.144  19.228  44.751  1.00  0.00     0.118 C 
BRANCH  29  30
ATOM     30  O   UNL     1       8.134  18.417  44.207  1.00  0.00    -0.393 OA
ATOM     31  H   UNL     1       7.736  18.921  43.451  1.00  0.00     0.210 HD
ENDBRANCH  29  30
ENDBRANCH   9  11
ENDBRANCH   1   9
TORSDOF 7
ENDMDL
MODEL 4
REMARK VINA RESULT:    -7.642      1.304      2.681
REMARK INTER + INTRA:         -11.519
REMARK INTER:                 -10.503
REMARK INTRA:                  -1.016
REMARK UNBOUND:                -0.974
REMARK SMILES CC[C@@H](CC[C@H](C)[C@@H]1CC[C@H]2[C@@H]3CC=C4C[C@H](O)CC[C@]4(C)[C@H]3CC[C@]21C)C(C)C
REMARK SMILES IDX 5 1 4 2 3 3 2 4 1 5 28 6 29 7 30 8 6 9 7 10 8 11 9 12 26 13
REMARK SMILES IDX 10 14 11 15 25 16 27 17 12 18 24 19 23 20 13 21 21 22 14 23
REMARK SMILES IDX 15 24 20 25 22 26 16 27 19 28 17 29 18 30
REMARK H PARENT 18 31
REMARK Flexibility Score: inf
ROOT
ATOM      1  C   UNL     1       2.060  26.881  42.358  1.00  0.00     0.004 C 
ENDROOT
BRANCH   1   2
ATOM      2  C   UNL     1       1.393  28.245  42.667  1.00  0.00     0.004 C 
BRANCH   2   3
ATOM      3  C   UNL     1      -0.066  28.495  42.181  1.00  0.00    -0.009 C 
BRANCH   3   4
ATOM      4  C   UNL     1      -0.147  28.719  40.651  1.00  0.00     0.000 C 
ATOM      5  C   UNL     1      -0.223  30.196  40.264  1.00  0.00     0.004 C 
ENDBRANCH   3   4
BRANCH   3   6
ATOM      6  C   UNL     1      -0.951  29.472  43.040  1.00  0.00    -0.014 C 
ATOM      7  C   UNL     1      -2.436  29.083  43.046  1.00  0.00     0.007 C 
ATOM      8  C   UNL     1      -0.475  29.745  44.478  1.00  0.00     0.007 C 
ENDBRANCH   3   6
ENDBRANCH   2   3
ENDBRANCH   1   2
BRANCH   1   9
ATOM      9  C   UNL     1       2.187  25.882  43.552  1.00  0.00    -0.011 C 
ATOM     10  C   UNL     1       1.226  26.270  44.700  1.00  0.00     0.008 C 
BRANCH   9  11
ATOM     11  C   UNL     1       3.658  25.738  44.115  1.00  0.00    -0.002 C 
ATOM     12  C   UNL     1       4.705  26.424  43.233  1.00  0.00     0.005 C 
ATOM     13  C   UNL     1       4.237  24.297  44.359  1.00  0.00    -0.026 C 
ATOM     14  C   UNL     1       5.317  25.335  42.369  1.00  0.00     0.005 C 
ATOM     15  C   UNL     1       5.145  24.002  43.124  1.00  0.00    -0.001 C 
ATOM     16  C   UNL     1       5.098  24.317  45.652  1.00  0.00     0.007 C 
ATOM     17  C   UNL     1       3.134  23.219  44.527  1.00  0.00     0.012 C 
ATOM     18  C   UNL     1       6.543  23.364  43.449  1.00  0.00     0.000 C 
ATOM     19  C   UNL     1       5.839  22.998  45.912  1.00  0.00     0.005 C 
ATOM     20  C   UNL     1       6.493  22.374  44.640  1.00  0.00     0.003 C 
ATOM     21  C   UNL     1       7.086  22.659  42.184  1.00  0.00     0.031 C 
ATOM     22  C   UNL     1       7.900  21.712  44.924  1.00  0.00    -0.008 C 
ATOM     23  C   UNL     1       8.229  21.718  42.430  1.00  0.00    -0.027 C 
ATOM     24  C   UNL     1       8.494  21.154  43.625  1.00  0.00    -0.065 C 
ATOM     25  C   UNL     1       7.695  20.545  45.941  1.00  0.00     0.014 C 
ATOM     26  C   UNL     1       8.931  22.729  45.497  1.00  0.00     0.016 C 
ATOM     27  C   UNL     1       9.615  20.132  43.702  1.00  0.00     0.063 C 
ATOM     28  C   UNL     1       8.906  19.609  46.065  1.00  0.00     0.033 C 
ATOM     29  C   UNL     1       9.294  19.018  44.702  1.00  0.00     0.118 C 
BRANCH  29  30
ATOM     30  O   UNL     1       8.255  18.219  44.196  1.00  0.00    -0.393 OA
ATOM     31  H   UNL     1       7.462  18.380  44.773  1.00  0.00     0.210 HD
ENDBRANCH  29  30
ENDBRANCH   9  11
ENDBRANCH   1   9
TORSDOF 7
ENDMDL
MODEL 5
REMARK VINA RESULT:    -7.560      3.706     11.765
REMARK INTER + INTRA:         -11.406
REMARK INTER:                 -10.514
REMARK INTRA:                  -0.892
REMARK UNBOUND:                -0.974
REMARK SMILES CC[C@@H](CC[C@H](C)[C@@H]1CC[C@H]2[C@@H]3CC=C4C[C@H](O)CC[C@]4(C)[C@H]3CC[C@]21C)C(C)C
REMARK SMILES IDX 5 1 4 2 3 3 2 4 1 5 28 6 29 7 30 8 6 9 7 10 8 11 9 12 26 13
REMARK SMILES IDX 10 14 11 15 25 16 27 17 12 18 24 19 23 20 13 21 21 22 14 23
REMARK SMILES IDX 15 24 20 25 22 26 16 27 19 28 17 29 18 30
REMARK H PARENT 18 31
REMARK Flexibility Score: inf
ROOT
ATOM      1  C   UNL     1      11.620  17.809  46.158  1.00  0.00     0.004 C 
ENDROOT
BRANCH   1   2
ATOM      2  C   UNL     1      12.330  16.432  46.177  1.00  0.00     0.004 C 
BRANCH   2   3
ATOM      3  C   UNL     1      13.876  16.381  45.988  1.00  0.00    -0.009 C 
BRANCH   3   4
ATOM      4  C   UNL     1      14.285  15.676  44.672  1.00  0.00     0.000 C 
ATOM      5  C   UNL     1      13.377  14.499  44.314  1.00  0.00     0.004 C 
ENDBRANCH   3   4
BRANCH   3   6
ATOM      6  C   UNL     1      14.740  15.992  47.244  1.00  0.00    -0.014 C 
ATOM      7  C   UNL     1      13.885  15.608  48.460  1.00  0.00     0.007 C 
ATOM      8  C   UNL     1      15.838  14.936  47.022  1.00  0.00     0.007 C 
ENDBRANCH   3   6
ENDBRANCH   2   3
ENDBRANCH   1   2
BRANCH   1   9
ATOM      9  C   UNL     1      10.430  17.964  45.157  1.00  0.00    -0.011 C 
ATOM     10  C   UNL     1      10.564  16.968  43.982  1.00  0.00     0.008 C 
BRANCH   9  11
ATOM     11  C   UNL     1      10.252  19.432  44.593  1.00  0.00    -0.002 C 
ATOM     12  C   UNL     1      10.833  20.503  45.521  1.00  0.00     0.005 C 
ATOM     13  C   UNL     1       8.804  19.945  44.263  1.00  0.00    -0.026 C 
ATOM     14  C   UNL     1       9.665  21.057  46.319  1.00  0.00     0.005 C 
ATOM     15  C   UNL     1       8.391  20.829  45.481  1.00  0.00    -0.001 C 
ATOM     16  C   UNL     1       8.863  20.816  42.978  1.00  0.00     0.007 C 
ATOM     17  C   UNL     1       7.791  18.795  44.023  1.00  0.00     0.012 C 
ATOM     18  C   UNL     1       7.710  22.198  45.125  1.00  0.00     0.000 C 
ATOM     19  C   UNL     1       7.530  21.497  42.640  1.00  0.00     0.005 C 
ATOM     20  C   UNL     1       6.798  22.111  43.874  1.00  0.00     0.003 C 
ATOM     21  C   UNL     1       6.904  22.698  46.346  1.00  0.00     0.031 C 
ATOM     22  C   UNL     1       6.090  23.488  43.557  1.00  0.00    -0.008 C 
ATOM     23  C   UNL     1       5.927  23.798  46.048  1.00  0.00    -0.027 C 
ATOM     24  C   UNL     1       5.426  24.046  44.821  1.00  0.00    -0.065 C 
ATOM     25  C   UNL     1       4.999  23.237  42.468  1.00  0.00     0.014 C 
ATOM     26  C   UNL     1       7.090  24.570  43.052  1.00  0.00     0.016 C 
ATOM     27  C   UNL     1       4.359  25.118  44.686  1.00  0.00     0.063 C 
ATOM     28  C   UNL     1       4.016  24.404  42.292  1.00  0.00     0.033 C 
ATOM     29  C   UNL     1       3.325  24.753  43.617  1.00  0.00     0.118 C 
BRANCH  29  30
ATOM     30  O   UNL     1       2.546  23.674  44.068  1.00  0.00    -0.393 OA
ATOM     31  H   UNL     1       1.607  23.873  43.814  1.00  0.00     0.210 HD
ENDBRANCH  29  30
ENDBRANCH   9  11
ENDBRANCH   1   9
TORSDOF 7
ENDMDL
MODEL 6
REMARK VINA RESULT:    -7.315      3.768     12.004
REMARK INTER + INTRA:         -11.068
REMARK INTER:                 -10.146
REMARK INTRA:                  -0.922
REMARK UNBOUND:                -0.974
REMARK SMILES CC[C@@H](CC[C@H](C)[C@@H]1CC[C@H]2[C@@H]3CC=C4C[C@H](O)CC[C@]4(C)[C@H]3CC[C@]21C)C(C)C
REMARK SMILES IDX 5 1 4 2 3 3 2 4 1 5 28 6 29 7 30 8 6 9 7 10 8 11 9 12 26 13
REMARK SMILES IDX 10 14 11 15 25 16 27 17 12 18 24 19 23 20 13 21 21 22 14 23
REMARK SMILES IDX 15 24 20 25 22 26 16 27 19 28 17 29 18 30
REMARK H PARENT 18 31
REMARK Flexibility Score: inf
ROOT
ATOM      1  C   UNL     1      11.915  17.488  44.339  1.00  0.00     0.004 C 
ENDROOT
BRANCH   1   2
ATOM      2  C   UNL     1      13.248  16.783  44.696  1.00  0.00     0.004 C 
BRANCH   2   3
ATOM      3  C   UNL     1      13.213  15.286  45.127  1.00  0.00    -0.009 C 
BRANCH   3   4
ATOM      4  C   UNL     1      13.649  15.086  46.599  1.00  0.00     0.000 C 
ATOM      5  C   UNL     1      14.863  15.933  46.985  1.00  0.00     0.004 C 
ENDBRANCH   3   4
BRANCH   3   6
ATOM      6  C   UNL     1      13.800  14.234  44.114  1.00  0.00    -0.014 C 
ATOM      7  C   UNL     1      14.443  14.886  42.882  1.00  0.00     0.007 C 
ATOM      8  C   UNL     1      14.747  13.172  44.699  1.00  0.00     0.007 C 
ENDBRANCH   3   6
ENDBRANCH   2   3
ENDBRANCH   1   2
BRANCH   1   9
ATOM      9  C   UNL     1      11.331  18.458  45.415  1.00  0.00    -0.011 C 
ATOM     10  C   UNL     1      11.768  18.033  46.836  1.00  0.00     0.008 C 
BRANCH   9  11
ATOM     11  C   UNL     1       9.756  18.603  45.364  1.00  0.00    -0.002 C 
ATOM     12  C   UNL     1       9.133  17.908  44.150  1.00  0.00     0.005 C 
ATOM     13  C   UNL     1       9.129  20.043  45.354  1.00  0.00    -0.026 C 
ATOM     14  C   UNL     1       8.903  18.990  43.109  1.00  0.00     0.005 C 
ATOM     15  C   UNL     1       8.770  20.328  43.862  1.00  0.00    -0.001 C 
ATOM     16  C   UNL     1       7.834  20.030  46.213  1.00  0.00     0.007 C 
ATOM     17  C   UNL     1      10.081  21.125  45.929  1.00  0.00     0.012 C 
ATOM     18  C   UNL     1       7.355  20.964  43.616  1.00  0.00     0.000 C 
ATOM     19  C   UNL     1       7.050  21.348  46.156  1.00  0.00     0.005 C 
ATOM     20  C   UNL     1       6.941  21.963  44.726  1.00  0.00     0.003 C 
ATOM     21  C   UNL     1       7.345  21.660  42.235  1.00  0.00     0.031 C 
ATOM     22  C   UNL     1       5.534  22.623  44.438  1.00  0.00    -0.008 C 
ATOM     23  C   UNL     1       6.196  22.600  42.012  1.00  0.00    -0.027 C 
ATOM     24  C   UNL     1       5.489  23.171  43.007  1.00  0.00    -0.065 C 
ATOM     25  C   UNL     1       5.329  23.797  45.447  1.00  0.00     0.014 C 
ATOM     26  C   UNL     1       4.361  21.608  44.575  1.00  0.00     0.016 C 
ATOM     27  C   UNL     1       4.426  24.191  42.637  1.00  0.00     0.063 C 
ATOM     28  C   UNL     1       4.165  24.732  45.086  1.00  0.00     0.033 C 
ATOM     29  C   UNL     1       4.335  25.312  43.676  1.00  0.00     0.118 C 
BRANCH  29  30
ATOM     30  O   UNL     1       5.490  26.110  43.606  1.00  0.00    -0.393 OA
ATOM     31  H   UNL     1       6.263  25.512  43.776  1.00  0.00     0.210 HD
ENDBRANCH  29  30
ENDBRANCH   9  11
ENDBRANCH   1   9
TORSDOF 7
ENDMDL
MODEL 7
REMARK VINA RESULT:    -7.183      3.062      9.945
REMARK INTER + INTRA:         -10.886
REMARK INTER:                  -9.329
REMARK INTRA:                  -1.558
REMARK UNBOUND:                -0.974
REMARK SMILES CC[C@@H](CC[C@H](C)[C@@H]1CC[C@H]2[C@@H]3CC=C4C[C@H](O)CC[C@]4(C)[C@H]3CC[C@]21C)C(C)C
REMARK SMILES IDX 5 1 4 2 3 3 2 4 1 5 28 6 29 7 30 8 6 9 7 10 8 11 9 12 26 13
REMARK SMILES IDX 10 14 11 15 25 16 27 17 12 18 24 19 23 20 13 21 21 22 14 23
REMARK SMILES IDX 15 24 20 25 22 26 16 27 19 28 17 29 18 30
REMARK H PARENT 18 31
REMARK Flexibility Score: inf
ROOT
ATOM      1  C   UNL     1       6.320  23.929  44.234  1.00  0.00     0.004 C 
ENDROOT
BRANCH   1   2
ATOM      2  C   UNL     1       7.393  22.869  44.589  1.00  0.00     0.004 C 
BRANCH   2   3
ATOM      3  C   UNL     1       7.823  21.841  43.500  1.00  0.00    -0.009 C 
BRANCH   3   4
ATOM      4  C   UNL     1       7.019  22.005  42.186  1.00  0.00     0.000 C 
ATOM      5  C   UNL     1       5.953  20.926  41.996  1.00  0.00     0.004 C 
ENDBRANCH   3   4
BRANCH   3   6
ATOM      6  C   UNL     1       8.039  20.353  43.962  1.00  0.00    -0.014 C 
ATOM      7  C   UNL     1       9.383  19.774  43.501  1.00  0.00     0.007 C 
ATOM      8  C   UNL     1       7.828  20.062  45.459  1.00  0.00     0.007 C 
ENDBRANCH   3   6
ENDBRANCH   2   3
ENDBRANCH   1   2
BRANCH   1   9
ATOM      9  C   UNL     1       4.900  23.713  44.847  1.00  0.00    -0.011 C 
ATOM     10  C   UNL     1       4.731  22.261  45.351  1.00  0.00     0.008 C 
BRANCH   9  11
ATOM     11  C   UNL     1       3.714  24.076  43.865  1.00  0.00    -0.002 C 
ATOM     12  C   UNL     1       4.187  24.356  42.435  1.00  0.00     0.005 C 
ATOM     13  C   UNL     1       2.788  25.297  44.215  1.00  0.00    -0.026 C 
ATOM     14  C   UNL     1       4.279  25.866  42.303  1.00  0.00     0.005 C 
ATOM     15  C   UNL     1       3.305  26.476  43.332  1.00  0.00    -0.001 C 
ATOM     16  C   UNL     1       1.327  24.946  43.820  1.00  0.00     0.007 C 
ATOM     17  C   UNL     1       2.808  25.663  45.723  1.00  0.00     0.012 C 
ATOM     18  C   UNL     1       2.194  27.320  42.611  1.00  0.00     0.000 C 
ATOM     19  C   UNL     1       0.353  26.121  43.978  1.00  0.00     0.005 C 
ATOM     20  C   UNL     1       0.912  27.485  43.467  1.00  0.00     0.003 C 
ATOM     21  C   UNL     1       2.772  28.703  42.234  1.00  0.00     0.031 C 
ATOM     22  C   UNL     1      -0.177  28.372  42.742  1.00  0.00    -0.008 C 
ATOM     23  C   UNL     1       1.746  29.734  41.862  1.00  0.00    -0.027 C 
ATOM     24  C   UNL     1       0.452  29.675  42.237  1.00  0.00    -0.065 C 
ATOM     25  C   UNL     1      -1.300  28.707  43.774  1.00  0.00     0.014 C 
ATOM     26  C   UNL     1      -0.800  27.658  41.506  1.00  0.00     0.016 C 
ATOM     27  C   UNL     1      -0.449  30.846  41.885  1.00  0.00     0.063 C 
ATOM     28  C   UNL     1      -2.254  29.820  43.315  1.00  0.00     0.033 C 
ATOM     29  C   UNL     1      -1.488  31.106  42.979  1.00  0.00     0.118 C 
BRANCH  29  30
ATOM     30  O   UNL     1      -0.847  31.612  44.123  1.00  0.00    -0.393 OA
ATOM     31  H   UNL     1      -0.158  32.253  43.806  1.00  0.00     0.210 HD
ENDBRANCH  29  30
ENDBRANCH   9  11
ENDBRANCH   1   9
TORSDOF 7
ENDMDL
MODEL 8
REMARK VINA RESULT:    -6.999      3.176      9.864
REMARK INTER + INTRA:         -10.633
REMARK INTER:                  -9.105
REMARK INTRA:                  -1.527
REMARK UNBOUND:                -0.974
REMARK SMILES CC[C@@H](CC[C@H](C)[C@@H]1CC[C@H]2[C@@H]3CC=C4C[C@H](O)CC[C@]4(C)[C@H]3CC[C@]21C)C(C)C
REMARK SMILES IDX 5 1 4 2 3 3 2 4 1 5 28 6 29 7 30 8 6 9 7 10 8 11 9 12 26 13
REMARK SMILES IDX 10 14 11 15 25 16 27 17 12 18 24 19 23 20 13 21 21 22 14 23
REMARK SMILES IDX 15 24 20 25 22 26 16 27 19 28 17 29 18 30
REMARK H PARENT 18 31
REMARK Flexibility Score: inf
ROOT
ATOM      1  C   UNL     1       4.700  22.599  43.623  1.00  0.00     0.004 C 
ENDROOT
BRANCH   1   2
ATOM      2  C   UNL     1       5.734  21.448  43.695  1.00  0.00     0.004 C 
BRANCH   2   3
ATOM      3  C   UNL     1       6.446  21.162  45.052  1.00  0.00    -0.009 C 
BRANCH   3   4
ATOM      4  C   UNL     1       5.902  22.047  46.200  1.00  0.00     0.000 C 
ATOM      5  C   UNL     1       6.857  23.176  46.591  1.00  0.00     0.004 C 
ENDBRANCH   3   4
BRANCH   3   6
ATOM      6  C   UNL     1       8.011  21.004  45.022  1.00  0.00    -0.014 C 
ATOM      7  C   UNL     1       8.509  19.832  45.879  1.00  0.00     0.007 C 
ATOM      8  C   UNL     1       8.669  20.953  43.632  1.00  0.00     0.007 C 
ENDBRANCH   3   6
ENDBRANCH   2   3
ENDBRANCH   1   2
BRANCH   1   9
ATOM      9  C   UNL     1       5.163  23.906  42.903  1.00  0.00    -0.011 C 
ATOM     10  C   UNL     1       6.706  23.980  42.832  1.00  0.00     0.008 C 
BRANCH   9  11
ATOM     11  C   UNL     1       4.595  25.233  43.551  1.00  0.00    -0.002 C 
ATOM     12  C   UNL     1       4.044  25.018  44.964  1.00  0.00     0.005 C 
ATOM     13  C   UNL     1       3.456  26.014  42.802  1.00  0.00    -0.026 C 
ATOM     14  C   UNL     1       2.539  24.876  44.819  1.00  0.00     0.005 C 
ATOM     15  C   UNL     1       2.133  25.610  43.525  1.00  0.00    -0.001 C 
ATOM     16  C   UNL     1       3.702  27.538  42.970  1.00  0.00     0.007 C 
ATOM     17  C   UNL     1       3.398  25.696  41.285  1.00  0.00     0.012 C 
ATOM     18  C   UNL     1       1.148  26.791  43.843  1.00  0.00     0.000 C 
ATOM     19  C   UNL     1       2.569  28.406  42.405  1.00  0.00     0.005 C 
ATOM     20  C   UNL     1       1.138  27.882  42.743  1.00  0.00     0.003 C 
ATOM     21  C   UNL     1      -0.275  26.222  44.051  1.00  0.00     0.031 C 
ATOM     22  C   UNL     1       0.110  29.039  43.061  1.00  0.00    -0.008 C 
ATOM     23  C   UNL     1      -1.373  27.245  44.014  1.00  0.00    -0.027 C 
ATOM     24  C   UNL     1      -1.259  28.449  43.417  1.00  0.00    -0.065 C 
ATOM     25  C   UNL     1      -0.029  29.933  41.788  1.00  0.00     0.014 C 
ATOM     26  C   UNL     1       0.556  29.916  44.268  1.00  0.00     0.016 C 
ATOM     27  C   UNL     1      -2.489  29.339  43.358  1.00  0.00     0.063 C 
ATOM     28  C   UNL     1      -1.223  30.898  41.833  1.00  0.00     0.033 C 
ATOM     29  C   UNL     1      -2.540  30.142  42.056  1.00  0.00     0.118 C 
BRANCH  29  30
ATOM     30  O   UNL     1      -2.801  29.276  40.981  1.00  0.00    -0.393 OA
ATOM     31  H   UNL     1      -3.201  29.828  40.258  1.00  0.00     0.210 HD
ENDBRANCH  29  30
ENDBRANCH   9  11
ENDBRANCH   1   9
TORSDOF 7
ENDMDL
MODEL 9
REMARK VINA RESULT:    -6.928      3.751     11.776
REMARK INTER + INTRA:         -10.534
REMARK INTER:                 -11.354
REMARK INTRA:                   0.820
REMARK UNBOUND:                -0.974
REMARK SMILES CC[C@@H](CC[C@H](C)[C@@H]1CC[C@H]2[C@@H]3CC=C4C[C@H](O)CC[C@]4(C)[C@H]3CC[C@]21C)C(C)C
REMARK SMILES IDX 5 1 4 2 3 3 2 4 1 5 28 6 29 7 30 8 6 9 7 10 8 11 9 12 26 13
REMARK SMILES IDX 10 14 11 15 25 16 27 17 12 18 24 19 23 20 13 21 21 22 14 23
REMARK SMILES IDX 15 24 20 25 22 26 16 27 19 28 17 29 18 30
REMARK H PARENT 18 31
REMARK Flexibility Score: inf
ROOT
ATOM      1  C   UNL     1      12.080  17.911  45.778  1.00  0.00     0.004 C 
ENDROOT
BRANCH   1   2
ATOM      2  C   UNL     1      12.268  16.416  46.138  1.00  0.00     0.004 C 
BRANCH   2   3
ATOM      3  C   UNL     1      13.463  15.637  45.510  1.00  0.00    -0.009 C 
BRANCH   3   4
ATOM      4  C   UNL     1      13.115  15.041  44.125  1.00  0.00     0.000 C 
ATOM      5  C   UNL     1      14.266  14.246  43.507  1.00  0.00     0.004 C 
ENDBRANCH   3   4
BRANCH   3   6
ATOM      6  C   UNL     1      14.272  14.677  46.460  1.00  0.00    -0.014 C 
ATOM      7  C   UNL     1      15.615  15.271  46.905  1.00  0.00     0.007 C 
ATOM      8  C   UNL     1      13.515  14.120  47.679  1.00  0.00     0.007 C 
ENDBRANCH   3   6
ENDBRANCH   2   3
ENDBRANCH   1   2
BRANCH   1   9
ATOM      9  C   UNL     1      10.706  18.308  45.150  1.00  0.00    -0.011 C 
ATOM     10  C   UNL     1      10.826  18.471  43.617  1.00  0.00     0.008 C 
BRANCH   9  11
ATOM     11  C   UNL     1      10.066  19.612  45.776  1.00  0.00    -0.002 C 
ATOM     12  C   UNL     1       9.192  19.321  46.999  1.00  0.00     0.005 C 
ATOM     13  C   UNL     1       9.169  20.527  44.865  1.00  0.00    -0.026 C 
ATOM     14  C   UNL     1       7.757  19.292  46.503  1.00  0.00     0.005 C 
ATOM     15  C   UNL     1       7.697  20.155  45.227  1.00  0.00    -0.001 C 
ATOM     16  C   UNL     1       9.440  22.013  45.228  1.00  0.00     0.007 C 
ATOM     17  C   UNL     1       9.449  20.339  43.351  1.00  0.00     0.012 C 
ATOM     18  C   UNL     1       6.720  21.369  45.423  1.00  0.00     0.000 C 
ATOM     19  C   UNL     1       8.510  22.997  44.505  1.00  0.00     0.005 C 
ATOM     20  C   UNL     1       7.017  22.545  44.458  1.00  0.00     0.003 C 
ATOM     21  C   UNL     1       5.264  20.882  45.248  1.00  0.00     0.031 C 
ATOM     22  C   UNL     1       5.998  23.739  44.643  1.00  0.00    -0.008 C 
ATOM     23  C   UNL     1       4.252  21.976  45.060  1.00  0.00    -0.027 C 
ATOM     24  C   UNL     1       4.558  23.214  44.622  1.00  0.00    -0.065 C 
ATOM     25  C   UNL     1       6.200  24.741  43.463  1.00  0.00     0.014 C 
ATOM     26  C   UNL     1       6.192  24.482  45.998  1.00  0.00     0.016 C 
ATOM     27  C   UNL     1       3.418  24.186  44.369  1.00  0.00     0.063 C 
ATOM     28  C   UNL     1       5.074  25.776  43.327  1.00  0.00     0.033 C 
ATOM     29  C   UNL     1       3.708  25.095  43.172  1.00  0.00     0.118 C 
BRANCH  29  30
ATOM     30  O   UNL     1       3.664  24.339  41.989  1.00  0.00    -0.393 OA
ATOM     31  H   UNL     1       2.843  24.614  41.503  1.00  0.00     0.210 HD
ENDBRANCH  29  30
ENDBRANCH   9  11
ENDBRANCH   1   9
TORSDOF 7
ENDMDL
