MODEL 1
REMARK VINA RESULT:    -4.000      0.000      0.000
REMARK INTER + INTRA:          -4.659
REMARK INTER:                  -4.584
REMARK INTRA:                  -0.075
REMARK UNBOUND:                -0.075
REMARK SMILES COc1cc(C(=O)[O-])ccc1O
REMARK SMILES IDX 5 1 9 2 4 3 10 4 3 5 11 6 6 7 7 8 8 9 2 10 1 11 12 12
REMARK H PARENT 12 13
REMARK Flexibility Score: inf
ROOT
ATOM      1  C   UNL     1       7.090  -5.235  24.833  1.00  0.00     0.001 A 
ATOM      2  C   UNL     1       6.206  -4.500  24.025  1.00  0.00     0.014 A 
ATOM      3  C   UNL     1       7.161  -4.947  26.208  1.00  0.00     0.060 A 
ATOM      4  C   UNL     1       5.410  -3.497  24.582  1.00  0.00     0.051 A 
ATOM      5  C   UNL     1       6.359  -3.935  26.774  1.00  0.00     0.161 A 
ATOM      6  C   UNL     1       5.481  -3.211  25.948  1.00  0.00     0.157 A 
ENDROOT
BRANCH   1   7
ATOM      7  C   UNL     1       7.937  -6.299  24.246  1.00  0.00     0.072 C 
ATOM      8  O   UNL     1       7.421  -7.225  23.566  1.00  0.00    -0.545 OA
ATOM      9  O   UNL     1       9.313  -6.291  24.438  1.00  0.00    -0.545 OA
ENDBRANCH   1   7
BRANCH   5  10
ATOM     10  O   UNL     1       6.409  -3.626  28.143  1.00  0.00    -0.493 OA
ATOM     11  C   UNL     1       7.171  -4.345  29.107  1.00  0.00     0.278 C 
ENDBRANCH   5  10
BRANCH   6  12
ATOM     12  O   UNL     1       4.670  -2.203  26.467  1.00  0.00    -0.504 OA
ATOM     13  H   UNL     1       3.663  -2.298  26.530  1.00  0.00     0.293 HD
ENDBRANCH   6  12
TORSDOF 3
ENDMDL
MODEL 2
REMARK VINA RESULT:    -3.984      1.504      1.995
REMARK INTER + INTRA:          -4.641
REMARK INTER:                  -4.563
REMARK INTRA:                  -0.078
REMARK UNBOUND:                -0.075
REMARK SMILES COc1cc(C(=O)[O-])ccc1O
REMARK SMILES IDX 5 1 9 2 4 3 10 4 3 5 11 6 6 7 7 8 8 9 2 10 1 11 12 12
REMARK H PARENT 12 13
REMARK Flexibility Score: inf
ROOT
ATOM      1  C   UNL     1       5.844  -3.937  25.161  1.00  0.00     0.001 A 
ATOM      2  C   UNL     1       4.815  -2.986  25.056  1.00  0.00     0.014 A 
ATOM      3  C   UNL     1       6.394  -4.212  26.426  1.00  0.00     0.060 A 
ATOM      4  C   UNL     1       4.346  -2.325  26.192  1.00  0.00     0.051 A 
ATOM      5  C   UNL     1       5.924  -3.547  27.576  1.00  0.00     0.161 A 
ATOM      6  C   UNL     1       4.893  -2.599  27.449  1.00  0.00     0.157 A 
ENDROOT
BRANCH   1   7
ATOM      7  C   UNL     1       6.345  -4.640  23.958  1.00  0.00     0.072 C 
ATOM      8  O   UNL     1       6.348  -4.067  22.837  1.00  0.00    -0.545 OA
ATOM      9  O   UNL     1       6.818  -5.944  24.049  1.00  0.00    -0.545 OA
ENDBRANCH   1   7
BRANCH   5  10
ATOM     10  O   UNL     1       6.454  -3.802  28.852  1.00  0.00    -0.493 OA
ATOM     11  C   UNL     1       7.487  -4.743  29.125  1.00  0.00     0.278 C 
ENDBRANCH   5  10
BRANCH   6  12
ATOM     12  O   UNL     1       4.398  -1.918  28.561  1.00  0.00    -0.504 OA
ATOM     13  H   UNL     1       5.005  -1.550  29.284  1.00  0.00     0.293 HD
ENDBRANCH   6  12
TORSDOF 3
ENDMDL
MODEL 3
REMARK VINA RESULT:    -3.961      1.712      4.451
REMARK INTER + INTRA:          -4.616
REMARK INTER:                  -4.514
REMARK INTRA:                  -0.102
REMARK UNBOUND:                -0.075
REMARK SMILES COc1cc(C(=O)[O-])ccc1O
REMARK SMILES IDX 5 1 9 2 4 3 10 4 3 5 11 6 6 7 7 8 8 9 2 10 1 11 12 12
REMARK H PARENT 12 13
REMARK Flexibility Score: inf
ROOT
ATOM      1  C   UNL     1       5.118  -2.990  26.723  1.00  0.00     0.001 A 
ATOM      2  C   UNL     1       4.748  -2.696  25.399  1.00  0.00     0.014 A 
ATOM      3  C   UNL     1       6.065  -4.003  26.958  1.00  0.00     0.060 A 
ATOM      4  C   UNL     1       5.313  -3.400  24.335  1.00  0.00     0.051 A 
ATOM      5  C   UNL     1       6.638  -4.717  25.887  1.00  0.00     0.161 A 
ATOM      6  C   UNL     1       6.253  -4.406  24.570  1.00  0.00     0.157 A 
ENDROOT
BRANCH   1   7
ATOM      7  C   UNL     1       4.520  -2.245  27.854  1.00  0.00     0.072 C 
ATOM      8  O   UNL     1       4.475  -2.756  29.004  1.00  0.00    -0.545 OA
ATOM      9  O   UNL     1       4.001  -0.971  27.663  1.00  0.00    -0.545 OA
ENDBRANCH   1   7
BRANCH   5  10
ATOM     10  O   UNL     1       7.586  -5.733  26.092  1.00  0.00    -0.493 OA
ATOM     11  C   UNL     1       8.953  -5.509  26.420  1.00  0.00     0.278 C 
ENDBRANCH   5  10
BRANCH   6  12
ATOM     12  O   UNL     1       6.796  -5.088  23.481  1.00  0.00    -0.504 OA
ATOM     13  H   UNL     1       6.226  -5.414  22.709  1.00  0.00     0.293 HD
ENDBRANCH   6  12
TORSDOF 3
ENDMDL
MODEL 4
REMARK VINA RESULT:    -3.954      1.397      4.117
REMARK INTER + INTRA:          -4.607
REMARK INTER:                  -4.503
REMARK INTRA:                  -0.104
REMARK UNBOUND:                -0.075
REMARK SMILES COc1cc(C(=O)[O-])ccc1O
REMARK SMILES IDX 5 1 9 2 4 3 10 4 3 5 11 6 6 7 7 8 8 9 2 10 1 11 12 12
REMARK H PARENT 12 13
REMARK Flexibility Score: inf
ROOT
ATOM      1  C   UNL     1       5.930  -4.086  25.533  1.00  0.00     0.001 A 
ATOM      2  C   UNL     1       5.957  -4.483  24.185  1.00  0.00     0.014 A 
ATOM      3  C   UNL     1       6.966  -4.500  26.389  1.00  0.00     0.060 A 
ATOM      4  C   UNL     1       6.999  -5.277  23.704  1.00  0.00     0.051 A 
ATOM      5  C   UNL     1       8.020  -5.303  25.908  1.00  0.00     0.161 A 
ATOM      6  C   UNL     1       8.028  -5.689  24.555  1.00  0.00     0.157 A 
ENDROOT
BRANCH   1   7
ATOM      7  C   UNL     1       4.826  -3.243  26.047  1.00  0.00     0.072 C 
ATOM      8  O   UNL     1       4.855  -2.797  27.224  1.00  0.00    -0.545 OA
ATOM      9  O   UNL     1       3.740  -2.932  25.236  1.00  0.00    -0.545 OA
ENDBRANCH   1   7
BRANCH   5  10
ATOM     10  O   UNL     1       9.068  -5.731  26.739  1.00  0.00    -0.493 OA
ATOM     11  C   UNL     1       8.995  -6.846  27.622  1.00  0.00     0.278 C 
ENDBRANCH   5  10
BRANCH   6  12
ATOM     12  O   UNL     1       9.052  -6.482  24.038  1.00  0.00    -0.504 OA
ATOM     13  H   UNL     1       9.552  -6.234  23.193  1.00  0.00     0.293 HD
ENDBRANCH   6  12
TORSDOF 3
ENDMDL
MODEL 5
REMARK VINA RESULT:    -3.718      1.271      1.453
REMARK INTER + INTRA:          -4.336
REMARK INTER:                  -4.252
REMARK INTRA:                  -0.084
REMARK UNBOUND:                -0.075
REMARK SMILES COc1cc(C(=O)[O-])ccc1O
REMARK SMILES IDX 5 1 9 2 4 3 10 4 3 5 11 6 6 7 7 8 8 9 2 10 1 11 12 12
REMARK H PARENT 12 13
REMARK Flexibility Score: inf
ROOT
ATOM      1  C   UNL     1       7.734  -5.613  25.147  1.00  0.00     0.001 A 
ATOM      2  C   UNL     1       7.197  -5.365  23.872  1.00  0.00     0.014 A 
ATOM      3  C   UNL     1       7.247  -4.885  26.247  1.00  0.00     0.060 A 
ATOM      4  C   UNL     1       6.194  -4.410  23.701  1.00  0.00     0.051 A 
ATOM      5  C   UNL     1       6.234  -3.919  26.080  1.00  0.00     0.161 A 
ATOM      6  C   UNL     1       5.711  -3.687  24.795  1.00  0.00     0.157 A 
ENDROOT
BRANCH   1   7
ATOM      7  C   UNL     1       8.799  -6.625  25.331  1.00  0.00     0.072 C 
ATOM      8  O   UNL     1       8.950  -7.555  24.495  1.00  0.00    -0.545 OA
ATOM      9  O   UNL     1       9.647  -6.564  26.430  1.00  0.00    -0.545 OA
ENDBRANCH   1   7
BRANCH   5  10
ATOM     10  O   UNL     1       5.728  -3.178  27.160  1.00  0.00    -0.493 OA
ATOM     11  C   UNL     1       5.499  -3.702  28.464  1.00  0.00     0.278 C 
ENDBRANCH   5  10
BRANCH   6  12
ATOM     12  O   UNL     1       4.707  -2.741  24.586  1.00  0.00    -0.504 OA
ATOM     13  H   UNL     1       4.909  -1.800  24.271  1.00  0.00     0.293 HD
ENDBRANCH   6  12
TORSDOF 3
ENDMDL
MODEL 6
REMARK VINA RESULT:    -3.683      1.126      2.582
REMARK INTER + INTRA:          -4.297
REMARK INTER:                  -4.233
REMARK INTRA:                  -0.063
REMARK UNBOUND:                -0.075
REMARK SMILES COc1cc(C(=O)[O-])ccc1O
REMARK SMILES IDX 5 1 9 2 4 3 10 4 3 5 11 6 6 7 7 8 8 9 2 10 1 11 12 12
REMARK H PARENT 12 13
REMARK Flexibility Score: inf
ROOT
ATOM      1  C   UNL     1       6.967  -5.109  25.174  1.00  0.00     0.001 A 
ATOM      2  C   UNL     1       7.413  -4.802  26.471  1.00  0.00     0.014 A 
ATOM      3  C   UNL     1       5.827  -4.456  24.672  1.00  0.00     0.060 A 
ATOM      4  C   UNL     1       6.734  -3.862  27.248  1.00  0.00     0.051 A 
ATOM      5  C   UNL     1       5.138  -3.506  25.452  1.00  0.00     0.161 A 
ATOM      6  C   UNL     1       5.602  -3.214  26.747  1.00  0.00     0.157 A 
ENDROOT
BRANCH   1   7
ATOM      7  C   UNL     1       7.685  -6.106  24.348  1.00  0.00     0.072 C 
ATOM      8  O   UNL     1       7.052  -7.007  23.737  1.00  0.00    -0.545 OA
ATOM      9  O   UNL     1       9.069  -6.061  24.234  1.00  0.00    -0.545 OA
ENDBRANCH   1   7
BRANCH   5  10
ATOM     10  O   UNL     1       3.997  -2.839  24.975  1.00  0.00    -0.493 OA
ATOM     11  C   UNL     1       2.657  -3.250  25.226  1.00  0.00     0.278 C 
ENDBRANCH   5  10
BRANCH   6  12
ATOM     12  O   UNL     1       4.950  -2.281  27.552  1.00  0.00    -0.504 OA
ATOM     13  H   UNL     1       4.389  -2.554  28.350  1.00  0.00     0.293 HD
ENDBRANCH   6  12
TORSDOF 3
ENDMDL
MODEL 7
REMARK VINA RESULT:    -3.660      1.620      4.562
REMARK INTER + INTRA:          -4.269
REMARK INTER:                  -4.189
REMARK INTRA:                  -0.081
REMARK UNBOUND:                -0.075
REMARK SMILES COc1cc(C(=O)[O-])ccc1O
REMARK SMILES IDX 5 1 9 2 4 3 10 4 3 5 11 6 6 7 7 8 8 9 2 10 1 11 12 12
REMARK H PARENT 12 13
REMARK Flexibility Score: inf
ROOT
ATOM      1  C   UNL     1       5.960  -3.575  26.725  1.00  0.00     0.001 A 
ATOM      2  C   UNL     1       6.071  -3.591  28.126  1.00  0.00     0.014 A 
ATOM      3  C   UNL     1       6.797  -4.410  25.964  1.00  0.00     0.060 A 
ATOM      4  C   UNL     1       6.998  -4.426  28.751  1.00  0.00     0.051 A 
ATOM      5  C   UNL     1       7.735  -5.254  26.590  1.00  0.00     0.161 A 
ATOM      6  C   UNL     1       7.829  -5.255  27.993  1.00  0.00     0.157 A 
ENDROOT
BRANCH   1   7
ATOM      7  C   UNL     1       4.977  -2.690  26.059  1.00  0.00     0.072 C 
ATOM      8  O   UNL     1       4.197  -1.973  26.739  1.00  0.00    -0.545 OA
ATOM      9  O   UNL     1       4.903  -2.638  24.672  1.00  0.00    -0.545 OA
ENDBRANCH   1   7
BRANCH   5  10
ATOM     10  O   UNL     1       8.583  -6.099  25.855  1.00  0.00    -0.493 OA
ATOM     11  C   UNL     1       8.579  -6.212  24.436  1.00  0.00     0.278 C 
ENDBRANCH   5  10
BRANCH   6  12
ATOM     12  O   UNL     1       8.743  -6.076  28.654  1.00  0.00    -0.504 OA
ATOM     13  H   UNL     1       8.506  -6.575  29.503  1.00  0.00     0.293 HD
ENDBRANCH   6  12
TORSDOF 3
ENDMDL
MODEL 8
REMARK VINA RESULT:    -3.621      1.613      4.582
REMARK INTER + INTRA:          -4.226
REMARK INTER:                  -4.130
REMARK INTRA:                  -0.096
REMARK UNBOUND:                -0.075
REMARK SMILES COc1cc(C(=O)[O-])ccc1O
REMARK SMILES IDX 5 1 9 2 4 3 10 4 3 5 11 6 6 7 7 8 8 9 2 10 1 11 12 12
REMARK H PARENT 12 13
REMARK Flexibility Score: inf
ROOT
ATOM      1  C   UNL     1       5.882  -4.165  25.579  1.00  0.00     0.001 A 
ATOM      2  C   UNL     1       6.338  -4.135  26.908  1.00  0.00     0.014 A 
ATOM      3  C   UNL     1       6.598  -4.913  24.628  1.00  0.00     0.060 A 
ATOM      4  C   UNL     1       7.486  -4.839  27.277  1.00  0.00     0.051 A 
ATOM      5  C   UNL     1       7.758  -5.625  24.995  1.00  0.00     0.161 A 
ATOM      6  C   UNL     1       8.196  -5.582  26.331  1.00  0.00     0.157 A 
ENDROOT
BRANCH   1   7
ATOM      7  C   UNL     1       4.666  -3.419  25.184  1.00  0.00     0.072 C 
ATOM      8  O   UNL     1       4.749  -2.235  24.762  1.00  0.00    -0.545 OA
ATOM      9  O   UNL     1       3.413  -4.016  25.273  1.00  0.00    -0.545 OA
ENDBRANCH   1   7
BRANCH   5  10
ATOM     10  O   UNL     1       8.492  -6.381  24.067  1.00  0.00    -0.493 OA
ATOM     11  C   UNL     1       8.147  -7.695  23.641  1.00  0.00     0.278 C 
ENDBRANCH   5  10
BRANCH   6  12
ATOM     12  O   UNL     1       9.338  -6.272  26.738  1.00  0.00    -0.504 OA
ATOM     13  H   UNL     1       9.371  -7.284  26.779  1.00  0.00     0.293 HD
ENDBRANCH   6  12
TORSDOF 3
ENDMDL
MODEL 9
REMARK VINA RESULT:    -3.544      2.061      3.597
REMARK INTER + INTRA:          -4.137
REMARK INTER:                  -4.050
REMARK INTRA:                  -0.087
REMARK UNBOUND:                -0.075
REMARK SMILES COc1cc(C(=O)[O-])ccc1O
REMARK SMILES IDX 5 1 9 2 4 3 10 4 3 5 11 6 6 7 7 8 8 9 2 10 1 11 12 12
REMARK H PARENT 12 13
REMARK Flexibility Score: inf
ROOT
ATOM      1  C   UNL     1       9.282  -6.937  24.836  1.00  0.00     0.001 A 
ATOM      2  C   UNL     1       9.652  -6.610  26.152  1.00  0.00     0.014 A 
ATOM      3  C   UNL     1       8.161  -6.308  24.265  1.00  0.00     0.060 A 
ATOM      4  C   UNL     1       8.917  -5.674  26.880  1.00  0.00     0.051 A 
ATOM      5  C   UNL     1       7.415  -5.362  24.996  1.00  0.00     0.161 A 
ATOM      6  C   UNL     1       7.803  -5.049  26.311  1.00  0.00     0.157 A 
ENDROOT
BRANCH   1   7
ATOM      7  C   UNL     1      10.059  -7.931  24.061  1.00  0.00     0.072 C 
ATOM      8  O   UNL     1       9.521  -8.572  23.120  1.00  0.00    -0.545 OA
ATOM      9  O   UNL     1      11.395  -8.169  24.360  1.00  0.00    -0.545 OA
ENDBRANCH   1   7
BRANCH   5  10
ATOM     10  O   UNL     1       6.292  -4.718  24.452  1.00  0.00    -0.493 OA
ATOM     11  C   UNL     1       6.249  -4.125  23.157  1.00  0.00     0.278 C 
ENDBRANCH   5  10
BRANCH   6  12
ATOM     12  O   UNL     1       7.094  -4.118  27.070  1.00  0.00    -0.504 OA
ATOM     13  H   UNL     1       6.140  -3.858  26.852  1.00  0.00     0.293 HD
ENDBRANCH   6  12
TORSDOF 3
ENDMDL
