MODEL 1
REMARK VINA RESULT:    -5.843      0.000      0.000
REMARK INTER + INTRA:         -10.860
REMARK INTER:                  -8.917
REMARK INTRA:                  -1.943
REMARK UNBOUND:                -1.943
REMARK SMILES OC[C@H]1O[C@H](O[C@]2(CO)O[C@H](CO)[C@H](O)[C@@H]2O)[C@@H](O)[C@@H](O)[C@@H]1O
REMARK SMILES IDX 6 1 5 2 3 3 22 4 4 5 20 6 18 7 2 8 1 9 23 11 21 13 19 15
REMARK SMILES IDX 7 17 16 18 10 19 14 20 11 21 8 22 9 23 17 25 15 27 12 29
REMARK SMILES IDX 13 30
REMARK H PARENT 1 10 23 12 21 14 19 16 9 24 17 26 15 28 13 31
REMARK Flexibility Score: inf
ROOT
ATOM      1  O   UNL     1     171.680 173.727 198.336  1.00  0.00    -0.313 OA
ENDROOT
BRANCH   1   2
ATOM      2  C   UNL     1     171.016 172.554 197.872  1.00  0.00     0.285 C 
ATOM      3  C   UNL     1     170.674 171.741 200.060  1.00  0.00     0.178 C 
ATOM      4  C   UNL     1     169.148 172.005 200.013  1.00  0.00     0.177 C 
ATOM      5  O   UNL     1     171.186 171.461 198.764  1.00  0.00    -0.341 OA
ATOM      6  C   UNL     1     168.855 173.147 199.019  1.00  0.00     0.179 C 
ATOM      7  C   UNL     1     169.523 172.859 197.657  1.00  0.00     0.202 C 
BRANCH   3   8
ATOM      8  C   UNL     1     171.005 170.551 200.972  1.00  0.00     0.191 C 
BRANCH   8   9
ATOM      9  O   UNL     1     172.395 170.364 201.061  1.00  0.00    -0.394 OA
ATOM     10  H   UNL     1     172.770 171.162 201.519  1.00  0.00     0.210 HD
ENDBRANCH   8   9
ENDBRANCH   3   8
BRANCH   4  11
ATOM     11  O   UNL     1     168.693 172.355 201.295  1.00  0.00    -0.387 OA
ATOM     12  H   UNL     1     167.745 172.064 201.352  1.00  0.00     0.211 HD
ENDBRANCH   4  11
BRANCH   6  13
ATOM     13  O   UNL     1     167.471 173.366 198.882  1.00  0.00    -0.387 OA
ATOM     14  H   UNL     1     167.241 173.288 197.919  1.00  0.00     0.211 HD
ENDBRANCH   6  13
BRANCH   7  15
ATOM     15  O   UNL     1     168.923 171.752 197.032  1.00  0.00    -0.385 OA
ATOM     16  H   UNL     1     169.015 171.880 196.053  1.00  0.00     0.211 HD
ENDBRANCH   7  15
ENDBRANCH   1   2
BRANCH   1  17
ATOM     17  C   UNL     1     172.989 173.890 197.801  1.00  0.00     0.224 C 
ATOM     18  C   UNL     1     173.979 173.948 198.980  1.00  0.00     0.208 C 
ATOM     19  O   UNL     1     173.359 172.764 197.014  1.00  0.00    -0.337 OA
ATOM     20  C   UNL     1     175.244 173.399 198.364  1.00  0.00     0.180 C 
ATOM     21  C   UNL     1     174.720 172.471 197.257  1.00  0.00     0.179 C 
BRANCH  17  22
ATOM     22  C   UNL     1     173.065 175.210 196.954  1.00  0.00     0.225 C 
BRANCH  22  23
ATOM     23  O   UNL     1     173.062 174.949 195.574  1.00  0.00    -0.391 OA
ATOM     24  H   UNL     1     172.133 174.692 195.330  1.00  0.00     0.210 HD
ENDBRANCH  22  23
ENDBRANCH  17  22
BRANCH  18  25
ATOM     25  O   UNL     1     173.555 173.112 200.031  1.00  0.00    -0.385 OA
ATOM     26  H   UNL     1     174.185 173.260 200.785  1.00  0.00     0.211 HD
ENDBRANCH  18  25
BRANCH  20  27
ATOM     27  O   UNL     1     176.048 172.734 199.309  1.00  0.00    -0.387 OA
ATOM     28  H   UNL     1     176.976 172.750 198.952  1.00  0.00     0.211 HD
ENDBRANCH  20  27
BRANCH  21  29
ATOM     29  C   UNL     1     174.862 170.971 197.557  1.00  0.00     0.191 C 
BRANCH  29  30
ATOM     30  O   UNL     1     173.999 170.589 198.593  1.00  0.00    -0.394 OA
ATOM     31  H   UNL     1     173.500 169.791 198.267  1.00  0.00     0.210 HD
ENDBRANCH  29  30
ENDBRANCH  21  29
ENDBRANCH   1  17
TORSDOF 13
ENDMDL
MODEL 2
REMARK VINA RESULT:    -5.812      2.317      5.567
REMARK INTER + INTRA:         -10.812
REMARK INTER:                  -8.866
REMARK INTRA:                  -1.946
REMARK UNBOUND:                -1.943
REMARK SMILES OC[C@H]1O[C@H](O[C@]2(CO)O[C@H](CO)[C@H](O)[C@@H]2O)[C@@H](O)[C@@H](O)[C@@H]1O
REMARK SMILES IDX 6 1 5 2 3 3 22 4 4 5 20 6 18 7 2 8 1 9 23 11 21 13 19 15
REMARK SMILES IDX 7 17 16 18 10 19 14 20 11 21 8 22 9 23 17 25 15 27 12 29
REMARK SMILES IDX 13 30
REMARK H PARENT 1 10 23 12 21 14 19 16 9 24 17 26 15 28 13 31
REMARK Flexibility Score: inf
ROOT
ATOM      1  O   UNL     1     171.980 170.006 198.301  1.00  0.00    -0.313 OA
ENDROOT
BRANCH   1   2
ATOM      2  C   UNL     1     172.664 171.176 197.855  1.00  0.00     0.285 C 
ATOM      3  C   UNL     1     172.982 171.968 200.055  1.00  0.00     0.178 C 
ATOM      4  C   UNL     1     174.506 171.687 200.029  1.00  0.00     0.177 C 
ATOM      5  O   UNL     1     172.493 172.263 198.754  1.00  0.00    -0.341 OA
ATOM      6  C   UNL     1     174.801 170.550 199.031  1.00  0.00     0.179 C 
ATOM      7  C   UNL     1     174.157 170.856 197.661  1.00  0.00     0.202 C 
BRANCH   3   8
ATOM      8  C   UNL     1     172.651 173.154 200.971  1.00  0.00     0.191 C 
BRANCH   8   9
ATOM      9  O   UNL     1     171.266 173.388 201.001  1.00  0.00    -0.394 OA
ATOM     10  H   UNL     1     170.825 172.594 200.599  1.00  0.00     0.210 HD
ENDBRANCH   8   9
ENDBRANCH   3   8
BRANCH   4  11
ATOM     11  O   UNL     1     174.938 171.322 201.314  1.00  0.00    -0.387 OA
ATOM     12  H   UNL     1     175.404 170.451 201.223  1.00  0.00     0.211 HD
ENDBRANCH   4  11
BRANCH   6  13
ATOM     13  O   UNL     1     176.184 170.316 198.912  1.00  0.00    -0.387 OA
ATOM     14  H   UNL     1     176.643 170.812 199.640  1.00  0.00     0.211 HD
ENDBRANCH   6  13
BRANCH   7  15
ATOM     15  O   UNL     1     174.778 171.961 197.053  1.00  0.00    -0.385 OA
ATOM     16  H   UNL     1     174.591 171.906 196.081  1.00  0.00     0.211 HD
ENDBRANCH   7  15
ENDBRANCH   1   2
BRANCH   1  17
ATOM     17  C   UNL     1     170.678 169.861 197.742  1.00  0.00     0.224 C 
ATOM     18  C   UNL     1     169.667 169.815 198.904  1.00  0.00     0.208 C 
ATOM     19  O   UNL     1     170.338 170.991 196.951  1.00  0.00    -0.337 OA
ATOM     20  C   UNL     1     168.421 170.380 198.266  1.00  0.00     0.180 C 
ATOM     21  C   UNL     1     168.976 171.302 197.170  1.00  0.00     0.179 C 
BRANCH  17  22
ATOM     22  C   UNL     1     170.600 168.542 196.893  1.00  0.00     0.225 C 
BRANCH  22  23
ATOM     23  O   UNL     1     170.645 168.803 195.514  1.00  0.00    -0.391 OA
ATOM     24  H   UNL     1     171.385 169.450 195.367  1.00  0.00     0.210 HD
ENDBRANCH  22  23
ENDBRANCH  17  22
BRANCH  18  25
ATOM     25  O   UNL     1     170.083 170.645 199.963  1.00  0.00    -0.385 OA
ATOM     26  H   UNL     1     169.906 171.581 199.680  1.00  0.00     0.211 HD
ENDBRANCH  18  25
BRANCH  20  27
ATOM     27  O   UNL     1     167.608 171.055 199.197  1.00  0.00    -0.387 OA
ATOM     28  H   UNL     1     168.130 171.108 200.042  1.00  0.00     0.211 HD
ENDBRANCH  20  27
BRANCH  21  29
ATOM     29  C   UNL     1     168.848 172.803 197.468  1.00  0.00     0.191 C 
BRANCH  29  30
ATOM     30  O   UNL     1     169.694 173.173 198.521  1.00  0.00    -0.394 OA
ATOM     31  H   UNL     1     169.471 174.118 198.747  1.00  0.00     0.210 HD
ENDBRANCH  29  30
ENDBRANCH  21  29
ENDBRANCH   1  17
TORSDOF 13
ENDMDL
MODEL 3
REMARK VINA RESULT:    -5.755      1.877      5.372
REMARK INTER + INTRA:         -10.726
REMARK INTER:                  -8.771
REMARK INTRA:                  -1.954
REMARK UNBOUND:                -1.943
REMARK SMILES OC[C@H]1O[C@H](O[C@]2(CO)O[C@H](CO)[C@H](O)[C@@H]2O)[C@@H](O)[C@@H](O)[C@@H]1O
REMARK SMILES IDX 6 1 5 2 3 3 22 4 4 5 20 6 18 7 2 8 1 9 23 11 21 13 19 15
REMARK SMILES IDX 7 17 16 18 10 19 14 20 11 21 8 22 9 23 17 25 15 27 12 29
REMARK SMILES IDX 13 30
REMARK H PARENT 1 10 23 12 21 14 19 16 9 24 17 26 15 28 13 31
REMARK Flexibility Score: inf
ROOT
ATOM      1  O   UNL     1     170.674 172.797 198.405  1.00  0.00    -0.313 OA
ENDROOT
BRANCH   1   2
ATOM      2  C   UNL     1     172.064 172.701 198.711  1.00  0.00     0.285 C 
ATOM      3  C   UNL     1     172.694 172.915 196.447  1.00  0.00     0.178 C 
ATOM      4  C   UNL     1     173.269 174.339 196.652  1.00  0.00     0.177 C 
ATOM      5  O   UNL     1     172.804 172.142 197.634  1.00  0.00    -0.341 OA
ATOM      6  C   UNL     1     172.561 175.012 197.845  1.00  0.00     0.179 C 
ATOM      7  C   UNL     1     172.605 174.092 199.085  1.00  0.00     0.202 C 
BRANCH   3   8
ATOM      8  C   UNL     1     173.431 172.174 195.323  1.00  0.00     0.191 C 
BRANCH   8   9
ATOM      9  O   UNL     1     173.015 170.834 195.255  1.00  0.00    -0.394 OA
ATOM     10  H   UNL     1     173.007 170.480 196.183  1.00  0.00     0.210 HD
ENDBRANCH   8   9
ENDBRANCH   3   8
BRANCH   4  11
ATOM     11  O   UNL     1     173.071 175.097 195.486  1.00  0.00    -0.387 OA
ATOM     12  H   UNL     1     173.105 174.463 194.723  1.00  0.00     0.211 HD
ENDBRANCH   4  11
BRANCH   6  13
ATOM     13  O   UNL     1     173.110 176.279 198.120  1.00  0.00    -0.387 OA
ATOM     14  H   UNL     1     174.088 176.235 197.949  1.00  0.00     0.211 HD
ENDBRANCH   6  13
BRANCH   7  15
ATOM     15  O   UNL     1     173.922 173.951 199.554  1.00  0.00    -0.385 OA
ATOM     16  H   UNL     1     173.905 174.107 200.533  1.00  0.00     0.211 HD
ENDBRANCH   7  15
ENDBRANCH   1   2
BRANCH   1  17
ATOM     17  C   UNL     1     169.904 171.711 198.912  1.00  0.00     0.224 C 
ATOM     18  C   UNL     1     169.277 170.976 197.712  1.00  0.00     0.208 C 
ATOM     19  O   UNL     1     170.733 170.769 199.579  1.00  0.00    -0.337 OA
ATOM     20  C   UNL     1     169.145 169.565 198.235  1.00  0.00     0.180 C 
ATOM     21  C   UNL     1     170.279 169.468 199.267  1.00  0.00     0.179 C 
BRANCH  17  22
ATOM     22  C   UNL     1     168.784 172.248 199.874  1.00  0.00     0.225 C 
BRANCH  22  23
ATOM     23  O   UNL     1     169.212 172.278 201.211  1.00  0.00    -0.391 OA
ATOM     24  H   UNL     1     169.745 173.110 201.325  1.00  0.00     0.210 HD
ENDBRANCH  22  23
ENDBRANCH  17  22
BRANCH  18  25
ATOM     25  O   UNL     1     170.143 170.998 196.603  1.00  0.00    -0.385 OA
ATOM     26  H   UNL     1     170.630 170.131 196.602  1.00  0.00     0.211 HD
ENDBRANCH  18  25
BRANCH  20  27
ATOM     27  O   UNL     1     169.248 168.608 197.208  1.00  0.00    -0.387 OA
ATOM     28  H   UNL     1     169.666 167.802 197.613  1.00  0.00     0.211 HD
ENDBRANCH  20  27
BRANCH  21  29
ATOM     29  C   UNL     1     171.476 168.613 198.826  1.00  0.00     0.191 C 
BRANCH  29  30
ATOM     30  O   UNL     1     172.164 169.229 197.772  1.00  0.00    -0.394 OA
ATOM     31  H   UNL     1     171.471 169.568 197.141  1.00  0.00     0.210 HD
ENDBRANCH  29  30
ENDBRANCH  21  29
ENDBRANCH   1  17
TORSDOF 13
ENDMDL
MODEL 4
REMARK VINA RESULT:    -5.722      1.947      5.652
REMARK INTER + INTRA:         -10.675
REMARK INTER:                  -9.272
REMARK INTRA:                  -1.403
REMARK UNBOUND:                -1.943
REMARK SMILES OC[C@H]1O[C@H](O[C@]2(CO)O[C@H](CO)[C@H](O)[C@@H]2O)[C@@H](O)[C@@H](O)[C@@H]1O
REMARK SMILES IDX 6 1 5 2 3 3 22 4 4 5 20 6 18 7 2 8 1 9 23 11 21 13 19 15
REMARK SMILES IDX 7 17 16 18 10 19 14 20 11 21 8 22 9 23 17 25 15 27 12 29
REMARK SMILES IDX 13 30
REMARK H PARENT 1 10 23 12 21 14 19 16 9 24 17 26 15 28 13 31
REMARK Flexibility Score: inf
ROOT
ATOM      1  O   UNL     1     171.752 170.898 197.938  1.00  0.00    -0.313 OA
ENDROOT
BRANCH   1   2
ATOM      2  C   UNL     1     172.497 172.112 197.994  1.00  0.00     0.285 C 
ATOM      3  C   UNL     1     174.170 171.158 199.357  1.00  0.00     0.178 C 
ATOM      4  C   UNL     1     175.222 171.162 198.218  1.00  0.00     0.177 C 
ATOM      5  O   UNL     1     173.242 172.221 199.200  1.00  0.00    -0.341 OA
ATOM      6  C   UNL     1     174.503 171.102 196.856  1.00  0.00     0.179 C 
ATOM      7  C   UNL     1     173.424 172.203 196.768  1.00  0.00     0.202 C 
BRANCH   3   8
ATOM      8  C   UNL     1     174.839 171.305 200.731  1.00  0.00     0.191 C 
BRANCH   8   9
ATOM      9  O   UNL     1     176.181 171.698 200.590  1.00  0.00    -0.394 OA
ATOM     10  H   UNL     1     176.505 171.334 199.725  1.00  0.00     0.210 HD
ENDBRANCH   8   9
ENDBRANCH   3   8
BRANCH   4  11
ATOM     11  O   UNL     1     176.072 170.053 198.361  1.00  0.00    -0.387 OA
ATOM     12  H   UNL     1     175.563 169.259 198.052  1.00  0.00     0.211 HD
ENDBRANCH   4  11
BRANCH   6  13
ATOM     13  O   UNL     1     175.417 171.186 195.788  1.00  0.00    -0.387 OA
ATOM     14  H   UNL     1     176.055 170.429 195.869  1.00  0.00     0.211 HD
ENDBRANCH   6  13
BRANCH   7  15
ATOM     15  O   UNL     1     174.013 173.479 196.744  1.00  0.00    -0.385 OA
ATOM     16  H   UNL     1     173.612 173.975 195.985  1.00  0.00     0.211 HD
ENDBRANCH   7  15
ENDBRANCH   1   2
BRANCH   1  17
ATOM     17  C   UNL     1     170.434 171.062 197.425  1.00  0.00     0.224 C 
ATOM     18  C   UNL     1     169.471 170.272 198.332  1.00  0.00     0.208 C 
ATOM     19  O   UNL     1     170.030 172.423 197.492  1.00  0.00    -0.337 OA
ATOM     20  C   UNL     1     168.185 171.050 198.188  1.00  0.00     0.180 C 
ATOM     21  C   UNL     1     168.670 172.473 197.873  1.00  0.00     0.179 C 
BRANCH  17  22
ATOM     22  C   UNL     1     170.360 170.530 195.949  1.00  0.00     0.225 C 
BRANCH  22  23
ATOM     23  O   UNL     1     170.504 169.134 195.887  1.00  0.00    -0.391 OA
ATOM     24  H   UNL     1     169.600 168.744 196.027  1.00  0.00     0.210 HD
ENDBRANCH  22  23
ENDBRANCH  17  22
BRANCH  18  25
ATOM     25  O   UNL     1     169.904 170.304 199.671  1.00  0.00    -0.385 OA
ATOM     26  H   UNL     1     169.125 170.043 200.230  1.00  0.00     0.211 HD
ENDBRANCH  18  25
BRANCH  20  27
ATOM     27  O   UNL     1     167.390 170.980 199.348  1.00  0.00    -0.387 OA
ATOM     28  H   UNL     1     166.452 171.133 199.058  1.00  0.00     0.211 HD
ENDBRANCH  20  27
BRANCH  21  29
ATOM     29  C   UNL     1     168.511 173.475 199.026  1.00  0.00     0.191 C 
BRANCH  29  30
ATOM     30  O   UNL     1     169.374 173.155 200.083  1.00  0.00    -0.394 OA
ATOM     31  H   UNL     1     170.226 173.644 199.911  1.00  0.00     0.210 HD
ENDBRANCH  29  30
ENDBRANCH  21  29
ENDBRANCH   1  17
TORSDOF 13
ENDMDL
MODEL 5
REMARK VINA RESULT:    -5.698      1.609      5.725
REMARK INTER + INTRA:         -10.639
REMARK INTER:                  -8.878
REMARK INTRA:                  -1.761
REMARK UNBOUND:                -1.943
REMARK SMILES OC[C@H]1O[C@H](O[C@]2(CO)O[C@H](CO)[C@H](O)[C@@H]2O)[C@@H](O)[C@@H](O)[C@@H]1O
REMARK SMILES IDX 6 1 5 2 3 3 22 4 4 5 20 6 18 7 2 8 1 9 23 11 21 13 19 15
REMARK SMILES IDX 7 17 16 18 10 19 14 20 11 21 8 22 9 23 17 25 15 27 12 29
REMARK SMILES IDX 13 30
REMARK H PARENT 1 10 23 12 21 14 19 16 9 24 17 26 15 28 13 31
REMARK Flexibility Score: inf
ROOT
ATOM      1  O   UNL     1     171.644 171.007 198.656  1.00  0.00    -0.313 OA
ENDROOT
BRANCH   1   2
ATOM      2  C   UNL     1     172.182 171.446 197.411  1.00  0.00     0.285 C 
ATOM      3  C   UNL     1     173.363 173.224 198.417  1.00  0.00     0.178 C 
ATOM      4  C   UNL     1     174.741 172.551 198.191  1.00  0.00     0.177 C 
ATOM      5  O   UNL     1     172.436 172.844 197.409  1.00  0.00    -0.341 OA
ATOM      6  C   UNL     1     174.559 171.021 198.122  1.00  0.00     0.179 C 
ATOM      7  C   UNL     1     173.464 170.655 197.097  1.00  0.00     0.202 C 
BRANCH   3   8
ATOM      8  C   UNL     1     173.484 174.754 198.404  1.00  0.00     0.191 C 
BRANCH   8   9
ATOM      9  O   UNL     1     174.471 175.167 197.493  1.00  0.00    -0.394 OA
ATOM     10  H   UNL     1     174.519 174.478 196.779  1.00  0.00     0.210 HD
ENDBRANCH   8   9
ENDBRANCH   3   8
BRANCH   4  11
ATOM     11  O   UNL     1     175.604 172.885 199.247  1.00  0.00    -0.387 OA
ATOM     12  H   UNL     1     175.299 172.371 200.040  1.00  0.00     0.211 HD
ENDBRANCH   4  11
BRANCH   6  13
ATOM     13  O   UNL     1     175.775 170.372 197.836  1.00  0.00    -0.387 OA
ATOM     14  H   UNL     1     175.682 169.919 196.956  1.00  0.00     0.211 HD
ENDBRANCH   6  13
BRANCH   7  15
ATOM     15  O   UNL     1     173.878 170.970 195.791  1.00  0.00    -0.385 OA
ATOM     16  H   UNL     1     174.458 171.773 195.851  1.00  0.00     0.211 HD
ENDBRANCH   7  15
ENDBRANCH   1   2
BRANCH   1  17
ATOM     17  C   UNL     1     170.224 170.904 198.659  1.00  0.00     0.224 C 
ATOM     18  C   UNL     1     169.691 171.726 199.848  1.00  0.00     0.208 C 
ATOM     19  O   UNL     1     169.672 171.484 197.484  1.00  0.00    -0.337 OA
ATOM     20  C   UNL     1     168.325 172.145 199.361  1.00  0.00     0.180 C 
ATOM     21  C   UNL     1     168.492 172.179 197.835  1.00  0.00     0.179 C 
BRANCH  17  22
ATOM     22  C   UNL     1     169.792 169.399 198.793  1.00  0.00     0.225 C 
BRANCH  22  23
ATOM     23  O   UNL     1     169.400 168.854 197.560  1.00  0.00    -0.391 OA
ATOM     24  H   UNL     1     169.054 167.940 197.745  1.00  0.00     0.210 HD
ENDBRANCH  22  23
ENDBRANCH  17  22
BRANCH  18  25
ATOM     25  O   UNL     1     170.491 172.863 200.069  1.00  0.00    -0.385 OA
ATOM     26  H   UNL     1     170.014 173.633 199.661  1.00  0.00     0.211 HD
ENDBRANCH  18  25
BRANCH  20  27
ATOM     27  O   UNL     1     167.926 173.382 199.902  1.00  0.00    -0.387 OA
ATOM     28  H   UNL     1     168.474 173.524 200.719  1.00  0.00     0.211 HD
ENDBRANCH  20  27
BRANCH  21  29
ATOM     29  C   UNL     1     168.542 173.588 197.225  1.00  0.00     0.191 C 
BRANCH  29  30
ATOM     30  O   UNL     1     169.771 174.202 197.501  1.00  0.00    -0.394 OA
ATOM     31  H   UNL     1     169.864 174.220 198.493  1.00  0.00     0.210 HD
ENDBRANCH  29  30
ENDBRANCH  21  29
ENDBRANCH   1  17
TORSDOF 13
ENDMDL
MODEL 6
REMARK VINA RESULT:    -5.693      2.081      4.096
REMARK INTER + INTRA:         -10.632
REMARK INTER:                  -8.836
REMARK INTRA:                  -1.795
REMARK UNBOUND:                -1.943
REMARK SMILES OC[C@H]1O[C@H](O[C@]2(CO)O[C@H](CO)[C@H](O)[C@@H]2O)[C@@H](O)[C@@H](O)[C@@H]1O
REMARK SMILES IDX 6 1 5 2 3 3 22 4 4 5 20 6 18 7 2 8 1 9 23 11 21 13 19 15
REMARK SMILES IDX 7 17 16 18 10 19 14 20 11 21 8 22 9 23 17 25 15 27 12 29
REMARK SMILES IDX 13 30
REMARK H PARENT 1 10 23 12 21 14 19 16 9 24 17 26 15 28 13 31
REMARK Flexibility Score: inf
ROOT
ATOM      1  O   UNL     1     172.803 171.226 197.846  1.00  0.00    -0.313 OA
ENDROOT
BRANCH   1   2
ATOM      2  C   UNL     1     172.179 170.906 199.087  1.00  0.00     0.285 C 
ATOM      3  C   UNL     1     170.047 170.709 198.096  1.00  0.00     0.178 C 
ATOM      4  C   UNL     1     170.014 169.169 198.268  1.00  0.00     0.177 C 
ATOM      5  O   UNL     1     170.820 171.321 199.119  1.00  0.00    -0.341 OA
ATOM      6  C   UNL     1     171.457 168.626 198.303  1.00  0.00     0.179 C 
ATOM      7  C   UNL     1     172.296 169.394 199.347  1.00  0.00     0.202 C 
BRANCH   3   8
ATOM      8  C   UNL     1     168.633 171.303 198.145  1.00  0.00     0.191 C 
BRANCH   8   9
ATOM      9  O   UNL     1     167.816 170.572 199.025  1.00  0.00    -0.394 OA
ATOM     10  H   UNL     1     168.380 170.311 199.800  1.00  0.00     0.210 HD
ENDBRANCH   8   9
ENDBRANCH   3   8
BRANCH   4  11
ATOM     11  O   UNL     1     169.310 168.593 197.198  1.00  0.00    -0.387 OA
ATOM     12  H   UNL     1     169.234 167.622 197.394  1.00  0.00     0.211 HD
ENDBRANCH   4  11
BRANCH   6  13
ATOM     13  O   UNL     1     171.478 167.238 198.540  1.00  0.00    -0.387 OA
ATOM     14  H   UNL     1     170.870 166.805 197.884  1.00  0.00     0.211 HD
ENDBRANCH   6  13
BRANCH   7  15
ATOM     15  O   UNL     1     171.839 169.125 200.649  1.00  0.00    -0.385 OA
ATOM     16  H   UNL     1     171.047 168.534 200.567  1.00  0.00     0.211 HD
ENDBRANCH   7  15
ENDBRANCH   1   2
BRANCH   1  17
ATOM     17  C   UNL     1     173.648 172.371 197.912  1.00  0.00     0.224 C 
ATOM     18  C   UNL     1     173.117 173.410 196.906  1.00  0.00     0.208 C 
ATOM     19  O   UNL     1     173.581 172.976 199.196  1.00  0.00    -0.337 OA
ATOM     20  C   UNL     1     173.547 174.713 197.535  1.00  0.00     0.180 C 
ATOM     21  C   UNL     1     173.591 174.380 199.034  1.00  0.00     0.179 C 
BRANCH  17  22
ATOM     22  C   UNL     1     175.126 171.971 197.560  1.00  0.00     0.225 C 
BRANCH  22  23
ATOM     23  O   UNL     1     175.177 170.887 196.668  1.00  0.00    -0.391 OA
ATOM     24  H   UNL     1     174.241 170.581 196.531  1.00  0.00     0.210 HD
ENDBRANCH  22  23
ENDBRANCH  17  22
BRANCH  18  25
ATOM     25  O   UNL     1     171.712 173.356 196.826  1.00  0.00    -0.385 OA
ATOM     26  H   UNL     1     171.460 173.746 195.947  1.00  0.00     0.211 HD
ENDBRANCH  18  25
BRANCH  20  27
ATOM     27  O   UNL     1     172.664 175.766 197.228  1.00  0.00    -0.387 OA
ATOM     28  H   UNL     1     171.874 175.655 197.820  1.00  0.00     0.211 HD
ENDBRANCH  20  27
BRANCH  21  29
ATOM     29  C   UNL     1     172.448 174.987 199.861  1.00  0.00     0.191 C 
BRANCH  29  30
ATOM     30  O   UNL     1     171.244 174.315 199.608  1.00  0.00    -0.394 OA
ATOM     31  H   UNL     1     171.489 173.408 199.276  1.00  0.00     0.210 HD
ENDBRANCH  29  30
ENDBRANCH  21  29
ENDBRANCH   1  17
TORSDOF 13
ENDMDL
MODEL 7
REMARK VINA RESULT:    -5.642      2.047      4.906
REMARK INTER + INTRA:         -10.553
REMARK INTER:                  -8.821
REMARK INTRA:                  -1.732
REMARK UNBOUND:                -1.943
REMARK SMILES OC[C@H]1O[C@H](O[C@]2(CO)O[C@H](CO)[C@H](O)[C@@H]2O)[C@@H](O)[C@@H](O)[C@@H]1O
REMARK SMILES IDX 6 1 5 2 3 3 22 4 4 5 20 6 18 7 2 8 1 9 23 11 21 13 19 15
REMARK SMILES IDX 7 17 16 18 10 19 14 20 11 21 8 22 9 23 17 25 15 27 12 29
REMARK SMILES IDX 13 30
REMARK H PARENT 1 10 23 12 21 14 19 16 9 24 17 26 15 28 13 31
REMARK Flexibility Score: inf
ROOT
ATOM      1  O   UNL     1     170.832 172.485 198.016  1.00  0.00    -0.313 OA
ENDROOT
BRANCH   1   2
ATOM      2  C   UNL     1     171.523 172.823 199.217  1.00  0.00     0.285 C 
ATOM      3  C   UNL     1     173.595 173.016 198.106  1.00  0.00     0.178 C 
ATOM      4  C   UNL     1     173.631 174.558 198.255  1.00  0.00     0.177 C 
ATOM      5  O   UNL     1     172.883 172.414 199.178  1.00  0.00    -0.341 OA
ATOM      6  C   UNL     1     172.190 175.096 198.363  1.00  0.00     0.179 C 
ATOM      7  C   UNL     1     171.414 174.339 199.463  1.00  0.00     0.202 C 
BRANCH   3   8
ATOM      8  C   UNL     1     175.013 172.427 198.083  1.00  0.00     0.191 C 
BRANCH   8   9
ATOM      9  O   UNL     1     175.842 173.094 199.001  1.00  0.00    -0.394 OA
ATOM     10  H   UNL     1     175.873 174.049 198.730  1.00  0.00     0.210 HD
ENDBRANCH   8   9
ENDBRANCH   3   8
BRANCH   4  11
ATOM     11  O   UNL     1     174.272 175.122 197.141  1.00  0.00    -0.387 OA
ATOM     12  H   UNL     1     173.558 175.392 196.506  1.00  0.00     0.211 HD
ENDBRANCH   4  11
BRANCH   6  13
ATOM     13  O   UNL     1     172.176 176.487 198.583  1.00  0.00    -0.387 OA
ATOM     14  H   UNL     1     171.308 176.722 199.005  1.00  0.00     0.211 HD
ENDBRANCH   6  13
BRANCH   7  15
ATOM     15  O   UNL     1     171.941 174.627 200.733  1.00  0.00    -0.385 OA
ATOM     16  H   UNL     1     172.876 174.298 200.746  1.00  0.00     0.211 HD
ENDBRANCH   7  15
ENDBRANCH   1   2
BRANCH   1  17
ATOM     17  C   UNL     1     170.045 171.303 198.126  1.00  0.00     0.224 C 
ATOM     18  C   UNL     1     170.471 170.343 196.999  1.00  0.00     0.208 C 
ATOM     19  O   UNL     1     170.305 170.633 199.352  1.00  0.00    -0.337 OA
ATOM     20  C   UNL     1     170.176 168.991 197.602  1.00  0.00     0.180 C 
ATOM     21  C   UNL     1     170.323 169.240 199.110  1.00  0.00     0.179 C 
BRANCH  17  22
ATOM     22  C   UNL     1     168.520 171.658 197.998  1.00  0.00     0.225 C 
BRANCH  22  23
ATOM     23  O   UNL     1     168.241 172.350 196.808  1.00  0.00    -0.391 OA
ATOM     24  H   UNL     1     167.357 172.789 196.930  1.00  0.00     0.210 HD
ENDBRANCH  22  23
ENDBRANCH  17  22
BRANCH  18  25
ATOM     25  O   UNL     1     171.849 170.461 196.736  1.00  0.00    -0.385 OA
ATOM     26  H   UNL     1     172.165 171.271 197.219  1.00  0.00     0.211 HD
ENDBRANCH  18  25
BRANCH  20  27
ATOM     27  O   UNL     1     171.046 167.994 197.119  1.00  0.00    -0.387 OA
ATOM     28  H   UNL     1     170.686 167.706 196.239  1.00  0.00     0.211 HD
ENDBRANCH  20  27
BRANCH  21  29
ATOM     29  C   UNL     1     171.589 168.640 199.740  1.00  0.00     0.191 C 
BRANCH  29  30
ATOM     30  O   UNL     1     172.723 169.376 199.370  1.00  0.00    -0.394 OA
ATOM     31  H   UNL     1     173.251 169.522 200.203  1.00  0.00     0.210 HD
ENDBRANCH  29  30
ENDBRANCH  21  29
ENDBRANCH   1  17
TORSDOF 13
ENDMDL
MODEL 8
REMARK VINA RESULT:    -5.603      2.543      4.397
REMARK INTER + INTRA:         -10.494
REMARK INTER:                  -8.665
REMARK INTRA:                  -1.828
REMARK UNBOUND:                -1.943
REMARK SMILES OC[C@H]1O[C@H](O[C@]2(CO)O[C@H](CO)[C@H](O)[C@@H]2O)[C@@H](O)[C@@H](O)[C@@H]1O
REMARK SMILES IDX 6 1 5 2 3 3 22 4 4 5 20 6 18 7 2 8 1 9 23 11 21 13 19 15
REMARK SMILES IDX 7 17 16 18 10 19 14 20 11 21 8 22 9 23 17 25 15 27 12 29
REMARK SMILES IDX 13 30
REMARK H PARENT 1 10 23 12 21 14 19 16 9 24 17 26 15 28 13 31
REMARK Flexibility Score: inf
ROOT
ATOM      1  O   UNL     1     171.676 171.606 199.037  1.00  0.00    -0.313 OA
ENDROOT
BRANCH   1   2
ATOM      2  C   UNL     1     170.611 170.662 198.943  1.00  0.00     0.285 C 
ATOM      3  C   UNL     1     168.984 172.350 198.675  1.00  0.00     0.178 C 
ATOM      4  C   UNL     1     168.743 172.001 197.184  1.00  0.00     0.177 C 
ATOM      5  O   UNL     1     169.382 171.202 199.411  1.00  0.00    -0.341 OA
ATOM      6  C   UNL     1     170.012 171.353 196.597  1.00  0.00     0.179 C 
ATOM      7  C   UNL     1     170.478 170.180 197.487  1.00  0.00     0.202 C 
BRANCH   3   8
ATOM      8  C   UNL     1     167.715 172.919 199.325  1.00  0.00     0.191 C 
BRANCH   8   9
ATOM      9  O   UNL     1     167.517 172.361 200.600  1.00  0.00    -0.394 OA
ATOM     10  H   UNL     1     168.398 172.355 201.058  1.00  0.00     0.210 HD
ENDBRANCH   8   9
ENDBRANCH   3   8
BRANCH   4  11
ATOM     11  O   UNL     1     168.429 173.172 196.474  1.00  0.00    -0.387 OA
ATOM     12  H   UNL     1     169.124 173.842 196.705  1.00  0.00     0.211 HD
ENDBRANCH   4  11
BRANCH   6  13
ATOM     13  O   UNL     1     169.811 170.944 195.265  1.00  0.00    -0.387 OA
ATOM     14  H   UNL     1     169.117 171.531 194.865  1.00  0.00     0.211 HD
ENDBRANCH   6  13
BRANCH   7  15
ATOM     15  O   UNL     1     169.551 169.124 197.447  1.00  0.00    -0.385 OA
ATOM     16  H   UNL     1     170.063 168.279 197.532  1.00  0.00     0.211 HD
ENDBRANCH   7  15
ENDBRANCH   1   2
BRANCH   1  17
ATOM     17  C   UNL     1     172.453 171.471 200.223  1.00  0.00     0.224 C 
ATOM     18  C   UNL     1     172.448 172.830 200.949  1.00  0.00     0.208 C 
ATOM     19  O   UNL     1     171.862 170.532 201.111  1.00  0.00    -0.337 OA
ATOM     20  C   UNL     1     172.615 172.421 202.393  1.00  0.00     0.180 C 
ATOM     21  C   UNL     1     171.996 171.016 202.433  1.00  0.00     0.179 C 
BRANCH  17  22
ATOM     22  C   UNL     1     173.921 171.048 199.859  1.00  0.00     0.225 C 
BRANCH  22  23
ATOM     23  O   UNL     1     174.000 169.695 199.488  1.00  0.00    -0.391 OA
ATOM     24  H   UNL     1     174.854 169.344 199.857  1.00  0.00     0.210 HD
ENDBRANCH  22  23
ENDBRANCH  17  22
BRANCH  18  25
ATOM     25  O   UNL     1     171.214 173.486 200.775  1.00  0.00    -0.385 OA
ATOM     26  H   UNL     1     171.417 174.452 200.665  1.00  0.00     0.211 HD
ENDBRANCH  18  25
BRANCH  20  27
ATOM     27  O   UNL     1     171.993 173.325 203.275  1.00  0.00    -0.387 OA
ATOM     28  H   UNL     1     171.807 172.822 204.112  1.00  0.00     0.211 HD
ENDBRANCH  20  27
BRANCH  21  29
ATOM     29  C   UNL     1     170.632 170.935 203.135  1.00  0.00     0.191 C 
BRANCH  29  30
ATOM     30  O   UNL     1     169.648 171.589 202.380  1.00  0.00    -0.394 OA
ATOM     31  H   UNL     1     169.604 172.524 202.720  1.00  0.00     0.210 HD
ENDBRANCH  29  30
ENDBRANCH  21  29
ENDBRANCH   1  17
TORSDOF 13
ENDMDL
MODEL 9
REMARK VINA RESULT:    -5.600      1.836      2.059
REMARK INTER + INTRA:         -10.489
REMARK INTER:                  -9.155
REMARK INTRA:                  -1.334
REMARK UNBOUND:                -1.943
REMARK SMILES OC[C@H]1O[C@H](O[C@]2(CO)O[C@H](CO)[C@H](O)[C@@H]2O)[C@@H](O)[C@@H](O)[C@@H]1O
REMARK SMILES IDX 6 1 5 2 3 3 22 4 4 5 20 6 18 7 2 8 1 9 23 11 21 13 19 15
REMARK SMILES IDX 7 17 16 18 10 19 14 20 11 21 8 22 9 23 17 25 15 27 12 29
REMARK SMILES IDX 13 30
REMARK H PARENT 1 10 23 12 21 14 19 16 9 24 17 26 15 28 13 31
REMARK Flexibility Score: inf
ROOT
ATOM      1  O   UNL     1     171.778 172.524 197.758  1.00  0.00    -0.313 OA
ENDROOT
BRANCH   1   2
ATOM      2  C   UNL     1     170.853 172.293 196.696  1.00  0.00     0.285 C 
ATOM      3  C   UNL     1     170.438 170.075 197.385  1.00  0.00     0.178 C 
ATOM      4  C   UNL     1     169.006 170.404 197.877  1.00  0.00     0.177 C 
ATOM      5  O   UNL     1     170.819 170.926 196.312  1.00  0.00    -0.341 OA
ATOM      6  C   UNL     1     168.927 171.894 198.267  1.00  0.00     0.179 C 
ATOM      7  C   UNL     1     169.455 172.780 197.118  1.00  0.00     0.202 C 
BRANCH   3   8
ATOM      8  C   UNL     1     170.539 168.622 196.902  1.00  0.00     0.191 C 
BRANCH   8   9
ATOM      9  O   UNL     1     170.751 167.752 197.986  1.00  0.00    -0.394 OA
ATOM     10  H   UNL     1     170.366 166.871 197.736  1.00  0.00     0.210 HD
ENDBRANCH   8   9
ENDBRANCH   3   8
BRANCH   4  11
ATOM     11  O   UNL     1     168.695 169.600 198.986  1.00  0.00    -0.387 OA
ATOM     12  H   UNL     1     168.445 168.707 198.631  1.00  0.00     0.211 HD
ENDBRANCH   4  11
BRANCH   6  13
ATOM     13  O   UNL     1     167.620 172.258 198.643  1.00  0.00    -0.387 OA
ATOM     14  H   UNL     1     167.213 172.764 197.891  1.00  0.00     0.211 HD
ENDBRANCH   6  13
BRANCH   7  15
ATOM     15  O   UNL     1     168.601 172.712 196.003  1.00  0.00    -0.385 OA
ATOM     16  H   UNL     1     168.951 173.345 195.325  1.00  0.00     0.211 HD
ENDBRANCH   7  15
ENDBRANCH   1   2
BRANCH   1  17
ATOM     17  C   UNL     1     173.119 172.703 197.315  1.00  0.00     0.224 C 
ATOM     18  C   UNL     1     173.903 173.392 198.448  1.00  0.00     0.208 C 
ATOM     19  O   UNL     1     173.749 171.449 197.089  1.00  0.00    -0.337 OA
ATOM     20  C   UNL     1     175.308 172.888 198.217  1.00  0.00     0.180 C 
ATOM     21  C   UNL     1     175.085 171.526 197.544  1.00  0.00     0.179 C 
BRANCH  17  22
ATOM     22  C   UNL     1     173.145 173.582 196.014  1.00  0.00     0.225 C 
BRANCH  22  23
ATOM     23  O   UNL     1     173.233 174.953 196.310  1.00  0.00    -0.391 OA
ATOM     24  H   UNL     1     173.656 175.391 195.524  1.00  0.00     0.210 HD
ENDBRANCH  22  23
ENDBRANCH  17  22
BRANCH  18  25
ATOM     25  O   UNL     1     173.442 172.966 199.708  1.00  0.00    -0.385 OA
ATOM     26  H   UNL     1     173.209 173.785 200.220  1.00  0.00     0.211 HD
ENDBRANCH  18  25
BRANCH  20  27
ATOM     27  O   UNL     1     176.043 172.800 199.415  1.00  0.00    -0.387 OA
ATOM     28  H   UNL     1     175.730 171.979 199.879  1.00  0.00     0.211 HD
ENDBRANCH  20  27
BRANCH  21  29
ATOM     29  C   UNL     1     175.380 170.312 198.438  1.00  0.00     0.191 C 
BRANCH  29  30
ATOM     30  O   UNL     1     174.439 170.220 199.473  1.00  0.00    -0.394 OA
ATOM     31  H   UNL     1     174.561 171.030 200.040  1.00  0.00     0.210 HD
ENDBRANCH  29  30
ENDBRANCH  21  29
ENDBRANCH   1  17
TORSDOF 13
ENDMDL
