MODEL 1
REMARK VINA RESULT:    -4.728      0.000      0.000
REMARK INTER + INTRA:          -5.102
REMARK INTER:                  -5.004
REMARK INTRA:                  -0.098
REMARK UNBOUND:                -0.098
REMARK SMILES C=C(C)[C@H]1CC=C(C)C(=O)C1
REMARK SMILES IDX 8 1 7 2 6 3 5 4 4 5 11 6 9 7 10 8 2 9 1 10 3 11
REMARK H PARENT
REMARK Flexibility Score: inf
ROOT
ATOM      1  C   UNL     1      75.188  74.312  78.077  1.00  0.00     0.048 C 
ATOM      2  C   UNL     1      74.998  74.355  76.586  1.00  0.00    -0.012 C 
ATOM      3  C   UNL     1      73.839  73.939  76.047  1.00  0.00    -0.019 C 
ATOM      4  C   UNL     1      73.603  73.943  74.560  1.00  0.00     0.036 C 
ATOM      5  C   UNL     1      74.351  75.108  73.883  1.00  0.00     0.025 C 
ATOM      6  C   UNL     1      75.849  75.057  74.236  1.00  0.00     0.089 C 
ATOM      7  C   UNL     1      76.039  74.971  75.725  1.00  0.00     0.158 C 
ATOM      8  O   UNL     1      77.112  75.395  76.233  1.00  0.00    -0.295 OA
ENDROOT
BRANCH   5   9
ATOM      9  C   UNL     1      74.128  75.119  72.376  1.00  0.00    -0.077 C 
ATOM     10  C   UNL     1      74.975  75.756  71.549  1.00  0.00     0.008 C 
ATOM     11  C   UNL     1      72.940  74.408  71.783  1.00  0.00     0.039 C 
ENDBRANCH   5   9
TORSDOF 1
ENDMDL
MODEL 2
REMARK VINA RESULT:    -3.740      1.626      2.400
REMARK INTER + INTRA:          -4.057
REMARK INTER:                  -3.963
REMARK INTRA:                  -0.094
REMARK UNBOUND:                -0.098
REMARK SMILES C=C(C)[C@H]1CC=C(C)C(=O)C1
REMARK SMILES IDX 8 1 7 2 6 3 5 4 4 5 11 6 9 7 10 8 2 9 1 10 3 11
REMARK H PARENT
REMARK Flexibility Score: inf
ROOT
ATOM      1  C   UNL     1      74.999  74.225  77.954  1.00  0.00     0.048 C 
ATOM      2  C   UNL     1      74.956  74.510  76.478  1.00  0.00    -0.012 C 
ATOM      3  C   UNL     1      76.063  74.939  75.847  1.00  0.00    -0.019 C 
ATOM      4  C   UNL     1      76.071  75.257  74.375  1.00  0.00     0.036 C 
ATOM      5  C   UNL     1      75.093  74.347  73.606  1.00  0.00     0.025 C 
ATOM      6  C   UNL     1      73.683  74.442  74.216  1.00  0.00     0.089 C 
ATOM      7  C   UNL     1      73.731  74.199  75.700  1.00  0.00     0.158 C 
ATOM      8  O   UNL     1      72.703  73.763  76.284  1.00  0.00    -0.295 OA
ENDROOT
BRANCH   5   9
ATOM      9  C   UNL     1      75.084  74.664  72.116  1.00  0.00    -0.077 C 
ATOM     10  C   UNL     1      74.564  73.805  71.222  1.00  0.00     0.008 C 
ATOM     11  C   UNL     1      75.666  75.960  71.616  1.00  0.00     0.039 C 
ENDBRANCH   5   9
TORSDOF 1
ENDMDL
MODEL 3
REMARK VINA RESULT:    -3.413      8.527      9.598
REMARK INTER + INTRA:          -3.710
REMARK INTER:                  -3.619
REMARK INTRA:                  -0.091
REMARK UNBOUND:                -0.098
REMARK SMILES C=C(C)[C@H]1CC=C(C)C(=O)C1
REMARK SMILES IDX 8 1 7 2 6 3 5 4 4 5 11 6 9 7 10 8 2 9 1 10 3 11
REMARK H PARENT
REMARK Flexibility Score: inf
ROOT
ATOM      1  C   UNL     1      72.865  69.750  82.564  1.00  0.00     0.048 C 
ATOM      2  C   UNL     1      73.491  71.104  82.749  1.00  0.00    -0.012 C 
ATOM      3  C   UNL     1      72.871  72.199  82.274  1.00  0.00    -0.019 C 
ATOM      4  C   UNL     1      73.461  73.577  82.416  1.00  0.00     0.036 C 
ATOM      5  C   UNL     1      74.273  73.700  83.720  1.00  0.00     0.025 C 
ATOM      6  C   UNL     1      75.344  72.596  83.789  1.00  0.00     0.089 C 
ATOM      7  C   UNL     1      74.726  71.244  83.561  1.00  0.00     0.158 C 
ATOM      8  O   UNL     1      75.289  70.223  84.038  1.00  0.00    -0.295 OA
ENDROOT
BRANCH   5   9
ATOM      9  C   UNL     1      74.885  75.087  83.872  1.00  0.00    -0.077 C 
ATOM     10  C   UNL     1      74.121  76.164  84.125  1.00  0.00     0.008 C 
ATOM     11  C   UNL     1      76.373  75.275  83.738  1.00  0.00     0.039 C 
ENDBRANCH   5   9
TORSDOF 1
ENDMDL
MODEL 4
REMARK VINA RESULT:    -3.336      8.827      9.327
REMARK INTER + INTRA:          -3.629
REMARK INTER:                  -3.534
REMARK INTRA:                  -0.095
REMARK UNBOUND:                -0.098
REMARK SMILES C=C(C)[C@H]1CC=C(C)C(=O)C1
REMARK SMILES IDX 8 1 7 2 6 3 5 4 4 5 11 6 9 7 10 8 2 9 1 10 3 11
REMARK H PARENT
REMARK Flexibility Score: inf
ROOT
ATOM      1  C   UNL     1      74.279  77.018  84.125  1.00  0.00     0.048 C 
ATOM      2  C   UNL     1      74.072  75.539  83.946  1.00  0.00    -0.012 C 
ATOM      3  C   UNL     1      72.834  75.022  84.033  1.00  0.00    -0.019 C 
ATOM      4  C   UNL     1      72.572  73.547  83.880  1.00  0.00     0.036 C 
ATOM      5  C   UNL     1      73.568  72.905  82.895  1.00  0.00     0.025 C 
ATOM      6  C   UNL     1      75.015  73.199  83.333  1.00  0.00     0.089 C 
ATOM      7  C   UNL     1      75.212  74.674  83.553  1.00  0.00     0.158 C 
ATOM      8  O   UNL     1      76.368  75.163  83.437  1.00  0.00    -0.295 OA
ENDROOT
BRANCH   5   9
ATOM      9  C   UNL     1      73.321  71.411  82.739  1.00  0.00    -0.077 C 
ATOM     10  C   UNL     1      72.074  70.914  82.659  1.00  0.00     0.008 C 
ATOM     11  C   UNL     1      74.483  70.455  82.671  1.00  0.00     0.039 C 
ENDBRANCH   5   9
TORSDOF 1
ENDMDL
MODEL 5
REMARK VINA RESULT:    -3.297      9.383     10.115
REMARK INTER + INTRA:          -3.587
REMARK INTER:                  -3.492
REMARK INTRA:                  -0.095
REMARK UNBOUND:                -0.098
REMARK SMILES C=C(C)[C@H]1CC=C(C)C(=O)C1
REMARK SMILES IDX 8 1 7 2 6 3 5 4 4 5 11 6 9 7 10 8 2 9 1 10 3 11
REMARK H PARENT
REMARK Flexibility Score: inf
ROOT
ATOM      1  C   UNL     1      71.636  68.496  82.274  1.00  0.00     0.048 C 
ATOM      2  C   UNL     1      72.303  69.762  82.736  1.00  0.00    -0.012 C 
ATOM      3  C   UNL     1      73.503  70.106  82.237  1.00  0.00    -0.019 C 
ATOM      4  C   UNL     1      74.224  71.353  82.676  1.00  0.00     0.036 C 
ATOM      5  C   UNL     1      73.227  72.474  83.031  1.00  0.00     0.025 C 
ATOM      6  C   UNL     1      72.220  71.979  84.085  1.00  0.00     0.089 C 
ATOM      7  C   UNL     1      71.583  70.690  83.644  1.00  0.00     0.158 C 
ATOM      8  O   UNL     1      70.442  70.386  84.085  1.00  0.00    -0.295 OA
ENDROOT
BRANCH   5   9
ATOM      9  C   UNL     1      73.943  73.738  83.487  1.00  0.00    -0.077 C 
ATOM     10  C   UNL     1      73.273  74.884  83.695  1.00  0.00     0.008 C 
ATOM     11  C   UNL     1      75.432  73.724  83.713  1.00  0.00     0.039 C 
ENDBRANCH   5   9
TORSDOF 1
ENDMDL
MODEL 6
REMARK VINA RESULT:    -3.216      8.800      9.833
REMARK INTER + INTRA:          -3.502
REMARK INTER:                  -3.406
REMARK INTRA:                  -0.096
REMARK UNBOUND:                -0.098
REMARK SMILES C=C(C)[C@H]1CC=C(C)C(=O)C1
REMARK SMILES IDX 8 1 7 2 6 3 5 4 4 5 11 6 9 7 10 8 2 9 1 10 3 11
REMARK H PARENT
REMARK Flexibility Score: inf
ROOT
ATOM      1  C   UNL     1      76.909  79.899  83.009  1.00  0.00     0.048 C 
ATOM      2  C   UNL     1      76.212  78.567  83.057  1.00  0.00    -0.012 C 
ATOM      3  C   UNL     1      76.849  77.463  82.629  1.00  0.00    -0.019 C 
ATOM      4  C   UNL     1      76.193  76.108  82.638  1.00  0.00     0.036 C 
ATOM      5  C   UNL     1      75.207  75.977  83.816  1.00  0.00     0.025 C 
ATOM      6  C   UNL     1      74.180  77.124  83.782  1.00  0.00     0.089 C 
ATOM      7  C   UNL     1      74.874  78.455  83.690  1.00  0.00     0.158 C 
ATOM      8  O   UNL     1      74.290  79.483  84.125  1.00  0.00    -0.295 OA
ENDROOT
BRANCH   5   9
ATOM      9  C   UNL     1      74.528  74.614  83.832  1.00  0.00    -0.077 C 
ATOM     10  C   UNL     1      73.199  74.493  83.673  1.00  0.00     0.008 C 
ATOM     11  C   UNL     1      75.347  73.365  84.028  1.00  0.00     0.039 C 
ENDBRANCH   5   9
TORSDOF 1
ENDMDL
MODEL 7
REMARK VINA RESULT:    -3.122      9.030      9.881
REMARK INTER + INTRA:          -3.403
REMARK INTER:                  -3.308
REMARK INTRA:                  -0.095
REMARK UNBOUND:                -0.098
REMARK SMILES C=C(C)[C@H]1CC=C(C)C(=O)C1
REMARK SMILES IDX 8 1 7 2 6 3 5 4 4 5 11 6 9 7 10 8 2 9 1 10 3 11
REMARK H PARENT
REMARK Flexibility Score: inf
ROOT
ATOM      1  C   UNL     1      75.693  73.653  84.102  1.00  0.00     0.048 C 
ATOM      2  C   UNL     1      74.702  72.620  83.641  1.00  0.00    -0.012 C 
ATOM      3  C   UNL     1      74.978  71.313  83.798  1.00  0.00    -0.019 C 
ATOM      4  C   UNL     1      74.031  70.236  83.338  1.00  0.00     0.036 C 
ATOM      5  C   UNL     1      72.565  70.698  83.461  1.00  0.00     0.025 C 
ATOM      6  C   UNL     1      72.357  72.021  82.701  1.00  0.00     0.089 C 
ATOM      7  C   UNL     1      73.375  73.043  83.130  1.00  0.00     0.158 C 
ATOM      8  O   UNL     1      73.101  74.268  83.016  1.00  0.00    -0.295 OA
ENDROOT
BRANCH   5   9
ATOM      9  C   UNL     1      71.596  69.621  82.990  1.00  0.00    -0.077 C 
ATOM     10  C   UNL     1      71.938  68.744  82.031  1.00  0.00     0.008 C 
ATOM     11  C   UNL     1      70.222  69.523  83.600  1.00  0.00     0.039 C 
ENDBRANCH   5   9
TORSDOF 1
ENDMDL
MODEL 8
REMARK VINA RESULT:    -3.105      9.211      9.805
REMARK INTER + INTRA:          -3.385
REMARK INTER:                  -3.287
REMARK INTRA:                  -0.098
REMARK UNBOUND:                -0.098
REMARK SMILES C=C(C)[C@H]1CC=C(C)C(=O)C1
REMARK SMILES IDX 8 1 7 2 6 3 5 4 4 5 11 6 9 7 10 8 2 9 1 10 3 11
REMARK H PARENT
REMARK Flexibility Score: inf
ROOT
ATOM      1  C   UNL     1      72.007  70.959  82.981  1.00  0.00     0.048 C 
ATOM      2  C   UNL     1      72.840  72.157  83.344  1.00  0.00    -0.012 C 
ATOM      3  C   UNL     1      74.179  72.098  83.234  1.00  0.00    -0.019 C 
ATOM      4  C   UNL     1      75.062  73.261  83.600  1.00  0.00     0.036 C 
ATOM      5  C   UNL     1      74.360  74.603  83.313  1.00  0.00     0.025 C 
ATOM      6  C   UNL     1      72.997  74.656  84.029  1.00  0.00     0.089 C 
ATOM      7  C   UNL     1      72.179  73.437  83.701  1.00  0.00     0.158 C 
ATOM      8  O   UNL     1      70.923  73.504  83.770  1.00  0.00    -0.295 OA
ENDROOT
BRANCH   5   9
ATOM      9  C   UNL     1      75.238  75.789  83.689  1.00  0.00    -0.077 C 
ATOM     10  C   UNL     1      74.707  76.989  83.978  1.00  0.00     0.008 C 
ATOM     11  C   UNL     1      76.736  75.633  83.741  1.00  0.00     0.039 C 
ENDBRANCH   5   9
TORSDOF 1
ENDMDL
MODEL 9
REMARK VINA RESULT:    -2.957      9.419     10.138
REMARK INTER + INTRA:          -3.228
REMARK INTER:                  -3.132
REMARK INTRA:                  -0.096
REMARK UNBOUND:                -0.098
REMARK SMILES C=C(C)[C@H]1CC=C(C)C(=O)C1
REMARK SMILES IDX 8 1 7 2 6 3 5 4 4 5 11 6 9 7 10 8 2 9 1 10 3 11
REMARK H PARENT
REMARK Flexibility Score: inf
ROOT
ATOM      1  C   UNL     1      78.016  81.273  82.505  1.00  0.00     0.048 C 
ATOM      2  C   UNL     1      77.391  79.981  82.952  1.00  0.00    -0.012 C 
ATOM      3  C   UNL     1      76.136  79.679  82.574  1.00  0.00    -0.019 C 
ATOM      4  C   UNL     1      75.456  78.407  83.008  1.00  0.00     0.036 C 
ATOM      5  C   UNL     1      76.473  77.259  83.164  1.00  0.00     0.025 C 
ATOM      6  C   UNL     1      77.602  77.674  84.125  1.00  0.00     0.089 C 
ATOM      7  C   UNL     1      78.200  78.988  83.703  1.00  0.00     0.158 C 
ATOM      8  O   UNL     1      79.388  79.255  84.028  1.00  0.00    -0.295 OA
ENDROOT
BRANCH   5   9
ATOM      9  C   UNL     1      75.799  75.969  83.611  1.00  0.00    -0.077 C 
ATOM     10  C   UNL     1      76.506  74.843  83.808  1.00  0.00     0.008 C 
ATOM     11  C   UNL     1      74.311  75.935  83.842  1.00  0.00     0.039 C 
ENDBRANCH   5   9
TORSDOF 1
ENDMDL
