MODEL 1
REMARK VINA RESULT:    -1.697      0.000      0.000
REMARK INTER + INTRA:          -2.094
REMARK INTER:                  -1.796
REMARK INTRA:                  -0.299
REMARK UNBOUND:                -0.299
REMARK SMILES c1ccc(-c2ccccc2)cc1
REMARK SMILES IDX 1 1 2 2 3 3 4 4 11 5 12 6 5 7 6 8 10 9 7 10 9 11 8 12
REMARK H PARENT
REMARK Flexibility Score: inf
ROOT
ATOM      1  C   UNL     1     -13.852 -19.781  80.694  1.00  0.00     0.000 A 
ATOM      2  C   UNL     1     -14.900 -20.704  80.688  1.00  0.00     0.001 A 
ATOM      3  C   UNL     1     -14.982 -21.679  81.687  1.00  0.00     0.009 A 
ATOM      4  C   UNL     1     -14.012 -21.739  82.707  1.00  0.00    -0.018 A 
ATOM      5  C   UNL     1     -12.961 -20.802  82.701  1.00  0.00     0.009 A 
ATOM      6  C   UNL     1     -12.884 -19.830  81.699  1.00  0.00     0.001 A 
ENDROOT
BRANCH   4   7
ATOM      7  C   UNL     1     -14.097 -22.774  83.769  1.00  0.00    -0.018 A 
ATOM      8  C   UNL     1     -14.170 -24.139  83.433  1.00  0.00     0.009 A 
ATOM      9  C   UNL     1     -14.107 -22.406  85.128  1.00  0.00     0.009 A 
ATOM     10  C   UNL     1     -14.251 -25.112  84.435  1.00  0.00     0.001 A 
ATOM     11  C   UNL     1     -14.189 -23.383  86.125  1.00  0.00     0.001 A 
ATOM     12  C   UNL     1     -14.259 -24.734  85.779  1.00  0.00     0.000 A 
ENDBRANCH   4   7
TORSDOF 1
ENDMDL
MODEL 2
REMARK VINA RESULT:    -1.683      0.497      4.983
REMARK INTER + INTRA:          -2.080
REMARK INTER:                  -1.790
REMARK INTRA:                  -0.290
REMARK UNBOUND:                -0.299
REMARK SMILES c1ccc(-c2ccccc2)cc1
REMARK SMILES IDX 1 1 2 2 3 3 4 4 11 5 12 6 5 7 6 8 10 9 7 10 9 11 8 12
REMARK H PARENT
REMARK Flexibility Score: inf
ROOT
ATOM      1  C   UNL     1     -13.777 -24.491  85.531  1.00  0.00     0.000 A 
ATOM      2  C   UNL     1     -13.455 -24.832  84.215  1.00  0.00     0.001 A 
ATOM      3  C   UNL     1     -13.493 -23.860  83.209  1.00  0.00     0.009 A 
ATOM      4  C   UNL     1     -13.853 -22.533  83.513  1.00  0.00    -0.018 A 
ATOM      5  C   UNL     1     -14.175 -22.204  84.843  1.00  0.00     0.009 A 
ATOM      6  C   UNL     1     -14.137 -23.180  85.845  1.00  0.00     0.001 A 
ENDROOT
BRANCH   4   7
ATOM      7  C   UNL     1     -13.894 -21.500  82.447  1.00  0.00    -0.018 A 
ATOM      8  C   UNL     1     -12.882 -20.524  82.358  1.00  0.00     0.009 A 
ATOM      9  C   UNL     1     -14.943 -21.479  81.509  1.00  0.00     0.009 A 
ATOM     10  C   UNL     1     -12.922 -19.551  81.354  1.00  0.00     0.001 A 
ATOM     11  C   UNL     1     -14.978 -20.503  80.508  1.00  0.00     0.001 A 
ATOM     12  C   UNL     1     -13.968 -19.542  80.430  1.00  0.00     0.000 A 
ENDBRANCH   4   7
TORSDOF 1
ENDMDL
MODEL 3
REMARK VINA RESULT:    -1.675      0.666      1.546
REMARK INTER + INTRA:          -2.072
REMARK INTER:                  -1.783
REMARK INTRA:                  -0.289
REMARK UNBOUND:                -0.299
REMARK SMILES c1ccc(-c2ccccc2)cc1
REMARK SMILES IDX 1 1 2 2 3 3 4 4 11 5 12 6 5 7 6 8 10 9 7 10 9 11 8 12
REMARK H PARENT
REMARK Flexibility Score: inf
ROOT
ATOM      1  C   UNL     1     -13.942 -19.911  80.602  1.00  0.00     0.000 A 
ATOM      2  C   UNL     1     -12.933 -19.833  81.564  1.00  0.00     0.001 A 
ATOM      3  C   UNL     1     -12.930 -20.713  82.652  1.00  0.00     0.009 A 
ATOM      4  C   UNL     1     -13.942 -21.683  82.786  1.00  0.00    -0.018 A 
ATOM      5  C   UNL     1     -14.953 -21.751  81.809  1.00  0.00     0.009 A 
ATOM      6  C   UNL     1     -14.951 -20.869  80.725  1.00  0.00     0.001 A 
ENDROOT
BRANCH   4   7
ATOM      7  C   UNL     1     -13.941 -22.618  83.940  1.00  0.00    -0.018 A 
ATOM      8  C   UNL     1     -13.051 -23.710  83.976  1.00  0.00     0.009 A 
ATOM      9  C   UNL     1     -14.829 -22.429  85.016  1.00  0.00     0.009 A 
ATOM     10  C   UNL     1     -13.052 -24.590  85.063  1.00  0.00     0.001 A 
ATOM     11  C   UNL     1     -14.826 -23.313  86.100  1.00  0.00     0.001 A 
ATOM     12  C   UNL     1     -13.938 -24.391  86.124  1.00  0.00     0.000 A 
ENDBRANCH   4   7
TORSDOF 1
ENDMDL
MODEL 4
REMARK VINA RESULT:    -1.670      0.198      1.388
REMARK INTER + INTRA:          -2.066
REMARK INTER:                  -1.774
REMARK INTRA:                  -0.292
REMARK UNBOUND:                -0.299
REMARK SMILES c1ccc(-c2ccccc2)cc1
REMARK SMILES IDX 1 1 2 2 3 3 4 4 11 5 12 6 5 7 6 8 10 9 7 10 9 11 8 12
REMARK H PARENT
REMARK Flexibility Score: inf
ROOT
ATOM      1  C   UNL     1     -13.803 -19.836  80.702  1.00  0.00     0.000 A 
ATOM      2  C   UNL     1     -14.813 -20.800  80.663  1.00  0.00     0.001 A 
ATOM      3  C   UNL     1     -14.898 -21.768  81.669  1.00  0.00     0.009 A 
ATOM      4  C   UNL     1     -13.970 -21.779  82.728  1.00  0.00    -0.018 A 
ATOM      5  C   UNL     1     -12.958 -20.801  82.755  1.00  0.00     0.009 A 
ATOM      6  C   UNL     1     -12.877 -19.837  81.746  1.00  0.00     0.001 A 
ENDROOT
BRANCH   4   7
ATOM      7  C   UNL     1     -14.059 -22.805  83.798  1.00  0.00    -0.018 A 
ATOM      8  C   UNL     1     -14.386 -22.437  85.117  1.00  0.00     0.009 A 
ATOM      9  C   UNL     1     -13.818 -24.162  83.511  1.00  0.00     0.009 A 
ATOM     10  C   UNL     1     -14.468 -23.405  86.124  1.00  0.00     0.001 A 
ATOM     11  C   UNL     1     -13.901 -25.125  84.521  1.00  0.00     0.001 A 
ATOM     12  C   UNL     1     -14.227 -24.748  85.825  1.00  0.00     0.000 A 
ENDBRANCH   4   7
TORSDOF 1
ENDMDL
MODEL 5
REMARK VINA RESULT:    -1.551      1.851      2.662
REMARK INTER + INTRA:          -1.940
REMARK INTER:                  -1.648
REMARK INTRA:                  -0.292
REMARK UNBOUND:                -0.299
REMARK SMILES c1ccc(-c2ccccc2)cc1
REMARK SMILES IDX 1 1 2 2 3 3 4 4 11 5 12 6 5 7 6 8 10 9 7 10 9 11 8 12
REMARK H PARENT
REMARK Flexibility Score: inf
ROOT
ATOM      1  C   UNL     1     -13.081 -20.749  82.635  1.00  0.00     0.000 A 
ATOM      2  C   UNL     1     -14.105 -21.352  81.903  1.00  0.00     0.001 A 
ATOM      3  C   UNL     1     -14.935 -22.302  82.507  1.00  0.00     0.009 A 
ATOM      4  C   UNL     1     -14.747 -22.657  83.858  1.00  0.00    -0.018 A 
ATOM      5  C   UNL     1     -13.711 -22.040  84.584  1.00  0.00     0.009 A 
ATOM      6  C   UNL     1     -12.884 -21.092  83.974  1.00  0.00     0.001 A 
ENDROOT
BRANCH   4   7
ATOM      7  C   UNL     1     -15.627 -23.664  84.502  1.00  0.00    -0.018 A 
ATOM      8  C   UNL     1     -16.525 -23.285  85.518  1.00  0.00     0.009 A 
ATOM      9  C   UNL     1     -15.577 -25.015  84.108  1.00  0.00     0.009 A 
ATOM     10  C   UNL     1     -17.352 -24.235  86.125  1.00  0.00     0.001 A 
ATOM     11  C   UNL     1     -16.407 -25.961  84.719  1.00  0.00     0.001 A 
ATOM     12  C   UNL     1     -17.293 -25.572  85.724  1.00  0.00     0.000 A 
ENDBRANCH   4   7
TORSDOF 1
ENDMDL
MODEL 6
REMARK VINA RESULT:    -1.513      1.559      5.534
REMARK INTER + INTRA:          -1.900
REMARK INTER:                  -1.583
REMARK INTRA:                  -0.318
REMARK UNBOUND:                -0.299
REMARK SMILES c1ccc(-c2ccccc2)cc1
REMARK SMILES IDX 1 1 2 2 3 3 4 4 11 5 12 6 5 7 6 8 10 9 7 10 9 11 8 12
REMARK H PARENT
REMARK Flexibility Score: inf
ROOT
ATOM      1  C   UNL     1     -13.837 -22.221  84.446  1.00  0.00     0.000 A 
ATOM      2  C   UNL     1     -12.888 -21.239  84.156  1.00  0.00     0.001 A 
ATOM      3  C   UNL     1     -12.887 -20.610  82.907  1.00  0.00     0.009 A 
ATOM      4  C   UNL     1     -13.843 -20.960  81.933  1.00  0.00    -0.018 A 
ATOM      5  C   UNL     1     -14.794 -21.951  82.238  1.00  0.00     0.009 A 
ATOM      6  C   UNL     1     -14.789 -22.577  83.489  1.00  0.00     0.001 A 
ENDROOT
BRANCH   4   7
ATOM      7  C   UNL     1     -13.844 -20.293  80.605  1.00  0.00    -0.018 A 
ATOM      8  C   UNL     1     -14.438 -20.918  79.492  1.00  0.00     0.009 A 
ATOM      9  C   UNL     1     -13.252 -19.027  80.439  1.00  0.00     0.009 A 
ATOM     10  C   UNL     1     -14.438 -20.289  78.242  1.00  0.00     0.001 A 
ATOM     11  C   UNL     1     -13.255 -18.403  79.187  1.00  0.00     0.001 A 
ATOM     12  C   UNL     1     -13.848 -19.032  78.091  1.00  0.00     0.000 A 
ENDBRANCH   4   7
TORSDOF 1
ENDMDL
MODEL 7
REMARK VINA RESULT:    -1.494      1.159      5.006
REMARK INTER + INTRA:          -1.881
REMARK INTER:                  -1.558
REMARK INTRA:                  -0.322
REMARK UNBOUND:                -0.299
REMARK SMILES c1ccc(-c2ccccc2)cc1
REMARK SMILES IDX 1 1 2 2 3 3 4 4 11 5 12 6 5 7 6 8 10 9 7 10 9 11 8 12
REMARK H PARENT
REMARK Flexibility Score: inf
ROOT
ATOM      1  C   UNL     1     -13.989 -23.719  84.797  1.00  0.00     0.000 A 
ATOM      2  C   UNL     1     -15.002 -23.695  83.836  1.00  0.00     0.001 A 
ATOM      3  C   UNL     1     -15.006 -22.710  82.844  1.00  0.00     0.009 A 
ATOM      4  C   UNL     1     -13.990 -21.736  82.802  1.00  0.00    -0.018 A 
ATOM      5  C   UNL     1     -12.974 -21.772  83.776  1.00  0.00     0.009 A 
ATOM      6  C   UNL     1     -12.976 -22.758  84.767  1.00  0.00     0.001 A 
ENDROOT
BRANCH   4   7
ATOM      7  C   UNL     1     -13.992 -20.689  81.749  1.00  0.00    -0.018 A 
ATOM      8  C   UNL     1     -15.092 -20.548  80.882  1.00  0.00     0.009 A 
ATOM      9  C   UNL     1     -12.894 -19.820  81.600  1.00  0.00     0.009 A 
ATOM     10  C   UNL     1     -15.092 -19.562  79.889  1.00  0.00     0.001 A 
ATOM     11  C   UNL     1     -12.898 -18.837  80.605  1.00  0.00     0.001 A 
ATOM     12  C   UNL     1     -13.996 -18.707  79.753  1.00  0.00     0.000 A 
ENDBRANCH   4   7
TORSDOF 1
ENDMDL
MODEL 8
REMARK VINA RESULT:    -1.456      1.190      2.047
REMARK INTER + INTRA:          -1.840
REMARK INTER:                  -1.527
REMARK INTRA:                  -0.313
REMARK UNBOUND:                -0.299
REMARK SMILES c1ccc(-c2ccccc2)cc1
REMARK SMILES IDX 1 1 2 2 3 3 4 4 11 5 12 6 5 7 6 8 10 9 7 10 9 11 8 12
REMARK H PARENT
REMARK Flexibility Score: inf
ROOT
ATOM      1  C   UNL     1     -14.008 -18.385  79.259  1.00  0.00     0.000 A 
ATOM      2  C   UNL     1     -15.082 -19.265  79.406  1.00  0.00     0.001 A 
ATOM      3  C   UNL     1     -15.057 -20.244  80.405  1.00  0.00     0.009 A 
ATOM      4  C   UNL     1     -13.951 -20.350  81.271  1.00  0.00    -0.018 A 
ATOM      5  C   UNL     1     -12.875 -19.456  81.112  1.00  0.00     0.009 A 
ATOM      6  C   UNL     1     -12.906 -18.481  80.111  1.00  0.00     0.001 A 
ENDROOT
BRANCH   4   7
ATOM      7  C   UNL     1     -13.922 -21.388  82.332  1.00  0.00    -0.018 A 
ATOM      8  C   UNL     1     -14.568 -22.625  82.142  1.00  0.00     0.009 A 
ATOM      9  C   UNL     1     -13.248 -21.153  83.546  1.00  0.00     0.009 A 
ATOM     10  C   UNL     1     -14.541 -23.601  83.143  1.00  0.00     0.001 A 
ATOM     11  C   UNL     1     -13.224 -22.133  84.544  1.00  0.00     0.001 A 
ATOM     12  C   UNL     1     -13.868 -23.355  84.342  1.00  0.00     0.000 A 
ENDBRANCH   4   7
TORSDOF 1
ENDMDL
MODEL 9
REMARK VINA RESULT:    -1.414      8.142      9.525
REMARK INTER + INTRA:          -1.795
REMARK INTER:                  -1.505
REMARK INTRA:                  -0.290
REMARK UNBOUND:                -0.299
REMARK SMILES c1ccc(-c2ccccc2)cc1
REMARK SMILES IDX 1 1 2 2 3 3 4 4 11 5 12 6 5 7 6 8 10 9 7 10 9 11 8 12
REMARK H PARENT
REMARK Flexibility Score: inf
ROOT
ATOM      1  C   UNL     1     -18.672 -15.828  84.006  1.00  0.00     0.000 A 
ATOM      2  C   UNL     1     -17.792 -15.362  83.026  1.00  0.00     0.001 A 
ATOM      3  C   UNL     1     -16.660 -14.626  83.391  1.00  0.00     0.009 A 
ATOM      4  C   UNL     1     -16.397 -14.349  84.746  1.00  0.00    -0.018 A 
ATOM      5  C   UNL     1     -17.291 -14.824  85.724  1.00  0.00     0.009 A 
ATOM      6  C   UNL     1     -18.422 -15.559  85.353  1.00  0.00     0.001 A 
ENDROOT
BRANCH   4   7
ATOM      7  C   UNL     1     -15.195 -13.568  85.136  1.00  0.00    -0.018 A 
ATOM      8  C   UNL     1     -15.130 -12.183  84.888  1.00  0.00     0.009 A 
ATOM      9  C   UNL     1     -14.102 -14.198  85.760  1.00  0.00     0.009 A 
ATOM     10  C   UNL     1     -13.998 -11.449  85.255  1.00  0.00     0.001 A 
ATOM     11  C   UNL     1     -12.971 -13.460  86.124  1.00  0.00     0.001 A 
ATOM     12  C   UNL     1     -12.920 -12.087  85.873  1.00  0.00     0.000 A 
ENDBRANCH   4   7
TORSDOF 1
ENDMDL
