MODEL 1
REMARK VINA RESULT:    -3.978      0.000      0.000
REMARK INTER + INTRA:          -8.580
REMARK INTER:                  -6.187
REMARK INTRA:                  -2.393
REMARK UNBOUND:                -2.393
REMARK SMILES COc1cc(CNC(=O)CCCCC=CC(C)C)ccc1O
REMARK SMILES IDX 11 1 12 2 13 3 14 4 15 5 16 6 17 7 18 8 10 9 8 10 9 11 7 12
REMARK SMILES IDX 6 14 5 15 4 16 19 17 3 18 20 19 21 20 2 21 1 22 22 23
REMARK H PARENT 7 13 22 24
REMARK Flexibility Score: inf
ROOT
ATOM      1  C   UNL     1     126.428 126.427 118.349  1.00  0.00     0.010 C 
ENDROOT
BRANCH   1   2
ATOM      2  C   UNL     1     126.823 126.375 119.833  1.00  0.00     0.005 C 
BRANCH   2   3
ATOM      3  C   UNL     1     125.737 126.953 120.755  1.00  0.00     0.027 C 
BRANCH   3   4
ATOM      4  C   UNL     1     124.528 127.393 119.977  1.00  0.00    -0.031 C 
ATOM      5  C   UNL     1     123.631 128.249 120.492  1.00  0.00    -0.028 C 
BRANCH   5   6
ATOM      6  C   UNL     1     122.436 128.715 119.692  1.00  0.00     0.005 C 
ATOM      7  C   UNL     1     122.707 128.597 118.186  1.00  0.00     0.012 C 
ATOM      8  C   UNL     1     121.188 127.908 120.071  1.00  0.00     0.012 C 
ENDBRANCH   5   6
ENDBRANCH   3   4
ENDBRANCH   2   3
ENDBRANCH   1   2
BRANCH   1   9
ATOM      9  C   UNL     1     127.579 126.888 117.442  1.00  0.00     0.100 C 
BRANCH   9  10
ATOM     10  C   UNL     1     127.500 128.368 117.217  1.00  0.00     0.220 C 
ATOM     11  O   UNL     1     128.560 129.020 117.016  1.00  0.00    -0.275 OA
ATOM     12  N   UNL     1     126.234 129.042 117.267  1.00  0.00    -0.352 N 
ATOM     13  H   UNL     1     125.356 128.478 117.319  1.00  0.00     0.163 HD
BRANCH  12  14
ATOM     14  C   UNL     1     126.126 130.497 117.372  1.00  0.00     0.151 C 
BRANCH  14  15
ATOM     15  C   UNL     1     125.756 130.879 118.780  1.00  0.00    -0.025 A 
ATOM     16  C   UNL     1     124.620 131.665 119.027  1.00  0.00     0.056 A 
ATOM     17  C   UNL     1     126.589 130.514 119.848  1.00  0.00     0.009 A 
ATOM     18  C   UNL     1     124.306 132.079 120.338  1.00  0.00     0.160 A 
ATOM     19  C   UNL     1     126.278 130.912 121.149  1.00  0.00     0.050 A 
ATOM     20  C   UNL     1     125.145 131.692 121.400  1.00  0.00     0.157 A 
BRANCH  18  21
ATOM     21  O   UNL     1     123.181 132.875 120.614  1.00  0.00    -0.493 OA
ATOM     22  C   UNL     1     123.183 134.300 120.635  1.00  0.00     0.278 C 
ENDBRANCH  18  21
BRANCH  20  23
ATOM     23  O   UNL     1     124.872 132.081 122.711  1.00  0.00    -0.504 OA
ATOM     24  H   UNL     1     123.978 132.469 122.983  1.00  0.00     0.293 HD
ENDBRANCH  20  23
ENDBRANCH  14  15
ENDBRANCH  12  14
ENDBRANCH   9  10
ENDBRANCH   1   9
TORSDOF 10
ENDMDL
MODEL 2
REMARK VINA RESULT:    -3.866      1.354      2.023
REMARK INTER + INTRA:          -8.407
REMARK INTER:                  -6.811
REMARK INTRA:                  -1.595
REMARK UNBOUND:                -2.393
REMARK SMILES COc1cc(CNC(=O)CCCCC=CC(C)C)ccc1O
REMARK SMILES IDX 11 1 12 2 13 3 14 4 15 5 16 6 17 7 18 8 10 9 8 10 9 11 7 12
REMARK SMILES IDX 6 14 5 15 4 16 19 17 3 18 20 19 21 20 2 21 1 22 22 23
REMARK H PARENT 7 13 22 24
REMARK Flexibility Score: inf
ROOT
ATOM      1  C   UNL     1     126.554 126.559 118.284  1.00  0.00     0.010 C 
ENDROOT
BRANCH   1   2
ATOM      2  C   UNL     1     126.646 126.289 119.794  1.00  0.00     0.005 C 
BRANCH   2   3
ATOM      3  C   UNL     1     125.437 126.837 120.568  1.00  0.00     0.027 C 
BRANCH   3   4
ATOM      4  C   UNL     1     124.303 127.190 119.645  1.00  0.00    -0.031 C 
ATOM      5  C   UNL     1     123.115 127.605 120.112  1.00  0.00    -0.028 C 
BRANCH   5   6
ATOM      6  C   UNL     1     121.991 127.992 119.178  1.00  0.00     0.005 C 
ATOM      7  C   UNL     1     120.627 127.786 119.852  1.00  0.00     0.012 C 
ATOM      8  C   UNL     1     122.145 129.449 118.727  1.00  0.00     0.012 C 
ENDBRANCH   5   6
ENDBRANCH   3   4
ENDBRANCH   2   3
ENDBRANCH   1   2
BRANCH   1   9
ATOM      9  C   UNL     1     127.925 126.816 117.640  1.00  0.00     0.100 C 
BRANCH   9  10
ATOM     10  C   UNL     1     128.186 128.288 117.547  1.00  0.00     0.220 C 
ATOM     11  O   UNL     1     129.302 128.694 117.126  1.00  0.00    -0.275 OA
ATOM     12  N   UNL     1     127.187 129.229 117.969  1.00  0.00    -0.352 N 
ATOM     13  H   UNL     1     126.229 128.886 118.207  1.00  0.00     0.163 HD
BRANCH  12  14
ATOM     14  C   UNL     1     127.491 130.641 118.200  1.00  0.00     0.151 C 
BRANCH  14  15
ATOM     15  C   UNL     1     126.753 131.127 119.417  1.00  0.00    -0.025 A 
ATOM     16  C   UNL     1     127.267 132.184 120.185  1.00  0.00     0.056 A 
ATOM     17  C   UNL     1     125.582 130.477 119.835  1.00  0.00     0.009 A 
ATOM     18  C   UNL     1     126.612 132.599 121.363  1.00  0.00     0.160 A 
ATOM     19  C   UNL     1     124.924 130.889 120.994  1.00  0.00     0.050 A 
ATOM     20  C   UNL     1     125.431 131.944 121.760  1.00  0.00     0.157 A 
BRANCH  18  21
ATOM     21  O   UNL     1     127.110 133.646 122.158  1.00  0.00    -0.493 OA
ATOM     22  C   UNL     1     128.074 133.487 123.195  1.00  0.00     0.278 C 
ENDBRANCH  18  21
BRANCH  20  23
ATOM     23  O   UNL     1     124.753 132.322 122.918  1.00  0.00    -0.504 OA
ATOM     24  H   UNL     1     123.788 132.625 122.903  1.00  0.00     0.293 HD
ENDBRANCH  20  23
ENDBRANCH  14  15
ENDBRANCH  12  14
ENDBRANCH   9  10
ENDBRANCH   1   9
TORSDOF 10
ENDMDL
MODEL 3
REMARK VINA RESULT:    -3.826      2.104      3.263
REMARK INTER + INTRA:          -8.344
REMARK INTER:                  -6.776
REMARK INTRA:                  -1.569
REMARK UNBOUND:                -2.393
REMARK SMILES COc1cc(CNC(=O)CCCCC=CC(C)C)ccc1O
REMARK SMILES IDX 11 1 12 2 13 3 14 4 15 5 16 6 17 7 18 8 10 9 8 10 9 11 7 12
REMARK SMILES IDX 6 14 5 15 4 16 19 17 3 18 20 19 21 20 2 21 1 22 22 23
REMARK H PARENT 7 13 22 24
REMARK Flexibility Score: inf
ROOT
ATOM      1  C   UNL     1     127.125 127.863 119.342  1.00  0.00     0.010 C 
ENDROOT
BRANCH   1   2
ATOM      2  C   UNL     1     126.153 126.747 118.927  1.00  0.00     0.005 C 
BRANCH   2   3
ATOM      3  C   UNL     1     125.140 127.209 117.868  1.00  0.00     0.027 C 
BRANCH   3   4
ATOM      4  C   UNL     1     124.024 128.008 118.482  1.00  0.00    -0.031 C 
ATOM      5  C   UNL     1     123.272 127.519 119.481  1.00  0.00    -0.028 C 
BRANCH   5   6
ATOM      6  C   UNL     1     122.174 128.340 120.118  1.00  0.00     0.005 C 
ATOM      7  C   UNL     1     120.795 127.746 119.801  1.00  0.00     0.012 C 
ATOM      8  C   UNL     1     122.379 128.425 121.635  1.00  0.00     0.012 C 
ENDBRANCH   5   6
ENDBRANCH   3   4
ENDBRANCH   2   3
ENDBRANCH   1   2
BRANCH   1   9
ATOM      9  C   UNL     1     126.831 128.419 120.743  1.00  0.00     0.100 C 
BRANCH   9  10
ATOM     10  C   UNL     1     126.497 129.877 120.662  1.00  0.00     0.220 C 
ATOM     11  O   UNL     1     127.230 130.643 119.981  1.00  0.00    -0.275 OA
ATOM     12  N   UNL     1     125.374 130.405 121.385  1.00  0.00    -0.352 N 
ATOM     13  H   UNL     1     124.709 129.746 121.850  1.00  0.00     0.163 HD
BRANCH  12  14
ATOM     14  C   UNL     1     125.187 131.839 121.601  1.00  0.00     0.151 C 
BRANCH  14  15
ATOM     15  C   UNL     1     124.157 132.367 120.640  1.00  0.00    -0.025 A 
ATOM     16  C   UNL     1     123.593 133.639 120.830  1.00  0.00     0.056 A 
ATOM     17  C   UNL     1     123.697 131.559 119.589  1.00  0.00     0.009 A 
ATOM     18  C   UNL     1     122.580 134.110 119.969  1.00  0.00     0.160 A 
ATOM     19  C   UNL     1     122.702 132.023 118.728  1.00  0.00     0.050 A 
ATOM     20  C   UNL     1     122.141 133.292 118.912  1.00  0.00     0.157 A 
BRANCH  18  21
ATOM     21  O   UNL     1     121.991 135.374 120.141  1.00  0.00    -0.493 OA
ATOM     22  C   UNL     1     122.488 136.388 121.012  1.00  0.00     0.278 C 
ENDBRANCH  18  21
BRANCH  20  23
ATOM     23  O   UNL     1     121.142 133.718 118.039  1.00  0.00    -0.504 OA
ATOM     24  H   UNL     1     120.288 134.152 118.368  1.00  0.00     0.293 HD
ENDBRANCH  20  23
ENDBRANCH  14  15
ENDBRANCH  12  14
ENDBRANCH   9  10
ENDBRANCH   1   9
TORSDOF 10
ENDMDL
MODEL 4
REMARK VINA RESULT:    -3.789      6.372      8.935
REMARK INTER + INTRA:          -8.286
REMARK INTER:                  -7.603
REMARK INTRA:                  -0.683
REMARK UNBOUND:                -2.393
REMARK SMILES COc1cc(CNC(=O)CCCCC=CC(C)C)ccc1O
REMARK SMILES IDX 11 1 12 2 13 3 14 4 15 5 16 6 17 7 18 8 10 9 8 10 9 11 7 12
REMARK SMILES IDX 6 14 5 15 4 16 19 17 3 18 20 19 21 20 2 21 1 22 22 23
REMARK H PARENT 7 13 22 24
REMARK Flexibility Score: inf
ROOT
ATOM      1  C   UNL     1     115.888 127.515 115.870  1.00  0.00     0.010 C 
ENDROOT
BRANCH   1   2
ATOM      2  C   UNL     1     114.462 127.012 116.144  1.00  0.00     0.005 C 
BRANCH   2   3
ATOM      3  C   UNL     1     114.400 126.016 117.312  1.00  0.00     0.027 C 
BRANCH   3   4
ATOM      4  C   UNL     1     113.769 124.715 116.896  1.00  0.00    -0.031 C 
ATOM      5  C   UNL     1     114.447 123.557 116.938  1.00  0.00    -0.028 C 
BRANCH   5   6
ATOM      6  C   UNL     1     113.797 122.248 116.551  1.00  0.00     0.005 C 
ATOM      7  C   UNL     1     112.284 122.295 116.802  1.00  0.00     0.012 C 
ATOM      8  C   UNL     1     114.082 121.922 115.081  1.00  0.00     0.012 C 
ENDBRANCH   5   6
ENDBRANCH   3   4
ENDBRANCH   2   3
ENDBRANCH   1   2
BRANCH   1   9
ATOM      9  C   UNL     1     116.966 126.496 116.268  1.00  0.00     0.100 C 
BRANCH   9  10
ATOM     10  C   UNL     1     118.317 127.146 116.276  1.00  0.00     0.220 C 
ATOM     11  O   UNL     1     118.599 127.996 115.390  1.00  0.00    -0.275 OA
ATOM     12  N   UNL     1     119.293 126.776 117.261  1.00  0.00    -0.352 N 
ATOM     13  H   UNL     1     119.010 126.158 118.055  1.00  0.00     0.163 HD
BRANCH  12  14
ATOM     14  C   UNL     1     120.706 127.130 117.132  1.00  0.00     0.151 C 
BRANCH  14  15
ATOM     15  C   UNL     1     121.264 127.493 118.482  1.00  0.00    -0.025 A 
ATOM     16  C   UNL     1     122.626 127.304 118.762  1.00  0.00     0.056 A 
ATOM     17  C   UNL     1     120.408 127.952 119.494  1.00  0.00     0.009 A 
ATOM     18  C   UNL     1     123.140 127.582 120.046  1.00  0.00     0.160 A 
ATOM     19  C   UNL     1     120.912 128.238 120.764  1.00  0.00     0.050 A 
ATOM     20  C   UNL     1     122.269 128.055 121.046  1.00  0.00     0.157 A 
BRANCH  18  21
ATOM     21  O   UNL     1     124.496 127.393 120.358  1.00  0.00    -0.493 OA
ATOM     22  C   UNL     1     125.445 126.765 119.499  1.00  0.00     0.278 C 
ENDBRANCH  18  21
BRANCH  20  23
ATOM     23  O   UNL     1     122.735 128.340 122.328  1.00  0.00    -0.504 OA
ATOM     24  H   UNL     1     123.689 128.155 122.609  1.00  0.00     0.293 HD
ENDBRANCH  20  23
ENDBRANCH  14  15
ENDBRANCH  12  14
ENDBRANCH   9  10
ENDBRANCH   1   9
TORSDOF 10
ENDMDL
MODEL 5
REMARK VINA RESULT:    -3.689      2.262      4.822
REMARK INTER + INTRA:          -8.131
REMARK INTER:                  -5.831
REMARK INTRA:                  -2.300
REMARK UNBOUND:                -2.393
REMARK SMILES COc1cc(CNC(=O)CCCCC=CC(C)C)ccc1O
REMARK SMILES IDX 11 1 12 2 13 3 14 4 15 5 16 6 17 7 18 8 10 9 8 10 9 11 7 12
REMARK SMILES IDX 6 14 5 15 4 16 19 17 3 18 20 19 21 20 2 21 1 22 22 23
REMARK H PARENT 7 13 22 24
REMARK Flexibility Score: inf
ROOT
ATOM      1  C   UNL     1     126.446 130.250 117.746  1.00  0.00     0.010 C 
ENDROOT
BRANCH   1   2
ATOM      2  C   UNL     1     125.124 129.997 117.005  1.00  0.00     0.005 C 
BRANCH   2   3
ATOM      3  C   UNL     1     123.898 130.476 117.800  1.00  0.00     0.027 C 
BRANCH   3   4
ATOM      4  C   UNL     1     124.302 131.206 119.051  1.00  0.00    -0.031 C 
ATOM      5  C   UNL     1     123.414 131.899 119.782  1.00  0.00    -0.028 C 
BRANCH   5   6
ATOM      6  C   UNL     1     123.819 132.602 121.057  1.00  0.00     0.005 C 
ATOM      7  C   UNL     1     124.327 131.596 122.098  1.00  0.00     0.012 C 
ATOM      8  C   UNL     1     124.893 133.657 120.770  1.00  0.00     0.012 C 
ENDBRANCH   5   6
ENDBRANCH   3   4
ENDBRANCH   2   3
ENDBRANCH   1   2
BRANCH   1   9
ATOM      9  C   UNL     1     127.412 129.059 117.664  1.00  0.00     0.100 C 
BRANCH   9  10
ATOM     10  C   UNL     1     126.775 127.833 118.244  1.00  0.00     0.220 C 
ATOM     11  O   UNL     1     126.639 126.807 117.526  1.00  0.00    -0.275 OA
ATOM     12  N   UNL     1     126.288 127.841 119.595  1.00  0.00    -0.352 N 
ATOM     13  H   UNL     1     126.508 128.654 120.214  1.00  0.00     0.163 HD
BRANCH  12  14
ATOM     14  C   UNL     1     125.389 126.808 120.108  1.00  0.00     0.151 C 
BRANCH  14  15
ATOM     15  C   UNL     1     123.972 127.312 120.087  1.00  0.00    -0.025 A 
ATOM     16  C   UNL     1     123.150 127.075 118.973  1.00  0.00     0.056 A 
ATOM     17  C   UNL     1     123.486 128.088 121.150  1.00  0.00     0.009 A 
ATOM     18  C   UNL     1     121.842 127.602 118.922  1.00  0.00     0.160 A 
ATOM     19  C   UNL     1     122.190 128.604 121.110  1.00  0.00     0.050 A 
ATOM     20  C   UNL     1     121.367 128.367 120.004  1.00  0.00     0.157 A 
BRANCH  18  21
ATOM     21  O   UNL     1     121.002 127.391 117.816  1.00  0.00    -0.493 OA
ATOM     22  C   UNL     1     121.302 127.792 116.482  1.00  0.00     0.278 C 
ENDBRANCH  18  21
BRANCH  20  23
ATOM     23  O   UNL     1     120.082 128.907 119.993  1.00  0.00    -0.504 OA
ATOM     24  H   UNL     1     119.673 129.308 119.159  1.00  0.00     0.293 HD
ENDBRANCH  20  23
ENDBRANCH  14  15
ENDBRANCH  12  14
ENDBRANCH   9  10
ENDBRANCH   1   9
TORSDOF 10
ENDMDL
MODEL 6
REMARK VINA RESULT:    -3.680      2.924      6.522
REMARK INTER + INTRA:          -8.117
REMARK INTER:                  -6.201
REMARK INTRA:                  -1.916
REMARK UNBOUND:                -2.393
REMARK SMILES COc1cc(CNC(=O)CCCCC=CC(C)C)ccc1O
REMARK SMILES IDX 11 1 12 2 13 3 14 4 15 5 16 6 17 7 18 8 10 9 8 10 9 11 7 12
REMARK SMILES IDX 6 14 5 15 4 16 19 17 3 18 20 19 21 20 2 21 1 22 22 23
REMARK H PARENT 7 13 22 24
REMARK Flexibility Score: inf
ROOT
ATOM      1  C   UNL     1     125.535 137.377 121.131  1.00  0.00     0.010 C 
ENDROOT
BRANCH   1   2
ATOM      2  C   UNL     1     124.419 136.757 120.276  1.00  0.00     0.005 C 
BRANCH   2   3
ATOM      3  C   UNL     1     123.243 136.241 121.120  1.00  0.00     0.027 C 
BRANCH   3   4
ATOM      4  C   UNL     1     122.622 135.014 120.512  1.00  0.00    -0.031 C 
ATOM      5  C   UNL     1     123.273 134.269 119.605  1.00  0.00    -0.028 C 
BRANCH   5   6
ATOM      6  C   UNL     1     122.657 133.017 119.023  1.00  0.00     0.005 C 
ATOM      7  C   UNL     1     121.333 133.338 118.316  1.00  0.00     0.012 C 
ATOM      8  C   UNL     1     123.630 132.343 118.048  1.00  0.00     0.012 C 
ENDBRANCH   5   6
ENDBRANCH   3   4
ENDBRANCH   2   3
ENDBRANCH   1   2
BRANCH   1   9
ATOM      9  C   UNL     1     126.934 136.880 120.737  1.00  0.00     0.100 C 
BRANCH   9  10
ATOM     10  C   UNL     1     127.176 135.512 121.300  1.00  0.00     0.220 C 
ATOM     11  O   UNL     1     127.660 135.396 122.458  1.00  0.00    -0.275 OA
ATOM     12  N   UNL     1     126.894 134.344 120.514  1.00  0.00    -0.352 N 
ATOM     13  H   UNL     1     126.388 134.449 119.605  1.00  0.00     0.163 HD
BRANCH  12  14
ATOM     14  C   UNL     1     127.395 133.019 120.875  1.00  0.00     0.151 C 
BRANCH  14  15
ATOM     15  C   UNL     1     126.239 132.086 121.112  1.00  0.00    -0.025 A 
ATOM     16  C   UNL     1     126.173 130.852 120.445  1.00  0.00     0.056 A 
ATOM     17  C   UNL     1     125.180 132.478 121.944  1.00  0.00     0.009 A 
ATOM     18  C   UNL     1     125.059 130.004 120.614  1.00  0.00     0.160 A 
ATOM     19  C   UNL     1     124.079 131.639 122.124  1.00  0.00     0.050 A 
ATOM     20  C   UNL     1     124.012 130.407 121.465  1.00  0.00     0.157 A 
BRANCH  18  21
ATOM     21  O   UNL     1     124.961 128.769 119.952  1.00  0.00    -0.493 OA
ATOM     22  C   UNL     1     125.523 127.548 120.428  1.00  0.00     0.278 C 
ENDBRANCH  18  21
BRANCH  20  23
ATOM     23  O   UNL     1     122.892 129.600 121.659  1.00  0.00    -0.504 OA
ATOM     24  H   UNL     1     122.108 129.894 122.229  1.00  0.00     0.293 HD
ENDBRANCH  20  23
ENDBRANCH  14  15
ENDBRANCH  12  14
ENDBRANCH   9  10
ENDBRANCH   1   9
TORSDOF 10
ENDMDL
MODEL 7
REMARK VINA RESULT:    -3.603      3.314      3.934
REMARK INTER + INTRA:          -7.997
REMARK INTER:                  -7.044
REMARK INTRA:                  -0.953
REMARK UNBOUND:                -2.393
REMARK SMILES COc1cc(CNC(=O)CCCCC=CC(C)C)ccc1O
REMARK SMILES IDX 11 1 12 2 13 3 14 4 15 5 16 6 17 7 18 8 10 9 8 10 9 11 7 12
REMARK SMILES IDX 6 14 5 15 4 16 19 17 3 18 20 19 21 20 2 21 1 22 22 23
REMARK H PARENT 7 13 22 24
REMARK Flexibility Score: inf
ROOT
ATOM      1  C   UNL     1     127.025 128.361 119.434  1.00  0.00     0.010 C 
ENDROOT
BRANCH   1   2
ATOM      2  C   UNL     1     126.487 126.921 119.446  1.00  0.00     0.005 C 
BRANCH   2   3
ATOM      3  C   UNL     1     125.120 126.794 118.757  1.00  0.00     0.027 C 
BRANCH   3   4
ATOM      4  C   UNL     1     124.004 127.262 119.650  1.00  0.00    -0.031 C 
ATOM      5  C   UNL     1     123.126 128.196 119.253  1.00  0.00    -0.028 C 
BRANCH   5   6
ATOM      6  C   UNL     1     121.987 128.638 120.142  1.00  0.00     0.005 C 
ATOM      7  C   UNL     1     120.680 127.937 119.744  1.00  0.00     0.012 C 
ATOM      8  C   UNL     1     122.314 128.355 121.613  1.00  0.00     0.012 C 
ENDBRANCH   5   6
ENDBRANCH   3   4
ENDBRANCH   2   3
ENDBRANCH   1   2
BRANCH   1   9
ATOM      9  C   UNL     1     126.793 129.094 120.764  1.00  0.00     0.100 C 
BRANCH   9  10
ATOM     10  C   UNL     1     126.124 130.412 120.519  1.00  0.00     0.220 C 
ATOM     11  O   UNL     1     126.012 130.839 119.339  1.00  0.00    -0.275 OA
ATOM     12  N   UNL     1     125.647 131.199 121.621  1.00  0.00    -0.352 N 
ATOM     13  H   UNL     1     125.642 130.785 122.581  1.00  0.00     0.163 HD
BRANCH  12  14
ATOM     14  C   UNL     1     125.281 132.607 121.476  1.00  0.00     0.151 C 
BRANCH  14  15
ATOM     15  C   UNL     1     126.432 133.478 121.901  1.00  0.00    -0.025 A 
ATOM     16  C   UNL     1     126.695 134.685 121.234  1.00  0.00     0.056 A 
ATOM     17  C   UNL     1     127.297 133.050 122.920  1.00  0.00     0.009 A 
ATOM     18  C   UNL     1     127.811 135.471 121.587  1.00  0.00     0.160 A 
ATOM     19  C   UNL     1     128.398 133.829 123.281  1.00  0.00     0.050 A 
ATOM     20  C   UNL     1     128.660 135.034 122.621  1.00  0.00     0.157 A 
BRANCH  18  21
ATOM     21  O   UNL     1     128.105 136.678 120.930  1.00  0.00    -0.493 OA
ATOM     22  C   UNL     1     127.133 137.529 120.327  1.00  0.00     0.278 C 
ENDBRANCH  18  21
BRANCH  20  23
ATOM     23  O   UNL     1     129.775 135.780 123.000  1.00  0.00    -0.504 OA
ATOM     24  H   UNL     1     129.716 136.533 123.674  1.00  0.00     0.293 HD
ENDBRANCH  20  23
ENDBRANCH  14  15
ENDBRANCH  12  14
ENDBRANCH   9  10
ENDBRANCH   1   9
TORSDOF 10
ENDMDL
MODEL 8
REMARK VINA RESULT:    -3.476      2.507      4.952
REMARK INTER + INTRA:          -7.799
REMARK INTER:                  -5.476
REMARK INTRA:                  -2.323
REMARK UNBOUND:                -2.393
REMARK SMILES COc1cc(CNC(=O)CCCCC=CC(C)C)ccc1O
REMARK SMILES IDX 11 1 12 2 13 3 14 4 15 5 16 6 17 7 18 8 10 9 8 10 9 11 7 12
REMARK SMILES IDX 6 14 5 15 4 16 19 17 3 18 20 19 21 20 2 21 1 22 22 23
REMARK H PARENT 7 13 22 24
REMARK Flexibility Score: inf
ROOT
ATOM      1  C   UNL     1     126.122 132.083 120.489  1.00  0.00     0.010 C 
ENDROOT
BRANCH   1   2
ATOM      2  C   UNL     1     124.875 132.069 121.387  1.00  0.00     0.005 C 
BRANCH   2   3
ATOM      3  C   UNL     1     123.568 131.972 120.586  1.00  0.00     0.027 C 
BRANCH   3   4
ATOM      4  C   UNL     1     123.830 131.908 119.106  1.00  0.00    -0.031 C 
ATOM      5  C   UNL     1     123.259 130.976 118.328  1.00  0.00    -0.028 C 
BRANCH   5   6
ATOM      6  C   UNL     1     123.499 130.937 116.836  1.00  0.00     0.005 C 
ATOM      7  C   UNL     1     124.102 129.590 116.415  1.00  0.00     0.012 C 
ATOM      8  C   UNL     1     122.193 131.195 116.075  1.00  0.00     0.012 C 
ENDBRANCH   5   6
ENDBRANCH   3   4
ENDBRANCH   2   3
ENDBRANCH   1   2
BRANCH   1   9
ATOM      9  C   UNL     1     127.097 130.939 120.806  1.00  0.00     0.100 C 
BRANCH   9  10
ATOM     10  C   UNL     1     126.688 129.693 120.081  1.00  0.00     0.220 C 
ATOM     11  O   UNL     1     126.671 129.688 118.821  1.00  0.00    -0.275 OA
ATOM     12  N   UNL     1     126.283 128.528 120.815  1.00  0.00    -0.352 N 
ATOM     13  H   UNL     1     126.412 128.506 121.852  1.00  0.00     0.163 HD
BRANCH  12  14
ATOM     14  C   UNL     1     125.583 127.410 120.184  1.00  0.00     0.151 C 
BRANCH  14  15
ATOM     15  C   UNL     1     124.099 127.655 120.220  1.00  0.00    -0.025 A 
ATOM     16  C   UNL     1     123.285 127.248 119.151  1.00  0.00     0.056 A 
ATOM     17  C   UNL     1     123.530 128.360 121.291  1.00  0.00     0.009 A 
ATOM     18  C   UNL     1     121.904 127.534 119.152  1.00  0.00     0.160 A 
ATOM     19  C   UNL     1     122.162 128.637 121.303  1.00  0.00     0.050 A 
ATOM     20  C   UNL     1     121.348 128.230 120.241  1.00  0.00     0.157 A 
BRANCH  18  21
ATOM     21  O   UNL     1     121.067 127.148 118.092  1.00  0.00    -0.493 OA
ATOM     22  C   UNL     1     120.789 127.951 116.946  1.00  0.00     0.278 C 
ENDBRANCH  18  21
BRANCH  20  23
ATOM     23  O   UNL     1     119.988 128.534 120.282  1.00  0.00    -0.504 OA
ATOM     24  H   UNL     1     119.404 128.292 121.073  1.00  0.00     0.293 HD
ENDBRANCH  20  23
ENDBRANCH  14  15
ENDBRANCH  12  14
ENDBRANCH   9  10
ENDBRANCH   1   9
TORSDOF 10
ENDMDL
MODEL 9
REMARK VINA RESULT:    -3.462      2.383      3.799
REMARK INTER + INTRA:          -7.777
REMARK INTER:                  -5.629
REMARK INTRA:                  -2.149
REMARK UNBOUND:                -2.393
REMARK SMILES COc1cc(CNC(=O)CCCCC=CC(C)C)ccc1O
REMARK SMILES IDX 11 1 12 2 13 3 14 4 15 5 16 6 17 7 18 8 10 9 8 10 9 11 7 12
REMARK SMILES IDX 6 14 5 15 4 16 19 17 3 18 20 19 21 20 2 21 1 22 22 23
REMARK H PARENT 7 13 22 24
REMARK Flexibility Score: inf
ROOT
ATOM      1  C   UNL     1     126.882 126.385 117.549  1.00  0.00     0.010 C 
ENDROOT
BRANCH   1   2
ATOM      2  C   UNL     1     127.404 126.448 118.993  1.00  0.00     0.005 C 
BRANCH   2   3
ATOM      3  C   UNL     1     126.272 126.452 120.033  1.00  0.00     0.027 C 
BRANCH   3   4
ATOM      4  C   UNL     1     125.473 127.725 119.975  1.00  0.00    -0.031 C 
ATOM      5  C   UNL     1     126.011 128.911 120.300  1.00  0.00    -0.028 C 
BRANCH   5   6
ATOM      6  C   UNL     1     125.214 130.192 120.207  1.00  0.00     0.005 C 
ATOM      7  C   UNL     1     124.976 130.581 118.741  1.00  0.00     0.012 C 
ATOM      8  C   UNL     1     123.876 130.045 120.941  1.00  0.00     0.012 C 
ENDBRANCH   5   6
ENDBRANCH   3   4
ENDBRANCH   2   3
ENDBRANCH   1   2
BRANCH   1   9
ATOM      9  C   UNL     1     127.258 127.626 116.725  1.00  0.00     0.100 C 
BRANCH   9  10
ATOM     10  C   UNL     1     126.048 128.175 116.033  1.00  0.00     0.220 C 
ATOM     11  O   UNL     1     126.189 129.071 115.159  1.00  0.00    -0.275 OA
ATOM     12  N   UNL     1     124.737 127.710 116.388  1.00  0.00    -0.352 N 
ATOM     13  H   UNL     1     124.641 126.889 117.028  1.00  0.00     0.163 HD
BRANCH  12  14
ATOM     14  C   UNL     1     123.522 128.418 115.987  1.00  0.00     0.151 C 
BRANCH  14  15
ATOM     15  C   UNL     1     122.551 128.451 117.136  1.00  0.00    -0.025 A 
ATOM     16  C   UNL     1     121.629 129.503 117.256  1.00  0.00     0.056 A 
ATOM     17  C   UNL     1     122.613 127.470 118.136  1.00  0.00     0.009 A 
ATOM     18  C   UNL     1     120.761 129.572 118.366  1.00  0.00     0.160 A 
ATOM     19  C   UNL     1     121.751 127.527 119.232  1.00  0.00     0.050 A 
ATOM     20  C   UNL     1     120.828 128.571 119.354  1.00  0.00     0.157 A 
BRANCH  18  21
ATOM     21  O   UNL     1     119.836 130.618 118.519  1.00  0.00    -0.493 OA
ATOM     22  C   UNL     1     119.728 131.738 117.644  1.00  0.00     0.278 C 
ENDBRANCH  18  21
BRANCH  20  23
ATOM     23  O   UNL     1     119.990 128.603 120.467  1.00  0.00    -0.504 OA
ATOM     24  H   UNL     1     120.240 129.093 121.317  1.00  0.00     0.293 HD
ENDBRANCH  20  23
ENDBRANCH  14  15
ENDBRANCH  12  14
ENDBRANCH   9  10
ENDBRANCH   1   9
TORSDOF 10
ENDMDL
