MODEL 1
REMARK VINA RESULT:    -2.975      0.000      0.000
REMARK INTER + INTRA:          -3.363
REMARK INTER:                  -3.323
REMARK INTRA:                  -0.040
REMARK UNBOUND:                -0.040
REMARK SMILES CCCC(=O)[O-]
REMARK SMILES IDX 3 1 4 2 5 3 6 4 2 5 1 6
REMARK H PARENT
REMARK Flexibility Score: inf
ROOT
ATOM      1  C   UNL     1      36.742 104.926 260.154  1.00  0.00     0.052 C 
ENDROOT
BRANCH   1   2
ATOM      2  C   UNL     1      37.167 105.761 261.322  1.00  0.00     0.041 C 
ATOM      3  O   UNL     1      38.345 106.200 261.392  1.00  0.00    -0.550 OA
ATOM      4  O   UNL     1      36.253 106.085 262.316  1.00  0.00    -0.550 OA
ENDBRANCH   1   2
BRANCH   1   5
ATOM      5  C   UNL     1      37.170 105.551 258.821  1.00  0.00     0.003 C 
ATOM      6  C   UNL     1      36.092 106.459 258.231  1.00  0.00     0.004 C 
ENDBRANCH   1   5
TORSDOF 2
ENDMDL
MODEL 2
REMARK VINA RESULT:    -2.940      2.149      3.127
REMARK INTER + INTRA:          -3.324
REMARK INTER:                  -3.312
REMARK INTRA:                  -0.012
REMARK UNBOUND:                -0.040
REMARK SMILES CCCC(=O)[O-]
REMARK SMILES IDX 3 1 4 2 5 3 6 4 2 5 1 6
REMARK H PARENT
REMARK Flexibility Score: inf
ROOT
ATOM      1  C   UNL     1      36.728 105.070 260.404  1.00  0.00     0.052 C 
ENDROOT
BRANCH   1   2
ATOM      2  C   UNL     1      36.934 105.647 259.037  1.00  0.00     0.041 C 
ATOM      3  O   UNL     1      37.791 105.147 258.262  1.00  0.00    -0.550 OA
ATOM      4  O   UNL     1      36.155 106.712 258.607  1.00  0.00    -0.550 OA
ENDBRANCH   1   2
BRANCH   1   5
ATOM      5  C   UNL     1      37.161 106.046 261.505  1.00  0.00     0.003 C 
ATOM      6  C   UNL     1      36.248 105.984 262.729  1.00  0.00     0.004 C 
ENDBRANCH   1   5
TORSDOF 2
ENDMDL
MODEL 3
REMARK VINA RESULT:    -2.690      2.565      4.026
REMARK INTER + INTRA:          -3.045
REMARK INTER:                  -3.038
REMARK INTRA:                  -0.007
REMARK UNBOUND:                -0.040
REMARK SMILES CCCC(=O)[O-]
REMARK SMILES IDX 3 1 4 2 5 3 6 4 2 5 1 6
REMARK H PARENT
REMARK Flexibility Score: inf
ROOT
ATOM      1  C   UNL     1      35.852 106.087 263.267  1.00  0.00     0.052 C 
ENDROOT
BRANCH   1   2
ATOM      2  C   UNL     1      36.874 106.037 262.173  1.00  0.00     0.041 C 
ATOM      3  O   UNL     1      36.567 105.581 261.040  1.00  0.00    -0.550 OA
ATOM      4  O   UNL     1      38.154 106.528 262.393  1.00  0.00    -0.550 OA
ENDBRANCH   1   2
BRANCH   1   5
ATOM      5  C   UNL     1      35.178 104.726 263.480  1.00  0.00     0.003 C 
ATOM      6  C   UNL     1      34.878 104.450 264.953  1.00  0.00     0.004 C 
ENDBRANCH   1   5
TORSDOF 2
ENDMDL
MODEL 4
REMARK VINA RESULT:    -2.616      2.306      2.741
REMARK INTER + INTRA:          -2.962
REMARK INTER:                  -2.952
REMARK INTRA:                  -0.010
REMARK UNBOUND:                -0.040
REMARK SMILES CCCC(=O)[O-]
REMARK SMILES IDX 3 1 4 2 5 3 6 4 2 5 1 6
REMARK H PARENT
REMARK Flexibility Score: inf
ROOT
ATOM      1  C   UNL     1      36.799 106.084 262.230  1.00  0.00     0.052 C 
ENDROOT
BRANCH   1   2
ATOM      2  C   UNL     1      35.672 105.669 263.126  1.00  0.00     0.041 C 
ATOM      3  O   UNL     1      35.117 106.514 263.878  1.00  0.00    -0.550 OA
ATOM      4  O   UNL     1      35.211 104.360 263.104  1.00  0.00    -0.550 OA
ENDBRANCH   1   2
BRANCH   1   5
ATOM      5  C   UNL     1      36.701 105.424 260.849  1.00  0.00     0.003 C 
ATOM      6  C   UNL     1      38.027 105.461 260.091  1.00  0.00     0.004 C 
ENDBRANCH   1   5
TORSDOF 2
ENDMDL
MODEL 5
REMARK VINA RESULT:    -2.416      1.366      2.101
REMARK INTER + INTRA:          -2.739
REMARK INTER:                  -2.715
REMARK INTRA:                  -0.023
REMARK UNBOUND:                -0.040
REMARK SMILES CCCC(=O)[O-]
REMARK SMILES IDX 3 1 4 2 5 3 6 4 2 5 1 6
REMARK H PARENT
REMARK Flexibility Score: inf
ROOT
ATOM      1  C   UNL     1      37.486 105.750 258.344  1.00  0.00     0.052 C 
ENDROOT
BRANCH   1   2
ATOM      2  C   UNL     1      37.640 105.295 259.763  1.00  0.00     0.041 C 
ATOM      3  O   UNL     1      37.047 105.905 260.691  1.00  0.00    -0.550 OA
ATOM      4  O   UNL     1      38.408 104.176 260.056  1.00  0.00    -0.550 OA
ENDBRANCH   1   2
BRANCH   1   5
ATOM      5  C   UNL     1      36.013 105.927 257.959  1.00  0.00     0.003 C 
ATOM      6  C   UNL     1      35.597 107.396 257.908  1.00  0.00     0.004 C 
ENDBRANCH   1   5
TORSDOF 2
ENDMDL
MODEL 6
REMARK VINA RESULT:    -2.341      3.024      4.043
REMARK INTER + INTRA:          -2.655
REMARK INTER:                  -2.619
REMARK INTRA:                  -0.036
REMARK UNBOUND:                -0.040
REMARK SMILES CCCC(=O)[O-]
REMARK SMILES IDX 3 1 4 2 5 3 6 4 2 5 1 6
REMARK H PARENT
REMARK Flexibility Score: inf
ROOT
ATOM      1  C   UNL     1      35.258 106.190 263.509  1.00  0.00     0.052 C 
ENDROOT
BRANCH   1   2
ATOM      2  C   UNL     1      35.056 105.136 264.554  1.00  0.00     0.041 C 
ATOM      3  O   UNL     1      35.078 103.917 264.237  1.00  0.00    -0.550 OA
ATOM      4  O   UNL     1      34.879 105.498 265.883  1.00  0.00    -0.550 OA
ENDBRANCH   1   2
BRANCH   1   5
ATOM      5  C   UNL     1      36.680 106.160 262.937  1.00  0.00     0.003 C 
ATOM      6  C   UNL     1      36.705 105.787 261.456  1.00  0.00     0.004 C 
ENDBRANCH   1   5
TORSDOF 2
ENDMDL
MODEL 7
REMARK VINA RESULT:    -2.328      6.562      7.370
REMARK INTER + INTRA:          -2.640
REMARK INTER:                  -2.630
REMARK INTRA:                  -0.011
REMARK UNBOUND:                -0.040
REMARK SMILES CCCC(=O)[O-]
REMARK SMILES IDX 3 1 4 2 5 3 6 4 2 5 1 6
REMARK H PARENT
REMARK Flexibility Score: inf
ROOT
ATOM      1  C   UNL     1      34.875 106.743 266.548  1.00  0.00     0.052 C 
ENDROOT
BRANCH   1   2
ATOM      2  C   UNL     1      35.033 107.397 267.886  1.00  0.00     0.041 C 
ATOM      3  O   UNL     1      35.334 106.708 268.896  1.00  0.00    -0.550 OA
ATOM      4  O   UNL     1      34.883 108.772 268.011  1.00  0.00    -0.550 OA
ENDBRANCH   1   2
BRANCH   1   5
ATOM      5  C   UNL     1      34.990 105.217 266.642  1.00  0.00     0.003 C 
ATOM      6  C   UNL     1      34.907 104.541 265.274  1.00  0.00     0.004 C 
ENDBRANCH   1   5
TORSDOF 2
ENDMDL
MODEL 8
REMARK VINA RESULT:    -2.266      7.148      8.365
REMARK INTER + INTRA:          -2.571
REMARK INTER:                  -2.561
REMARK INTRA:                  -0.010
REMARK UNBOUND:                -0.040
REMARK SMILES CCCC(=O)[O-]
REMARK SMILES IDX 3 1 4 2 5 3 6 4 2 5 1 6
REMARK H PARENT
REMARK Flexibility Score: inf
ROOT
ATOM      1  C   UNL     1      35.039 108.048 268.282  1.00  0.00     0.052 C 
ENDROOT
BRANCH   1   2
ATOM      2  C   UNL     1      35.053 108.490 266.851  1.00  0.00     0.041 C 
ATOM      3  O   UNL     1      34.875 109.702 266.562  1.00  0.00    -0.550 OA
ATOM      4  O   UNL     1      35.298 107.570 265.841  1.00  0.00    -0.550 OA
ENDBRANCH   1   2
BRANCH   1   5
ATOM      5  C   UNL     1      35.163 106.524 268.409  1.00  0.00     0.003 C 
ATOM      6  C   UNL     1      35.498 106.084 269.833  1.00  0.00     0.004 C 
ENDBRANCH   1   5
TORSDOF 2
ENDMDL
