MODEL 1
REMARK VINA RESULT:    -6.144      0.000      0.000
REMARK INTER + INTRA:          -8.002
REMARK INTER:                  -7.401
REMARK INTRA:                  -0.601
REMARK UNBOUND:                -0.601
REMARK SMILES O=c1ccn([C@@H]2O[C@@H](CO)[C@H](O)[C@H]2O)c(=O)[nH]1
REMARK SMILES IDX 6 1 13 2 11 3 8 4 7 5 5 6 3 7 4 8 2 9 17 10 1 11 15 12 16 14
REMARK SMILES IDX 14 15 12 17 9 19 10 20
REMARK H PARENT 17 13 14 16 12 18 10 21
REMARK Flexibility Score: inf
ROOT
ATOM      1  C   UNL     1       4.163 -30.728   4.357  1.00  0.00     0.255 C 
ATOM      2  C   UNL     1       4.088 -32.217   4.674  1.00  0.00     0.196 C 
ATOM      3  C   UNL     1       2.842 -32.304   5.509  1.00  0.00     0.179 C 
ATOM      4  C   UNL     1       2.812 -30.934   6.187  1.00  0.00     0.178 C 
ATOM      5  O   UNL     1       3.503 -30.006   5.377  1.00  0.00    -0.347 OA
ENDROOT
BRANCH   1   6
ATOM      6  N   UNL     1       5.568 -30.287   4.229  1.00  0.00    -0.271 N 
ATOM      7  C   UNL     1       7.723 -29.933   5.223  1.00  0.00     0.090 A 
ATOM      8  C   UNL     1       6.388 -30.316   5.325  1.00  0.00     0.099 A 
ATOM      9  C   UNL     1       8.209 -29.535   3.983  1.00  0.00     0.253 A 
ATOM     10  N   UNL     1       7.385 -29.533   2.903  1.00  0.00    -0.274 N 
ATOM     11  O   UNL     1       9.413 -29.181   3.862  1.00  0.00    -0.269 OA
ATOM     12  C   UNL     1       6.081 -29.911   3.012  1.00  0.00     0.330 A 
ATOM     13  H   UNL     1       7.761 -29.242   1.972  1.00  0.00     0.175 HD
ATOM     14  O   UNL     1       5.355 -29.915   1.979  1.00  0.00    -0.248 OA
ENDBRANCH   1   6
BRANCH   2  15
ATOM     15  O   UNL     1       3.976 -32.974   3.499  1.00  0.00    -0.386 OA
ATOM     16  H   UNL     1       3.662 -32.352   2.792  1.00  0.00     0.211 HD
ENDBRANCH   2  15
BRANCH   3  17
ATOM     17  O   UNL     1       2.944 -33.342   6.446  1.00  0.00    -0.387 OA
ATOM     18  H   UNL     1       3.328 -32.940   7.269  1.00  0.00     0.211 HD
ENDBRANCH   3  17
BRANCH   4  19
ATOM     19  C   UNL     1       1.377 -30.448   6.430  1.00  0.00     0.191 C 
BRANCH  19  20
ATOM     20  O   UNL     1       0.488 -31.532   6.434  1.00  0.00    -0.394 OA
ATOM     21  H   UNL     1       0.739 -32.109   5.665  1.00  0.00     0.210 HD
ENDBRANCH  19  20
ENDBRANCH   4  19
TORSDOF 5
ENDMDL
MODEL 2
REMARK VINA RESULT:    -5.728     11.010     12.271
REMARK INTER + INTRA:          -7.501
REMARK INTER:                  -6.941
REMARK INTRA:                  -0.560
REMARK UNBOUND:                -0.601
REMARK SMILES O=c1ccn([C@@H]2O[C@@H](CO)[C@H](O)[C@H]2O)c(=O)[nH]1
REMARK SMILES IDX 6 1 13 2 11 3 8 4 7 5 5 6 3 7 4 8 2 9 17 10 1 11 15 12 16 14
REMARK SMILES IDX 14 15 12 17 9 19 10 20
REMARK H PARENT 17 13 14 16 12 18 10 21
REMARK Flexibility Score: inf
ROOT
ATOM      1  C   UNL     1      -4.165 -26.066  -1.371  1.00  0.00     0.255 C 
ATOM      2  C   UNL     1      -5.239 -26.591  -0.427  1.00  0.00     0.196 C 
ATOM      3  C   UNL     1      -6.332 -26.994  -1.377  1.00  0.00     0.179 C 
ATOM      4  C   UNL     1      -6.132 -26.013  -2.532  1.00  0.00     0.178 C 
ATOM      5  O   UNL     1      -4.780 -25.603  -2.557  1.00  0.00    -0.347 OA
ENDROOT
BRANCH   1   6
ATOM      6  N   UNL     1      -3.382 -24.988  -0.733  1.00  0.00    -0.271 N 
ATOM      7  C   UNL     1      -3.238 -23.212   0.875  1.00  0.00     0.090 A 
ATOM      8  C   UNL     1      -3.963 -24.214   0.237  1.00  0.00     0.099 A 
ATOM      9  C   UNL     1      -1.908 -23.022   0.518  1.00  0.00     0.253 A 
ATOM     10  N   UNL     1      -1.343 -23.813  -0.430  1.00  0.00    -0.274 N 
ATOM     11  O   UNL     1      -1.228 -22.120   1.078  1.00  0.00    -0.269 OA
ATOM     12  C   UNL     1      -2.060 -24.793  -1.048  1.00  0.00     0.330 A 
ATOM     13  H   UNL     1      -0.339 -23.671  -0.686  1.00  0.00     0.175 HD
ATOM     14  O   UNL     1      -1.491 -25.520  -1.909  1.00  0.00    -0.248 OA
ENDBRANCH   1   6
BRANCH   2  15
ATOM     15  O   UNL     1      -4.765 -27.688   0.310  1.00  0.00    -0.386 OA
ATOM     16  H   UNL     1      -3.972 -27.367   0.812  1.00  0.00     0.211 HD
ENDBRANCH   2  15
BRANCH   3  17
ATOM     17  O   UNL     1      -7.590 -26.838  -0.779  1.00  0.00    -0.387 OA
ATOM     18  H   UNL     1      -7.902 -27.750  -0.539  1.00  0.00     0.211 HD
ENDBRANCH   3  17
BRANCH   4  19
ATOM     19  C   UNL     1      -6.513 -26.635  -3.882  1.00  0.00     0.191 C 
BRANCH  19  20
ATOM     20  O   UNL     1      -7.021 -27.928  -3.698  1.00  0.00    -0.394 OA
ATOM     21  H   UNL     1      -7.171 -28.039  -2.722  1.00  0.00     0.210 HD
ENDBRANCH  19  20
ENDBRANCH   4  19
TORSDOF 5
ENDMDL
MODEL 3
REMARK VINA RESULT:    -5.701      2.779      3.286
REMARK INTER + INTRA:          -7.468
REMARK INTER:                  -7.113
REMARK INTRA:                  -0.354
REMARK UNBOUND:                -0.601
REMARK SMILES O=c1ccn([C@@H]2O[C@@H](CO)[C@H](O)[C@H]2O)c(=O)[nH]1
REMARK SMILES IDX 6 1 13 2 11 3 8 4 7 5 5 6 3 7 4 8 2 9 17 10 1 11 15 12 16 14
REMARK SMILES IDX 14 15 12 17 9 19 10 20
REMARK H PARENT 17 13 14 16 12 18 10 21
REMARK Flexibility Score: inf
ROOT
ATOM      1  C   UNL     1       3.249 -30.395   3.412  1.00  0.00     0.255 C 
ATOM      2  C   UNL     1       4.138 -31.414   4.115  1.00  0.00     0.196 C 
ATOM      3  C   UNL     1       3.750 -31.236   5.556  1.00  0.00     0.179 C 
ATOM      4  C   UNL     1       3.355 -29.760   5.604  1.00  0.00     0.178 C 
ATOM      5  O   UNL     1       2.932 -29.357   4.318  1.00  0.00    -0.347 OA
ENDROOT
BRANCH   1   6
ATOM      6  N   UNL     1       3.915 -29.855   2.209  1.00  0.00    -0.271 N 
ATOM      7  C   UNL     1       5.931 -29.405   0.989  1.00  0.00     0.090 A 
ATOM      8  C   UNL     1       5.281 -29.880   2.125  1.00  0.00     0.099 A 
ATOM      9  C   UNL     1       5.164 -28.919  -0.064  1.00  0.00     0.253 A 
ATOM     10  N   UNL     1       3.809 -28.922   0.030  1.00  0.00    -0.274 N 
ATOM     11  O   UNL     1       5.726 -28.480  -1.104  1.00  0.00    -0.269 OA
ATOM     12  C   UNL     1       3.181 -29.391   1.144  1.00  0.00     0.330 A 
ATOM     13  H   UNL     1       3.238 -28.564  -0.770  1.00  0.00     0.175 HD
ATOM     14  O   UNL     1       1.920 -29.396   1.182  1.00  0.00    -0.248 OA
ENDBRANCH   1   6
BRANCH   2  15
ATOM     15  O   UNL     1       3.864 -32.714   3.663  1.00  0.00    -0.386 OA
ATOM     16  H   UNL     1       4.665 -33.260   3.874  1.00  0.00     0.211 HD
ENDBRANCH   2  15
BRANCH   3  17
ATOM     17  O   UNL     1       4.838 -31.506   6.399  1.00  0.00    -0.387 OA
ATOM     18  H   UNL     1       4.553 -32.245   6.997  1.00  0.00     0.211 HD
ENDBRANCH   3  17
BRANCH   4  19
ATOM     19  C   UNL     1       2.239 -29.500   6.625  1.00  0.00     0.191 C 
BRANCH  19  20
ATOM     20  O   UNL     1       2.623 -28.496   7.523  1.00  0.00    -0.394 OA
ATOM     21  H   UNL     1       3.354 -27.986   7.084  1.00  0.00     0.210 HD
ENDBRANCH  19  20
ENDBRANCH   4  19
TORSDOF 5
ENDMDL
MODEL 4
REMARK VINA RESULT:    -5.698      2.074      3.184
REMARK INTER + INTRA:          -7.465
REMARK INTER:                  -6.960
REMARK INTRA:                  -0.505
REMARK UNBOUND:                -0.601
REMARK SMILES O=c1ccn([C@@H]2O[C@@H](CO)[C@H](O)[C@H]2O)c(=O)[nH]1
REMARK SMILES IDX 6 1 13 2 11 3 8 4 7 5 5 6 3 7 4 8 2 9 17 10 1 11 15 12 16 14
REMARK SMILES IDX 14 15 12 17 9 19 10 20
REMARK H PARENT 17 13 14 16 12 18 10 21
REMARK Flexibility Score: inf
ROOT
ATOM      1  C   UNL     1       3.960 -30.944   4.228  1.00  0.00     0.255 C 
ATOM      2  C   UNL     1       4.250 -29.996   5.385  1.00  0.00     0.196 C 
ATOM      3  C   UNL     1       3.123 -30.295   6.334  1.00  0.00     0.179 C 
ATOM      4  C   UNL     1       2.002 -30.711   5.381  1.00  0.00     0.178 C 
ATOM      5  O   UNL     1       2.574 -31.220   4.194  1.00  0.00    -0.347 OA
ENDROOT
BRANCH   1   6
ATOM      6  N   UNL     1       4.409 -30.364   2.946  1.00  0.00    -0.271 N 
ATOM      7  C   UNL     1       3.945 -29.035   1.002  1.00  0.00     0.090 A 
ATOM      8  C   UNL     1       3.537 -29.617   2.200  1.00  0.00     0.099 A 
ATOM      9  C   UNL     1       5.259 -29.215   0.588  1.00  0.00     0.253 A 
ATOM     10  N   UNL     1       6.116 -29.941   1.352  1.00  0.00    -0.274 N 
ATOM     11  O   UNL     1       5.656 -28.701  -0.493  1.00  0.00    -0.269 OA
ATOM     12  C   UNL     1       5.709 -30.505   2.523  1.00  0.00     0.330 A 
ATOM     13  H   UNL     1       7.106 -30.064   1.039  1.00  0.00     0.175 HD
ATOM     14  O   UNL     1       6.542 -31.155   3.214  1.00  0.00    -0.248 OA
ENDBRANCH   1   6
BRANCH   2  15
ATOM     15  O   UNL     1       5.498 -30.277   5.962  1.00  0.00    -0.386 OA
ATOM     16  H   UNL     1       5.718 -31.212   5.715  1.00  0.00     0.211 HD
ENDBRANCH   2  15
BRANCH   3  17
ATOM     17  O   UNL     1       2.778 -29.152   7.069  1.00  0.00    -0.387 OA
ATOM     18  H   UNL     1       2.152 -29.454   7.779  1.00  0.00     0.211 HD
ENDBRANCH   3  17
BRANCH   4  19
ATOM     19  C   UNL     1       1.080 -31.765   6.010  1.00  0.00     0.191 C 
BRANCH  19  20
ATOM     20  O   UNL     1       1.654 -33.039   5.909  1.00  0.00    -0.394 OA
ATOM     21  H   UNL     1       1.089 -33.650   6.451  1.00  0.00     0.210 HD
ENDBRANCH  19  20
ENDBRANCH   4  19
TORSDOF 5
ENDMDL
MODEL 5
REMARK VINA RESULT:    -5.483      1.764      2.896
REMARK INTER + INTRA:          -7.206
REMARK INTER:                  -6.608
REMARK INTRA:                  -0.598
REMARK UNBOUND:                -0.601
REMARK SMILES O=c1ccn([C@@H]2O[C@@H](CO)[C@H](O)[C@H]2O)c(=O)[nH]1
REMARK SMILES IDX 6 1 13 2 11 3 8 4 7 5 5 6 3 7 4 8 2 9 17 10 1 11 15 12 16 14
REMARK SMILES IDX 14 15 12 17 9 19 10 20
REMARK H PARENT 17 13 14 16 12 18 10 21
REMARK Flexibility Score: inf
ROOT
ATOM      1  C   UNL     1       5.665 -31.042   5.485  1.00  0.00     0.255 C 
ATOM      2  C   UNL     1       4.290 -30.475   5.156  1.00  0.00     0.196 C 
ATOM      3  C   UNL     1       3.409 -31.688   5.266  1.00  0.00     0.179 C 
ATOM      4  C   UNL     1       4.363 -32.815   4.872  1.00  0.00     0.178 C 
ATOM      5  O   UNL     1       5.688 -32.417   5.159  1.00  0.00    -0.347 OA
ENDROOT
BRANCH   1   6
ATOM      6  N   UNL     1       6.724 -30.313   4.757  1.00  0.00    -0.271 N 
ATOM      7  C   UNL     1       7.659 -29.555   2.680  1.00  0.00     0.090 A 
ATOM      8  C   UNL     1       6.689 -30.261   3.389  1.00  0.00     0.099 A 
ATOM      9  C   UNL     1       8.654 -28.894   3.391  1.00  0.00     0.253 A 
ATOM     10  N   UNL     1       8.659 -28.940   4.748  1.00  0.00    -0.274 N 
ATOM     11  O   UNL     1       9.545 -28.250   2.775  1.00  0.00    -0.269 OA
ATOM     12  C   UNL     1       7.705 -29.630   5.433  1.00  0.00     0.330 A 
ATOM     13  H   UNL     1       9.405 -28.432   5.276  1.00  0.00     0.175 HD
ATOM     14  O   UNL     1       7.735 -29.631   6.695  1.00  0.00    -0.248 OA
ENDBRANCH   1   6
BRANCH   2  15
ATOM     15  O   UNL     1       3.922 -29.485   6.080  1.00  0.00    -0.386 OA
ATOM     16  H   UNL     1       2.931 -29.489   6.117  1.00  0.00     0.211 HD
ENDBRANCH   2  15
BRANCH   3  17
ATOM     17  O   UNL     1       2.325 -31.595   4.381  1.00  0.00    -0.387 OA
ATOM     18  H   UNL     1       2.693 -31.746   3.471  1.00  0.00     0.211 HD
ENDBRANCH   3  17
BRANCH   4  19
ATOM     19  C   UNL     1       4.040 -34.121   5.609  1.00  0.00     0.191 C 
BRANCH  19  20
ATOM     20  O   UNL     1       2.721 -34.102   6.082  1.00  0.00    -0.394 OA
ATOM     21  H   UNL     1       2.323 -33.243   5.781  1.00  0.00     0.210 HD
ENDBRANCH  19  20
ENDBRANCH   4  19
TORSDOF 5
ENDMDL
MODEL 6
REMARK VINA RESULT:    -5.477     12.353     13.768
REMARK INTER + INTRA:          -7.199
REMARK INTER:                  -6.831
REMARK INTRA:                  -0.368
REMARK UNBOUND:                -0.601
REMARK SMILES O=c1ccn([C@@H]2O[C@@H](CO)[C@H](O)[C@H]2O)c(=O)[nH]1
REMARK SMILES IDX 6 1 13 2 11 3 8 4 7 5 5 6 3 7 4 8 2 9 17 10 1 11 15 12 16 14
REMARK SMILES IDX 14 15 12 17 9 19 10 20
REMARK H PARENT 17 13 14 16 12 18 10 21
REMARK Flexibility Score: inf
ROOT
ATOM      1  C   UNL     1      -4.051 -25.055  -1.652  1.00  0.00     0.255 C 
ATOM      2  C   UNL     1      -2.712 -24.333  -1.563  1.00  0.00     0.196 C 
ATOM      3  C   UNL     1      -2.594 -24.061  -0.089  1.00  0.00     0.179 C 
ATOM      4  C   UNL     1      -4.057 -23.923   0.331  1.00  0.00     0.178 C 
ATOM      5  O   UNL     1      -4.863 -24.657  -0.566  1.00  0.00    -0.347 OA
ENDROOT
BRANCH   1   6
ATOM      6  N   UNL     1      -4.719 -24.770  -2.939  1.00  0.00    -0.271 N 
ATOM      7  C   UNL     1      -5.077 -23.298  -4.801  1.00  0.00     0.090 A 
ATOM      8  C   UNL     1      -4.483 -23.579  -3.573  1.00  0.00     0.099 A 
ATOM      9  C   UNL     1      -5.903 -24.257  -5.375  1.00  0.00     0.253 A 
ATOM     10  N   UNL     1      -6.109 -25.440  -4.741  1.00  0.00    -0.274 N 
ATOM     11  O   UNL     1      -6.456 -24.029  -6.485  1.00  0.00    -0.269 OA
ATOM     12  C   UNL     1      -5.521 -25.707  -3.542  1.00  0.00     0.330 A 
ATOM     13  H   UNL     1      -6.724 -26.161  -5.185  1.00  0.00     0.175 HD
ATOM     14  O   UNL     1      -5.722 -26.828  -2.996  1.00  0.00    -0.248 OA
ENDBRANCH   1   6
BRANCH   2  15
ATOM     15  O   UNL     1      -1.669 -25.152  -2.021  1.00  0.00    -0.386 OA
ATOM     16  H   UNL     1      -2.097 -25.945  -2.437  1.00  0.00     0.211 HD
ENDBRANCH   2  15
BRANCH   3  17
ATOM     17  O   UNL     1      -1.877 -22.877   0.140  1.00  0.00    -0.387 OA
ATOM     18  H   UNL     1      -1.324 -23.037   0.949  1.00  0.00     0.211 HD
ENDBRANCH   3  17
BRANCH   4  19
ATOM     19  C   UNL     1      -4.288 -24.419   1.765  1.00  0.00     0.191 C 
BRANCH  19  20
ATOM     20  O   UNL     1      -5.302 -23.673   2.382  1.00  0.00    -0.394 OA
ATOM     21  H   UNL     1      -5.488 -22.899   1.788  1.00  0.00     0.210 HD
ENDBRANCH  19  20
ENDBRANCH   4  19
TORSDOF 5
ENDMDL
MODEL 7
REMARK VINA RESULT:    -5.423     11.058     12.911
REMARK INTER + INTRA:          -7.133
REMARK INTER:                  -6.676
REMARK INTRA:                  -0.458
REMARK UNBOUND:                -0.601
REMARK SMILES O=c1ccn([C@@H]2O[C@@H](CO)[C@H](O)[C@H]2O)c(=O)[nH]1
REMARK SMILES IDX 6 1 13 2 11 3 8 4 7 5 5 6 3 7 4 8 2 9 17 10 1 11 15 12 16 14
REMARK SMILES IDX 14 15 12 17 9 19 10 20
REMARK H PARENT 17 13 14 16 12 18 10 21
REMARK Flexibility Score: inf
ROOT
ATOM      1  C   UNL     1      -4.629 -25.925   0.330  1.00  0.00     0.255 C 
ATOM      2  C   UNL     1      -3.296 -25.481  -0.259  1.00  0.00     0.196 C 
ATOM      3  C   UNL     1      -3.096 -24.136   0.380  1.00  0.00     0.179 C 
ATOM      4  C   UNL     1      -4.533 -23.657   0.579  1.00  0.00     0.178 C 
ATOM      5  O   UNL     1      -5.382 -24.781   0.681  1.00  0.00    -0.347 OA
ENDROOT
BRANCH   1   6
ATOM      6  N   UNL     1      -5.375 -26.769  -0.627  1.00  0.00    -0.271 N 
ATOM      7  C   UNL     1      -7.019 -26.967  -2.363  1.00  0.00     0.090 A 
ATOM      8  C   UNL     1      -6.324 -26.199  -1.432  1.00  0.00     0.099 A 
ATOM      9  C   UNL     1      -6.719 -28.320  -2.468  1.00  0.00     0.253 A 
ATOM     10  N   UNL     1      -5.758 -28.862  -1.675  1.00  0.00    -0.274 N 
ATOM     11  O   UNL     1      -7.333 -29.040  -3.300  1.00  0.00    -0.269 OA
ATOM     12  C   UNL     1      -5.082 -28.103  -0.769  1.00  0.00     0.330 A 
ATOM     13  H   UNL     1      -5.531 -29.879  -1.766  1.00  0.00     0.175 HD
ATOM     14  O   UNL     1      -4.182 -28.642  -0.065  1.00  0.00    -0.248 OA
ENDBRANCH   1   6
BRANCH   2  15
ATOM     15  O   UNL     1      -2.272 -26.376   0.089  1.00  0.00    -0.386 OA
ATOM     16  H   UNL     1      -2.406 -27.186  -0.468  1.00  0.00     0.211 HD
ENDBRANCH   2  15
BRANCH   3  17
ATOM     17  O   UNL     1      -2.380 -23.284  -0.473  1.00  0.00    -0.387 OA
ATOM     18  H   UNL     1      -2.680 -23.495  -1.396  1.00  0.00     0.211 HD
ENDBRANCH   3  17
BRANCH   4  19
ATOM     19  C   UNL     1      -4.675 -22.781   1.831  1.00  0.00     0.191 C 
BRANCH  19  20
ATOM     20  O   UNL     1      -5.512 -23.401   2.769  1.00  0.00    -0.394 OA
ATOM     21  H   UNL     1      -4.950 -23.602   3.563  1.00  0.00     0.210 HD
ENDBRANCH  19  20
ENDBRANCH   4  19
TORSDOF 5
ENDMDL
MODEL 8
REMARK VINA RESULT:    -5.401      2.485      4.468
REMARK INTER + INTRA:          -7.107
REMARK INTER:                  -6.670
REMARK INTRA:                  -0.436
REMARK UNBOUND:                -0.601
REMARK SMILES O=c1ccn([C@@H]2O[C@@H](CO)[C@H](O)[C@H]2O)c(=O)[nH]1
REMARK SMILES IDX 6 1 13 2 11 3 8 4 7 5 5 6 3 7 4 8 2 9 17 10 1 11 15 12 16 14
REMARK SMILES IDX 14 15 12 17 9 19 10 20
REMARK H PARENT 17 13 14 16 12 18 10 21
REMARK Flexibility Score: inf
ROOT
ATOM      1  C   UNL     1       5.283 -30.751   5.495  1.00  0.00     0.255 C 
ATOM      2  C   UNL     1       5.387 -32.255   5.275  1.00  0.00     0.196 C 
ATOM      3  C   UNL     1       6.662 -32.597   5.994  1.00  0.00     0.179 C 
ATOM      4  C   UNL     1       7.471 -31.309   5.846  1.00  0.00     0.178 C 
ATOM      5  O   UNL     1       6.580 -30.223   5.690  1.00  0.00    -0.347 OA
ENDROOT
BRANCH   1   6
ATOM      6  N   UNL     1       4.617 -30.095   4.352  1.00  0.00    -0.271 N 
ATOM      7  C   UNL     1       4.584 -29.545   2.016  1.00  0.00     0.090 A 
ATOM      8  C   UNL     1       5.206 -30.131   3.116  1.00  0.00     0.099 A 
ATOM      9  C   UNL     1       3.347 -28.937   2.195  1.00  0.00     0.253 A 
ATOM     10  N   UNL     1       2.769 -28.931   3.424  1.00  0.00    -0.274 N 
ATOM     11  O   UNL     1       2.761 -28.398   1.218  1.00  0.00    -0.269 OA
ATOM     12  C   UNL     1       3.383 -29.508   4.495  1.00  0.00     0.330 A 
ATOM     13  H   UNL     1       1.833 -28.481   3.550  1.00  0.00     0.175 HD
ATOM     14  O   UNL     1       2.802 -29.498   5.615  1.00  0.00    -0.248 OA
ENDBRANCH   1   6
BRANCH   2  15
ATOM     15  O   UNL     1       4.285 -32.920   5.833  1.00  0.00    -0.386 OA
ATOM     16  H   UNL     1       4.493 -33.051   6.794  1.00  0.00     0.211 HD
ENDBRANCH   2  15
BRANCH   3  17
ATOM     17  O   UNL     1       7.302 -33.682   5.379  1.00  0.00    -0.387 OA
ATOM     18  H   UNL     1       6.818 -34.497   5.674  1.00  0.00     0.211 HD
ENDBRANCH   3  17
BRANCH   4  19
ATOM     19  C   UNL     1       8.383 -31.065   7.054  1.00  0.00     0.191 C 
BRANCH  19  20
ATOM     20  O   UNL     1       7.618 -30.819   8.203  1.00  0.00    -0.394 OA
ATOM     21  H   UNL     1       7.817 -29.887   8.483  1.00  0.00     0.210 HD
ENDBRANCH  19  20
ENDBRANCH   4  19
TORSDOF 5
ENDMDL
MODEL 9
REMARK VINA RESULT:    -5.339      1.840      5.575
REMARK INTER + INTRA:          -7.032
REMARK INTER:                  -6.584
REMARK INTRA:                  -0.448
REMARK UNBOUND:                -0.601
REMARK SMILES O=c1ccn([C@@H]2O[C@@H](CO)[C@H](O)[C@H]2O)c(=O)[nH]1
REMARK SMILES IDX 6 1 13 2 11 3 8 4 7 5 5 6 3 7 4 8 2 9 17 10 1 11 15 12 16 14
REMARK SMILES IDX 14 15 12 17 9 19 10 20
REMARK H PARENT 17 13 14 16 12 18 10 21
REMARK Flexibility Score: inf
ROOT
ATOM      1  C   UNL     1       5.918 -31.463   4.751  1.00  0.00     0.255 C 
ATOM      2  C   UNL     1       5.999 -31.794   3.266  1.00  0.00     0.196 C 
ATOM      3  C   UNL     1       7.259 -31.089   2.849  1.00  0.00     0.179 C 
ATOM      4  C   UNL     1       7.299 -29.904   3.813  1.00  0.00     0.178 C 
ATOM      5  O   UNL     1       6.595 -30.245   4.989  1.00  0.00    -0.347 OA
ENDROOT
BRANCH   1   6
ATOM      6  N   UNL     1       4.512 -31.375   5.196  1.00  0.00    -0.271 N 
ATOM      7  C   UNL     1       2.549 -30.055   5.599  1.00  0.00     0.090 A 
ATOM      8  C   UNL     1       3.883 -30.159   5.212  1.00  0.00     0.099 A 
ATOM      9  C   UNL     1       1.866 -31.212   5.955  1.00  0.00     0.253 A 
ATOM     10  N   UNL     1       2.501 -32.412   5.912  1.00  0.00    -0.274 N 
ATOM     11  O   UNL     1       0.659 -31.147   6.311  1.00  0.00    -0.269 OA
ATOM     12  C   UNL     1       3.805 -32.505   5.530  1.00  0.00     0.330 A 
ATOM     13  H   UNL     1       1.978 -33.279   6.172  1.00  0.00     0.175 HD
ATOM     14  O   UNL     1       4.352 -33.642   5.485  1.00  0.00    -0.248 OA
ENDBRANCH   1   6
BRANCH   2  15
ATOM     15  O   UNL     1       6.092 -33.180   3.066  1.00  0.00    -0.386 OA
ATOM     16  H   UNL     1       7.038 -33.367   2.833  1.00  0.00     0.211 HD
ENDBRANCH   2  15
BRANCH   3  17
ATOM     17  O   UNL     1       7.172 -30.667   1.514  1.00  0.00    -0.387 OA
ATOM     18  H   UNL     1       7.092 -29.678   1.538  1.00  0.00     0.211 HD
ENDBRANCH   3  17
BRANCH   4  19
ATOM     19  C   UNL     1       8.738 -29.502   4.164  1.00  0.00     0.191 C 
BRANCH  19  20
ATOM     20  O   UNL     1       8.779 -28.173   4.607  1.00  0.00    -0.394 OA
ATOM     21  H   UNL     1       9.306 -27.665   3.935  1.00  0.00     0.210 HD
ENDBRANCH  19  20
ENDBRANCH   4  19
TORSDOF 5
ENDMDL
