MODEL 1
REMARK VINA RESULT:    -1.126      0.000      0.000
REMARK INTER + INTRA:          -9.537
REMARK INTER:                  -2.968
REMARK INTRA:                  -6.569
REMARK UNBOUND:                -6.569
REMARK SMILES CCCCCCCCCCCCCCCCCCCCCCCCCCCCCC(=O)[O-]
REMARK SMILES IDX 16 1 17 2 18 3 19 4 20 5 21 6 22 7 23 8 24 9 25 10 26 11
REMARK SMILES IDX 27 12 28 13 29 14 30 15 31 16 32 17 15 18 14 19 13 20 12 21
REMARK SMILES IDX 11 22 10 23 9 24 8 25 7 26 6 27 5 28 4 29 3 30 2 31 1 32
REMARK H PARENT
REMARK Flexibility Score: inf
ROOT
ATOM      1  C   UNL     1     173.109 177.153 197.483  1.00  0.00     0.000 C 
ENDROOT
BRANCH   1   2
ATOM      2  C   UNL     1     173.109 178.403 196.589  1.00  0.00     0.000 C 
BRANCH   2   3
ATOM      3  C   UNL     1     173.402 178.080 195.116  1.00  0.00     0.000 C 
BRANCH   3   4
ATOM      4  C   UNL     1     173.133 179.268 194.177  1.00  0.00     0.000 C 
BRANCH   4   5
ATOM      5  C   UNL     1     172.794 180.581 194.911  1.00  0.00     0.000 C 
BRANCH   5   6
ATOM      6  C   UNL     1     172.401 181.710 193.939  1.00  0.00     0.000 C 
BRANCH   6   7
ATOM      7  C   UNL     1     172.167 183.050 194.658  1.00  0.00     0.000 C 
BRANCH   7   8
ATOM      8  C   UNL     1     172.526 182.982 196.151  1.00  0.00     0.000 C 
BRANCH   8   9
ATOM      9  C   UNL     1     173.642 183.965 196.545  1.00  0.00     0.000 C 
BRANCH   9  10
ATOM     10  C   UNL     1     173.562 184.492 197.990  1.00  0.00     0.000 C 
BRANCH  10  11
ATOM     11  C   UNL     1     174.938 184.596 198.669  1.00  0.00     0.000 C 
BRANCH  11  12
ATOM     12  C   UNL     1     176.057 184.139 197.722  1.00  0.00     0.000 C 
BRANCH  12  13
ATOM     13  C   UNL     1     177.404 184.817 198.024  1.00  0.00     0.006 C 
BRANCH  13  14
ATOM     14  C   UNL     1     178.219 185.107 196.757  1.00  0.00     0.053 C 
BRANCH  14  15
ATOM     15  C   UNL     1     179.578 185.629 197.104  1.00  0.00     0.041 C 
ATOM     16  O   UNL     1     179.870 185.897 198.299  1.00  0.00    -0.550 OA
ATOM     17  O   UNL     1     180.539 185.784 196.113  1.00  0.00    -0.550 OA
ENDBRANCH  14  15
ENDBRANCH  13  14
ENDBRANCH  12  13
ENDBRANCH  11  12
ENDBRANCH  10  11
ENDBRANCH   9  10
ENDBRANCH   8   9
ENDBRANCH   7   8
ENDBRANCH   6   7
ENDBRANCH   5   6
ENDBRANCH   4   5
ENDBRANCH   3   4
ENDBRANCH   2   3
ENDBRANCH   1   2
BRANCH   1  18
ATOM     18  C   UNL     1     174.105 177.258 198.653  1.00  0.00     0.000 C 
BRANCH  18  19
ATOM     19  C   UNL     1     173.402 177.297 200.019  1.00  0.00     0.000 C 
BRANCH  19  20
ATOM     20  C   UNL     1     171.869 177.325 199.898  1.00  0.00     0.000 C 
BRANCH  20  21
ATOM     21  C   UNL     1     171.207 178.109 201.048  1.00  0.00     0.000 C 
BRANCH  21  22
ATOM     22  C   UNL     1     171.592 179.602 201.066  1.00  0.00     0.000 C 
BRANCH  22  23
ATOM     23  C   UNL     1     171.261 180.306 199.736  1.00  0.00     0.000 C 
BRANCH  23  24
ATOM     24  C   UNL     1     172.454 181.105 199.169  1.00  0.00    -0.000 C 
BRANCH  24  25
ATOM     25  C   UNL     1     173.660 181.201 200.122  1.00  0.00    -0.000 C 
BRANCH  25  26
ATOM     26  C   UNL     1     175.015 180.821 199.504  1.00  0.00    -0.000 C 
BRANCH  26  27
ATOM     27  C   UNL     1     174.989 180.800 197.968  1.00  0.00    -0.000 C 
BRANCH  27  28
ATOM     28  C   UNL     1     176.310 180.255 197.402  1.00  0.00    -0.000 C 
BRANCH  28  29
ATOM     29  C   UNL     1     176.360 180.305 195.861  1.00  0.00    -0.000 C 
BRANCH  29  30
ATOM     30  C   UNL     1     176.660 181.703 195.285  1.00  0.00    -0.000 C 
BRANCH  30  31
ATOM     31  C   UNL     1     176.114 181.957 193.870  1.00  0.00    -0.003 C 
ATOM     32  C   UNL     1     175.791 183.429 193.609  1.00  0.00     0.004 C 
ENDBRANCH  30  31
ENDBRANCH  29  30
ENDBRANCH  28  29
ENDBRANCH  27  28
ENDBRANCH  26  27
ENDBRANCH  25  26
ENDBRANCH  24  25
ENDBRANCH  23  24
ENDBRANCH  22  23
ENDBRANCH  21  22
ENDBRANCH  20  21
ENDBRANCH  19  20
ENDBRANCH  18  19
ENDBRANCH   1  18
TORSDOF 28
ENDMDL
MODEL 2
REMARK VINA RESULT:    -1.116      3.429      6.907
REMARK INTER + INTRA:          -9.511
REMARK INTER:                  -2.985
REMARK INTRA:                  -6.526
REMARK UNBOUND:                -6.569
REMARK SMILES CCCCCCCCCCCCCCCCCCCCCCCCCCCCCC(=O)[O-]
REMARK SMILES IDX 16 1 17 2 18 3 19 4 20 5 21 6 22 7 23 8 24 9 25 10 26 11
REMARK SMILES IDX 27 12 28 13 29 14 30 15 31 16 32 17 15 18 14 19 13 20 12 21
REMARK SMILES IDX 11 22 10 23 9 24 8 25 7 26 6 27 5 28 4 29 3 30 2 31 1 32
REMARK H PARENT
REMARK Flexibility Score: inf
ROOT
ATOM      1  C   UNL     1     175.092 184.281 197.547  1.00  0.00     0.000 C 
ENDROOT
BRANCH   1   2
ATOM      2  C   UNL     1     173.763 184.312 198.318  1.00  0.00     0.000 C 
BRANCH   2   3
ATOM      3  C   UNL     1     172.599 183.706 197.518  1.00  0.00     0.000 C 
BRANCH   3   4
ATOM      4  C   UNL     1     171.990 182.466 198.193  1.00  0.00     0.000 C 
BRANCH   4   5
ATOM      5  C   UNL     1     171.614 182.680 199.673  1.00  0.00     0.000 C 
BRANCH   5   6
ATOM      6  C   UNL     1     171.680 181.375 200.487  1.00  0.00     0.000 C 
BRANCH   6   7
ATOM      7  C   UNL     1     171.663 180.123 199.593  1.00  0.00     0.000 C 
BRANCH   7   8
ATOM      8  C   UNL     1     172.329 178.913 200.269  1.00  0.00     0.000 C 
BRANCH   8   9
ATOM      9  C   UNL     1     172.248 177.632 199.420  1.00  0.00     0.000 C 
BRANCH   9  10
ATOM     10  C   UNL     1     173.543 177.271 198.668  1.00  0.00     0.000 C 
BRANCH  10  11
ATOM     11  C   UNL     1     173.301 176.906 197.195  1.00  0.00     0.000 C 
BRANCH  11  12
ATOM     12  C   UNL     1     173.166 178.167 196.328  1.00  0.00     0.000 C 
BRANCH  12  13
ATOM     13  C   UNL     1     173.716 177.971 194.906  1.00  0.00     0.006 C 
BRANCH  13  14
ATOM     14  C   UNL     1     172.783 178.536 193.826  1.00  0.00     0.053 C 
BRANCH  14  15
ATOM     15  C   UNL     1     172.423 177.483 192.826  1.00  0.00     0.041 C 
ATOM     16  O   UNL     1     171.324 176.875 192.912  1.00  0.00    -0.550 OA
ATOM     17  O   UNL     1     173.285 177.196 191.775  1.00  0.00    -0.550 OA
ENDBRANCH  14  15
ENDBRANCH  13  14
ENDBRANCH  12  13
ENDBRANCH  11  12
ENDBRANCH  10  11
ENDBRANCH   9  10
ENDBRANCH   8   9
ENDBRANCH   7   8
ENDBRANCH   6   7
ENDBRANCH   5   6
ENDBRANCH   4   5
ENDBRANCH   3   4
ENDBRANCH   2   3
ENDBRANCH   1   2
BRANCH   1  18
ATOM     18  C   UNL     1     176.004 183.118 197.980  1.00  0.00     0.000 C 
BRANCH  18  19
ATOM     19  C   UNL     1     175.684 182.618 199.397  1.00  0.00     0.000 C 
BRANCH  19  20
ATOM     20  C   UNL     1     175.227 181.150 199.422  1.00  0.00     0.000 C 
BRANCH  20  21
ATOM     21  C   UNL     1     175.495 180.433 198.084  1.00  0.00     0.000 C 
BRANCH  21  22
ATOM     22  C   UNL     1     176.536 179.302 198.198  1.00  0.00     0.000 C 
BRANCH  22  23
ATOM     23  C   UNL     1     177.674 179.449 197.170  1.00  0.00     0.000 C 
BRANCH  23  24
ATOM     24  C   UNL     1     178.779 180.421 197.635  1.00  0.00    -0.000 C 
BRANCH  24  25
ATOM     25  C   UNL     1     179.069 181.568 196.648  1.00  0.00    -0.000 C 
BRANCH  25  26
ATOM     26  C   UNL     1     178.245 181.541 195.351  1.00  0.00    -0.000 C 
BRANCH  26  27
ATOM     27  C   UNL     1     177.822 182.940 194.880  1.00  0.00    -0.000 C 
BRANCH  27  28
ATOM     28  C   UNL     1     176.433 182.904 194.224  1.00  0.00    -0.000 C 
BRANCH  28  29
ATOM     29  C   UNL     1     175.706 181.561 194.447  1.00  0.00    -0.000 C 
BRANCH  29  30
ATOM     30  C   UNL     1     174.253 181.705 194.943  1.00  0.00    -0.000 C 
BRANCH  30  31
ATOM     31  C   UNL     1     173.270 182.297 193.919  1.00  0.00    -0.003 C 
ATOM     32  C   UNL     1     171.806 182.102 194.315  1.00  0.00     0.004 C 
ENDBRANCH  30  31
ENDBRANCH  29  30
ENDBRANCH  28  29
ENDBRANCH  27  28
ENDBRANCH  26  27
ENDBRANCH  25  26
ENDBRANCH  24  25
ENDBRANCH  23  24
ENDBRANCH  22  23
ENDBRANCH  21  22
ENDBRANCH  20  21
ENDBRANCH  19  20
ENDBRANCH  18  19
ENDBRANCH   1  18
TORSDOF 28
ENDMDL
MODEL 3
REMARK VINA RESULT:    -1.101      2.731      6.293
REMARK INTER + INTRA:          -9.472
REMARK INTER:                  -3.169
REMARK INTRA:                  -6.303
REMARK UNBOUND:                -6.569
REMARK SMILES CCCCCCCCCCCCCCCCCCCCCCCCCCCCCC(=O)[O-]
REMARK SMILES IDX 16 1 17 2 18 3 19 4 20 5 21 6 22 7 23 8 24 9 25 10 26 11
REMARK SMILES IDX 27 12 28 13 29 14 30 15 31 16 32 17 15 18 14 19 13 20 12 21
REMARK SMILES IDX 11 22 10 23 9 24 8 25 7 26 6 27 5 28 4 29 3 30 2 31 1 32
REMARK H PARENT
REMARK Flexibility Score: inf
ROOT
ATOM      1  C   UNL     1     173.694 181.400 193.506  1.00  0.00     0.000 C 
ENDROOT
BRANCH   1   2
ATOM      2  C   UNL     1     172.461 181.168 194.392  1.00  0.00     0.000 C 
BRANCH   2   3
ATOM      3  C   UNL     1     172.649 181.702 195.821  1.00  0.00     0.000 C 
BRANCH   3   4
ATOM      4  C   UNL     1     173.497 180.769 196.703  1.00  0.00     0.000 C 
BRANCH   4   5
ATOM      5  C   UNL     1     173.588 181.213 198.177  1.00  0.00     0.000 C 
BRANCH   5   6
ATOM      6  C   UNL     1     172.368 182.049 198.611  1.00  0.00     0.000 C 
BRANCH   6   7
ATOM      7  C   UNL     1     171.669 181.466 199.851  1.00  0.00     0.000 C 
BRANCH   7   8
ATOM      8  C   UNL     1     171.400 179.959 199.716  1.00  0.00     0.000 C 
BRANCH   8   9
ATOM      9  C   UNL     1     171.997 179.137 200.871  1.00  0.00     0.000 C 
BRANCH   9  10
ATOM     10  C   UNL     1     172.815 177.906 200.436  1.00  0.00     0.000 C 
BRANCH  10  11
ATOM     11  C   UNL     1     172.778 177.665 198.918  1.00  0.00     0.000 C 
BRANCH  11  12
ATOM     12  C   UNL     1     174.077 177.004 198.433  1.00  0.00     0.000 C 
BRANCH  12  13
ATOM     13  C   UNL     1     175.265 177.979 198.403  1.00  0.00     0.006 C 
BRANCH  13  14
ATOM     14  C   UNL     1     176.611 177.283 198.644  1.00  0.00     0.053 C 
BRANCH  14  15
ATOM     15  C   UNL     1     177.331 177.900 199.802  1.00  0.00     0.041 C 
ATOM     16  O   UNL     1     178.524 178.283 199.676  1.00  0.00    -0.550 OA
ATOM     17  O   UNL     1     176.674 178.089 201.011  1.00  0.00    -0.550 OA
ENDBRANCH  14  15
ENDBRANCH  13  14
ENDBRANCH  12  13
ENDBRANCH  11  12
ENDBRANCH  10  11
ENDBRANCH   9  10
ENDBRANCH   8   9
ENDBRANCH   7   8
ENDBRANCH   6   7
ENDBRANCH   5   6
ENDBRANCH   4   5
ENDBRANCH   3   4
ENDBRANCH   2   3
ENDBRANCH   1   2
BRANCH   1  18
ATOM     18  C   UNL     1     173.522 180.826 192.087  1.00  0.00     0.000 C 
BRANCH  18  19
ATOM     19  C   UNL     1     172.151 180.162 191.885  1.00  0.00     0.000 C 
BRANCH  19  20
ATOM     20  C   UNL     1     172.259 178.720 191.362  1.00  0.00     0.000 C 
BRANCH  20  21
ATOM     21  C   UNL     1     171.517 177.714 192.265  1.00  0.00     0.000 C 
BRANCH  21  22
ATOM     22  C   UNL     1     172.464 176.875 193.145  1.00  0.00     0.000 C 
BRANCH  22  23
ATOM     23  C   UNL     1     172.634 177.472 194.555  1.00  0.00     0.000 C 
BRANCH  23  24
ATOM     24  C   UNL     1     174.107 177.771 194.905  1.00  0.00    -0.000 C 
BRANCH  24  25
ATOM     25  C   UNL     1     175.072 177.684 193.707  1.00  0.00    -0.000 C 
BRANCH  25  26
ATOM     26  C   UNL     1     176.195 178.733 193.693  1.00  0.00    -0.000 C 
BRANCH  26  27
ATOM     27  C   UNL     1     176.455 179.352 195.075  1.00  0.00    -0.000 C 
BRANCH  27  28
ATOM     28  C   UNL     1     177.279 180.643 194.954  1.00  0.00    -0.000 C 
BRANCH  28  29
ATOM     29  C   UNL     1     176.959 181.658 196.072  1.00  0.00    -0.000 C 
BRANCH  29  30
ATOM     30  C   UNL     1     176.784 183.107 195.577  1.00  0.00    -0.000 C 
BRANCH  30  31
ATOM     31  C   UNL     1     175.598 183.868 196.191  1.00  0.00    -0.003 C 
ATOM     32  C   UNL     1     174.775 184.632 195.153  1.00  0.00     0.004 C 
ENDBRANCH  30  31
ENDBRANCH  29  30
ENDBRANCH  28  29
ENDBRANCH  27  28
ENDBRANCH  26  27
ENDBRANCH  25  26
ENDBRANCH  24  25
ENDBRANCH  23  24
ENDBRANCH  22  23
ENDBRANCH  21  22
ENDBRANCH  20  21
ENDBRANCH  19  20
ENDBRANCH  18  19
ENDBRANCH   1  18
TORSDOF 28
ENDMDL
MODEL 4
REMARK VINA RESULT:    -1.077      2.562      6.099
REMARK INTER + INTRA:          -9.408
REMARK INTER:                  -2.837
REMARK INTRA:                  -6.571
REMARK UNBOUND:                -6.569
REMARK SMILES CCCCCCCCCCCCCCCCCCCCCCCCCCCCCC(=O)[O-]
REMARK SMILES IDX 16 1 17 2 18 3 19 4 20 5 21 6 22 7 23 8 24 9 25 10 26 11
REMARK SMILES IDX 27 12 28 13 29 14 30 15 31 16 32 17 15 18 14 19 13 20 12 21
REMARK SMILES IDX 11 22 10 23 9 24 8 25 7 26 6 27 5 28 4 29 3 30 2 31 1 32
REMARK H PARENT
REMARK Flexibility Score: inf
ROOT
ATOM      1  C   UNL     1     175.475 181.463 197.615  1.00  0.00     0.000 C 
ENDROOT
BRANCH   1   2
ATOM      2  C   UNL     1     174.278 182.044 198.384  1.00  0.00     0.000 C 
BRANCH   2   3
ATOM      3  C   UNL     1     174.035 181.336 199.726  1.00  0.00     0.000 C 
BRANCH   3   4
ATOM      4  C   UNL     1     172.543 181.089 200.011  1.00  0.00     0.000 C 
BRANCH   4   5
ATOM      5  C   UNL     1     171.968 179.848 199.299  1.00  0.00     0.000 C 
BRANCH   5   6
ATOM      6  C   UNL     1     172.604 178.539 199.802  1.00  0.00     0.000 C 
BRANCH   6   7
ATOM      7  C   UNL     1     172.810 177.514 198.674  1.00  0.00     0.000 C 
BRANCH   7   8
ATOM      8  C   UNL     1     174.261 177.009 198.601  1.00  0.00     0.000 C 
BRANCH   8   9
ATOM      9  C   UNL     1     175.247 177.906 199.369  1.00  0.00     0.000 C 
BRANCH   9  10
ATOM     10  C   UNL     1     176.723 177.745 198.961  1.00  0.00     0.000 C 
BRANCH  10  11
ATOM     11  C   UNL     1     176.898 177.307 197.498  1.00  0.00     0.000 C 
BRANCH  11  12
ATOM     12  C   UNL     1     178.022 178.100 196.815  1.00  0.00     0.000 C 
BRANCH  12  13
ATOM     13  C   UNL     1     177.860 178.164 195.287  1.00  0.00     0.006 C 
BRANCH  13  14
ATOM     14  C   UNL     1     178.130 179.564 194.720  1.00  0.00     0.053 C 
BRANCH  14  15
ATOM     15  C   UNL     1     179.579 179.919 194.841  1.00  0.00     0.041 C 
ATOM     16  O   UNL     1     179.944 180.840 195.617  1.00  0.00    -0.550 OA
ATOM     17  O   UNL     1     180.532 179.208 194.123  1.00  0.00    -0.550 OA
ENDBRANCH  14  15
ENDBRANCH  13  14
ENDBRANCH  12  13
ENDBRANCH  11  12
ENDBRANCH  10  11
ENDBRANCH   9  10
ENDBRANCH   8   9
ENDBRANCH   7   8
ENDBRANCH   6   7
ENDBRANCH   5   6
ENDBRANCH   4   5
ENDBRANCH   3   4
ENDBRANCH   2   3
ENDBRANCH   1   2
BRANCH   1  18
ATOM     18  C   UNL     1     175.064 180.364 196.618  1.00  0.00     0.000 C 
BRANCH  18  19
ATOM     19  C   UNL     1     173.613 180.523 196.136  1.00  0.00     0.000 C 
BRANCH  19  20
ATOM     20  C   UNL     1     173.058 179.243 195.490  1.00  0.00     0.000 C 
BRANCH  20  21
ATOM     21  C   UNL     1     174.161 178.204 195.209  1.00  0.00     0.000 C 
BRANCH  21  22
ATOM     22  C   UNL     1     173.617 176.876 194.647  1.00  0.00     0.000 C 
BRANCH  22  23
ATOM     23  C   UNL     1     172.172 177.009 194.130  1.00  0.00     0.000 C 
BRANCH  23  24
ATOM     24  C   UNL     1     172.094 177.108 192.592  1.00  0.00    -0.000 C 
BRANCH  24  25
ATOM     25  C   UNL     1     171.666 178.492 192.068  1.00  0.00    -0.000 C 
BRANCH  25  26
ATOM     26  C   UNL     1     172.816 179.479 191.809  1.00  0.00    -0.000 C 
BRANCH  26  27
ATOM     27  C   UNL     1     174.008 178.834 191.086  1.00  0.00    -0.000 C 
BRANCH  27  28
ATOM     28  C   UNL     1     175.334 179.467 191.536  1.00  0.00    -0.000 C 
BRANCH  28  29
ATOM     29  C   UNL     1     175.163 180.397 192.755  1.00  0.00    -0.000 C 
BRANCH  29  30
ATOM     30  C   UNL     1     175.736 181.815 192.552  1.00  0.00    -0.000 C 
BRANCH  30  31
ATOM     31  C   UNL     1     175.918 182.635 193.839  1.00  0.00    -0.003 C 
ATOM     32  C   UNL     1     175.340 184.047 193.734  1.00  0.00     0.004 C 
ENDBRANCH  30  31
ENDBRANCH  29  30
ENDBRANCH  28  29
ENDBRANCH  27  28
ENDBRANCH  26  27
ENDBRANCH  25  26
ENDBRANCH  24  25
ENDBRANCH  23  24
ENDBRANCH  22  23
ENDBRANCH  21  22
ENDBRANCH  20  21
ENDBRANCH  19  20
ENDBRANCH  18  19
ENDBRANCH   1  18
TORSDOF 28
ENDMDL
MODEL 5
REMARK VINA RESULT:    -1.037      2.065      4.400
REMARK INTER + INTRA:          -9.304
REMARK INTER:                  -2.615
REMARK INTRA:                  -6.689
REMARK UNBOUND:                -6.569
REMARK SMILES CCCCCCCCCCCCCCCCCCCCCCCCCCCCCC(=O)[O-]
REMARK SMILES IDX 16 1 17 2 18 3 19 4 20 5 21 6 22 7 23 8 24 9 25 10 26 11
REMARK SMILES IDX 27 12 28 13 29 14 30 15 31 16 32 17 15 18 14 19 13 20 12 21
REMARK SMILES IDX 11 22 10 23 9 24 8 25 7 26 6 27 5 28 4 29 3 30 2 31 1 32
REMARK H PARENT
REMARK Flexibility Score: inf
ROOT
ATOM      1  C   UNL     1     177.334 178.733 193.628  1.00  0.00     0.000 C 
ENDROOT
BRANCH   1   2
ATOM      2  C   UNL     1     176.168 177.820 193.218  1.00  0.00     0.000 C 
BRANCH   2   3
ATOM      3  C   UNL     1     175.174 178.513 192.273  1.00  0.00     0.000 C 
BRANCH   3   4
ATOM      4  C   UNL     1     173.965 177.630 191.923  1.00  0.00     0.000 C 
BRANCH   4   5
ATOM      5  C   UNL     1     172.915 178.331 191.036  1.00  0.00     0.000 C 
BRANCH   5   6
ATOM      6  C   UNL     1     171.592 178.580 191.784  1.00  0.00     0.000 C 
BRANCH   6   7
ATOM      7  C   UNL     1     171.010 179.976 191.500  1.00  0.00     0.000 C 
BRANCH   7   8
ATOM      8  C   UNL     1     171.332 180.981 192.619  1.00  0.00     0.000 C 
BRANCH   8   9
ATOM      9  C   UNL     1     172.384 182.024 192.204  1.00  0.00     0.000 C 
BRANCH   9  10
ATOM     10  C   UNL     1     173.821 181.712 192.661  1.00  0.00     0.000 C 
BRANCH  10  11
ATOM     11  C   UNL     1     174.719 182.959 192.718  1.00  0.00     0.000 C 
BRANCH  11  12
ATOM     12  C   UNL     1     176.143 182.595 193.164  1.00  0.00     0.000 C 
BRANCH  12  13
ATOM     13  C   UNL     1     176.489 183.150 194.555  1.00  0.00     0.006 C 
BRANCH  13  14
ATOM     14  C   UNL     1     177.911 182.787 195.002  1.00  0.00     0.053 C 
BRANCH  14  15
ATOM     15  C   UNL     1     178.380 183.703 196.089  1.00  0.00     0.041 C 
ATOM     16  O   UNL     1     179.494 184.282 195.995  1.00  0.00    -0.550 OA
ATOM     17  O   UNL     1     177.570 183.950 197.190  1.00  0.00    -0.550 OA
ENDBRANCH  14  15
ENDBRANCH  13  14
ENDBRANCH  12  13
ENDBRANCH  11  12
ENDBRANCH  10  11
ENDBRANCH   9  10
ENDBRANCH   8   9
ENDBRANCH   7   8
ENDBRANCH   6   7
ENDBRANCH   5   6
ENDBRANCH   4   5
ENDBRANCH   3   4
ENDBRANCH   2   3
ENDBRANCH   1   2
BRANCH   1  18
ATOM     18  C   UNL     1     177.658 178.646 195.131  1.00  0.00     0.000 C 
BRANCH  18  19
ATOM     19  C   UNL     1     176.940 177.474 195.818  1.00  0.00     0.000 C 
BRANCH  19  20
ATOM     20  C   UNL     1     176.731 177.705 197.324  1.00  0.00     0.000 C 
BRANCH  20  21
ATOM     21  C   UNL     1     175.559 176.876 197.885  1.00  0.00     0.000 C 
BRANCH  21  22
ATOM     22  C   UNL     1     174.522 177.726 198.645  1.00  0.00     0.000 C 
BRANCH  22  23
ATOM     23  C   UNL     1     173.136 177.694 197.974  1.00  0.00     0.000 C 
BRANCH  23  24
ATOM     24  C   UNL     1     173.157 177.012 196.590  1.00  0.00    -0.000 C 
BRANCH  24  25
ATOM     25  C   UNL     1     173.076 177.990 195.402  1.00  0.00    -0.000 C 
BRANCH  25  26
ATOM     26  C   UNL     1     173.080 179.480 195.779  1.00  0.00    -0.000 C 
BRANCH  26  27
ATOM     27  C   UNL     1     174.445 180.151 195.562  1.00  0.00    -0.000 C 
BRANCH  27  28
ATOM     28  C   UNL     1     174.900 180.896 196.826  1.00  0.00    -0.000 C 
BRANCH  28  29
ATOM     29  C   UNL     1     173.762 181.712 197.476  1.00  0.00    -0.000 C 
BRANCH  29  30
ATOM     30  C   UNL     1     173.919 183.239 197.329  1.00  0.00    -0.000 C 
BRANCH  30  31
ATOM     31  C   UNL     1     173.220 183.850 196.103  1.00  0.00    -0.003 C 
ATOM     32  C   UNL     1     171.978 183.070 195.672  1.00  0.00     0.004 C 
ENDBRANCH  30  31
ENDBRANCH  29  30
ENDBRANCH  28  29
ENDBRANCH  27  28
ENDBRANCH  26  27
ENDBRANCH  25  26
ENDBRANCH  24  25
ENDBRANCH  23  24
ENDBRANCH  22  23
ENDBRANCH  21  22
ENDBRANCH  20  21
ENDBRANCH  19  20
ENDBRANCH  18  19
ENDBRANCH   1  18
TORSDOF 28
ENDMDL
MODEL 6
REMARK VINA RESULT:    -1.018      2.972      6.320
REMARK INTER + INTRA:          -9.252
REMARK INTER:                  -2.202
REMARK INTRA:                  -7.050
REMARK UNBOUND:                -6.569
REMARK SMILES CCCCCCCCCCCCCCCCCCCCCCCCCCCCCC(=O)[O-]
REMARK SMILES IDX 16 1 17 2 18 3 19 4 20 5 21 6 22 7 23 8 24 9 25 10 26 11
REMARK SMILES IDX 27 12 28 13 29 14 30 15 31 16 32 17 15 18 14 19 13 20 12 21
REMARK SMILES IDX 11 22 10 23 9 24 8 25 7 26 6 27 5 28 4 29 3 30 2 31 1 32
REMARK H PARENT
REMARK Flexibility Score: inf
ROOT
ATOM      1  C   UNL     1     176.640 180.356 196.827  1.00  0.00     0.000 C 
ENDROOT
BRANCH   1   2
ATOM      2  C   UNL     1     177.150 179.640 198.088  1.00  0.00     0.000 C 
BRANCH   2   3
ATOM      3  C   UNL     1     176.288 179.934 199.326  1.00  0.00     0.000 C 
BRANCH   3   4
ATOM      4  C   UNL     1     176.011 178.680 200.174  1.00  0.00     0.000 C 
BRANCH   4   5
ATOM      5  C   UNL     1     174.528 178.502 200.559  1.00  0.00     0.000 C 
BRANCH   5   6
ATOM      6  C   UNL     1     173.636 179.618 199.983  1.00  0.00     0.000 C 
BRANCH   6   7
ATOM      7  C   UNL     1     172.601 179.083 198.979  1.00  0.00     0.000 C 
BRANCH   7   8
ATOM      8  C   UNL     1     172.760 177.575 198.723  1.00  0.00     0.000 C 
BRANCH   8   9
ATOM      9  C   UNL     1     173.236 177.257 197.295  1.00  0.00     0.000 C 
BRANCH   9  10
ATOM     10  C   UNL     1     174.730 176.901 197.173  1.00  0.00     0.000 C 
BRANCH  10  11
ATOM     11  C   UNL     1     175.308 177.200 195.781  1.00  0.00     0.000 C 
BRANCH  11  12
ATOM     12  C   UNL     1     174.190 177.333 194.735  1.00  0.00     0.000 C 
BRANCH  12  13
ATOM     13  C   UNL     1     174.155 178.723 194.078  1.00  0.00     0.006 C 
BRANCH  13  14
ATOM     14  C   UNL     1     172.855 179.484 194.370  1.00  0.00     0.053 C 
BRANCH  14  15
ATOM     15  C   UNL     1     172.632 180.567 193.361  1.00  0.00     0.041 C 
ATOM     16  O   UNL     1     171.745 181.439 193.551  1.00  0.00    -0.550 OA
ATOM     17  O   UNL     1     173.430 180.636 192.227  1.00  0.00    -0.550 OA
ENDBRANCH  14  15
ENDBRANCH  13  14
ENDBRANCH  12  13
ENDBRANCH  11  12
ENDBRANCH  10  11
ENDBRANCH   9  10
ENDBRANCH   8   9
ENDBRANCH   7   8
ENDBRANCH   6   7
ENDBRANCH   5   6
ENDBRANCH   4   5
ENDBRANCH   3   4
ENDBRANCH   2   3
ENDBRANCH   1   2
BRANCH   1  18
ATOM     18  C   UNL     1     175.202 180.883 196.984  1.00  0.00     0.000 C 
BRANCH  18  19
ATOM     19  C   UNL     1     174.857 181.964 195.947  1.00  0.00     0.000 C 
BRANCH  19  20
ATOM     20  C   UNL     1     173.791 182.952 196.450  1.00  0.00     0.000 C 
BRANCH  20  21
ATOM     21  C   UNL     1     172.549 182.234 197.014  1.00  0.00     0.000 C 
BRANCH  21  22
ATOM     22  C   UNL     1     172.015 182.874 198.310  1.00  0.00     0.000 C 
BRANCH  22  23
ATOM     23  C   UNL     1     173.030 183.842 198.946  1.00  0.00     0.000 C 
BRANCH  23  24
ATOM     24  C   UNL     1     173.663 183.281 200.237  1.00  0.00    -0.000 C 
BRANCH  24  25
ATOM     25  C   UNL     1     175.190 183.091 200.163  1.00  0.00    -0.000 C 
BRANCH  25  26
ATOM     26  C   UNL     1     175.971 184.286 199.594  1.00  0.00    -0.000 C 
BRANCH  26  27
ATOM     27  C   UNL     1     176.867 183.906 198.406  1.00  0.00    -0.000 C 
BRANCH  27  28
ATOM     28  C   UNL     1     176.704 184.906 197.251  1.00  0.00    -0.000 C 
BRANCH  28  29
ATOM     29  C   UNL     1     175.997 186.207 197.687  1.00  0.00    -0.000 C 
BRANCH  29  30
ATOM     30  C   UNL     1     175.131 186.853 196.588  1.00  0.00    -0.000 C 
BRANCH  30  31
ATOM     31  C   UNL     1     173.613 186.757 196.813  1.00  0.00    -0.003 C 
ATOM     32  C   UNL     1     172.853 186.293 195.570  1.00  0.00     0.004 C 
ENDBRANCH  30  31
ENDBRANCH  29  30
ENDBRANCH  28  29
ENDBRANCH  27  28
ENDBRANCH  26  27
ENDBRANCH  25  26
ENDBRANCH  24  25
ENDBRANCH  23  24
ENDBRANCH  22  23
ENDBRANCH  21  22
ENDBRANCH  20  21
ENDBRANCH  19  20
ENDBRANCH  18  19
ENDBRANCH   1  18
TORSDOF 28
ENDMDL
MODEL 7
REMARK VINA RESULT:    -1.007      1.916      5.253
REMARK INTER + INTRA:          -9.223
REMARK INTER:                  -2.283
REMARK INTRA:                  -6.940
REMARK UNBOUND:                -6.569
REMARK SMILES CCCCCCCCCCCCCCCCCCCCCCCCCCCCCC(=O)[O-]
REMARK SMILES IDX 16 1 17 2 18 3 19 4 20 5 21 6 22 7 23 8 24 9 25 10 26 11
REMARK SMILES IDX 27 12 28 13 29 14 30 15 31 16 32 17 15 18 14 19 13 20 12 21
REMARK SMILES IDX 11 22 10 23 9 24 8 25 7 26 6 27 5 28 4 29 3 30 2 31 1 32
REMARK H PARENT
REMARK Flexibility Score: inf
ROOT
ATOM      1  C   UNL     1     177.658 179.662 196.647  1.00  0.00     0.000 C 
ENDROOT
BRANCH   1   2
ATOM      2  C   UNL     1     176.666 180.585 197.372  1.00  0.00     0.000 C 
BRANCH   2   3
ATOM      3  C   UNL     1     175.801 179.837 198.399  1.00  0.00     0.000 C 
BRANCH   3   4
ATOM      4  C   UNL     1     176.615 178.869 199.275  1.00  0.00     0.000 C 
BRANCH   4   5
ATOM      5  C   UNL     1     175.943 177.497 199.482  1.00  0.00     0.000 C 
BRANCH   5   6
ATOM      6  C   UNL     1     174.646 177.353 198.663  1.00  0.00     0.000 C 
BRANCH   6   7
ATOM      7  C   UNL     1     173.395 177.265 199.555  1.00  0.00     0.000 C 
BRANCH   7   8
ATOM      8  C   UNL     1     172.369 178.363 199.231  1.00  0.00     0.000 C 
BRANCH   8   9
ATOM      9  C   UNL     1     172.574 179.640 200.064  1.00  0.00     0.000 C 
BRANCH   9  10
ATOM     10  C   UNL     1     171.827 180.882 199.542  1.00  0.00     0.000 C 
BRANCH  10  11
ATOM     11  C   UNL     1     172.761 181.916 198.893  1.00  0.00     0.000 C 
BRANCH  11  12
ATOM     12  C   UNL     1     171.981 182.855 197.960  1.00  0.00     0.000 C 
BRANCH  12  13
ATOM     13  C   UNL     1     172.900 183.782 197.147  1.00  0.00     0.006 C 
BRANCH  13  14
ATOM     14  C   UNL     1     174.390 183.494 197.381  1.00  0.00     0.053 C 
BRANCH  14  15
ATOM     15  C   UNL     1     175.075 184.681 197.981  1.00  0.00     0.041 C 
ATOM     16  O   UNL     1     175.902 185.346 197.305  1.00  0.00    -0.550 OA
ATOM     17  O   UNL     1     174.774 185.077 199.278  1.00  0.00    -0.550 OA
ENDBRANCH  14  15
ENDBRANCH  13  14
ENDBRANCH  12  13
ENDBRANCH  11  12
ENDBRANCH  10  11
ENDBRANCH   9  10
ENDBRANCH   8   9
ENDBRANCH   7   8
ENDBRANCH   6   7
ENDBRANCH   5   6
ENDBRANCH   4   5
ENDBRANCH   3   4
ENDBRANCH   2   3
ENDBRANCH   1   2
BRANCH   1  18
ATOM     18  C   UNL     1     177.031 178.951 195.434  1.00  0.00     0.000 C 
BRANCH  18  19
ATOM     19  C   UNL     1     176.865 177.440 195.661  1.00  0.00     0.000 C 
BRANCH  19  20
ATOM     20  C   UNL     1     175.558 176.889 195.067  1.00  0.00     0.000 C 
BRANCH  20  21
ATOM     21  C   UNL     1     174.963 177.824 193.996  1.00  0.00     0.000 C 
BRANCH  21  22
ATOM     22  C   UNL     1     173.457 178.088 194.189  1.00  0.00     0.000 C 
BRANCH  22  23
ATOM     23  C   UNL     1     173.130 178.595 195.606  1.00  0.00     0.000 C 
BRANCH  23  24
ATOM     24  C   UNL     1     173.325 180.119 195.756  1.00  0.00    -0.000 C 
BRANCH  24  25
ATOM     25  C   UNL     1     172.594 180.958 194.690  1.00  0.00    -0.000 C 
BRANCH  25  26
ATOM     26  C   UNL     1     173.465 181.996 193.963  1.00  0.00    -0.000 C 
BRANCH  26  27
ATOM     27  C   UNL     1     174.957 181.631 193.962  1.00  0.00    -0.000 C 
BRANCH  27  28
ATOM     28  C   UNL     1     175.832 182.892 194.027  1.00  0.00    -0.000 C 
BRANCH  28  29
ATOM     29  C   UNL     1     177.311 182.574 194.331  1.00  0.00    -0.000 C 
BRANCH  29  30
ATOM     30  C   UNL     1     178.080 183.729 195.004  1.00  0.00    -0.000 C 
BRANCH  30  31
ATOM     31  C   UNL     1     178.709 183.388 196.365  1.00  0.00    -0.003 C 
ATOM     32  C   UNL     1     180.065 182.692 196.239  1.00  0.00     0.004 C 
ENDBRANCH  30  31
ENDBRANCH  29  30
ENDBRANCH  28  29
ENDBRANCH  27  28
ENDBRANCH  26  27
ENDBRANCH  25  26
ENDBRANCH  24  25
ENDBRANCH  23  24
ENDBRANCH  22  23
ENDBRANCH  21  22
ENDBRANCH  20  21
ENDBRANCH  19  20
ENDBRANCH  18  19
ENDBRANCH   1  18
TORSDOF 28
ENDMDL
MODEL 8
REMARK VINA RESULT:    -0.998      3.643      7.368
REMARK INTER + INTRA:          -9.201
REMARK INTER:                  -2.173
REMARK INTRA:                  -7.028
REMARK UNBOUND:                -6.569
REMARK SMILES CCCCCCCCCCCCCCCCCCCCCCCCCCCCCC(=O)[O-]
REMARK SMILES IDX 16 1 17 2 18 3 19 4 20 5 21 6 22 7 23 8 24 9 25 10 26 11
REMARK SMILES IDX 27 12 28 13 29 14 30 15 31 16 32 17 15 18 14 19 13 20 12 21
REMARK SMILES IDX 11 22 10 23 9 24 8 25 7 26 6 27 5 28 4 29 3 30 2 31 1 32
REMARK H PARENT
REMARK Flexibility Score: inf
ROOT
ATOM      1  C   UNL     1     176.850 183.770 193.331  1.00  0.00     0.000 C 
ENDROOT
BRANCH   1   2
ATOM      2  C   UNL     1     176.123 182.447 193.048  1.00  0.00     0.000 C 
BRANCH   2   3
ATOM      3  C   UNL     1     176.912 181.220 193.534  1.00  0.00     0.000 C 
BRANCH   3   4
ATOM      4  C   UNL     1     176.025 179.981 193.742  1.00  0.00     0.000 C 
BRANCH   4   5
ATOM      5  C   UNL     1     176.537 179.021 194.835  1.00  0.00     0.000 C 
BRANCH   5   6
ATOM      6  C   UNL     1     177.377 179.748 195.903  1.00  0.00     0.000 C 
BRANCH   6   7
ATOM      7  C   UNL     1     177.462 178.958 197.221  1.00  0.00     0.000 C 
BRANCH   7   8
ATOM      8  C   UNL     1     176.132 178.964 197.992  1.00  0.00     0.000 C 
BRANCH   8   9
ATOM      9  C   UNL     1     175.523 177.560 198.149  1.00  0.00     0.000 C 
BRANCH   9  10
ATOM     10  C   UNL     1     174.086 177.413 197.615  1.00  0.00     0.000 C 
BRANCH  10  11
ATOM     11  C   UNL     1     173.454 178.755 197.212  1.00  0.00     0.000 C 
BRANCH  11  12
ATOM     12  C   UNL     1     172.954 178.716 195.760  1.00  0.00     0.000 C 
BRANCH  12  13
ATOM     13  C   UNL     1     173.191 177.354 195.088  1.00  0.00     0.006 C 
BRANCH  13  14
ATOM     14  C   UNL     1     172.217 177.085 193.932  1.00  0.00     0.053 C 
BRANCH  14  15
ATOM     15  C   UNL     1     172.928 177.123 192.615  1.00  0.00     0.041 C 
ATOM     16  O   UNL     1     174.183 177.207 192.573  1.00  0.00    -0.550 OA
ATOM     17  O   UNL     1     172.207 177.028 191.432  1.00  0.00    -0.550 OA
ENDBRANCH  14  15
ENDBRANCH  13  14
ENDBRANCH  12  13
ENDBRANCH  11  12
ENDBRANCH  10  11
ENDBRANCH   9  10
ENDBRANCH   8   9
ENDBRANCH   7   8
ENDBRANCH   6   7
ENDBRANCH   5   6
ENDBRANCH   4   5
ENDBRANCH   3   4
ENDBRANCH   2   3
ENDBRANCH   1   2
BRANCH   1  18
ATOM     18  C   UNL     1     177.583 183.768 194.685  1.00  0.00     0.000 C 
BRANCH  18  19
ATOM     19  C   UNL     1     176.681 184.227 195.842  1.00  0.00     0.000 C 
BRANCH  19  20
ATOM     20  C   UNL     1     176.676 183.239 197.020  1.00  0.00     0.000 C 
BRANCH  20  21
ATOM     21  C   UNL     1     175.247 182.874 197.471  1.00  0.00     0.000 C 
BRANCH  21  22
ATOM     22  C   UNL     1     174.472 182.051 196.423  1.00  0.00     0.000 C 
BRANCH  22  23
ATOM     23  C   UNL     1     173.106 182.677 196.082  1.00  0.00     0.000 C 
BRANCH  23  24
ATOM     24  C   UNL     1     173.109 183.416 194.728  1.00  0.00    -0.000 C 
BRANCH  24  25
ATOM     25  C   UNL     1     172.249 182.746 193.639  1.00  0.00    -0.000 C 
BRANCH  25  26
ATOM     26  C   UNL     1     172.554 181.261 193.386  1.00  0.00    -0.000 C 
BRANCH  26  27
ATOM     27  C   UNL     1     171.539 180.591 192.448  1.00  0.00    -0.000 C 
BRANCH  27  28
ATOM     28  C   UNL     1     172.061 180.561 191.003  1.00  0.00    -0.000 C 
BRANCH  28  29
ATOM     29  C   UNL     1     173.589 180.360 190.928  1.00  0.00    -0.000 C 
BRANCH  29  30
ATOM     30  C   UNL     1     174.323 181.418 190.080  1.00  0.00    -0.000 C 
BRANCH  30  31
ATOM     31  C   UNL     1     173.487 182.654 189.712  1.00  0.00    -0.003 C 
ATOM     32  C   UNL     1     173.849 183.888 190.539  1.00  0.00     0.004 C 
ENDBRANCH  30  31
ENDBRANCH  29  30
ENDBRANCH  28  29
ENDBRANCH  27  28
ENDBRANCH  26  27
ENDBRANCH  25  26
ENDBRANCH  24  25
ENDBRANCH  23  24
ENDBRANCH  22  23
ENDBRANCH  21  22
ENDBRANCH  20  21
ENDBRANCH  19  20
ENDBRANCH  18  19
ENDBRANCH   1  18
TORSDOF 28
ENDMDL
MODEL 9
REMARK VINA RESULT:    -0.983      2.949      6.147
REMARK INTER + INTRA:          -9.160
REMARK INTER:                  -2.095
REMARK INTRA:                  -7.064
REMARK UNBOUND:                -6.569
REMARK SMILES CCCCCCCCCCCCCCCCCCCCCCCCCCCCCC(=O)[O-]
REMARK SMILES IDX 16 1 17 2 18 3 19 4 20 5 21 6 22 7 23 8 24 9 25 10 26 11
REMARK SMILES IDX 27 12 28 13 29 14 30 15 31 16 32 17 15 18 14 19 13 20 12 21
REMARK SMILES IDX 11 22 10 23 9 24 8 25 7 26 6 27 5 28 4 29 3 30 2 31 1 32
REMARK H PARENT
REMARK Flexibility Score: inf
ROOT
ATOM      1  C   UNL     1     176.747 180.729 196.609  1.00  0.00     0.000 C 
ENDROOT
BRANCH   1   2
ATOM      2  C   UNL     1     177.219 179.932 197.835  1.00  0.00     0.000 C 
BRANCH   2   3
ATOM      3  C   UNL     1     176.257 180.052 199.027  1.00  0.00     0.000 C 
BRANCH   3   4
ATOM      4  C   UNL     1     176.137 178.749 199.834  1.00  0.00     0.000 C 
BRANCH   4   5
ATOM      5  C   UNL     1     174.702 178.436 200.308  1.00  0.00     0.000 C 
BRANCH   5   6
ATOM      6  C   UNL     1     173.701 179.534 199.901  1.00  0.00     0.000 C 
BRANCH   6   7
ATOM      7  C   UNL     1     172.633 179.021 198.920  1.00  0.00     0.000 C 
BRANCH   7   8
ATOM      8  C   UNL     1     172.930 177.595 198.426  1.00  0.00     0.000 C 
BRANCH   8   9
ATOM      9  C   UNL     1     173.335 177.547 196.943  1.00  0.00     0.000 C 
BRANCH   9  10
ATOM     10  C   UNL     1     174.822 177.239 196.686  1.00  0.00     0.000 C 
BRANCH  10  11
ATOM     11  C   UNL     1     175.282 177.631 195.272  1.00  0.00     0.000 C 
BRANCH  11  12
ATOM     12  C   UNL     1     174.082 177.794 194.327  1.00  0.00     0.000 C 
BRANCH  12  13
ATOM     13  C   UNL     1     173.986 179.207 193.729  1.00  0.00     0.006 C 
BRANCH  13  14
ATOM     14  C   UNL     1     172.733 179.964 194.193  1.00  0.00     0.053 C 
BRANCH  14  15
ATOM     15  C   UNL     1     172.424 181.101 193.270  1.00  0.00     0.041 C 
ATOM     16  O   UNL     1     173.350 181.823 192.819  1.00  0.00    -0.550 OA
ATOM     17  O   UNL     1     171.114 181.341 192.876  1.00  0.00    -0.550 OA
ENDBRANCH  14  15
ENDBRANCH  13  14
ENDBRANCH  12  13
ENDBRANCH  11  12
ENDBRANCH  10  11
ENDBRANCH   9  10
ENDBRANCH   8   9
ENDBRANCH   7   8
ENDBRANCH   6   7
ENDBRANCH   5   6
ENDBRANCH   4   5
ENDBRANCH   3   4
ENDBRANCH   2   3
ENDBRANCH   1   2
BRANCH   1  18
ATOM     18  C   UNL     1     175.271 181.156 196.710  1.00  0.00     0.000 C 
BRANCH  18  19
ATOM     19  C   UNL     1     174.988 182.467 195.959  1.00  0.00     0.000 C 
BRANCH  19  20
ATOM     20  C   UNL     1     173.693 183.152 196.426  1.00  0.00     0.000 C 
BRANCH  20  21
ATOM     21  C   UNL     1     172.729 182.169 197.119  1.00  0.00     0.000 C 
BRANCH  21  22
ATOM     22  C   UNL     1     172.095 182.742 198.401  1.00  0.00     0.000 C 
BRANCH  22  23
ATOM     23  C   UNL     1     172.829 183.999 198.905  1.00  0.00     0.000 C 
BRANCH  23  24
ATOM     24  C   UNL     1     173.450 183.809 200.305  1.00  0.00    -0.000 C 
BRANCH  24  25
ATOM     25  C   UNL     1     174.827 183.119 200.298  1.00  0.00    -0.000 C 
BRANCH  25  26
ATOM     26  C   UNL     1     175.875 183.759 199.373  1.00  0.00    -0.000 C 
BRANCH  26  27
ATOM     27  C   UNL     1     177.317 183.383 199.750  1.00  0.00    -0.000 C 
BRANCH  27  28
ATOM     28  C   UNL     1     178.249 183.489 198.533  1.00  0.00    -0.000 C 
BRANCH  28  29
ATOM     29  C   UNL     1     177.739 184.496 197.480  1.00  0.00    -0.000 C 
BRANCH  29  30
ATOM     30  C   UNL     1     178.185 184.180 196.038  1.00  0.00    -0.000 C 
BRANCH  30  31
ATOM     31  C   UNL     1     179.374 183.213 195.920  1.00  0.00    -0.003 C 
ATOM     32  C   UNL     1     180.597 183.847 195.257  1.00  0.00     0.004 C 
ENDBRANCH  30  31
ENDBRANCH  29  30
ENDBRANCH  28  29
ENDBRANCH  27  28
ENDBRANCH  26  27
ENDBRANCH  25  26
ENDBRANCH  24  25
ENDBRANCH  23  24
ENDBRANCH  22  23
ENDBRANCH  21  22
ENDBRANCH  20  21
ENDBRANCH  19  20
ENDBRANCH  18  19
ENDBRANCH   1  18
TORSDOF 28
ENDMDL
