MODEL 1
REMARK VINA RESULT:    -2.188      0.000      0.000
REMARK INTER + INTRA:          -1.931
REMARK INTER:                  -3.339
REMARK INTRA:                   1.408
REMARK UNBOUND:                 1.408
REMARK SMILES CC1=CCC[C@@H](C)C(=O)C[C@H](C(C)C)C(=O)C1
REMARK SMILES IDX 8 1 9 2 6 3 7 4 5 5 4 6 3 7 2 8 1 9 10 11 11 12 15 13 16 14
REMARK SMILES IDX 17 15 12 17 13 18 14 19
REMARK H PARENT
REMARK Flexibility Score: 70.00
ROOT
ATOM      1  C   UNL     1       2.649  12.445  -7.794  1.00  0.00     0.136 C 
ATOM      2  O   UNL     1       2.437  11.934  -6.702  1.00  0.00    -0.299 OA
ENDROOT
BRANCH   1   3
ATOM      3  C   UNL     1       2.996  11.573  -8.992  1.00  0.00     0.053 C 
ATOM      4  C   UNL     1       2.156  10.287  -9.070  1.00  0.00     0.016 C 
BRANCH   3   5
ATOM      5  C   UNL     1       4.513  11.287  -9.116  1.00  0.00     0.015 C 
BRANCH   5   6
ATOM      6  C   UNL     1       5.497  12.305  -8.494  1.00  0.00     0.028 C 
BRANCH   6   7
ATOM      7  C   UNL     1       5.990  12.023  -7.094  1.00  0.00    -0.028 C 
ATOM      8  C   UNL     1       6.012  12.895  -6.060  1.00  0.00    -0.070 CG0
ATOM      9  C   UNL     1       6.760  12.471  -4.817  1.00  0.00     0.039 C 
ATOM     10  G   UNL     1       5.392  14.280  -6.118  1.00  0.00     0.000 G0
ENDBRANCH   6   7
ENDBRANCH   5   6
ENDBRANCH   3   5
ENDBRANCH   1   3
BRANCH   1  11
ATOM     11  C   UNL     1       2.442  13.932  -7.974  1.00  0.00     0.087 C 
BRANCH  11  12
ATOM     12  C   UNL     1       2.810  14.792  -6.733  1.00  0.00     0.066 C 
BRANCH  12  13
ATOM     13  C   UNL     1       3.904  14.219  -5.829  1.00  0.00     0.140 C 
ATOM     14  O   UNL     1       3.553  13.668  -4.795  1.00  0.00    -0.299 OA
BRANCH  13  15
ATOM     15  C   UNL     1       5.388  14.265  -6.128  1.00  0.00     0.106 CG0
ATOM     16  G   UNL     1       6.009  12.881  -6.065  1.00  0.00     0.000 G0
ENDBRANCH  13  15
ENDBRANCH  12  13
BRANCH  12  17
ATOM     17  C   UNL     1       3.165  16.266  -7.116  1.00  0.00    -0.006 C 
ATOM     18  C   UNL     1       4.252  16.354  -8.199  1.00  0.00     0.008 C 
ATOM     19  C   UNL     1       3.548  17.131  -5.902  1.00  0.00     0.008 C 
ENDBRANCH  12  17
ENDBRANCH  11  12
ENDBRANCH   1  11
TORSDOF 1
ENDMDL
MODEL 2
REMARK VINA RESULT:    -1.798      1.710      3.628
REMARK INTER + INTRA:          -1.335
REMARK INTER:                  -4.598
REMARK INTRA:                   3.262
REMARK UNBOUND:                 1.408
REMARK SMILES CC1=CCC[C@@H](C)C(=O)C[C@H](C(C)C)C(=O)C1
REMARK SMILES IDX 8 1 9 2 6 3 7 4 5 5 4 6 3 7 2 8 1 9 10 11 11 12 15 13 16 14
REMARK SMILES IDX 17 15 12 17 13 18 14 19
REMARK H PARENT
REMARK Flexibility Score: 70.00
ROOT
ATOM      1  C   UNL     1       5.460  14.590  -6.581  1.00  0.00     0.136 C 
ATOM      2  O   UNL     1       5.792  15.252  -5.606  1.00  0.00    -0.299 OA
ENDROOT
BRANCH   1   3
ATOM      3  C   UNL     1       5.663  13.083  -6.588  1.00  0.00     0.053 C 
ATOM      4  C   UNL     1       6.511  12.580  -5.407  1.00  0.00     0.016 C 
BRANCH   3   5
ATOM      5  C   UNL     1       6.179  12.545  -7.946  1.00  0.00     0.015 C 
BRANCH   5   6
ATOM      6  C   UNL     1       5.175  12.455  -9.119  1.00  0.00     0.028 C 
BRANCH   6   7
ATOM      7  C   UNL     1       4.099  11.399  -9.030  1.00  0.00    -0.028 C 
ATOM      8  C   UNL     1       3.024  11.414  -8.210  1.00  0.00    -0.070 CG0
ATOM      9  C   UNL     1       2.204  10.147  -8.124  1.00  0.00     0.039 C 
ATOM     10  G   UNL     1       2.653  12.600  -7.336  1.00  0.00     0.000 G0
ENDBRANCH   6   7
ENDBRANCH   5   6
ENDBRANCH   3   5
ENDBRANCH   1   3
BRANCH   1  11
ATOM     11  C   UNL     1       4.734  15.262  -7.725  1.00  0.00     0.087 C 
BRANCH  11  12
ATOM     12  C   UNL     1       3.183  15.206  -7.630  1.00  0.00     0.066 C 
BRANCH  12  13
ATOM     13  C   UNL     1       2.539  13.890  -8.070  1.00  0.00     0.140 C 
ATOM     14  O   UNL     1       1.920  13.887  -9.125  1.00  0.00    -0.299 OA
BRANCH  13  15
ATOM     15  C   UNL     1       2.626  12.584  -7.307  1.00  0.00     0.106 CG0
ATOM     16  G   UNL     1       3.034  11.437  -8.216  1.00  0.00     0.000 G0
ENDBRANCH  13  15
ENDBRANCH  12  13
BRANCH  12  17
ATOM     17  C   UNL     1       2.660  15.597  -6.209  1.00  0.00    -0.006 C 
ATOM     18  C   UNL     1       3.263  16.915  -5.696  1.00  0.00     0.008 C 
ATOM     19  C   UNL     1       2.849  14.481  -5.166  1.00  0.00     0.008 C 
ENDBRANCH  12  17
ENDBRANCH  11  12
ENDBRANCH   1  11
TORSDOF 1
ENDMDL
MODEL 3
REMARK VINA RESULT:    -1.562      1.855      4.224
REMARK INTER + INTRA:          -0.975
REMARK INTER:                  -3.205
REMARK INTRA:                   2.230
REMARK UNBOUND:                 1.408
REMARK SMILES CC1=CCC[C@@H](C)C(=O)C[C@H](C(C)C)C(=O)C1
REMARK SMILES IDX 8 1 9 2 6 3 7 4 5 5 4 6 3 7 2 8 1 9 10 11 11 12 15 13 16 14
REMARK SMILES IDX 17 15 12 17 13 18 14 19
REMARK H PARENT
REMARK Flexibility Score: 70.00
ROOT
ATOM      1  C   UNL     1       3.514  15.971  -7.789  1.00  0.00     0.136 C 
ATOM      2  O   UNL     1       4.239  16.631  -8.521  1.00  0.00    -0.299 OA
ENDROOT
BRANCH   1   3
ATOM      3  C   UNL     1       3.030  16.548  -6.467  1.00  0.00     0.053 C 
ATOM      4  C   UNL     1       3.633  17.928  -6.152  1.00  0.00     0.016 C 
BRANCH   3   5
ATOM      5  C   UNL     1       3.179  15.562  -5.282  1.00  0.00     0.015 C 
BRANCH   5   6
ATOM      6  C   UNL     1       3.037  14.051  -5.574  1.00  0.00     0.028 C 
BRANCH   6   7
ATOM      7  C   UNL     1       4.233  13.175  -5.285  1.00  0.00    -0.028 C 
ATOM      8  C   UNL     1       5.423  13.202  -5.928  1.00  0.00    -0.070 CG0
ATOM      9  C   UNL     1       6.395  12.083  -5.629  1.00  0.00     0.039 C 
ATOM     10  G   UNL     1       5.790  14.246  -6.968  1.00  0.00     0.000 G0
ENDBRANCH   6   7
ENDBRANCH   5   6
ENDBRANCH   3   5
ENDBRANCH   1   3
BRANCH   1  11
ATOM     11  C   UNL     1       3.000  14.630  -8.263  1.00  0.00     0.087 C 
BRANCH  11  12
ATOM     12  C   UNL     1       4.061  13.745  -8.975  1.00  0.00     0.066 C 
BRANCH  12  13
ATOM     13  C   UNL     1       5.468  13.782  -8.374  1.00  0.00     0.140 C 
ATOM     14  O   UNL     1       6.398  13.434  -9.088  1.00  0.00    -0.299 OA
BRANCH  13  15
ATOM     15  C   UNL     1       5.797  14.234  -6.966  1.00  0.00     0.106 CG0
ATOM     16  G   UNL     1       5.415  13.179  -5.943  1.00  0.00     0.000 G0
ENDBRANCH  13  15
ENDBRANCH  12  13
BRANCH  12  17
ATOM     17  C   UNL     1       3.593  12.260  -9.125  1.00  0.00    -0.006 C 
ATOM     18  C   UNL     1       2.455  11.896  -8.157  1.00  0.00     0.008 C 
ATOM     19  C   UNL     1       4.744  11.247  -9.002  1.00  0.00     0.008 C 
ENDBRANCH  12  17
ENDBRANCH  11  12
ENDBRANCH   1  11
TORSDOF 1
ENDMDL
MODEL 4
REMARK VINA RESULT:    -1.517      1.988      3.314
REMARK INTER + INTRA:          -0.907
REMARK INTER:                  -1.455
REMARK INTRA:                   0.548
REMARK UNBOUND:                 1.408
REMARK SMILES CC1=CCC[C@@H](C)C(=O)C[C@H](C(C)C)C(=O)C1
REMARK SMILES IDX 8 1 9 2 6 3 7 4 5 5 4 6 3 7 2 8 1 9 10 11 11 12 15 13 16 14
REMARK SMILES IDX 17 15 12 17 13 18 14 19
REMARK H PARENT
REMARK Flexibility Score: 70.00
ROOT
ATOM      1  C   UNL     1       3.871  12.001  -6.616  1.00  0.00     0.136 C 
ATOM      2  O   UNL     1       3.235  11.228  -7.319  1.00  0.00    -0.299 OA
ENDROOT
BRANCH   1   3
ATOM      3  C   UNL     1       5.392  11.984  -6.640  1.00  0.00     0.053 C 
ATOM      4  C   UNL     1       6.025  13.081  -5.768  1.00  0.00     0.016 C 
BRANCH   3   5
ATOM      5  C   UNL     1       5.977  11.969  -8.075  1.00  0.00     0.015 C 
BRANCH   5   6
ATOM      6  C   UNL     1       5.373  12.942  -9.114  1.00  0.00     0.028 C 
BRANCH   6   7
ATOM      7  C   UNL     1       5.520  14.421  -8.844  1.00  0.00    -0.028 C 
ATOM      8  C   UNL     1       4.538  15.349  -8.898  1.00  0.00    -0.070 CG0
ATOM      9  C   UNL     1       4.954  16.800  -8.819  1.00  0.00     0.039 C 
ATOM     10  G   UNL     1       3.072  15.007  -9.102  1.00  0.00     0.000 G0
ENDBRANCH   6   7
ENDBRANCH   5   6
ENDBRANCH   3   5
ENDBRANCH   1   3
BRANCH   1  11
ATOM     11  C   UNL     1       3.139  13.058  -5.819  1.00  0.00     0.087 C 
BRANCH  11  12
ATOM     12  C   UNL     1       3.162  14.478  -6.450  1.00  0.00     0.066 C 
BRANCH  12  13
ATOM     13  C   UNL     1       2.426  14.623  -7.784  1.00  0.00     0.140 C 
ATOM     14  O   UNL     1       1.220  14.420  -7.791  1.00  0.00    -0.299 OA
BRANCH  13  15
ATOM     15  C   UNL     1       3.077  15.017  -9.095  1.00  0.00     0.106 CG0
ATOM     16  G   UNL     1       4.547  15.349  -8.905  1.00  0.00     0.000 G0
ENDBRANCH  13  15
ENDBRANCH  12  13
BRANCH  12  17
ATOM     17  C   UNL     1       2.668  15.579  -5.456  1.00  0.00    -0.006 C 
ATOM     18  C   UNL     1       3.149  16.987  -5.842  1.00  0.00     0.008 C 
ATOM     19  C   UNL     1       3.026  15.275  -3.990  1.00  0.00     0.008 C 
ENDBRANCH  12  17
ENDBRANCH  11  12
ENDBRANCH   1  11
TORSDOF 1
ENDMDL
MODEL 5
REMARK VINA RESULT:    -1.494      1.790      3.842
REMARK INTER + INTRA:          -0.872
REMARK INTER:                  -2.486
REMARK INTRA:                   1.614
REMARK UNBOUND:                 1.408
REMARK SMILES CC1=CCC[C@@H](C)C(=O)C[C@H](C(C)C)C(=O)C1
REMARK SMILES IDX 8 1 9 2 6 3 7 4 5 5 4 6 3 7 2 8 1 9 10 11 11 12 15 13 16 14
REMARK SMILES IDX 17 15 12 17 13 18 14 19
REMARK H PARENT
REMARK Flexibility Score: 70.00
ROOT
ATOM      1  C   UNL     1       3.481  15.298  -5.372  1.00  0.00     0.136 C 
ATOM      2  O   UNL     1       3.485  14.750  -4.278  1.00  0.00    -0.299 OA
ENDROOT
BRANCH   1   3
ATOM      3  C   UNL     1       2.165  15.630  -6.057  1.00  0.00     0.053 C 
ATOM      4  C   UNL     1       1.130  16.258  -5.108  1.00  0.00     0.016 C 
BRANCH   3   5
ATOM      5  C   UNL     1       1.576  14.440  -6.855  1.00  0.00     0.015 C 
BRANCH   5   6
ATOM      6  C   UNL     1       1.911  14.340  -8.361  1.00  0.00     0.028 C 
BRANCH   6   7
ATOM      7  C   UNL     1       2.621  13.093  -8.832  1.00  0.00    -0.028 C 
ATOM      8  C   UNL     1       3.495  12.348  -8.117  1.00  0.00    -0.070 CG0
ATOM      9  C   UNL     1       4.259  11.278  -8.861  1.00  0.00     0.039 C 
ATOM     10  G   UNL     1       3.788  12.583  -6.645  1.00  0.00     0.000 G0
ENDBRANCH   6   7
ENDBRANCH   5   6
ENDBRANCH   3   5
ENDBRANCH   1   3
BRANCH   1  11
ATOM     11  C   UNL     1       4.788  15.755  -5.981  1.00  0.00     0.087 C 
BRANCH  11  12
ATOM     12  C   UNL     1       5.526  14.673  -6.819  1.00  0.00     0.066 C 
BRANCH  12  13
ATOM     13  C   UNL     1       5.187  13.221  -6.474  1.00  0.00     0.140 C 
ATOM     14  O   UNL     1       6.078  12.527  -6.006  1.00  0.00    -0.299 OA
BRANCH  13  15
ATOM     15  C   UNL     1       3.824  12.584  -6.652  1.00  0.00     0.106 CG0
ATOM     16  G   UNL     1       3.504  12.361  -8.120  1.00  0.00     0.000 G0
ENDBRANCH  13  15
ENDBRANCH  12  13
BRANCH  12  17
ATOM     17  C   UNL     1       5.362  14.899  -8.357  1.00  0.00    -0.006 C 
ATOM     18  C   UNL     1       6.703  14.867  -9.108  1.00  0.00     0.008 C 
ATOM     19  C   UNL     1       4.588  16.184  -8.701  1.00  0.00     0.008 C 
ENDBRANCH  12  17
ENDBRANCH  11  12
ENDBRANCH   1  11
TORSDOF 1
ENDMDL
MODEL 6
REMARK VINA RESULT:    -1.401      1.744      4.167
REMARK INTER + INTRA:          -0.729
REMARK INTER:                  -1.926
REMARK INTRA:                   1.197
REMARK UNBOUND:                 1.408
REMARK SMILES CC1=CCC[C@@H](C)C(=O)C[C@H](C(C)C)C(=O)C1
REMARK SMILES IDX 8 1 9 2 6 3 7 4 5 5 4 6 3 7 2 8 1 9 10 11 11 12 15 13 16 14
REMARK SMILES IDX 17 15 12 17 13 18 14 19
REMARK H PARENT
REMARK Flexibility Score: 70.00
ROOT
ATOM      1  C   UNL     1       2.450  15.507  -6.184  1.00  0.00     0.136 C 
ATOM      2  O   UNL     1       1.750  15.855  -5.243  1.00  0.00    -0.299 OA
ENDROOT
BRANCH   1   3
ATOM      3  C   UNL     1       3.737  16.256  -6.498  1.00  0.00     0.053 C 
ATOM      4  C   UNL     1       4.098  17.310  -5.438  1.00  0.00     0.016 C 
BRANCH   3   5
ATOM      5  C   UNL     1       3.768  16.838  -7.933  1.00  0.00     0.015 C 
BRANCH   5   6
ATOM      6  C   UNL     1       3.907  15.849  -9.114  1.00  0.00     0.028 C 
BRANCH   6   7
ATOM      7  C   UNL     1       5.115  14.943  -9.119  1.00  0.00    -0.028 C 
ATOM      8  C   UNL     1       5.107  13.592  -9.060  1.00  0.00    -0.070 CG0
ATOM      9  C   UNL     1       6.435  12.902  -8.846  1.00  0.00     0.039 C 
ATOM     10  G   UNL     1       3.839  12.758  -9.126  1.00  0.00     0.000 G0
ENDBRANCH   6   7
ENDBRANCH   5   6
ENDBRANCH   3   5
ENDBRANCH   1   3
BRANCH   1  11
ATOM     11  C   UNL     1       2.095  14.256  -6.956  1.00  0.00     0.087 C 
BRANCH  11  12
ATOM     12  C   UNL     1       2.942  13.005  -6.588  1.00  0.00     0.066 C 
BRANCH  12  13
ATOM     13  C   UNL     1       3.475  12.193  -7.770  1.00  0.00     0.140 C 
ATOM     14  O   UNL     1       3.603  10.987  -7.617  1.00  0.00    -0.299 OA
BRANCH  13  15
ATOM     15  C   UNL     1       3.839  12.770  -9.123  1.00  0.00     0.106 CG0
ATOM     16  G   UNL     1       5.117  13.588  -9.050  1.00  0.00     0.000 G0
ENDBRANCH  13  15
ENDBRANCH  12  13
BRANCH  12  17
ATOM     17  C   UNL     1       4.116  13.349  -5.614  1.00  0.00    -0.006 C 
ATOM     18  C   UNL     1       5.376  12.510  -5.884  1.00  0.00     0.008 C 
ATOM     19  C   UNL     1       3.719  13.256  -4.130  1.00  0.00     0.008 C 
ENDBRANCH  12  17
ENDBRANCH  11  12
ENDBRANCH   1  11
TORSDOF 1
ENDMDL
MODEL 7
REMARK VINA RESULT:    -1.246      1.750      3.378
REMARK INTER + INTRA:          -0.493
REMARK INTER:                  -2.862
REMARK INTRA:                   2.369
REMARK UNBOUND:                 1.408
REMARK SMILES CC1=CCC[C@@H](C)C(=O)C[C@H](C(C)C)C(=O)C1
REMARK SMILES IDX 8 1 9 2 6 3 7 4 5 5 4 6 3 7 2 8 1 9 10 11 11 12 15 13 16 14
REMARK SMILES IDX 17 15 12 17 13 18 14 19
REMARK H PARENT
REMARK Flexibility Score: 70.00
ROOT
ATOM      1  C   UNL     1       5.997  13.352  -6.478  1.00  0.00     0.136 C 
ATOM      2  O   UNL     1       6.108  12.605  -5.514  1.00  0.00    -0.299 OA
ENDROOT
BRANCH   1   3
ATOM      3  C   UNL     1       6.202  12.818  -7.887  1.00  0.00     0.053 C 
ATOM      4  C   UNL     1       5.724  13.790  -8.979  1.00  0.00     0.016 C 
BRANCH   3   5
ATOM      5  C   UNL     1       5.630  11.392  -8.086  1.00  0.00     0.015 C 
BRANCH   5   6
ATOM      6  C   UNL     1       4.221  11.256  -8.708  1.00  0.00     0.028 C 
BRANCH   6   7
ATOM      7  C   UNL     1       3.523  12.529  -9.125  1.00  0.00    -0.028 C 
ATOM      8  C   UNL     1       2.642  13.241  -8.385  1.00  0.00    -0.070 CG0
ATOM      9  C   UNL     1       1.893  14.351  -9.085  1.00  0.00     0.039 C 
ATOM     10  G   UNL     1       2.329  12.935  -6.931  1.00  0.00     0.000 G0
ENDBRANCH   6   7
ENDBRANCH   5   6
ENDBRANCH   3   5
ENDBRANCH   1   3
BRANCH   1  11
ATOM     11  C   UNL     1       5.533  14.776  -6.267  1.00  0.00     0.087 C 
BRANCH  11  12
ATOM     12  C   UNL     1       4.002  14.990  -6.431  1.00  0.00     0.066 C 
BRANCH  12  13
ATOM     13  C   UNL     1       3.118  13.821  -5.991  1.00  0.00     0.140 C 
ATOM     14  O   UNL     1       3.032  13.596  -4.792  1.00  0.00    -0.299 OA
BRANCH  13  15
ATOM     15  C   UNL     1       2.326  12.932  -6.928  1.00  0.00     0.106 CG0
ATOM     16  G   UNL     1       2.635  13.245  -8.381  1.00  0.00     0.000 G0
ENDBRANCH  13  15
ENDBRANCH  12  13
BRANCH  12  17
ATOM     17  C   UNL     1       3.509  16.308  -5.749  1.00  0.00    -0.006 C 
ATOM     18  C   UNL     1       2.008  16.280  -5.418  1.00  0.00     0.008 C 
ATOM     19  C   UNL     1       3.855  17.572  -6.554  1.00  0.00     0.008 C 
ENDBRANCH  12  17
ENDBRANCH  11  12
ENDBRANCH   1  11
TORSDOF 1
ENDMDL
MODEL 8
REMARK VINA RESULT:    -1.116      2.202      3.210
REMARK INTER + INTRA:          -0.295
REMARK INTER:                  -0.597
REMARK INTRA:                   0.302
REMARK UNBOUND:                 1.408
REMARK SMILES CC1=CCC[C@@H](C)C(=O)C[C@H](C(C)C)C(=O)C1
REMARK SMILES IDX 8 1 9 2 6 3 7 4 5 5 4 6 3 7 2 8 1 9 10 11 11 12 15 13 16 14
REMARK SMILES IDX 17 15 12 17 13 18 14 19
REMARK H PARENT
REMARK Flexibility Score: 70.00
ROOT
ATOM      1  C   UNL     1       5.135  14.855  -8.181  1.00  0.00     0.136 C 
ATOM      2  O   UNL     1       5.247  15.643  -9.110  1.00  0.00    -0.299 OA
ENDROOT
BRANCH   1   3
ATOM      3  C   UNL     1       5.421  13.376  -8.394  1.00  0.00     0.053 C 
ATOM      4  C   UNL     1       6.789  13.111  -9.046  1.00  0.00     0.016 C 
BRANCH   3   5
ATOM      5  C   UNL     1       4.274  12.633  -9.125  1.00  0.00     0.015 C 
BRANCH   5   6
ATOM      6  C   UNL     1       3.355  11.716  -8.285  1.00  0.00     0.028 C 
BRANCH   6   7
ATOM      7  C   UNL     1       3.323  11.946  -6.793  1.00  0.00    -0.028 C 
ATOM      8  C   UNL     1       2.762  12.998  -6.154  1.00  0.00    -0.070 CG0
ATOM      9  C   UNL     1       3.049  13.141  -4.677  1.00  0.00     0.039 C 
ATOM     10  G   UNL     1       1.930  14.058  -6.855  1.00  0.00     0.000 G0
ENDBRANCH   6   7
ENDBRANCH   5   6
ENDBRANCH   3   5
ENDBRANCH   1   3
BRANCH   1  11
ATOM     11  C   UNL     1       4.833  15.376  -6.794  1.00  0.00     0.087 C 
BRANCH  11  12
ATOM     12  C   UNL     1       3.539  16.230  -6.691  1.00  0.00     0.066 C 
BRANCH  12  13
ATOM     13  C   UNL     1       2.262  15.462  -6.343  1.00  0.00     0.140 C 
ATOM     14  O   UNL     1       1.441  16.020  -5.629  1.00  0.00    -0.299 OA
BRANCH  13  15
ATOM     15  C   UNL     1       1.929  14.067  -6.833  1.00  0.00     0.106 CG0
ATOM     16  G   UNL     1       2.787  13.020  -6.144  1.00  0.00     0.000 G0
ENDBRANCH  13  15
ENDBRANCH  12  13
BRANCH  12  17
ATOM     17  C   UNL     1       3.704  17.443  -5.717  1.00  0.00    -0.006 C 
ATOM     18  C   UNL     1       3.821  18.786  -6.455  1.00  0.00     0.008 C 
ATOM     19  C   UNL     1       4.871  17.272  -4.729  1.00  0.00     0.008 C 
ENDBRANCH  12  17
ENDBRANCH  11  12
ENDBRANCH   1  11
TORSDOF 1
ENDMDL
MODEL 9
REMARK VINA RESULT:    -0.841      1.749      4.412
REMARK INTER + INTRA:           0.125
REMARK INTER:                  -0.770
REMARK INTRA:                   0.895
REMARK UNBOUND:                 1.408
REMARK SMILES CC1=CCC[C@@H](C)C(=O)C[C@H](C(C)C)C(=O)C1
REMARK SMILES IDX 8 1 9 2 6 3 7 4 5 5 4 6 3 7 2 8 1 9 10 11 11 12 15 13 16 14
REMARK SMILES IDX 17 15 12 17 13 18 14 19
REMARK H PARENT
REMARK Flexibility Score: 70.00
ROOT
ATOM      1  C   UNL     1       3.469  15.041  -5.289  1.00  0.00     0.136 C 
ATOM      2  O   UNL     1       3.638  15.531  -4.181  1.00  0.00    -0.299 OA
ENDROOT
BRANCH   1   3
ATOM      3  C   UNL     1       3.442  15.930  -6.523  1.00  0.00     0.053 C 
ATOM      4  C   UNL     1       3.330  17.427  -6.188  1.00  0.00     0.016 C 
BRANCH   3   5
ATOM      5  C   UNL     1       2.390  15.487  -7.570  1.00  0.00     0.015 C 
BRANCH   5   6
ATOM      6  C   UNL     1       2.890  14.743  -8.830  1.00  0.00     0.028 C 
BRANCH   6   7
ATOM      7  C   UNL     1       2.740  13.240  -8.851  1.00  0.00    -0.028 C 
ATOM      8  C   UNL     1       3.741  12.332  -8.790  1.00  0.00    -0.070 CG0
ATOM      9  C   UNL     1       3.381  10.889  -9.059  1.00  0.00     0.039 C 
ATOM     10  G   UNL     1       5.193  12.701  -8.539  1.00  0.00     0.000 G0
ENDBRANCH   6   7
ENDBRANCH   5   6
ENDBRANCH   3   5
ENDBRANCH   1   3
BRANCH   1  11
ATOM     11  C   UNL     1       3.413  13.537  -5.438  1.00  0.00     0.087 C 
BRANCH  11  12
ATOM     12  C   UNL     1       4.756  12.877  -5.862  1.00  0.00     0.066 C 
BRANCH  12  13
ATOM     13  C   UNL     1       5.355  13.377  -7.178  1.00  0.00     0.140 C 
ATOM     14  O   UNL     1       6.026  14.399  -7.143  1.00  0.00    -0.299 OA
BRANCH  13  15
ATOM     15  C   UNL     1       5.194  12.691  -8.519  1.00  0.00     0.106 CG0
ATOM     16  G   UNL     1       3.743  12.335  -8.788  1.00  0.00     0.000 G0
ENDBRANCH  13  15
ENDBRANCH  12  13
BRANCH  12  17
ATOM     17  C   UNL     1       5.835  12.950  -4.732  1.00  0.00    -0.006 C 
ATOM     18  C   UNL     1       7.126  12.198  -5.096  1.00  0.00     0.008 C 
ATOM     19  C   UNL     1       5.311  12.482  -3.363  1.00  0.00     0.008 C 
ENDBRANCH  12  17
ENDBRANCH  11  12
ENDBRANCH   1  11
TORSDOF 1
ENDMDL
