MODEL 1
REMARK VINA RESULT:    -4.776      0.000      0.000
REMARK INTER + INTRA:          -6.998
REMARK INTER:                  -6.731
REMARK INTRA:                  -0.267
REMARK UNBOUND:                -0.267
REMARK SMILES CCCCCCCCC(=O)[O-]
REMARK SMILES IDX 6 1 7 2 8 3 9 4 10 5 11 6 5 7 4 8 3 9 2 10 1 11
REMARK H PARENT
REMARK Flexibility Score: inf
ROOT
ATOM      1  C   UNL     1      -0.014  -0.243  -0.242  1.00  0.00     0.000 C 
ENDROOT
BRANCH   1   2
ATOM      2  C   UNL     1      -0.534  -1.406  -1.104  1.00  0.00     0.006 C 
BRANCH   2   3
ATOM      3  C   UNL     1      -1.963  -1.160  -1.605  1.00  0.00     0.053 C 
BRANCH   3   4
ATOM      4  C   UNL     1      -2.950  -2.078  -0.949  1.00  0.00     0.041 C 
ATOM      5  O   UNL     1      -3.966  -1.610  -0.373  1.00  0.00    -0.550 OA
ATOM      6  O   UNL     1      -2.760  -3.453  -1.001  1.00  0.00    -0.550 OA
ENDBRANCH   3   4
ENDBRANCH   2   3
ENDBRANCH   1   2
BRANCH   1   7
ATOM      7  C   UNL     1       0.469   0.949  -1.084  1.00  0.00     0.000 C 
BRANCH   7   8
ATOM      8  C   UNL     1       1.939   0.811  -1.515  1.00  0.00    -0.000 C 
BRANCH   8   9
ATOM      9  C   UNL     1       2.812   1.975  -1.015  1.00  0.00    -0.000 C 
BRANCH   9  10
ATOM     10  C   UNL     1       1.992   3.228  -0.677  1.00  0.00    -0.003 C 
ATOM     11  C   UNL     1       2.902   4.395  -0.305  1.00  0.00     0.004 C 
ENDBRANCH   9  10
ENDBRANCH   8   9
ENDBRANCH   7   8
ENDBRANCH   1   7
TORSDOF 7
ENDMDL
MODEL 2
REMARK VINA RESULT:    -4.766      3.569      6.495
REMARK INTER + INTRA:          -6.984
REMARK INTER:                  -6.662
REMARK INTRA:                  -0.322
REMARK UNBOUND:                -0.267
REMARK SMILES CCCCCCCCC(=O)[O-]
REMARK SMILES IDX 6 1 7 2 8 3 9 4 10 5 11 6 5 7 4 8 3 9 2 10 1 11
REMARK H PARENT
REMARK Flexibility Score: inf
ROOT
ATOM      1  C   UNL     1       0.008  -0.264  -0.239  1.00  0.00     0.000 C 
ENDROOT
BRANCH   1   2
ATOM      2  C   UNL     1       0.350   0.980  -1.079  1.00  0.00     0.006 C 
BRANCH   2   3
ATOM      3  C   UNL     1       1.759   0.900  -1.681  1.00  0.00     0.053 C 
BRANCH   3   4
ATOM      4  C   UNL     1       2.739   1.741  -0.920  1.00  0.00     0.041 C 
ATOM      5  O   UNL     1       3.740   1.209  -0.372  1.00  0.00    -0.550 OA
ATOM      6  O   UNL     1       2.560   3.116  -0.842  1.00  0.00    -0.550 OA
ENDBRANCH   3   4
ENDBRANCH   2   3
ENDBRANCH   1   2
BRANCH   1   7
ATOM      7  C   UNL     1      -0.569  -1.410  -1.086  1.00  0.00     0.000 C 
BRANCH   7   8
ATOM      8  C   UNL     1      -1.958  -1.079  -1.660  1.00  0.00    -0.000 C 
BRANCH   8   9
ATOM      9  C   UNL     1      -2.991  -2.183  -1.378  1.00  0.00    -0.000 C 
BRANCH   9  10
ATOM     10  C   UNL     1      -2.504  -3.198  -0.333  1.00  0.00    -0.003 C 
ATOM     11  C   UNL     1      -2.957  -4.611  -0.687  1.00  0.00     0.004 C 
ENDBRANCH   9  10
ENDBRANCH   8   9
ENDBRANCH   7   8
ENDBRANCH   1   7
TORSDOF 7
ENDMDL
MODEL 3
REMARK VINA RESULT:    -4.679      3.601      6.657
REMARK INTER + INTRA:          -6.862
REMARK INTER:                  -6.678
REMARK INTRA:                  -0.184
REMARK UNBOUND:                -0.267
REMARK SMILES CCCCCCCCC(=O)[O-]
REMARK SMILES IDX 6 1 7 2 8 3 9 4 10 5 11 6 5 7 4 8 3 9 2 10 1 11
REMARK H PARENT
REMARK Flexibility Score: inf
ROOT
ATOM      1  C   UNL     1      -0.412  -0.474  -0.661  1.00  0.00     0.000 C 
ENDROOT
BRANCH   1   2
ATOM      2  C   UNL     1       0.246   0.898  -0.892  1.00  0.00     0.006 C 
BRANCH   2   3
ATOM      3  C   UNL     1       1.611   0.776  -1.580  1.00  0.00     0.053 C 
BRANCH   3   4
ATOM      4  C   UNL     1       2.628   1.691  -0.969  1.00  0.00     0.041 C 
ATOM      5  O   UNL     1       2.486   2.940  -1.047  1.00  0.00    -0.550 OA
ATOM      6  O   UNL     1       3.716   1.163  -0.286  1.00  0.00    -0.550 OA
ENDBRANCH   3   4
ENDBRANCH   2   3
ENDBRANCH   1   2
BRANCH   1   7
ATOM      7  C   UNL     1      -1.563  -0.752  -1.641  1.00  0.00     0.000 C 
BRANCH   7   8
ATOM      8  C   UNL     1      -2.792  -1.368  -0.951  1.00  0.00    -0.000 C 
BRANCH   8   9
ATOM      9  C   UNL     1      -3.053  -2.817  -1.394  1.00  0.00    -0.000 C 
BRANCH   9  10
ATOM     10  C   UNL     1      -2.626  -3.846  -0.336  1.00  0.00    -0.003 C 
ATOM     11  C   UNL     1      -3.066  -5.253  -0.732  1.00  0.00     0.004 C 
ENDBRANCH   9  10
ENDBRANCH   8   9
ENDBRANCH   7   8
ENDBRANCH   1   7
TORSDOF 7
ENDMDL
MODEL 4
REMARK VINA RESULT:    -4.553      3.766      6.523
REMARK INTER + INTRA:          -6.684
REMARK INTER:                  -6.474
REMARK INTRA:                  -0.210
REMARK UNBOUND:                -0.267
REMARK SMILES CCCCCCCCC(=O)[O-]
REMARK SMILES IDX 6 1 7 2 8 3 9 4 10 5 11 6 5 7 4 8 3 9 2 10 1 11
REMARK H PARENT
REMARK Flexibility Score: inf
ROOT
ATOM      1  C   UNL     1       1.575   0.427  -1.503  1.00  0.00     0.000 C 
ENDROOT
BRANCH   1   2
ATOM      2  C   UNL     1       2.574   1.236  -0.656  1.00  0.00     0.006 C 
BRANCH   2   3
ATOM      3  C   UNL     1       2.934   2.576  -1.310  1.00  0.00     0.053 C 
BRANCH   3   4
ATOM      4  C   UNL     1       2.588   3.737  -0.428  1.00  0.00     0.041 C 
ATOM      5  O   UNL     1       3.498   4.463   0.051  1.00  0.00    -0.550 OA
ATOM      6  O   UNL     1       1.257   4.033  -0.161  1.00  0.00    -0.550 OA
ENDBRANCH   3   4
ENDBRANCH   2   3
ENDBRANCH   1   2
BRANCH   1   7
ATOM      7  C   UNL     1       0.155   0.441  -0.917  1.00  0.00     0.000 C 
BRANCH   7   8
ATOM      8  C   UNL     1      -0.528  -0.936  -0.987  1.00  0.00    -0.000 C 
BRANCH   8   9
ATOM      9  C   UNL     1      -1.861  -0.896  -1.752  1.00  0.00    -0.000 C 
BRANCH   9  10
ATOM     10  C   UNL     1      -3.001  -1.590  -0.993  1.00  0.00    -0.003 C 
ATOM     11  C   UNL     1      -2.824  -3.105  -1.002  1.00  0.00     0.004 C 
ENDBRANCH   9  10
ENDBRANCH   8   9
ENDBRANCH   7   8
ENDBRANCH   1   7
TORSDOF 7
ENDMDL
MODEL 5
REMARK VINA RESULT:    -4.452      1.330      2.121
REMARK INTER + INTRA:          -6.541
REMARK INTER:                  -6.327
REMARK INTRA:                  -0.214
REMARK UNBOUND:                -0.267
REMARK SMILES CCCCCCCCC(=O)[O-]
REMARK SMILES IDX 6 1 7 2 8 3 9 4 10 5 11 6 5 7 4 8 3 9 2 10 1 11
REMARK H PARENT
REMARK Flexibility Score: inf
ROOT
ATOM      1  C   UNL     1      -1.770  -0.657  -1.495  1.00  0.00     0.000 C 
ENDROOT
BRANCH   1   2
ATOM      2  C   UNL     1      -2.826  -1.520  -0.781  1.00  0.00     0.006 C 
BRANCH   2   3
ATOM      3  C   UNL     1      -3.024  -2.877  -1.468  1.00  0.00     0.053 C 
BRANCH   3   4
ATOM      4  C   UNL     1      -2.714  -4.018  -0.547  1.00  0.00     0.041 C 
ATOM      5  O   UNL     1      -3.640  -4.601   0.075  1.00  0.00    -0.550 OA
ATOM      6  O   UNL     1      -1.404  -4.455  -0.399  1.00  0.00    -0.550 OA
ENDBRANCH   3   4
ENDBRANCH   2   3
ENDBRANCH   1   2
BRANCH   1   7
ATOM      7  C   UNL     1      -0.406  -0.682  -0.787  1.00  0.00     0.000 C 
BRANCH   7   8
ATOM      8  C   UNL     1       0.349   0.652  -0.911  1.00  0.00    -0.000 C 
BRANCH   8   9
ATOM      9  C   UNL     1       1.634   0.528  -1.747  1.00  0.00    -0.000 C 
BRANCH   9  10
ATOM     10  C   UNL     1       2.841   1.206  -1.084  1.00  0.00    -0.003 C 
ATOM     11  C   UNL     1       2.629   2.713  -0.968  1.00  0.00     0.004 C 
ENDBRANCH   9  10
ENDBRANCH   8   9
ENDBRANCH   7   8
ENDBRANCH   1   7
TORSDOF 7
ENDMDL
MODEL 6
REMARK VINA RESULT:    -3.035     13.153     14.328
REMARK INTER + INTRA:          -4.544
REMARK INTER:                  -4.296
REMARK INTRA:                  -0.248
REMARK UNBOUND:                -0.267
REMARK SMILES CCCCCCCCC(=O)[O-]
REMARK SMILES IDX 6 1 7 2 8 3 9 4 10 5 11 6 5 7 4 8 3 9 2 10 1 11
REMARK H PARENT
REMARK Flexibility Score: inf
ROOT
ATOM      1  C   UNL     1       8.641   3.242   7.864  1.00  0.00     0.000 C 
ENDROOT
BRANCH   1   2
ATOM      2  C   UNL     1       9.531   1.986   7.868  1.00  0.00     0.006 C 
BRANCH   2   3
ATOM      3  C   UNL     1       9.740   1.430   9.282  1.00  0.00     0.053 C 
BRANCH   3   4
ATOM      4  C   UNL     1       9.229   0.027   9.410  1.00  0.00     0.041 C 
ATOM      5  O   UNL     1       7.993  -0.193   9.498  1.00  0.00    -0.550 OA
ATOM      6  O   UNL     1      10.119  -1.040   9.403  1.00  0.00    -0.550 OA
ENDBRANCH   3   4
ENDBRANCH   2   3
ENDBRANCH   1   2
BRANCH   1   7
ATOM      7  C   UNL     1       9.369   4.486   8.398  1.00  0.00     0.000 C 
BRANCH   7   8
ATOM      8  C   UNL     1       8.412   5.658   8.672  1.00  0.00    -0.000 C 
BRANCH   8   9
ATOM      9  C   UNL     1       8.692   6.346  10.018  1.00  0.00    -0.000 C 
BRANCH   9  10
ATOM     10  C   UNL     1       9.903   7.289   9.962  1.00  0.00    -0.003 C 
ATOM     11  C   UNL     1       9.635   8.472   9.035  1.00  0.00     0.004 C 
ENDBRANCH   9  10
ENDBRANCH   8   9
ENDBRANCH   7   8
ENDBRANCH   1   7
TORSDOF 7
ENDMDL
MODEL 7
REMARK VINA RESULT:    -2.944     14.374     15.778
REMARK INTER + INTRA:          -4.416
REMARK INTER:                  -4.193
REMARK INTRA:                  -0.223
REMARK UNBOUND:                -0.267
REMARK SMILES CCCCCCCCC(=O)[O-]
REMARK SMILES IDX 6 1 7 2 8 3 9 4 10 5 11 6 5 7 4 8 3 9 2 10 1 11
REMARK H PARENT
REMARK Flexibility Score: inf
ROOT
ATOM      1  C   UNL     1       8.937   5.185   8.364  1.00  0.00     0.000 C 
ENDROOT
BRANCH   1   2
ATOM      2  C   UNL     1       8.526   5.931   9.646  1.00  0.00     0.006 C 
BRANCH   2   3
ATOM      3  C   UNL     1       9.593   6.937  10.098  1.00  0.00     0.053 C 
BRANCH   3   4
ATOM      4  C   UNL     1       9.388   8.284   9.472  1.00  0.00     0.041 C 
ATOM      5  O   UNL     1      10.122   8.659   8.521  1.00  0.00    -0.550 OA
ATOM      6  O   UNL     1       8.367   9.111   9.922  1.00  0.00    -0.550 OA
ENDBRANCH   3   4
ENDBRANCH   2   3
ENDBRANCH   1   2
BRANCH   1   7
ATOM      7  C   UNL     1       9.746   3.911   8.654  1.00  0.00     0.000 C 
BRANCH   7   8
ATOM      8  C   UNL     1       9.111   2.654   8.034  1.00  0.00    -0.000 C 
BRANCH   8   9
ATOM      9  C   UNL     1       9.905   1.375   8.350  1.00  0.00    -0.000 C 
BRANCH   9  10
ATOM     10  C   UNL     1       9.810   0.968   9.827  1.00  0.00    -0.003 C 
ATOM     11  C   UNL     1       8.944  -0.277   9.999  1.00  0.00     0.004 C 
ENDBRANCH   9  10
ENDBRANCH   8   9
ENDBRANCH   7   8
ENDBRANCH   1   7
TORSDOF 7
ENDMDL
MODEL 8
REMARK VINA RESULT:    -2.831     13.290     15.362
REMARK INTER + INTRA:          -4.257
REMARK INTER:                  -3.870
REMARK INTRA:                  -0.387
REMARK UNBOUND:                -0.267
REMARK SMILES CCCCCCCCC(=O)[O-]
REMARK SMILES IDX 6 1 7 2 8 3 9 4 10 5 11 6 5 7 4 8 3 9 2 10 1 11
REMARK H PARENT
REMARK Flexibility Score: inf
ROOT
ATOM      1  C   UNL     1      -8.356  -4.495   7.505  1.00  0.00     0.000 C 
ENDROOT
BRANCH   1   2
ATOM      2  C   UNL     1      -9.522  -3.500   7.643  1.00  0.00     0.006 C 
BRANCH   2   3
ATOM      3  C   UNL     1      -9.036  -2.082   7.970  1.00  0.00     0.053 C 
BRANCH   3   4
ATOM      4  C   UNL     1      -9.375  -1.687   9.376  1.00  0.00     0.041 C 
ATOM      5  O   UNL     1     -10.002  -2.482  10.124  1.00  0.00    -0.550 OA
ATOM      6  O   UNL     1      -8.972  -0.452   9.867  1.00  0.00    -0.550 OA
ENDBRANCH   3   4
ENDBRANCH   2   3
ENDBRANCH   1   2
BRANCH   1   7
ATOM      7  C   UNL     1      -8.635  -5.835   8.205  1.00  0.00     0.000 C 
BRANCH   7   8
ATOM      8  C   UNL     1      -9.742  -5.728   9.267  1.00  0.00    -0.000 C 
BRANCH   8   9
ATOM      9  C   UNL     1     -10.125  -7.094   9.860  1.00  0.00    -0.000 C 
BRANCH   9  10
ATOM     10  C   UNL     1      -9.851  -8.257   8.895  1.00  0.00    -0.003 C 
ATOM     11  C   UNL     1      -9.315  -9.475   9.642  1.00  0.00     0.004 C 
ENDBRANCH   9  10
ENDBRANCH   8   9
ENDBRANCH   7   8
ENDBRANCH   1   7
TORSDOF 7
ENDMDL
MODEL 9
REMARK VINA RESULT:    -2.800     13.451     14.876
REMARK INTER + INTRA:          -4.214
REMARK INTER:                  -3.820
REMARK INTRA:                  -0.394
REMARK UNBOUND:                -0.267
REMARK SMILES CCCCCCCCC(=O)[O-]
REMARK SMILES IDX 6 1 7 2 8 3 9 4 10 5 11 6 5 7 4 8 3 9 2 10 1 11
REMARK H PARENT
REMARK Flexibility Score: inf
ROOT
ATOM      1  C   UNL     1       8.572   2.741   7.612  1.00  0.00     0.000 C 
ENDROOT
BRANCH   1   2
ATOM      2  C   UNL     1       8.574   4.278   7.695  1.00  0.00     0.006 C 
BRANCH   2   3
ATOM      3  C   UNL     1       9.405   4.792   8.877  1.00  0.00     0.053 C 
BRANCH   3   4
ATOM      4  C   UNL     1       9.128   6.237   9.166  1.00  0.00     0.041 C 
ATOM      5  O   UNL     1       8.009   6.589   9.625  1.00  0.00    -0.550 OA
ATOM      6  O   UNL     1      10.117   7.189   8.957  1.00  0.00    -0.550 OA
ENDBRANCH   3   4
ENDBRANCH   2   3
ENDBRANCH   1   2
BRANCH   1   7
ATOM      7  C   UNL     1       9.988   2.145   7.629  1.00  0.00     0.000 C 
BRANCH   7   8
ATOM      8  C   UNL     1      10.125   0.975   8.619  1.00  0.00    -0.000 C 
BRANCH   8   9
ATOM      9  C   UNL     1       8.909   0.845   9.551  1.00  0.00    -0.000 C 
BRANCH   9  10
ATOM     10  C   UNL     1       8.681  -0.595  10.031  1.00  0.00    -0.003 C 
ATOM     11  C   UNL     1       7.191  -0.920  10.103  1.00  0.00     0.004 C 
ENDBRANCH   9  10
ENDBRANCH   8   9
ENDBRANCH   7   8
ENDBRANCH   1   7
TORSDOF 7
ENDMDL
