MODEL 1
REMARK VINA RESULT:    -3.297      0.000      0.000
REMARK INTER + INTRA:          -5.724
REMARK INTER:                  -4.743
REMARK INTRA:                  -0.982
REMARK UNBOUND:                -0.982
REMARK SMILES O=C(CO)[C@H](O)[C@@H](O)[C@H](O)CO
REMARK SMILES IDX 7 1 9 2 11 3 12 4 10 6 5 8 2 9 1 10 3 11 4 12 6 14 8 16
REMARK H PARENT 12 5 10 7 4 13 6 15 8 17
REMARK Flexibility Score: inf
ROOT
ATOM      1  C   UNL     1      -4.874 -12.736  -0.363  1.00  0.00     0.181 C 
ENDROOT
BRANCH   1   2
ATOM      2  C   UNL     1      -6.089 -12.001   0.253  1.00  0.00     0.171 C 
BRANCH   2   3
ATOM      3  C   UNL     1      -7.088 -11.546  -0.825  1.00  0.00     0.190 C 
BRANCH   3   4
ATOM      4  O   UNL     1      -7.792 -12.633  -1.363  1.00  0.00    -0.394 OA
ATOM      5  H   UNL     1      -8.695 -12.297  -1.603  1.00  0.00     0.210 HD
ENDBRANCH   3   4
ENDBRANCH   2   3
BRANCH   2   6
ATOM      6  O   UNL     1      -6.752 -12.830   1.176  1.00  0.00    -0.388 OA
ATOM      7  H   UNL     1      -6.124 -13.004   1.925  1.00  0.00     0.211 HD
ENDBRANCH   2   6
ENDBRANCH   1   2
BRANCH   1   8
ATOM      8  C   UNL     1      -5.000 -14.278  -0.218  1.00  0.00     0.214 C 
BRANCH   8   9
ATOM      9  C   UNL     1      -3.659 -14.964  -0.409  1.00  0.00     0.189 C 
ATOM     10  O   UNL     1      -3.054 -14.795  -1.458  1.00  0.00    -0.294 OA
BRANCH   9  11
ATOM     11  C   UNL     1      -3.032 -15.814   0.662  1.00  0.00     0.234 C 
BRANCH  11  12
ATOM     12  O   UNL     1      -3.224 -15.212   1.911  1.00  0.00    -0.388 OA
ATOM     13  H   UNL     1      -4.117 -14.782   1.875  1.00  0.00     0.211 HD
ENDBRANCH  11  12
ENDBRANCH   9  11
ENDBRANCH   8   9
BRANCH   8  14
ATOM     14  O   UNL     1      -5.983 -14.808  -1.076  1.00  0.00    -0.382 OA
ATOM     15  H   UNL     1      -5.581 -14.919  -1.976  1.00  0.00     0.211 HD
ENDBRANCH   8  14
ENDBRANCH   1   8
BRANCH   1  16
ATOM     16  O   UNL     1      -4.732 -12.377  -1.716  1.00  0.00    -0.387 OA
ATOM     17  H   UNL     1      -5.620 -12.066  -2.030  1.00  0.00     0.211 HD
ENDBRANCH   1  16
TORSDOF 10
ENDMDL
MODEL 2
REMARK VINA RESULT:    -2.943      1.671      2.899
REMARK INTER + INTRA:          -5.215
REMARK INTER:                  -5.369
REMARK INTRA:                   0.154
REMARK UNBOUND:                -0.982
REMARK SMILES O=C(CO)[C@H](O)[C@@H](O)[C@H](O)CO
REMARK SMILES IDX 7 1 9 2 11 3 12 4 10 6 5 8 2 9 1 10 3 11 4 12 6 14 8 16
REMARK H PARENT 12 5 10 7 4 13 6 15 8 17
REMARK Flexibility Score: inf
ROOT
ATOM      1  C   UNL     1      -5.414 -13.557  -0.868  1.00  0.00     0.181 C 
ENDROOT
BRANCH   1   2
ATOM      2  C   UNL     1      -5.976 -12.546   0.161  1.00  0.00     0.171 C 
BRANCH   2   3
ATOM      3  C   UNL     1      -7.108 -11.694  -0.437  1.00  0.00     0.190 C 
BRANCH   3   4
ATOM      4  O   UNL     1      -7.827 -12.403  -1.411  1.00  0.00    -0.394 OA
ATOM      5  H   UNL     1      -8.772 -12.108  -1.339  1.00  0.00     0.210 HD
ENDBRANCH   3   4
ENDBRANCH   2   3
BRANCH   2   6
ATOM      6  O   UNL     1      -6.456 -13.217   1.300  1.00  0.00    -0.388 OA
ATOM      7  H   UNL     1      -6.507 -14.183   1.078  1.00  0.00     0.211 HD
ENDBRANCH   2   6
ENDBRANCH   1   2
BRANCH   1   8
ATOM      8  C   UNL     1      -3.873 -13.428  -1.020  1.00  0.00     0.214 C 
BRANCH   8   9
ATOM      9  C   UNL     1      -3.493 -12.147  -1.741  1.00  0.00     0.189 C 
ATOM     10  O   UNL     1      -4.381 -11.396  -2.119  1.00  0.00    -0.294 OA
BRANCH   9  11
ATOM     11  C   UNL     1      -2.061 -11.750  -1.974  1.00  0.00     0.234 C 
BRANCH  11  12
ATOM     12  O   UNL     1      -1.726 -10.685  -1.131  1.00  0.00    -0.388 OA
ATOM     13  H   UNL     1      -2.545 -10.132  -1.048  1.00  0.00     0.211 HD
ENDBRANCH  11  12
ENDBRANCH   9  11
ENDBRANCH   8   9
BRANCH   8  14
ATOM     14  O   UNL     1      -3.309 -14.560  -1.638  1.00  0.00    -0.382 OA
ATOM     15  H   UNL     1      -2.535 -14.262  -2.183  1.00  0.00     0.211 HD
ENDBRANCH   8  14
ENDBRANCH   1   8
BRANCH   1  16
ATOM     16  O   UNL     1      -5.765 -14.867  -0.493  1.00  0.00    -0.387 OA
ATOM     17  H   UNL     1      -6.208 -15.286  -1.275  1.00  0.00     0.211 HD
ENDBRANCH   1  16
TORSDOF 10
ENDMDL
MODEL 3
REMARK VINA RESULT:    -2.640      0.963      1.573
REMARK INTER + INTRA:          -4.779
REMARK INTER:                  -4.208
REMARK INTRA:                  -0.571
REMARK UNBOUND:                -0.982
REMARK SMILES O=C(CO)[C@H](O)[C@@H](O)[C@H](O)CO
REMARK SMILES IDX 7 1 9 2 11 3 12 4 10 6 5 8 2 9 1 10 3 11 4 12 6 14 8 16
REMARK H PARENT 12 5 10 7 4 13 6 15 8 17
REMARK Flexibility Score: inf
ROOT
ATOM      1  C   UNL     1      -5.645 -13.432  -0.737  1.00  0.00     0.181 C 
ENDROOT
BRANCH   1   2
ATOM      2  C   UNL     1      -6.119 -12.267   0.165  1.00  0.00     0.171 C 
BRANCH   2   3
ATOM      3  C   UNL     1      -7.002 -11.271  -0.606  1.00  0.00     0.190 C 
BRANCH   3   4
ATOM      4  O   UNL     1      -7.613 -11.877  -1.714  1.00  0.00    -0.394 OA
ATOM      5  H   UNL     1      -7.178 -12.762  -1.831  1.00  0.00     0.210 HD
ENDBRANCH   3   4
ENDBRANCH   2   3
BRANCH   2   6
ATOM      6  O   UNL     1      -6.835 -12.759   1.271  1.00  0.00    -0.388 OA
ATOM      7  H   UNL     1      -7.490 -13.423   0.930  1.00  0.00     0.211 HD
ENDBRANCH   2   6
ENDBRANCH   1   2
BRANCH   1   8
ATOM      8  C   UNL     1      -4.144 -13.293  -1.117  1.00  0.00     0.214 C 
BRANCH   8   9
ATOM      9  C   UNL     1      -3.444 -14.640  -1.107  1.00  0.00     0.189 C 
ATOM     10  O   UNL     1      -3.451 -15.317  -2.125  1.00  0.00    -0.294 OA
BRANCH   9  11
ATOM     11  C   UNL     1      -2.708 -15.154   0.100  1.00  0.00     0.234 C 
BRANCH  11  12
ATOM     12  O   UNL     1      -3.556 -15.126   1.214  1.00  0.00    -0.388 OA
ATOM     13  H   UNL     1      -2.967 -15.199   2.009  1.00  0.00     0.211 HD
ENDBRANCH  11  12
ENDBRANCH   9  11
ENDBRANCH   8   9
BRANCH   8  14
ATOM     14  O   UNL     1      -3.481 -12.355  -0.303  1.00  0.00    -0.382 OA
ATOM     15  H   UNL     1      -2.505 -12.451  -0.453  1.00  0.00     0.211 HD
ENDBRANCH   8  14
ENDBRANCH   1   8
BRANCH   1  16
ATOM     16  O   UNL     1      -5.880 -14.661  -0.095  1.00  0.00    -0.387 OA
ATOM     17  H   UNL     1      -4.998 -15.095   0.037  1.00  0.00     0.211 HD
ENDBRANCH   1  16
TORSDOF 10
ENDMDL
MODEL 4
REMARK VINA RESULT:    -2.547      7.604      8.698
REMARK INTER + INTRA:          -4.645
REMARK INTER:                  -4.408
REMARK INTRA:                  -0.237
REMARK UNBOUND:                -0.982
REMARK SMILES O=C(CO)[C@H](O)[C@@H](O)[C@H](O)CO
REMARK SMILES IDX 7 1 9 2 11 3 12 4 10 6 5 8 2 9 1 10 3 11 4 12 6 14 8 16
REMARK H PARENT 12 5 10 7 4 13 6 15 8 17
REMARK Flexibility Score: inf
ROOT
ATOM      1  C   UNL     1       0.002  -8.928   0.413  1.00  0.00     0.181 C 
ENDROOT
BRANCH   1   2
ATOM      2  C   UNL     1      -0.219  -9.209   1.919  1.00  0.00     0.171 C 
BRANCH   2   3
ATOM      3  C   UNL     1       0.975  -8.739   2.768  1.00  0.00     0.190 C 
BRANCH   3   4
ATOM      4  O   UNL     1       0.642  -7.622   3.548  1.00  0.00    -0.394 OA
ATOM      5  H   UNL     1       0.210  -7.967   4.373  1.00  0.00     0.210 HD
ENDBRANCH   3   4
ENDBRANCH   2   3
BRANCH   2   6
ATOM      6  O   UNL     1      -1.388  -8.571   2.373  1.00  0.00    -0.388 OA
ATOM      7  H   UNL     1      -1.350  -7.627   2.069  1.00  0.00     0.211 HD
ENDBRANCH   2   6
ENDBRANCH   1   2
BRANCH   1   8
ATOM      8  C   UNL     1       1.511  -8.781   0.070  1.00  0.00     0.214 C 
BRANCH   8   9
ATOM      9  C   UNL     1       1.789  -7.476  -0.655  1.00  0.00     0.189 C 
ATOM     10  O   UNL     1       1.925  -7.492  -1.869  1.00  0.00    -0.294 OA
BRANCH   9  11
ATOM     11  C   UNL     1       1.867  -6.158   0.066  1.00  0.00     0.234 C 
BRANCH  11  12
ATOM     12  O   UNL     1       0.706  -5.968   0.824  1.00  0.00    -0.388 OA
ATOM     13  H   UNL     1       0.629  -4.989   0.969  1.00  0.00     0.211 HD
ENDBRANCH  11  12
ENDBRANCH   9  11
ENDBRANCH   8   9
BRANCH   8  14
ATOM     14  O   UNL     1       1.997  -9.890  -0.649  1.00  0.00    -0.382 OA
ATOM     15  H   UNL     1       1.220 -10.428  -0.951  1.00  0.00     0.211 HD
ENDBRANCH   8  14
ENDBRANCH   1   8
BRANCH   1  16
ATOM     16  O   UNL     1      -0.582  -9.951  -0.356  1.00  0.00    -0.387 OA
ATOM     17  H   UNL     1      -1.555  -9.944  -0.161  1.00  0.00     0.211 HD
ENDBRANCH   1  16
TORSDOF 10
ENDMDL
MODEL 5
REMARK VINA RESULT:    -2.542      1.637      4.184
REMARK INTER + INTRA:          -4.638
REMARK INTER:                  -4.040
REMARK INTRA:                  -0.598
REMARK UNBOUND:                -0.982
REMARK SMILES O=C(CO)[C@H](O)[C@@H](O)[C@H](O)CO
REMARK SMILES IDX 7 1 9 2 11 3 12 4 10 6 5 8 2 9 1 10 3 11 4 12 6 14 8 16
REMARK H PARENT 12 5 10 7 4 13 6 15 8 17
REMARK Flexibility Score: inf
ROOT
ATOM      1  C   UNL     1      -3.836 -13.744  -0.658  1.00  0.00     0.181 C 
ENDROOT
BRANCH   1   2
ATOM      2  C   UNL     1      -3.071 -13.860  -1.999  1.00  0.00     0.171 C 
BRANCH   2   3
ATOM      3  C   UNL     1      -1.975 -12.788  -2.125  1.00  0.00     0.190 C 
BRANCH   3   4
ATOM      4  O   UNL     1      -2.466 -11.512  -1.810  1.00  0.00    -0.394 OA
ATOM      5  H   UNL     1      -3.428 -11.622  -1.592  1.00  0.00     0.210 HD
ENDBRANCH   3   4
ENDBRANCH   2   3
BRANCH   2   6
ATOM      6  O   UNL     1      -2.488 -15.133  -2.125  1.00  0.00    -0.388 OA
ATOM      7  H   UNL     1      -3.220 -15.781  -2.298  1.00  0.00     0.211 HD
ENDBRANCH   2   6
ENDBRANCH   1   2
BRANCH   1   8
ATOM      8  C   UNL     1      -5.373 -13.674  -0.876  1.00  0.00     0.214 C 
BRANCH   8   9
ATOM      9  C   UNL     1      -5.864 -12.237  -0.899  1.00  0.00     0.189 C 
ATOM     10  O   UNL     1      -5.376 -11.459  -1.705  1.00  0.00    -0.294 OA
BRANCH   9  11
ATOM     11  C   UNL     1      -6.957 -11.747   0.011  1.00  0.00     0.234 C 
BRANCH  11  12
ATOM     12  O   UNL     1      -6.684 -12.139   1.327  1.00  0.00    -0.388 OA
ATOM     13  H   UNL     1      -6.913 -11.361   1.898  1.00  0.00     0.211 HD
ENDBRANCH  11  12
ENDBRANCH   9  11
ENDBRANCH   8   9
BRANCH   8  14
ATOM     14  O   UNL     1      -6.074 -14.448   0.068  1.00  0.00    -0.382 OA
ATOM     15  H   UNL     1      -6.261 -15.335  -0.336  1.00  0.00     0.211 HD
ENDBRANCH   8  14
ENDBRANCH   1   8
BRANCH   1  16
ATOM     16  O   UNL     1      -3.505 -14.826   0.178  1.00  0.00    -0.387 OA
ATOM     17  H   UNL     1      -3.460 -15.635  -0.396  1.00  0.00     0.211 HD
ENDBRANCH   1  16
TORSDOF 10
ENDMDL
MODEL 6
REMARK VINA RESULT:    -2.495      7.081      8.465
REMARK INTER + INTRA:          -4.571
REMARK INTER:                  -4.110
REMARK INTRA:                  -0.460
REMARK UNBOUND:                -0.982
REMARK SMILES O=C(CO)[C@H](O)[C@@H](O)[C@H](O)CO
REMARK SMILES IDX 7 1 9 2 11 3 12 4 10 6 5 8 2 9 1 10 3 11 4 12 6 14 8 16
REMARK H PARENT 12 5 10 7 4 13 6 15 8 17
REMARK Flexibility Score: inf
ROOT
ATOM      1  C   UNL     1       0.780  -9.699  -0.233  1.00  0.00     0.181 C 
ENDROOT
BRANCH   1   2
ATOM      2  C   UNL     1       0.853 -10.279  -1.666  1.00  0.00     0.171 C 
BRANCH   2   3
ATOM      3  C   UNL     1       2.125 -11.118  -1.878  1.00  0.00     0.190 C 
BRANCH   3   4
ATOM      4  O   UNL     1       1.867 -12.489  -1.730  1.00  0.00    -0.394 OA
ATOM      5  H   UNL     1       0.882 -12.588  -1.659  1.00  0.00     0.210 HD
ENDBRANCH   3   4
ENDBRANCH   2   3
BRANCH   2   6
ATOM      6  O   UNL     1      -0.275 -11.076  -1.933  1.00  0.00    -0.388 OA
ATOM      7  H   UNL     1      -0.065 -11.633  -2.727  1.00  0.00     0.211 HD
ENDBRANCH   2   6
ENDBRANCH   1   2
BRANCH   1   8
ATOM      8  C   UNL     1       1.652  -8.421  -0.084  1.00  0.00     0.214 C 
BRANCH   8   9
ATOM      9  C   UNL     1       1.168  -7.551   1.062  1.00  0.00     0.189 C 
ATOM     10  O   UNL     1       0.600  -6.499   0.807  1.00  0.00    -0.294 OA
BRANCH   9  11
ATOM     11  C   UNL     1       1.330  -7.956   2.502  1.00  0.00     0.234 C 
BRANCH  11  12
ATOM     12  O   UNL     1       0.090  -8.343   3.023  1.00  0.00    -0.388 OA
ATOM     13  H   UNL     1       0.223  -9.249   3.406  1.00  0.00     0.211 HD
ENDBRANCH  11  12
ENDBRANCH   9  11
ENDBRANCH   8   9
BRANCH   8  14
ATOM     14  O   UNL     1       1.733  -7.697  -1.289  1.00  0.00    -0.382 OA
ATOM     15  H   UNL     1       2.576  -7.173  -1.279  1.00  0.00     0.211 HD
ENDBRANCH   8  14
ENDBRANCH   1   8
BRANCH   1  16
ATOM     16  O   UNL     1      -0.558  -9.426   0.106  1.00  0.00    -0.387 OA
ATOM     17  H   UNL     1      -0.967 -10.283   0.393  1.00  0.00     0.211 HD
ENDBRANCH   1  16
TORSDOF 10
ENDMDL
MODEL 7
REMARK VINA RESULT:    -2.291      6.222      7.262
REMARK INTER + INTRA:          -4.277
REMARK INTER:                  -3.094
REMARK INTRA:                  -1.183
REMARK UNBOUND:                -0.982
REMARK SMILES O=C(CO)[C@H](O)[C@@H](O)[C@H](O)CO
REMARK SMILES IDX 7 1 9 2 11 3 12 4 10 6 5 8 2 9 1 10 3 11 4 12 6 14 8 16
REMARK H PARENT 12 5 10 7 4 13 6 15 8 17
REMARK Flexibility Score: inf
ROOT
ATOM      1  C   UNL     1       0.932  -9.337   0.199  1.00  0.00     0.181 C 
ENDROOT
BRANCH   1   2
ATOM      2  C   UNL     1       1.250  -8.758   1.599  1.00  0.00     0.171 C 
BRANCH   2   3
ATOM      3  C   UNL     1       1.406  -7.228   1.562  1.00  0.00     0.190 C 
BRANCH   3   4
ATOM      4  O   UNL     1       0.231  -6.602   1.123  1.00  0.00    -0.394 OA
ATOM      5  H   UNL     1      -0.396  -7.325   0.859  1.00  0.00     0.210 HD
ENDBRANCH   3   4
ENDBRANCH   2   3
BRANCH   2   6
ATOM      6  O   UNL     1       0.237  -9.096   2.514  1.00  0.00    -0.388 OA
ATOM      7  H   UNL     1       0.460  -8.665   3.380  1.00  0.00     0.211 HD
ENDBRANCH   2   6
ENDBRANCH   1   2
BRANCH   1   8
ATOM      8  C   UNL     1      -0.522  -9.879   0.117  1.00  0.00     0.214 C 
BRANCH   8   9
ATOM      9  C   UNL     1      -0.781 -10.568  -1.211  1.00  0.00     0.189 C 
ATOM     10  O   UNL     1       0.166 -10.824  -1.939  1.00  0.00    -0.294 OA
BRANCH   9  11
ATOM     11  C   UNL     1      -2.162 -10.981  -1.645  1.00  0.00     0.234 C 
BRANCH  11  12
ATOM     12  O   UNL     1      -2.876 -11.464  -0.543  1.00  0.00    -0.388 OA
ATOM     13  H   UNL     1      -3.679 -11.916  -0.912  1.00  0.00     0.211 HD
ENDBRANCH  11  12
ENDBRANCH   9  11
ENDBRANCH   8   9
BRANCH   8  14
ATOM     14  O   UNL     1      -1.473  -8.874   0.377  1.00  0.00    -0.382 OA
ATOM     15  H   UNL     1      -2.112  -8.849  -0.382  1.00  0.00     0.211 HD
ENDBRANCH   8  14
ENDBRANCH   1   8
BRANCH   1  16
ATOM     16  O   UNL     1       1.150  -8.356  -0.785  1.00  0.00    -0.387 OA
ATOM     17  H   UNL     1       2.036  -7.950  -0.602  1.00  0.00     0.211 HD
ENDBRANCH   1  16
TORSDOF 10
ENDMDL
MODEL 8
REMARK VINA RESULT:    -1.987      6.945      8.062
REMARK INTER + INTRA:          -3.840
REMARK INTER:                  -3.048
REMARK INTRA:                  -0.792
REMARK UNBOUND:                -0.982
REMARK SMILES O=C(CO)[C@H](O)[C@@H](O)[C@H](O)CO
REMARK SMILES IDX 7 1 9 2 11 3 12 4 10 6 5 8 2 9 1 10 3 11 4 12 6 14 8 16
REMARK H PARENT 12 5 10 7 4 13 6 15 8 17
REMARK Flexibility Score: inf
ROOT
ATOM      1  C   UNL     1       0.789  -8.967  -0.907  1.00  0.00     0.181 C 
ENDROOT
BRANCH   1   2
ATOM      2  C   UNL     1       0.746 -10.509  -1.031  1.00  0.00     0.171 C 
BRANCH   2   3
ATOM      3  C   UNL     1      -0.319 -10.971  -2.039  1.00  0.00     0.190 C 
BRANCH   3   4
ATOM      4  O   UNL     1      -1.594 -11.014  -1.457  1.00  0.00    -0.394 OA
ATOM      5  H   UNL     1      -1.692 -11.915  -1.050  1.00  0.00     0.210 HD
ENDBRANCH   3   4
ENDBRANCH   2   3
BRANCH   2   6
ATOM      6  O   UNL     1       2.001 -11.007  -1.424  1.00  0.00    -0.388 OA
ATOM      7  H   UNL     1       1.972 -11.147  -2.406  1.00  0.00     0.211 HD
ENDBRANCH   2   6
ENDBRANCH   1   2
BRANCH   1   8
ATOM      8  C   UNL     1       0.036  -8.469   0.358  1.00  0.00     0.214 C 
BRANCH   8   9
ATOM      9  C   UNL     1       0.921  -7.582   1.215  1.00  0.00     0.189 C 
ATOM     10  O   UNL     1       1.172  -6.449   0.831  1.00  0.00    -0.294 OA
BRANCH   9  11
ATOM     11  C   UNL     1       1.469  -8.036   2.541  1.00  0.00     0.234 C 
BRANCH  11  12
ATOM     12  O   UNL     1       0.450  -8.022   3.500  1.00  0.00    -0.388 OA
ATOM     13  H   UNL     1      -0.217  -7.358   3.184  1.00  0.00     0.211 HD
ENDBRANCH  11  12
ENDBRANCH   9  11
ENDBRANCH   8   9
BRANCH   8  14
ATOM     14  O   UNL     1      -0.508  -9.535   1.099  1.00  0.00    -0.382 OA
ATOM     15  H   UNL     1      -0.780 -10.247   0.464  1.00  0.00     0.211 HD
ENDBRANCH   8  14
ENDBRANCH   1   8
BRANCH   1  16
ATOM     16  O   UNL     1       2.125  -8.524  -0.893  1.00  0.00    -0.387 OA
ATOM     17  H   UNL     1       2.607  -9.029  -1.598  1.00  0.00     0.211 HD
ENDBRANCH   1  16
TORSDOF 10
ENDMDL
