MODEL 1
REMARK VINA RESULT:    -2.505      0.000      0.000
REMARK INTER + INTRA:          -4.113
REMARK INTER:                  -3.530
REMARK INTRA:                  -0.582
REMARK UNBOUND:                -0.582
REMARK SMILES CCCCCCCCC(=O)[O-]
REMARK SMILES IDX 6 1 7 2 8 3 9 4 10 5 11 6 5 7 4 8 3 9 2 10 1 11
REMARK H PARENT
REMARK Flexibility Score: inf
ROOT
ATOM      1  C   UNL     1      -8.496  39.186  17.971  1.00  0.00     0.000 C 
ENDROOT
BRANCH   1   2
ATOM      2  C   UNL     1      -9.035  39.307  19.400  1.00  0.00     0.006 C 
BRANCH   2   3
ATOM      3  C   UNL     1     -10.562  39.192  19.424  1.00  0.00     0.053 C 
BRANCH   3   4
ATOM      4  C   UNL     1     -11.006  38.351  20.579  1.00  0.00     0.041 C 
ATOM      5  O   UNL     1     -11.803  37.394  20.397  1.00  0.00    -0.550 OA
ATOM      6  O   UNL     1     -10.578  38.656  21.865  1.00  0.00    -0.550 OA
ENDBRANCH   3   4
ENDBRANCH   2   3
ENDBRANCH   1   2
BRANCH   1   7
ATOM      7  C   UNL     1      -7.735  40.451  17.559  1.00  0.00     0.000 C 
BRANCH   7   8
ATOM      8  C   UNL     1      -7.992  40.796  16.087  1.00  0.00    -0.000 C 
BRANCH   8   9
ATOM      9  C   UNL     1      -9.072  39.888  15.489  1.00  0.00    -0.000 C 
BRANCH   9  10
ATOM     10  C   UNL     1     -10.339  40.685  15.155  1.00  0.00    -0.003 C 
ATOM     11  C   UNL     1     -11.547  40.145  15.913  1.00  0.00     0.004 C 
ENDBRANCH   9  10
ENDBRANCH   8   9
ENDBRANCH   7   8
ENDBRANCH   1   7
TORSDOF 7
ENDMDL
MODEL 2
REMARK VINA RESULT:    -2.467     23.591     24.663
REMARK INTER + INTRA:          -4.059
REMARK INTER:                  -3.353
REMARK INTRA:                  -0.706
REMARK UNBOUND:                -0.582
REMARK SMILES CCCCCCCCC(=O)[O-]
REMARK SMILES IDX 6 1 7 2 8 3 9 4 10 5 11 6 5 7 4 8 3 9 2 10 1 11
REMARK H PARENT
REMARK Flexibility Score: inf
ROOT
ATOM      1  C   UNL     1       4.033  22.976   4.272  1.00  0.00     0.000 C 
ENDROOT
BRANCH   1   2
ATOM      2  C   UNL     1       3.358  22.074   5.311  1.00  0.00     0.006 C 
BRANCH   2   3
ATOM      3  C   UNL     1       2.672  22.905   6.399  1.00  0.00     0.053 C 
BRANCH   3   4
ATOM      4  C   UNL     1       1.187  22.744   6.325  1.00  0.00     0.041 C 
ATOM      5  O   UNL     1       0.535  22.400   7.345  1.00  0.00    -0.550 OA
ATOM      6  O   UNL     1       0.529  22.925   5.115  1.00  0.00    -0.550 OA
ENDBRANCH   3   4
ENDBRANCH   2   3
ENDBRANCH   1   2
BRANCH   1   7
ATOM      7  C   UNL     1       4.529  24.278   4.912  1.00  0.00     0.000 C 
BRANCH   7   8
ATOM      8  C   UNL     1       6.050  24.418   4.769  1.00  0.00    -0.000 C 
BRANCH   8   9
ATOM      9  C   UNL     1       6.686  24.888   6.082  1.00  0.00    -0.000 C 
BRANCH   9  10
ATOM     10  C   UNL     1       6.037  24.197   7.287  1.00  0.00    -0.003 C 
ATOM     11  C   UNL     1       6.732  22.878   7.607  1.00  0.00     0.004 C 
ENDBRANCH   9  10
ENDBRANCH   8   9
ENDBRANCH   7   8
ENDBRANCH   1   7
TORSDOF 7
ENDMDL
MODEL 3
REMARK VINA RESULT:    -2.439      2.722      4.947
REMARK INTER + INTRA:          -4.020
REMARK INTER:                  -3.732
REMARK INTRA:                  -0.288
REMARK UNBOUND:                -0.582
REMARK SMILES CCCCCCCCC(=O)[O-]
REMARK SMILES IDX 6 1 7 2 8 3 9 4 10 5 11 6 5 7 4 8 3 9 2 10 1 11
REMARK H PARENT
REMARK Flexibility Score: inf
ROOT
ATOM      1  C   UNL     1      -8.577  39.130  18.088  1.00  0.00     0.000 C 
ENDROOT
BRANCH   1   2
ATOM      2  C   UNL     1      -8.506  40.273  17.070  1.00  0.00     0.006 C 
BRANCH   2   3
ATOM      3  C   UNL     1      -9.021  39.821  15.699  1.00  0.00     0.053 C 
BRANCH   3   4
ATOM      4  C   UNL     1     -10.432  40.272  15.495  1.00  0.00     0.041 C 
ATOM      5  O   UNL     1     -11.318  39.986  16.341  1.00  0.00    -0.550 OA
ATOM      6  O   UNL     1     -10.779  40.968  14.343  1.00  0.00    -0.550 OA
ENDBRANCH   3   4
ENDBRANCH   2   3
ENDBRANCH   1   2
BRANCH   1   7
ATOM      7  C   UNL     1      -8.093  39.591  19.468  1.00  0.00     0.000 C 
BRANCH   7   8
ATOM      8  C   UNL     1      -9.257  39.670  20.463  1.00  0.00    -0.000 C 
BRANCH   8   9
ATOM      9  C   UNL     1     -10.415  38.765  20.030  1.00  0.00    -0.000 C 
BRANCH   9  10
ATOM     10  C   UNL     1     -11.119  38.152  21.246  1.00  0.00    -0.003 C 
ATOM     11  C   UNL     1     -11.711  36.787  20.912  1.00  0.00     0.004 C 
ENDBRANCH   9  10
ENDBRANCH   8   9
ENDBRANCH   7   8
ENDBRANCH   1   7
TORSDOF 7
ENDMDL
MODEL 4
REMARK VINA RESULT:    -2.419     23.145     24.214
REMARK INTER + INTRA:          -3.991
REMARK INTER:                  -3.480
REMARK INTRA:                  -0.512
REMARK UNBOUND:                -0.582
REMARK SMILES CCCCCCCCC(=O)[O-]
REMARK SMILES IDX 6 1 7 2 8 3 9 4 10 5 11 6 5 7 4 8 3 9 2 10 1 11
REMARK H PARENT
REMARK Flexibility Score: inf
ROOT
ATOM      1  C   UNL     1       2.923  22.352   6.484  1.00  0.00     0.000 C 
ENDROOT
BRANCH   1   2
ATOM      2  C   UNL     1       1.564  23.018   6.730  1.00  0.00     0.006 C 
BRANCH   2   3
ATOM      3  C   UNL     1       0.600  22.746   5.571  1.00  0.00     0.053 C 
BRANCH   3   4
ATOM      4  C   UNL     1      -0.654  22.104   6.073  1.00  0.00     0.041 C 
ATOM      5  O   UNL     1      -0.851  21.975   7.309  1.00  0.00    -0.550 OA
ATOM      6  O   UNL     1      -1.586  21.602   5.172  1.00  0.00    -0.550 OA
ENDBRANCH   3   4
ENDBRANCH   2   3
ENDBRANCH   1   2
BRANCH   1   7
ATOM      7  C   UNL     1       3.260  22.324   4.989  1.00  0.00     0.000 C 
BRANCH   7   8
ATOM      8  C   UNL     1       4.689  22.820   4.736  1.00  0.00    -0.000 C 
BRANCH   8   9
ATOM      9  C   UNL     1       4.804  24.326   4.995  1.00  0.00    -0.000 C 
BRANCH   9  10
ATOM     10  C   UNL     1       6.107  24.660   5.729  1.00  0.00    -0.003 C 
ATOM     11  C   UNL     1       6.022  24.280   7.204  1.00  0.00     0.004 C 
ENDBRANCH   9  10
ENDBRANCH   8   9
ENDBRANCH   7   8
ENDBRANCH   1   7
TORSDOF 7
ENDMDL
MODEL 5
REMARK VINA RESULT:    -2.418     23.447     24.464
REMARK INTER + INTRA:          -3.990
REMARK INTER:                  -3.480
REMARK INTRA:                  -0.510
REMARK UNBOUND:                -0.582
REMARK SMILES CCCCCCCCC(=O)[O-]
REMARK SMILES IDX 6 1 7 2 8 3 9 4 10 5 11 6 5 7 4 8 3 9 2 10 1 11
REMARK H PARENT
REMARK Flexibility Score: inf
ROOT
ATOM      1  C   UNL     1       3.573  21.772   6.755  1.00  0.00     0.000 C 
ENDROOT
BRANCH   1   2
ATOM      2  C   UNL     1       2.751  23.032   6.463  1.00  0.00     0.006 C 
BRANCH   2   3
ATOM      3  C   UNL     1       1.266  22.801   6.758  1.00  0.00     0.053 C 
BRANCH   3   4
ATOM      4  C   UNL     1       0.480  22.758   5.486  1.00  0.00     0.041 C 
ATOM      5  O   UNL     1      -0.776  22.706   5.518  1.00  0.00    -0.550 OA
ATOM      6  O   UNL     1       1.140  22.726   4.263  1.00  0.00    -0.550 OA
ENDBRANCH   3   4
ENDBRANCH   2   3
ENDBRANCH   1   2
BRANCH   1   7
ATOM      7  C   UNL     1       4.879  22.120   7.477  1.00  0.00     0.000 C 
BRANCH   7   8
ATOM      8  C   UNL     1       5.176  23.622   7.387  1.00  0.00    -0.000 C 
BRANCH   8   9
ATOM      9  C   UNL     1       6.647  23.874   7.038  1.00  0.00    -0.000 C 
BRANCH   9  10
ATOM     10  C   UNL     1       6.777  24.901   5.907  1.00  0.00    -0.003 C 
ATOM     11  C   UNL     1       5.747  24.648   4.811  1.00  0.00     0.004 C 
ENDBRANCH   9  10
ENDBRANCH   8   9
ENDBRANCH   7   8
ENDBRANCH   1   7
TORSDOF 7
ENDMDL
MODEL 6
REMARK VINA RESULT:    -2.385     23.547     24.529
REMARK INTER + INTRA:          -3.943
REMARK INTER:                  -3.295
REMARK INTRA:                  -0.648
REMARK UNBOUND:                -0.582
REMARK SMILES CCCCCCCCC(=O)[O-]
REMARK SMILES IDX 6 1 7 2 8 3 9 4 10 5 11 6 5 7 4 8 3 9 2 10 1 11
REMARK H PARENT
REMARK Flexibility Score: inf
ROOT
ATOM      1  C   UNL     1       4.775  21.903   7.259  1.00  0.00     0.000 C 
ENDROOT
BRANCH   1   2
ATOM      2  C   UNL     1       3.499  21.818   6.415  1.00  0.00     0.006 C 
BRANCH   2   3
ATOM      3  C   UNL     1       2.649  23.083   6.574  1.00  0.00     0.053 C 
BRANCH   3   4
ATOM      4  C   UNL     1       1.200  22.767   6.386  1.00  0.00     0.041 C 
ATOM      5  O   UNL     1       0.521  22.307   7.340  1.00  0.00    -0.550 OA
ATOM      6  O   UNL     1       0.608  22.935   5.139  1.00  0.00    -0.550 OA
ENDBRANCH   3   4
ENDBRANCH   2   3
ENDBRANCH   1   2
BRANCH   1   7
ATOM      7  C   UNL     1       5.155  23.361   7.539  1.00  0.00     0.000 C 
BRANCH   7   8
ATOM      8  C   UNL     1       6.522  23.702   6.933  1.00  0.00    -0.000 C 
BRANCH   8   9
ATOM      9  C   UNL     1       6.439  24.952   6.052  1.00  0.00    -0.000 C 
BRANCH   9  10
ATOM     10  C   UNL     1       6.376  24.577   4.567  1.00  0.00    -0.003 C 
ATOM     11  C   UNL     1       4.943  24.625   4.045  1.00  0.00     0.004 C 
ENDBRANCH   9  10
ENDBRANCH   8   9
ENDBRANCH   7   8
ENDBRANCH   1   7
TORSDOF 7
ENDMDL
MODEL 7
REMARK VINA RESULT:    -2.342      3.554      5.155
REMARK INTER + INTRA:          -3.883
REMARK INTER:                  -3.461
REMARK INTRA:                  -0.423
REMARK UNBOUND:                -0.582
REMARK SMILES CCCCCCCCC(=O)[O-]
REMARK SMILES IDX 6 1 7 2 8 3 9 4 10 5 11 6 5 7 4 8 3 9 2 10 1 11
REMARK H PARENT
REMARK Flexibility Score: inf
ROOT
ATOM      1  C   UNL     1      -7.756  39.515  19.175  1.00  0.00     0.000 C 
ENDROOT
BRANCH   1   2
ATOM      2  C   UNL     1      -9.041  39.239  18.385  1.00  0.00     0.006 C 
BRANCH   2   3
ATOM      3  C   UNL     1      -9.476  40.476  17.593  1.00  0.00     0.053 C 
BRANCH   3   4
ATOM      4  C   UNL     1      -9.464  40.189  16.125  1.00  0.00     0.041 C 
ATOM      5  O   UNL     1      -8.388  40.246  15.476  1.00  0.00    -0.550 OA
ATOM      6  O   UNL     1     -10.653  39.906  15.464  1.00  0.00    -0.550 OA
ENDBRANCH   3   4
ENDBRANCH   2   3
ENDBRANCH   1   2
BRANCH   1   7
ATOM      7  C   UNL     1      -7.297  40.965  18.991  1.00  0.00     0.000 C 
BRANCH   7   8
ATOM      8  C   UNL     1      -5.768  41.070  19.032  1.00  0.00    -0.000 C 
BRANCH   8   9
ATOM      9  C   UNL     1      -5.155  40.721  17.672  1.00  0.00    -0.000 C 
BRANCH   9  10
ATOM     10  C   UNL     1      -3.676  41.121  17.615  1.00  0.00    -0.003 C 
ATOM     11  C   UNL     1      -2.948  40.728  18.897  1.00  0.00     0.004 C 
ENDBRANCH   9  10
ENDBRANCH   8   9
ENDBRANCH   7   8
ENDBRANCH   1   7
TORSDOF 7
ENDMDL
MODEL 8
REMARK VINA RESULT:    -2.323     23.899     24.854
REMARK INTER + INTRA:          -3.856
REMARK INTER:                  -3.090
REMARK INTRA:                  -0.766
REMARK UNBOUND:                -0.582
REMARK SMILES CCCCCCCCC(=O)[O-]
REMARK SMILES IDX 6 1 7 2 8 3 9 4 10 5 11 6 5 7 4 8 3 9 2 10 1 11
REMARK H PARENT
REMARK Flexibility Score: inf
ROOT
ATOM      1  C   UNL     1       5.959  22.710   6.839  1.00  0.00     0.000 C 
ENDROOT
BRANCH   1   2
ATOM      2  C   UNL     1       4.543  22.144   6.994  1.00  0.00     0.006 C 
BRANCH   2   3
ATOM      3  C   UNL     1       3.489  23.236   6.790  1.00  0.00     0.053 C 
BRANCH   3   4
ATOM      4  C   UNL     1       2.205  22.641   6.306  1.00  0.00     0.041 C 
ATOM      5  O   UNL     1       1.105  23.054   6.756  1.00  0.00    -0.550 OA
ATOM      6  O   UNL     1       2.225  21.594   5.393  1.00  0.00    -0.550 OA
ENDBRANCH   3   4
ENDBRANCH   2   3
ENDBRANCH   1   2
BRANCH   1   7
ATOM      7  C   UNL     1       5.983  24.218   7.115  1.00  0.00     0.000 C 
BRANCH   7   8
ATOM      8  C   UNL     1       6.723  24.971   6.003  1.00  0.00    -0.000 C 
BRANCH   8   9
ATOM      9  C   UNL     1       6.550  24.268   4.652  1.00  0.00    -0.000 C 
BRANCH   9  10
ATOM     10  C   UNL     1       5.449  24.937   3.820  1.00  0.00    -0.003 C 
ATOM     11  C   UNL     1       4.416  23.918   3.350  1.00  0.00     0.004 C 
ENDBRANCH   9  10
ENDBRANCH   8   9
ENDBRANCH   7   8
ENDBRANCH   1   7
TORSDOF 7
ENDMDL
MODEL 9
REMARK VINA RESULT:    -2.300     23.127     24.239
REMARK INTER + INTRA:          -3.824
REMARK INTER:                  -3.411
REMARK INTRA:                  -0.412
REMARK UNBOUND:                -0.582
REMARK SMILES CCCCCCCCC(=O)[O-]
REMARK SMILES IDX 6 1 7 2 8 3 9 4 10 5 11 6 5 7 4 8 3 9 2 10 1 11
REMARK H PARENT
REMARK Flexibility Score: inf
ROOT
ATOM      1  C   UNL     1       1.495  23.037   6.703  1.00  0.00     0.000 C 
ENDROOT
BRANCH   1   2
ATOM      2  C   UNL     1       0.926  22.432   5.415  1.00  0.00     0.006 C 
BRANCH   2   3
ATOM      3  C   UNL     1      -0.385  23.117   5.017  1.00  0.00     0.053 C 
BRANCH   3   4
ATOM      4  C   UNL     1      -0.252  23.765   3.675  1.00  0.00     0.041 C 
ATOM      5  O   UNL     1       0.749  23.525   2.952  1.00  0.00    -0.550 OA
ATOM      6  O   UNL     1      -1.211  24.673   3.245  1.00  0.00    -0.550 OA
ENDBRANCH   3   4
ENDBRANCH   2   3
ENDBRANCH   1   2
BRANCH   1   7
ATOM      7  C   UNL     1       3.023  23.133   6.639  1.00  0.00     0.000 C 
BRANCH   7   8
ATOM      8  C   UNL     1       3.519  23.080   5.189  1.00  0.00    -0.000 C 
BRANCH   8   9
ATOM      9  C   UNL     1       4.439  24.266   4.878  1.00  0.00    -0.000 C 
BRANCH   9  10
ATOM     10  C   UNL     1       5.893  23.945   5.242  1.00  0.00    -0.003 C 
ATOM     11  C   UNL     1       6.343  24.737   6.466  1.00  0.00     0.004 C 
ENDBRANCH   9  10
ENDBRANCH   8   9
ENDBRANCH   7   8
ENDBRANCH   1   7
TORSDOF 7
ENDMDL
