MODEL 1
REMARK VINA RESULT:    -1.250      0.000      0.000
REMARK INTER + INTRA:          -3.438
REMARK INTER:                  -2.274
REMARK INTRA:                  -1.165
REMARK UNBOUND:                -1.165
REMARK SMILES CCCCCCCCCCCCCCCC(=O)[O-]
REMARK SMILES IDX 9 1 10 2 11 3 12 4 13 5 14 6 15 7 16 8 17 9 18 10 8 11 7 12
REMARK SMILES IDX 6 13 5 14 4 15 3 16 2 17 1 18
REMARK H PARENT
REMARK Flexibility Score: inf
ROOT
ATOM      1  C   UNL     1       4.199 -34.204  20.761  1.00  0.00     0.000 C 
ENDROOT
BRANCH   1   2
ATOM      2  C   UNL     1       4.254 -33.759  22.232  1.00  0.00     0.000 C 
BRANCH   2   3
ATOM      3  C   UNL     1       5.702 -33.599  22.744  1.00  0.00     0.000 C 
BRANCH   3   4
ATOM      4  C   UNL     1       6.057 -34.551  23.903  1.00  0.00     0.000 C 
BRANCH   4   5
ATOM      5  C   UNL     1       5.352 -35.919  23.858  1.00  0.00     0.000 C 
BRANCH   5   6
ATOM      6  C   UNL     1       5.800 -36.846  22.707  1.00  0.00     0.006 C 
BRANCH   6   7
ATOM      7  C   UNL     1       4.651 -37.574  21.990  1.00  0.00     0.053 C 
BRANCH   7   8
ATOM      8  C   UNL     1       5.150 -38.484  20.911  1.00  0.00     0.041 C 
ATOM      9  O   UNL     1       5.040 -38.152  19.701  1.00  0.00    -0.550 OA
ATOM     10  O   UNL     1       5.768 -39.683  21.243  1.00  0.00    -0.550 OA
ENDBRANCH   7   8
ENDBRANCH   6   7
ENDBRANCH   5   6
ENDBRANCH   4   5
ENDBRANCH   3   4
ENDBRANCH   2   3
ENDBRANCH   1   2
BRANCH   1  11
ATOM     11  C   UNL     1       5.582 -34.573  20.192  1.00  0.00     0.000 C 
BRANCH  11  12
ATOM     12  C   UNL     1       5.619 -34.822  18.673  1.00  0.00    -0.000 C 
BRANCH  12  13
ATOM     13  C   UNL     1       4.223 -34.790  18.028  1.00  0.00    -0.000 C 
BRANCH  13  14
ATOM     14  C   UNL     1       3.996 -35.958  17.052  1.00  0.00    -0.000 C 
BRANCH  14  15
ATOM     15  C   UNL     1       3.077 -35.576  15.879  1.00  0.00    -0.000 C 
BRANCH  15  16
ATOM     16  C   UNL     1       2.688 -36.787  15.016  1.00  0.00    -0.000 C 
BRANCH  16  17
ATOM     17  C   UNL     1       3.805 -37.208  14.048  1.00  0.00    -0.003 C 
ATOM     18  C   UNL     1       4.099 -38.702  14.169  1.00  0.00     0.004 C 
ENDBRANCH  16  17
ENDBRANCH  15  16
ENDBRANCH  14  15
ENDBRANCH  13  14
ENDBRANCH  12  13
ENDBRANCH  11  12
ENDBRANCH   1  11
TORSDOF 14
ENDMDL
MODEL 2
REMARK VINA RESULT:    -0.976      2.174      5.729
REMARK INTER + INTRA:          -2.939
REMARK INTER:                  -1.647
REMARK INTRA:                  -1.292
REMARK UNBOUND:                -1.165
REMARK SMILES CCCCCCCCCCCCCCCC(=O)[O-]
REMARK SMILES IDX 9 1 10 2 11 3 12 4 13 5 14 6 15 7 16 8 17 9 18 10 8 11 7 12
REMARK SMILES IDX 6 13 5 14 4 15 3 16 2 17 1 18
REMARK H PARENT
REMARK Flexibility Score: inf
ROOT
ATOM      1  C   UNL     1       4.047 -33.958  22.184  1.00  0.00     0.000 C 
ENDROOT
BRANCH   1   2
ATOM      2  C   UNL     1       4.134 -34.034  20.650  1.00  0.00     0.000 C 
BRANCH   2   3
ATOM      3  C   UNL     1       5.547 -34.416  20.158  1.00  0.00     0.000 C 
BRANCH   3   4
ATOM      4  C   UNL     1       5.589 -34.863  18.684  1.00  0.00     0.000 C 
BRANCH   4   5
ATOM      5  C   UNL     1       4.239 -34.796  17.947  1.00  0.00     0.000 C 
BRANCH   5   6
ATOM      6  C   UNL     1       3.959 -35.975  16.991  1.00  0.00     0.006 C 
BRANCH   6   7
ATOM      7  C   UNL     1       3.016 -35.640  15.824  1.00  0.00     0.053 C 
BRANCH   7   8
ATOM      8  C   UNL     1       2.967 -36.739  14.808  1.00  0.00     0.041 C 
ATOM      9  O   UNL     1       1.967 -36.858  14.052  1.00  0.00    -0.550 OA
ATOM     10  O   UNL     1       4.041 -37.610  14.672  1.00  0.00    -0.550 OA
ENDBRANCH   7   8
ENDBRANCH   6   7
ENDBRANCH   5   6
ENDBRANCH   4   5
ENDBRANCH   3   4
ENDBRANCH   2   3
ENDBRANCH   1   2
BRANCH   1  11
ATOM     11  C   UNL     1       5.352 -33.464  22.835  1.00  0.00     0.000 C 
BRANCH  11  12
ATOM     12  C   UNL     1       6.060 -34.488  23.742  1.00  0.00    -0.000 C 
BRANCH  12  13
ATOM     13  C   UNL     1       5.351 -35.853  23.768  1.00  0.00    -0.000 C 
BRANCH  13  14
ATOM     14  C   UNL     1       5.849 -36.799  22.661  1.00  0.00    -0.000 C 
BRANCH  14  15
ATOM     15  C   UNL     1       4.715 -37.637  22.047  1.00  0.00    -0.000 C 
BRANCH  15  16
ATOM     16  C   UNL     1       4.941 -37.934  20.556  1.00  0.00    -0.000 C 
BRANCH  16  17
ATOM     17  C   UNL     1       5.671 -39.266  20.321  1.00  0.00    -0.003 C 
ATOM     18  C   UNL     1       5.686 -40.113  21.591  1.00  0.00     0.004 C 
ENDBRANCH  16  17
ENDBRANCH  15  16
ENDBRANCH  14  15
ENDBRANCH  13  14
ENDBRANCH  12  13
ENDBRANCH  11  12
ENDBRANCH   1  11
TORSDOF 14
ENDMDL
MODEL 3
REMARK VINA RESULT:    -0.520      2.489      6.322
REMARK INTER + INTRA:          -2.110
REMARK INTER:                  -1.668
REMARK INTRA:                  -0.442
REMARK UNBOUND:                -1.165
REMARK SMILES CCCCCCCCCCCCCCCC(=O)[O-]
REMARK SMILES IDX 9 1 10 2 11 3 12 4 13 5 14 6 15 7 16 8 17 9 18 10 8 11 7 12
REMARK SMILES IDX 6 13 5 14 4 15 3 16 2 17 1 18
REMARK H PARENT
REMARK Flexibility Score: inf
ROOT
ATOM      1  C   UNL     1       3.480 -34.616  20.822  1.00  0.00     0.000 C 
ENDROOT
BRANCH   1   2
ATOM      2  C   UNL     1       4.378 -33.837  19.847  1.00  0.00     0.000 C 
BRANCH   2   3
ATOM      3  C   UNL     1       4.716 -34.652  18.580  1.00  0.00     0.000 C 
BRANCH   3   4
ATOM      4  C   UNL     1       4.718 -36.176  18.807  1.00  0.00     0.000 C 
BRANCH   4   5
ATOM      5  C   UNL     1       5.200 -36.625  20.198  1.00  0.00     0.000 C 
BRANCH   5   6
ATOM      6  C   UNL     1       4.843 -38.079  20.574  1.00  0.00     0.006 C 
BRANCH   6   7
ATOM      7  C   UNL     1       5.798 -38.728  21.589  1.00  0.00     0.053 C 
BRANCH   7   8
ATOM      8  C   UNL     1       5.530 -40.192  21.755  1.00  0.00     0.041 C 
ATOM      9  O   UNL     1       6.125 -41.031  21.028  1.00  0.00    -0.550 OA
ATOM     10  O   UNL     1       4.652 -40.632  22.737  1.00  0.00    -0.550 OA
ENDBRANCH   7   8
ENDBRANCH   6   7
ENDBRANCH   5   6
ENDBRANCH   4   5
ENDBRANCH   3   4
ENDBRANCH   2   3
ENDBRANCH   1   2
BRANCH   1  11
ATOM     11  C   UNL     1       3.634 -34.151  22.282  1.00  0.00     0.000 C 
BRANCH  11  12
ATOM     12  C   UNL     1       4.932 -33.384  22.591  1.00  0.00    -0.000 C 
BRANCH  12  13
ATOM     13  C   UNL     1       6.118 -34.315  22.897  1.00  0.00    -0.000 C 
BRANCH  13  14
ATOM     14  C   UNL     1       6.093 -34.849  24.340  1.00  0.00    -0.000 C 
BRANCH  14  15
ATOM     15  C   UNL     1       5.730 -36.343  24.410  1.00  0.00    -0.000 C 
BRANCH  15  16
ATOM     16  C   UNL     1       5.435 -36.812  25.844  1.00  0.00    -0.000 C 
BRANCH  16  17
ATOM     17  C   UNL     1       4.435 -37.978  25.892  1.00  0.00    -0.003 C 
ATOM     18  C   UNL     1       3.245 -37.641  26.787  1.00  0.00     0.004 C 
ENDBRANCH  16  17
ENDBRANCH  15  16
ENDBRANCH  14  15
ENDBRANCH  13  14
ENDBRANCH  12  13
ENDBRANCH  11  12
ENDBRANCH   1  11
TORSDOF 14
ENDMDL
MODEL 4
REMARK VINA RESULT:    -0.321      2.106      2.747
REMARK INTER + INTRA:          -1.748
REMARK INTER:                  -1.593
REMARK INTRA:                  -0.155
REMARK UNBOUND:                -1.165
REMARK SMILES CCCCCCCCCCCCCCCC(=O)[O-]
REMARK SMILES IDX 9 1 10 2 11 3 12 4 13 5 14 6 15 7 16 8 17 9 18 10 8 11 7 12
REMARK SMILES IDX 6 13 5 14 4 15 3 16 2 17 1 18
REMARK H PARENT
REMARK Flexibility Score: inf
ROOT
ATOM      1  C   UNL     1       4.302 -35.928  21.618  1.00  0.00     0.000 C 
ENDROOT
BRANCH   1   2
ATOM      2  C   UNL     1       3.694 -34.537  21.369  1.00  0.00     0.000 C 
BRANCH   2   3
ATOM      3  C   UNL     1       4.330 -33.449  22.261  1.00  0.00     0.000 C 
BRANCH   3   4
ATOM      4  C   UNL     1       5.757 -33.791  22.731  1.00  0.00     0.000 C 
BRANCH   4   5
ATOM      5  C   UNL     1       5.855 -34.340  24.165  1.00  0.00     0.000 C 
BRANCH   5   6
ATOM      6  C   UNL     1       6.092 -35.863  24.265  1.00  0.00     0.006 C 
BRANCH   6   7
ATOM      7  C   UNL     1       5.931 -36.441  25.680  1.00  0.00     0.053 C 
BRANCH   7   8
ATOM      8  C   UNL     1       4.826 -37.450  25.752  1.00  0.00     0.041 C 
ATOM      9  O   UNL     1       4.960 -38.575  25.203  1.00  0.00    -0.550 OA
ATOM     10  O   UNL     1       3.663 -37.159  26.454  1.00  0.00    -0.550 OA
ENDBRANCH   7   8
ENDBRANCH   6   7
ENDBRANCH   5   6
ENDBRANCH   4   5
ENDBRANCH   3   4
ENDBRANCH   2   3
ENDBRANCH   1   2
BRANCH   1  11
ATOM     11  C   UNL     1       5.355 -36.320  20.564  1.00  0.00     0.000 C 
BRANCH  11  12
ATOM     12  C   UNL     1       4.833 -36.405  19.118  1.00  0.00    -0.000 C 
BRANCH  12  13
ATOM     13  C   UNL     1       4.819 -35.041  18.407  1.00  0.00    -0.000 C 
BRANCH  13  14
ATOM     14  C   UNL     1       3.788 -34.980  17.267  1.00  0.00    -0.000 C 
BRANCH  14  15
ATOM     15  C   UNL     1       3.722 -36.288  16.460  1.00  0.00    -0.000 C 
BRANCH  15  16
ATOM     16  C   UNL     1       2.789 -36.184  15.243  1.00  0.00    -0.000 C 
BRANCH  16  17
ATOM     17  C   UNL     1       3.375 -36.851  13.988  1.00  0.00    -0.003 C 
ATOM     18  C   UNL     1       3.864 -38.264  14.297  1.00  0.00     0.004 C 
ENDBRANCH  16  17
ENDBRANCH  15  16
ENDBRANCH  14  15
ENDBRANCH  13  14
ENDBRANCH  12  13
ENDBRANCH  11  12
ENDBRANCH   1  11
TORSDOF 14
ENDMDL
MODEL 5
REMARK VINA RESULT:    -0.318      2.248      6.745
REMARK INTER + INTRA:          -1.743
REMARK INTER:                  -1.219
REMARK INTRA:                  -0.524
REMARK UNBOUND:                -1.165
REMARK SMILES CCCCCCCCCCCCCCCC(=O)[O-]
REMARK SMILES IDX 9 1 10 2 11 3 12 4 13 5 14 6 15 7 16 8 17 9 18 10 8 11 7 12
REMARK SMILES IDX 6 13 5 14 4 15 3 16 2 17 1 18
REMARK H PARENT
REMARK Flexibility Score: inf
ROOT
ATOM      1  C   UNL     1       4.367 -34.569  22.185  1.00  0.00     0.000 C 
ENDROOT
BRANCH   1   2
ATOM      2  C   UNL     1       3.899 -34.071  20.807  1.00  0.00     0.000 C 
BRANCH   2   3
ATOM      3  C   UNL     1       4.996 -34.208  19.729  1.00  0.00     0.000 C 
BRANCH   3   4
ATOM      4  C   UNL     1       4.518 -34.920  18.449  1.00  0.00     0.000 C 
BRANCH   4   5
ATOM      5  C   UNL     1       4.500 -36.457  18.529  1.00  0.00     0.000 C 
BRANCH   5   6
ATOM      6  C   UNL     1       5.312 -37.059  19.697  1.00  0.00     0.006 C 
BRANCH   6   7
ATOM      7  C   UNL     1       5.099 -38.566  19.912  1.00  0.00     0.053 C 
BRANCH   7   8
ATOM      8  C   UNL     1       5.320 -38.966  21.338  1.00  0.00     0.041 C 
ATOM      9  O   UNL     1       5.391 -38.089  22.239  1.00  0.00    -0.550 OA
ATOM     10  O   UNL     1       5.414 -40.310  21.677  1.00  0.00    -0.550 OA
ENDBRANCH   7   8
ENDBRANCH   6   7
ENDBRANCH   5   6
ENDBRANCH   4   5
ENDBRANCH   3   4
ENDBRANCH   2   3
ENDBRANCH   1   2
BRANCH   1  11
ATOM     11  C   UNL     1       5.246 -33.546  22.927  1.00  0.00     0.000 C 
BRANCH  11  12
ATOM     12  C   UNL     1       6.125 -34.130  24.049  1.00  0.00    -0.000 C 
BRANCH  12  13
ATOM     13  C   UNL     1       6.125 -35.668  24.068  1.00  0.00    -0.000 C 
BRANCH  13  14
ATOM     14  C   UNL     1       5.482 -36.243  25.342  1.00  0.00    -0.000 C 
BRANCH  14  15
ATOM     15  C   UNL     1       5.057 -37.713  25.176  1.00  0.00    -0.000 C 
BRANCH  15  16
ATOM     16  C   UNL     1       4.159 -38.201  26.324  1.00  0.00    -0.000 C 
BRANCH  16  17
ATOM     17  C   UNL     1       3.107 -37.160  26.737  1.00  0.00    -0.003 C 
ATOM     18  C   UNL     1       1.927 -37.824  27.442  1.00  0.00     0.004 C 
ENDBRANCH  16  17
ENDBRANCH  15  16
ENDBRANCH  14  15
ENDBRANCH  13  14
ENDBRANCH  12  13
ENDBRANCH  11  12
ENDBRANCH   1  11
TORSDOF 14
ENDMDL
MODEL 6
REMARK VINA RESULT:    -0.310      2.658      4.484
REMARK INTER + INTRA:          -1.729
REMARK INTER:                  -1.568
REMARK INTRA:                  -0.160
REMARK UNBOUND:                -1.165
REMARK SMILES CCCCCCCCCCCCCCCC(=O)[O-]
REMARK SMILES IDX 9 1 10 2 11 3 12 4 13 5 14 6 15 7 16 8 17 9 18 10 8 11 7 12
REMARK SMILES IDX 6 13 5 14 4 15 3 16 2 17 1 18
REMARK H PARENT
REMARK Flexibility Score: inf
ROOT
ATOM      1  C   UNL     1       3.779 -34.321  20.711  1.00  0.00     0.000 C 
ENDROOT
BRANCH   1   2
ATOM      2  C   UNL     1       3.967 -33.294  21.840  1.00  0.00     0.000 C 
BRANCH   2   3
ATOM      3  C   UNL     1       5.068 -33.712  22.838  1.00  0.00     0.000 C 
BRANCH   3   4
ATOM      4  C   UNL     1       5.859 -34.960  22.400  1.00  0.00     0.000 C 
BRANCH   4   5
ATOM      5  C   UNL     1       6.072 -36.014  23.502  1.00  0.00     0.000 C 
BRANCH   5   6
ATOM      6  C   UNL     1       6.064 -35.460  24.944  1.00  0.00     0.006 C 
BRANCH   6   7
ATOM      7  C   UNL     1       5.954 -36.534  26.038  1.00  0.00     0.053 C 
BRANCH   7   8
ATOM      8  C   UNL     1       4.777 -37.435  25.825  1.00  0.00     0.041 C 
ATOM      9  O   UNL     1       4.905 -38.497  25.160  1.00  0.00    -0.550 OA
ATOM     10  O   UNL     1       3.548 -37.120  26.390  1.00  0.00    -0.550 OA
ENDBRANCH   7   8
ENDBRANCH   6   7
ENDBRANCH   5   6
ENDBRANCH   4   5
ENDBRANCH   3   4
ENDBRANCH   2   3
ENDBRANCH   1   2
BRANCH   1  11
ATOM     11  C   UNL     1       4.562 -33.961  19.435  1.00  0.00     0.000 C 
BRANCH  11  12
ATOM     12  C   UNL     1       4.226 -34.815  18.198  1.00  0.00    -0.000 C 
BRANCH  12  13
ATOM     13  C   UNL     1       4.776 -36.248  18.294  1.00  0.00    -0.000 C 
BRANCH  13  14
ATOM     14  C   UNL     1       4.938 -36.723  19.749  1.00  0.00    -0.000 C 
BRANCH  14  15
ATOM     15  C   UNL     1       5.131 -38.246  19.854  1.00  0.00    -0.000 C 
BRANCH  15  16
ATOM     16  C   UNL     1       4.928 -38.769  21.285  1.00  0.00    -0.000 C 
BRANCH  16  17
ATOM     17  C   UNL     1       5.714 -40.060  21.562  1.00  0.00    -0.003 C 
ATOM     18  C   UNL     1       5.132 -40.810  22.757  1.00  0.00     0.004 C 
ENDBRANCH  16  17
ENDBRANCH  15  16
ENDBRANCH  14  15
ENDBRANCH  13  14
ENDBRANCH  12  13
ENDBRANCH  11  12
ENDBRANCH   1  11
TORSDOF 14
ENDMDL
MODEL 7
REMARK VINA RESULT:    -0.123      1.952      3.318
REMARK INTER + INTRA:          -1.389
REMARK INTER:                  -0.457
REMARK INTRA:                  -0.932
REMARK UNBOUND:                -1.165
REMARK SMILES CCCCCCCCCCCCCCCC(=O)[O-]
REMARK SMILES IDX 9 1 10 2 11 3 12 4 13 5 14 6 15 7 16 8 17 9 18 10 8 11 7 12
REMARK SMILES IDX 6 13 5 14 4 15 3 16 2 17 1 18
REMARK H PARENT
REMARK Flexibility Score: inf
ROOT
ATOM      1  C   UNL     1       5.473 -37.859  19.883  1.00  0.00     0.000 C 
ENDROOT
BRANCH   1   2
ATOM      2  C   UNL     1       5.144 -38.561  21.211  1.00  0.00     0.000 C 
BRANCH   2   3
ATOM      3  C   UNL     1       4.921 -37.560  22.366  1.00  0.00     0.000 C 
BRANCH   3   4
ATOM      4  C   UNL     1       5.951 -36.414  22.399  1.00  0.00     0.000 C 
BRANCH   4   5
ATOM      5  C   UNL     1       5.943 -35.571  23.686  1.00  0.00     0.000 C 
BRANCH   5   6
ATOM      6  C   UNL     1       5.306 -34.171  23.545  1.00  0.00     0.006 C 
BRANCH   6   7
ATOM      7  C   UNL     1       5.096 -33.710  22.094  1.00  0.00     0.053 C 
BRANCH   7   8
ATOM      8  C   UNL     1       3.653 -33.752  21.695  1.00  0.00     0.041 C 
ATOM      9  O   UNL     1       2.942 -34.747  21.995  1.00  0.00    -0.550 OA
ATOM     10  O   UNL     1       3.086 -32.677  21.022  1.00  0.00    -0.550 OA
ENDBRANCH   7   8
ENDBRANCH   6   7
ENDBRANCH   5   6
ENDBRANCH   4   5
ENDBRANCH   3   4
ENDBRANCH   2   3
ENDBRANCH   1   2
BRANCH   1  11
ATOM     11  C   UNL     1       4.390 -36.854  19.449  1.00  0.00     0.000 C 
BRANCH  11  12
ATOM     12  C   UNL     1       4.914 -35.470  19.024  1.00  0.00    -0.000 C 
BRANCH  12  13
ATOM     13  C   UNL     1       4.269 -34.962  17.723  1.00  0.00    -0.000 C 
BRANCH  13  14
ATOM     14  C   UNL     1       3.870 -36.106  16.775  1.00  0.00    -0.000 C 
BRANCH  14  15
ATOM     15  C   UNL     1       2.884 -35.651  15.685  1.00  0.00    -0.000 C 
BRANCH  15  16
ATOM     16  C   UNL     1       2.571 -36.763  14.671  1.00  0.00    -0.000 C 
BRANCH  16  17
ATOM     17  C   UNL     1       3.831 -37.302  13.975  1.00  0.00    -0.003 C 
ATOM     18  C   UNL     1       4.038 -38.782  14.285  1.00  0.00     0.004 C 
ENDBRANCH  16  17
ENDBRANCH  15  16
ENDBRANCH  14  15
ENDBRANCH  13  14
ENDBRANCH  12  13
ENDBRANCH  11  12
ENDBRANCH   1  11
TORSDOF 14
ENDMDL
MODEL 8
REMARK VINA RESULT:    -0.052      2.067      6.055
REMARK INTER + INTRA:          -1.260
REMARK INTER:                  -0.314
REMARK INTRA:                  -0.946
REMARK UNBOUND:                -1.165
REMARK SMILES CCCCCCCCCCCCCCCC(=O)[O-]
REMARK SMILES IDX 9 1 10 2 11 3 12 4 13 5 14 6 15 7 16 8 17 9 18 10 8 11 7 12
REMARK SMILES IDX 6 13 5 14 4 15 3 16 2 17 1 18
REMARK H PARENT
REMARK Flexibility Score: inf
ROOT
ATOM      1  C   UNL     1       4.217 -34.107  20.638  1.00  0.00     0.000 C 
ENDROOT
BRANCH   1   2
ATOM      2  C   UNL     1       5.610 -34.122  19.986  1.00  0.00     0.000 C 
BRANCH   2   3
ATOM      3  C   UNL     1       5.614 -34.849  18.624  1.00  0.00     0.000 C 
BRANCH   3   4
ATOM      4  C   UNL     1       4.228 -35.364  18.194  1.00  0.00     0.000 C 
BRANCH   4   5
ATOM      5  C   UNL     1       4.183 -36.025  16.804  1.00  0.00     0.000 C 
BRANCH   5   6
ATOM      6  C   UNL     1       2.883 -35.781  16.008  1.00  0.00     0.006 C 
BRANCH   6   7
ATOM      7  C   UNL     1       2.883 -36.375  14.590  1.00  0.00     0.053 C 
BRANCH   7   8
ATOM      8  C   UNL     1       3.610 -37.682  14.528  1.00  0.00     0.041 C 
ATOM      9  O   UNL     1       3.102 -38.714  15.040  1.00  0.00    -0.550 OA
ATOM     10  O   UNL     1       4.833 -37.768  13.875  1.00  0.00    -0.550 OA
ENDBRANCH   7   8
ENDBRANCH   6   7
ENDBRANCH   5   6
ENDBRANCH   4   5
ENDBRANCH   3   4
ENDBRANCH   2   3
ENDBRANCH   1   2
BRANCH   1  11
ATOM     11  C   UNL     1       4.270 -33.902  22.164  1.00  0.00     0.000 C 
BRANCH  11  12
ATOM     12  C   UNL     1       5.675 -33.990  22.787  1.00  0.00    -0.000 C 
BRANCH  12  13
ATOM     13  C   UNL     1       5.731 -34.932  24.002  1.00  0.00    -0.000 C 
BRANCH  13  14
ATOM     14  C   UNL     1       5.116 -36.311  23.710  1.00  0.00    -0.000 C 
BRANCH  14  15
ATOM     15  C   UNL     1       5.717 -36.972  22.457  1.00  0.00    -0.000 C 
BRANCH  15  16
ATOM     16  C   UNL     1       4.672 -37.211  21.356  1.00  0.00    -0.000 C 
BRANCH  16  17
ATOM     17  C   UNL     1       4.943 -38.491  20.550  1.00  0.00    -0.003 C 
ATOM     18  C   UNL     1       5.701 -39.516  21.389  1.00  0.00     0.004 C 
ENDBRANCH  16  17
ENDBRANCH  15  16
ENDBRANCH  14  15
ENDBRANCH  13  14
ENDBRANCH  12  13
ENDBRANCH  11  12
ENDBRANCH   1  11
TORSDOF 14
ENDMDL
