MODEL 1
REMARK VINA RESULT:    -4.370      0.000      0.000
REMARK INTER + INTRA:          -6.625
REMARK INTER:                  -5.902
REMARK INTRA:                  -0.723
REMARK UNBOUND:                -0.723
REMARK SMILES O=C[C@H](O)[C@@H](O)[C@@H](O)CO
REMARK SMILES IDX 7 1 9 2 10 3 5 5 3 6 2 7 1 8 4 9 6 11 8 13
REMARK H PARENT 10 4 4 10 6 12 8 14
REMARK Flexibility Score: inf
ROOT
ATOM      1  C   UNL     1     -12.318 -18.898 -15.856  1.00  0.00     0.171 C 
ENDROOT
BRANCH   1   2
ATOM      2  C   UNL     1     -11.658 -17.690 -15.168  1.00  0.00     0.190 C 
BRANCH   2   3
ATOM      3  O   UNL     1     -12.640 -16.841 -14.635  1.00  0.00    -0.394 OA
ATOM      4  H   UNL     1     -13.005 -17.291 -13.829  1.00  0.00     0.210 HD
ENDBRANCH   2   3
ENDBRANCH   1   2
BRANCH   1   5
ATOM      5  C   UNL     1     -13.777 -19.189 -15.396  1.00  0.00     0.181 C 
BRANCH   5   6
ATOM      6  C   UNL     1     -14.451 -20.394 -16.113  1.00  0.00     0.209 C 
BRANCH   6   7
ATOM      7  C   UNL     1     -13.696 -21.677 -15.861  1.00  0.00     0.258 C 
ATOM      8  O   UNL     1     -13.448 -22.033 -14.720  1.00  0.00    -0.300 OA
ENDBRANCH   6   7
BRANCH   6   9
ATOM      9  O   UNL     1     -14.592 -20.171 -17.495  1.00  0.00    -0.383 OA
ATOM     10  H   UNL     1     -13.686 -20.065 -17.889  1.00  0.00     0.211 HD
ENDBRANCH   6   9
ENDBRANCH   5   6
BRANCH   5  11
ATOM     11  O   UNL     1     -13.887 -19.283 -13.996  1.00  0.00    -0.387 OA
ATOM     12  H   UNL     1     -13.257 -19.979 -13.680  1.00  0.00     0.211 HD
ENDBRANCH   5  11
ENDBRANCH   1   5
BRANCH   1  13
ATOM     13  O   UNL     1     -12.300 -18.700 -17.247  1.00  0.00    -0.388 OA
ATOM     14  H   UNL     1     -11.887 -17.811 -17.407  1.00  0.00     0.211 HD
ENDBRANCH   1  13
TORSDOF 8
ENDMDL
MODEL 2
REMARK VINA RESULT:    -4.368      1.145      3.851
REMARK INTER + INTRA:          -6.623
REMARK INTER:                  -6.107
REMARK INTRA:                  -0.516
REMARK UNBOUND:                -0.723
REMARK SMILES O=C[C@H](O)[C@@H](O)[C@@H](O)CO
REMARK SMILES IDX 7 1 9 2 10 3 5 5 3 6 2 7 1 8 4 9 6 11 8 13
REMARK H PARENT 10 4 4 10 6 12 8 14
REMARK Flexibility Score: inf
ROOT
ATOM      1  C   UNL     1     -13.540 -20.002 -15.460  1.00  0.00     0.171 C 
ENDROOT
BRANCH   1   2
ATOM      2  C   UNL     1     -14.505 -21.055 -16.033  1.00  0.00     0.190 C 
BRANCH   2   3
ATOM      3  O   UNL     1     -15.028 -20.615 -17.258  1.00  0.00    -0.394 OA
ATOM      4  H   UNL     1     -14.388 -19.950 -17.623  1.00  0.00     0.210 HD
ENDBRANCH   2   3
ENDBRANCH   1   2
BRANCH   1   5
ATOM      5  C   UNL     1     -13.145 -18.873 -16.457  1.00  0.00     0.181 C 
BRANCH   5   6
ATOM      6  C   UNL     1     -12.233 -17.768 -15.852  1.00  0.00     0.209 C 
BRANCH   6   7
ATOM      7  C   UNL     1     -11.119 -18.365 -15.026  1.00  0.00     0.258 C 
ATOM      8  O   UNL     1     -11.174 -18.342 -13.807  1.00  0.00    -0.300 OA
ENDBRANCH   6   7
BRANCH   6   9
ATOM      9  O   UNL     1     -12.967 -16.841 -15.088  1.00  0.00    -0.383 OA
ATOM     10  H   UNL     1     -13.882 -16.776 -15.469  1.00  0.00     0.211 HD
ENDBRANCH   6   9
ENDBRANCH   5   6
BRANCH   5  11
ATOM     11  O   UNL     1     -12.624 -19.382 -17.661  1.00  0.00    -0.387 OA
ATOM     12  H   UNL     1     -12.504 -20.360 -17.559  1.00  0.00     0.211 HD
ENDBRANCH   5  11
ENDBRANCH   1   5
BRANCH   1  13
ATOM     13  O   UNL     1     -14.116 -19.429 -14.313  1.00  0.00    -0.388 OA
ATOM     14  H   UNL     1     -14.564 -18.590 -14.602  1.00  0.00     0.211 HD
ENDBRANCH   1  13
TORSDOF 8
ENDMDL
MODEL 3
REMARK VINA RESULT:    -4.205      1.256      2.086
REMARK INTER + INTRA:          -6.402
REMARK INTER:                  -5.854
REMARK INTRA:                  -0.548
REMARK UNBOUND:                -0.723
REMARK SMILES O=C[C@H](O)[C@@H](O)[C@@H](O)CO
REMARK SMILES IDX 7 1 9 2 10 3 5 5 3 6 2 7 1 8 4 9 6 11 8 13
REMARK H PARENT 10 4 4 10 6 12 8 14
REMARK Flexibility Score: inf
ROOT
ATOM      1  C   UNL     1     -12.231 -17.723 -16.056  1.00  0.00     0.171 C 
ENDROOT
BRANCH   1   2
ATOM      2  C   UNL     1     -10.811 -17.720 -15.460  1.00  0.00     0.190 C 
BRANCH   2   3
ATOM      3  O   UNL     1     -10.797 -17.011 -14.249  1.00  0.00    -0.394 OA
ATOM      4  H   UNL     1      -9.990 -16.433 -14.263  1.00  0.00     0.210 HD
ENDBRANCH   2   3
ENDBRANCH   1   2
BRANCH   1   5
ATOM      5  C   UNL     1     -12.921 -19.119 -16.079  1.00  0.00     0.181 C 
BRANCH   5   6
ATOM      6  C   UNL     1     -12.928 -19.858 -14.711  1.00  0.00     0.209 C 
BRANCH   6   7
ATOM      7  C   UNL     1     -13.113 -21.345 -14.889  1.00  0.00     0.258 C 
ATOM      8  O   UNL     1     -14.071 -21.778 -15.510  1.00  0.00    -0.300 OA
ENDBRANCH   6   7
BRANCH   6   9
ATOM      9  O   UNL     1     -13.906 -19.342 -13.839  1.00  0.00    -0.383 OA
ATOM     10  H   UNL     1     -14.698 -19.081 -14.378  1.00  0.00     0.211 HD
ENDBRANCH   6   9
ENDBRANCH   5   6
BRANCH   5  11
ATOM     11  O   UNL     1     -14.205 -19.070 -16.655  1.00  0.00    -0.387 OA
ATOM     12  H   UNL     1     -14.833 -18.704 -15.984  1.00  0.00     0.211 HD
ENDBRANCH   5  11
ENDBRANCH   1   5
BRANCH   1  13
ATOM     13  O   UNL     1     -13.032 -16.820 -15.335  1.00  0.00    -0.388 OA
ATOM     14  H   UNL     1     -12.951 -17.063 -14.376  1.00  0.00     0.211 HD
ENDBRANCH   1  13
TORSDOF 8
ENDMDL
MODEL 4
REMARK VINA RESULT:    -4.090      1.117      3.837
REMARK INTER + INTRA:          -6.247
REMARK INTER:                  -5.501
REMARK INTRA:                  -0.745
REMARK UNBOUND:                -0.723
REMARK SMILES O=C[C@H](O)[C@@H](O)[C@@H](O)CO
REMARK SMILES IDX 7 1 9 2 10 3 5 5 3 6 2 7 1 8 4 9 6 11 8 13
REMARK H PARENT 10 4 4 10 6 12 8 14
REMARK Flexibility Score: inf
ROOT
ATOM      1  C   UNL     1     -13.004 -21.263 -15.222  1.00  0.00     0.171 C 
ENDROOT
BRANCH   1   2
ATOM      2  C   UNL     1     -14.096 -22.112 -15.897  1.00  0.00     0.190 C 
BRANCH   2   3
ATOM      3  O   UNL     1     -14.189 -21.786 -17.258  1.00  0.00    -0.394 OA
ATOM      4  H   UNL     1     -13.454 -21.149 -17.453  1.00  0.00     0.210 HD
ENDBRANCH   2   3
ENDBRANCH   1   2
BRANCH   1   5
ATOM      5  C   UNL     1     -13.211 -19.724 -15.343  1.00  0.00     0.181 C 
BRANCH   5   6
ATOM      6  C   UNL     1     -12.223 -19.015 -16.313  1.00  0.00     0.209 C 
BRANCH   6   7
ATOM      7  C   UNL     1     -12.091 -17.546 -15.989  1.00  0.00     0.258 C 
ATOM      8  O   UNL     1     -12.738 -17.055 -15.077  1.00  0.00    -0.300 OA
ENDBRANCH   6   7
BRANCH   6   9
ATOM      9  O   UNL     1     -12.592 -19.189 -17.660  1.00  0.00    -0.383 OA
ATOM     10  H   UNL     1     -12.322 -18.377 -18.165  1.00  0.00     0.211 HD
ENDBRANCH   6   9
ENDBRANCH   5   6
BRANCH   5  11
ATOM     11  O   UNL     1     -14.549 -19.385 -15.618  1.00  0.00    -0.387 OA
ATOM     12  H   UNL     1     -14.971 -20.145 -16.093  1.00  0.00     0.211 HD
ENDBRANCH   5  11
ENDBRANCH   1   5
BRANCH   1  13
ATOM     13  O   UNL     1     -12.923 -21.615 -13.864  1.00  0.00    -0.388 OA
ATOM     14  H   UNL     1     -12.317 -20.960 -13.430  1.00  0.00     0.211 HD
ENDBRANCH   1  13
TORSDOF 8
ENDMDL
MODEL 5
REMARK VINA RESULT:    -4.065      1.319      3.783
REMARK INTER + INTRA:          -6.214
REMARK INTER:                  -5.922
REMARK INTRA:                  -0.291
REMARK UNBOUND:                -0.723
REMARK SMILES O=C[C@H](O)[C@@H](O)[C@@H](O)CO
REMARK SMILES IDX 7 1 9 2 10 3 5 5 3 6 2 7 1 8 4 9 6 11 8 13
REMARK H PARENT 10 4 4 10 6 12 8 14
REMARK Flexibility Score: inf
ROOT
ATOM      1  C   UNL     1     -13.877 -19.726 -16.860  1.00  0.00     0.171 C 
ENDROOT
BRANCH   1   2
ATOM      2  C   UNL     1     -14.499 -21.111 -16.604  1.00  0.00     0.190 C 
BRANCH   2   3
ATOM      3  O   UNL     1     -15.680 -20.980 -15.857  1.00  0.00    -0.394 OA
ATOM      4  H   UNL     1     -15.514 -20.277 -15.176  1.00  0.00     0.210 HD
ENDBRANCH   2   3
ENDBRANCH   1   2
BRANCH   1   5
ATOM      5  C   UNL     1     -13.145 -19.107 -15.632  1.00  0.00     0.181 C 
BRANCH   5   6
ATOM      6  C   UNL     1     -12.570 -17.683 -15.876  1.00  0.00     0.209 C 
BRANCH   6   7
ATOM      7  C   UNL     1     -11.061 -17.696 -15.908  1.00  0.00     0.258 C 
ATOM      8  O   UNL     1     -10.419 -17.264 -14.963  1.00  0.00    -0.300 OA
ENDBRANCH   6   7
BRANCH   6   9
ATOM      9  O   UNL     1     -13.032 -16.758 -14.920  1.00  0.00    -0.383 OA
ATOM     10  H   UNL     1     -12.264 -16.485 -14.353  1.00  0.00     0.211 HD
ENDBRANCH   6   9
ENDBRANCH   5   6
BRANCH   5  11
ATOM     11  O   UNL     1     -13.924 -19.165 -14.461  1.00  0.00    -0.387 OA
ATOM     12  H   UNL     1     -14.667 -19.802 -14.613  1.00  0.00     0.211 HD
ENDBRANCH   5  11
ENDBRANCH   1   5
BRANCH   1  13
ATOM     13  O   UNL     1     -12.980 -19.819 -17.938  1.00  0.00    -0.388 OA
ATOM     14  H   UNL     1     -12.084 -19.566 -17.592  1.00  0.00     0.211 HD
ENDBRANCH   1  13
TORSDOF 8
ENDMDL
MODEL 6
REMARK VINA RESULT:    -3.869      0.674      1.692
REMARK INTER + INTRA:          -5.949
REMARK INTER:                  -5.446
REMARK INTRA:                  -0.502
REMARK UNBOUND:                -0.723
REMARK SMILES O=C[C@H](O)[C@@H](O)[C@@H](O)CO
REMARK SMILES IDX 7 1 9 2 10 3 5 5 3 6 2 7 1 8 4 9 6 11 8 13
REMARK H PARENT 10 4 4 10 6 12 8 14
REMARK Flexibility Score: inf
ROOT
ATOM      1  C   UNL     1     -12.301 -19.071 -15.833  1.00  0.00     0.171 C 
ENDROOT
BRANCH   1   2
ATOM      2  C   UNL     1     -11.878 -17.751 -15.164  1.00  0.00     0.190 C 
BRANCH   2   3
ATOM      3  O   UNL     1     -12.923 -16.818 -15.232  1.00  0.00    -0.394 OA
ATOM      4  H   UNL     1     -12.508 -15.932 -15.399  1.00  0.00     0.210 HD
ENDBRANCH   2   3
ENDBRANCH   1   2
BRANCH   1   5
ATOM      5  C   UNL     1     -13.583 -19.721 -15.234  1.00  0.00     0.181 C 
BRANCH   5   6
ATOM      6  C   UNL     1     -13.642 -21.269 -15.364  1.00  0.00     0.209 C 
BRANCH   6   7
ATOM      7  C   UNL     1     -14.531 -21.693 -16.508  1.00  0.00     0.258 C 
ATOM      8  O   UNL     1     -14.928 -20.870 -17.318  1.00  0.00    -0.300 OA
ENDBRANCH   6   7
BRANCH   6   9
ATOM      9  O   UNL     1     -14.059 -21.882 -14.167  1.00  0.00    -0.383 OA
ATOM     10  H   UNL     1     -14.431 -22.776 -14.386  1.00  0.00     0.211 HD
ENDBRANCH   6   9
ENDBRANCH   5   6
BRANCH   5  11
ATOM     11  O   UNL     1     -13.831 -19.295 -13.915  1.00  0.00    -0.387 OA
ATOM     12  H   UNL     1     -14.808 -19.324 -13.758  1.00  0.00     0.211 HD
ENDBRANCH   5  11
ENDBRANCH   1   5
BRANCH   1  13
ATOM     13  O   UNL     1     -12.492 -18.847 -17.208  1.00  0.00    -0.388 OA
ATOM     14  H   UNL     1     -11.951 -19.525 -17.690  1.00  0.00     0.211 HD
ENDBRANCH   1  13
TORSDOF 8
ENDMDL
MODEL 7
REMARK VINA RESULT:    -3.691      1.496      3.125
REMARK INTER + INTRA:          -5.708
REMARK INTER:                  -5.495
REMARK INTRA:                  -0.213
REMARK UNBOUND:                -0.723
REMARK SMILES O=C[C@H](O)[C@@H](O)[C@@H](O)CO
REMARK SMILES IDX 7 1 9 2 10 3 5 5 3 6 2 7 1 8 4 9 6 11 8 13
REMARK H PARENT 10 4 4 10 6 12 8 14
REMARK Flexibility Score: inf
ROOT
ATOM      1  C   UNL     1     -13.271 -18.759 -16.694  1.00  0.00     0.171 C 
ENDROOT
BRANCH   1   2
ATOM      2  C   UNL     1     -14.191 -19.991 -16.766  1.00  0.00     0.190 C 
BRANCH   2   3
ATOM      3  O   UNL     1     -14.912 -20.127 -15.570  1.00  0.00    -0.394 OA
ATOM      4  H   UNL     1     -14.998 -19.218 -15.181  1.00  0.00     0.210 HD
ENDBRANCH   2   3
ENDBRANCH   1   2
BRANCH   1   5
ATOM      5  C   UNL     1     -12.978 -18.252 -15.251  1.00  0.00     0.181 C 
BRANCH   5   6
ATOM      6  C   UNL     1     -11.710 -18.871 -14.595  1.00  0.00     0.209 C 
BRANCH   6   7
ATOM      7  C   UNL     1     -12.021 -20.193 -13.935  1.00  0.00     0.258 C 
ATOM      8  O   UNL     1     -12.015 -21.225 -14.587  1.00  0.00    -0.300 OA
ENDBRANCH   6   7
BRANCH   6   9
ATOM      9  O   UNL     1     -11.112 -17.991 -13.674  1.00  0.00    -0.383 OA
ATOM     10  H   UNL     1     -10.238 -18.374 -13.398  1.00  0.00     0.211 HD
ENDBRANCH   6   9
ENDBRANCH   5   6
BRANCH   5  11
ATOM     11  O   UNL     1     -12.979 -16.847 -15.167  1.00  0.00    -0.387 OA
ATOM     12  H   UNL     1     -13.499 -16.491 -15.931  1.00  0.00     0.211 HD
ENDBRANCH   5  11
ENDBRANCH   1   5
BRANCH   1  13
ATOM     13  O   UNL     1     -12.057 -19.055 -17.338  1.00  0.00    -0.388 OA
ATOM     14  H   UNL     1     -11.438 -18.301 -17.151  1.00  0.00     0.211 HD
ENDBRANCH   1  13
TORSDOF 8
ENDMDL
MODEL 8
REMARK VINA RESULT:    -3.629      1.170      3.706
REMARK INTER + INTRA:          -5.625
REMARK INTER:                  -5.268
REMARK INTRA:                  -0.357
REMARK UNBOUND:                -0.723
REMARK SMILES O=C[C@H](O)[C@@H](O)[C@@H](O)CO
REMARK SMILES IDX 7 1 9 2 10 3 5 5 3 6 2 7 1 8 4 9 6 11 8 13
REMARK H PARENT 10 4 4 10 6 12 8 14
REMARK Flexibility Score: inf
ROOT
ATOM      1  C   UNL     1     -14.520 -20.657 -16.463  1.00  0.00     0.171 C 
ENDROOT
BRANCH   1   2
ATOM      2  C   UNL     1     -13.799 -21.860 -15.829  1.00  0.00     0.190 C 
BRANCH   2   3
ATOM      3  O   UNL     1     -13.954 -21.836 -14.434  1.00  0.00    -0.394 OA
ATOM      4  H   UNL     1     -13.614 -22.703 -14.091  1.00  0.00     0.210 HD
ENDBRANCH   2   3
ENDBRANCH   1   2
BRANCH   1   5
ATOM      5  C   UNL     1     -13.575 -19.599 -17.104  1.00  0.00     0.181 C 
BRANCH   5   6
ATOM      6  C   UNL     1     -12.517 -19.005 -16.131  1.00  0.00     0.209 C 
BRANCH   6   7
ATOM      7  C   UNL     1     -13.168 -18.422 -14.900  1.00  0.00     0.258 C 
ATOM      8  O   UNL     1     -13.057 -18.981 -13.820  1.00  0.00    -0.300 OA
ENDBRANCH   6   7
BRANCH   6   9
ATOM      9  O   UNL     1     -11.705 -18.043 -16.760  1.00  0.00    -0.383 OA
ATOM     10  H   UNL     1     -11.393 -18.415 -17.626  1.00  0.00     0.211 HD
ENDBRANCH   6   9
ENDBRANCH   5   6
BRANCH   5  11
ATOM     11  O   UNL     1     -12.989 -20.059 -18.298  1.00  0.00    -0.387 OA
ATOM     12  H   UNL     1     -13.711 -20.370 -18.900  1.00  0.00     0.211 HD
ENDBRANCH   5  11
ENDBRANCH   1   5
BRANCH   1  13
ATOM     13  O   UNL     1     -15.423 -21.124 -17.435  1.00  0.00    -0.388 OA
ATOM     14  H   UNL     1     -16.021 -21.776 -16.984  1.00  0.00     0.211 HD
ENDBRANCH   1  13
TORSDOF 8
ENDMDL
MODEL 9
REMARK VINA RESULT:    -3.606      1.168      1.654
REMARK INTER + INTRA:          -5.594
REMARK INTER:                  -5.240
REMARK INTRA:                  -0.354
REMARK UNBOUND:                -0.723
REMARK SMILES O=C[C@H](O)[C@@H](O)[C@@H](O)CO
REMARK SMILES IDX 7 1 9 2 10 3 5 5 3 6 2 7 1 8 4 9 6 11 8 13
REMARK H PARENT 10 4 4 10 6 12 8 14
REMARK Flexibility Score: inf
ROOT
ATOM      1  C   UNL     1     -11.634 -18.678 -15.017  1.00  0.00     0.171 C 
ENDROOT
BRANCH   1   2
ATOM      2  C   UNL     1     -12.485 -17.627 -14.280  1.00  0.00     0.190 C 
BRANCH   2   3
ATOM      3  O   UNL     1     -12.995 -16.692 -15.193  1.00  0.00    -0.394 OA
ATOM      4  H   UNL     1     -13.843 -16.347 -14.809  1.00  0.00     0.210 HD
ENDBRANCH   2   3
ENDBRANCH   1   2
BRANCH   1   5
ATOM      5  C   UNL     1     -12.436 -19.603 -15.979  1.00  0.00     0.181 C 
BRANCH   5   6
ATOM      6  C   UNL     1     -13.757 -20.164 -15.382  1.00  0.00     0.209 C 
BRANCH   6   7
ATOM      7  C   UNL     1     -13.639 -21.636 -15.068  1.00  0.00     0.258 C 
ATOM      8  O   UNL     1     -12.607 -22.086 -14.595  1.00  0.00    -0.300 OA
ENDBRANCH   6   7
BRANCH   6   9
ATOM      9  O   UNL     1     -14.858 -19.930 -16.227  1.00  0.00    -0.383 OA
ATOM     10  H   UNL     1     -14.566 -19.328 -16.961  1.00  0.00     0.211 HD
ENDBRANCH   6   9
ENDBRANCH   5   6
BRANCH   5  11
ATOM     11  O   UNL     1     -12.639 -19.014 -17.241  1.00  0.00    -0.387 OA
ATOM     12  H   UNL     1     -12.235 -18.110 -17.231  1.00  0.00     0.211 HD
ENDBRANCH   5  11
ENDBRANCH   1   5
BRANCH   1  13
ATOM     13  O   UNL     1     -10.621 -18.022 -15.739  1.00  0.00    -0.388 OA
ATOM     14  H   UNL     1     -10.596 -18.434 -16.642  1.00  0.00     0.211 HD
ENDBRANCH   1  13
TORSDOF 8
ENDMDL
