MODEL 1
REMARK VINA RESULT:    -5.883      0.000      0.000
REMARK INTER + INTRA:         -12.548
REMARK INTER:                 -10.183
REMARK INTRA:                  -2.365
REMARK UNBOUND:                -2.365
REMARK SMILES OC[C@@H]1O[C@H](O[C@@H]2[C@@H](O)[C@H](O)[C@@H](O[C@@H]3[C@H](O)[C@@H](O)[C@@H](O)O[C@@H]3CO)O[C@@H]2CO)[C@H](O)[C@H](O)[C@@H]1O
REMARK SMILES IDX 7 1 26 2 25 3 12 4 10 5 8 6 6 7 5 8 3 9 33 10 4 11 31 12
REMARK SMILES IDX 29 13 2 14 1 15 34 17 32 19 30 21 27 23 28 24 9 26 11 28
REMARK SMILES IDX 13 30 14 31 22 32 15 33 21 34 17 35 19 36 23 37 24 38 16 40
REMARK SMILES IDX 18 42 20 44
REMARK H PARENT 1 16 34 18 32 20 30 22 28 25 9 27 11 29 24 39 16 41 18 43
REMARK H PARENT 20 45
REMARK Flexibility Score: inf
ROOT
ATOM      1  C   UNL     1      36.234   2.424  42.460  1.00  0.00     0.184 C 
ATOM      2  C   UNL     1      37.229   1.942  41.372  1.00  0.00     0.178 C 
ATOM      3  O   UNL     1      38.576   2.145  41.769  1.00  0.00    -0.341 OA
ATOM      4  C   UNL     1      38.916   1.335  42.886  1.00  0.00     0.282 C 
ATOM      5  C   UNL     1      38.117   1.732  44.146  1.00  0.00     0.202 C 
ATOM      6  C   UNL     1      36.590   1.882  43.882  1.00  0.00     0.180 C 
ENDROOT
BRANCH   1   7
ATOM      7  O   UNL     1      35.884   3.807  42.376  1.00  0.00    -0.341 OA
BRANCH   7   8
ATOM      8  C   UNL     1      36.690   4.709  43.116  1.00  0.00     0.282 C 
ATOM      9  C   UNL     1      38.582   6.137  42.985  1.00  0.00     0.178 C 
ATOM     10  C   UNL     1      38.088   6.650  44.381  1.00  0.00     0.177 C 
ATOM     11  O   UNL     1      37.627   5.349  42.274  1.00  0.00    -0.341 OA
ATOM     12  C   UNL     1      36.570   6.939  44.386  1.00  0.00     0.179 C 
ATOM     13  C   UNL     1      35.763   5.780  43.726  1.00  0.00     0.202 C 
BRANCH   9  14
ATOM     14  C   UNL     1      39.039   7.265  42.045  1.00  0.00     0.191 C 
BRANCH  14  15
ATOM     15  O   UNL     1      38.340   7.198  40.829  1.00  0.00    -0.394 OA
ATOM     16  H   UNL     1      37.787   6.374  40.870  1.00  0.00     0.210 HD
ENDBRANCH  14  15
ENDBRANCH   9  14
BRANCH  10  17
ATOM     17  O   UNL     1      38.849   7.729  44.878  1.00  0.00    -0.387 OA
ATOM     18  H   UNL     1      38.869   7.678  45.867  1.00  0.00     0.211 HD
ENDBRANCH  10  17
BRANCH  12  19
ATOM     19  O   UNL     1      36.311   8.162  43.742  1.00  0.00    -0.387 OA
ATOM     20  H   UNL     1      35.559   8.592  44.228  1.00  0.00     0.211 HD
ENDBRANCH  12  19
BRANCH  13  21
ATOM     21  O   UNL     1      34.917   6.275  42.713  1.00  0.00    -0.385 OA
ATOM     22  H   UNL     1      35.330   7.120  42.389  1.00  0.00     0.211 HD
ENDBRANCH  13  21
ENDBRANCH   7   8
ENDBRANCH   1   7
BRANCH   2  23
ATOM     23  C   UNL     1      36.987   2.610  40.008  1.00  0.00     0.191 C 
BRANCH  23  24
ATOM     24  O   UNL     1      37.729   3.792  39.913  1.00  0.00    -0.394 OA
ATOM     25  H   UNL     1      37.240   4.373  39.274  1.00  0.00     0.210 HD
ENDBRANCH  23  24
ENDBRANCH   2  23
BRANCH   6  26
ATOM     26  O   UNL     1      35.947   0.648  44.107  1.00  0.00    -0.387 OA
ATOM     27  H   UNL     1      35.945   0.479  45.086  1.00  0.00     0.211 HD
ENDBRANCH   6  26
BRANCH   5  28
ATOM     28  O   UNL     1      38.656   2.913  44.678  1.00  0.00    -0.385 OA
ATOM     29  H   UNL     1      39.641   2.785  44.739  1.00  0.00     0.211 HD
ENDBRANCH   5  28
BRANCH   4  30
ATOM     30  O   UNL     1      38.724  -0.049  42.607  1.00  0.00    -0.341 OA
BRANCH  30  31
ATOM     31  C   UNL     1      39.931  -0.724  42.268  1.00  0.00     0.184 C 
ATOM     32  C   UNL     1      40.044  -2.010  43.121  1.00  0.00     0.178 C 
ATOM     33  C   UNL     1      39.900  -1.132  40.782  1.00  0.00     0.180 C 
ATOM     34  O   UNL     1      38.936  -2.867  42.883  1.00  0.00    -0.342 OA
ATOM     35  C   UNL     1      38.784  -2.161  40.540  1.00  0.00     0.201 C 
ATOM     36  C   UNL     1      38.908  -3.331  41.541  1.00  0.00     0.279 C 
BRANCH  32  37
ATOM     37  C   UNL     1      40.096  -1.690  44.623  1.00  0.00     0.191 C 
BRANCH  37  38
ATOM     38  O   UNL     1      38.806  -1.572  45.162  1.00  0.00    -0.394 OA
ATOM     39  H   UNL     1      38.864  -1.871  46.106  1.00  0.00     0.210 HD
ENDBRANCH  37  38
ENDBRANCH  32  37
BRANCH  33  40
ATOM     40  O   UNL     1      39.694  -0.008  39.968  1.00  0.00    -0.387 OA
ATOM     41  H   UNL     1      40.045  -0.238  39.067  1.00  0.00     0.211 HD
ENDBRANCH  33  40
BRANCH  35  42
ATOM     42  O   UNL     1      38.854  -2.655  39.227  1.00  0.00    -0.385 OA
ATOM     43  H   UNL     1      39.796  -2.552  38.930  1.00  0.00     0.211 HD
ENDBRANCH  35  42
BRANCH  36  44
ATOM     44  O   UNL     1      40.040  -4.123  41.270  1.00  0.00    -0.366 OA
ATOM     45  H   UNL     1      40.080  -4.826  41.969  1.00  0.00     0.213 HD
ENDBRANCH  36  44
ENDBRANCH  30  31
ENDBRANCH   4  30
TORSDOF 18
ENDMDL
MODEL 2
REMARK VINA RESULT:    -5.480      1.714      2.888
REMARK INTER + INTRA:         -11.850
REMARK INTER:                 -10.283
REMARK INTRA:                  -1.568
REMARK UNBOUND:                -2.365
REMARK SMILES OC[C@@H]1O[C@H](O[C@@H]2[C@@H](O)[C@H](O)[C@@H](O[C@@H]3[C@H](O)[C@@H](O)[C@@H](O)O[C@@H]3CO)O[C@@H]2CO)[C@H](O)[C@H](O)[C@@H]1O
REMARK SMILES IDX 7 1 26 2 25 3 12 4 10 5 8 6 6 7 5 8 3 9 33 10 4 11 31 12
REMARK SMILES IDX 29 13 2 14 1 15 34 17 32 19 30 21 27 23 28 24 9 26 11 28
REMARK SMILES IDX 13 30 14 31 22 32 15 33 21 34 17 35 19 36 23 37 24 38 16 40
REMARK SMILES IDX 18 42 20 44
REMARK H PARENT 1 16 34 18 32 20 30 22 28 25 9 27 11 29 24 39 16 41 18 43
REMARK H PARENT 20 45
REMARK Flexibility Score: inf
ROOT
ATOM      1  C   UNL     1      38.513   1.925  43.156  1.00  0.00     0.184 C 
ATOM      2  C   UNL     1      39.231   1.259  41.953  1.00  0.00     0.178 C 
ATOM      3  O   UNL     1      40.124   0.241  42.374  1.00  0.00    -0.341 OA
ATOM      4  C   UNL     1      39.428  -0.848  42.966  1.00  0.00     0.282 C 
ATOM      5  C   UNL     1      38.725  -0.434  44.277  1.00  0.00     0.202 C 
ATOM      6  C   UNL     1      37.900   0.880  44.143  1.00  0.00     0.180 C 
ENDROOT
BRANCH   1   7
ATOM      7  O   UNL     1      39.226   3.015  43.745  1.00  0.00    -0.341 OA
BRANCH   7   8
ATOM      8  C   UNL     1      38.865   4.315  43.310  1.00  0.00     0.282 C 
ATOM      9  C   UNL     1      37.106   5.909  43.290  1.00  0.00     0.178 C 
ATOM     10  C   UNL     1      38.214   6.884  42.763  1.00  0.00     0.177 C 
ATOM     11  O   UNL     1      37.605   4.686  43.831  1.00  0.00    -0.341 OA
ATOM     12  C   UNL     1      39.514   6.784  43.593  1.00  0.00     0.179 C 
ATOM     13  C   UNL     1      39.926   5.301  43.838  1.00  0.00     0.202 C 
BRANCH   9  14
ATOM     14  C   UNL     1      36.189   6.541  44.351  1.00  0.00     0.191 C 
BRANCH  14  15
ATOM     15  O   UNL     1      35.620   7.725  43.859  1.00  0.00    -0.394 OA
ATOM     16  H   UNL     1      36.103   7.939  43.017  1.00  0.00     0.210 HD
ENDBRANCH  14  15
ENDBRANCH   9  14
BRANCH  10  17
ATOM     17  O   UNL     1      37.763   8.212  42.617  1.00  0.00    -0.387 OA
ATOM     18  H   UNL     1      36.818   8.199  42.318  1.00  0.00     0.211 HD
ENDBRANCH  10  17
BRANCH  12  19
ATOM     19  O   UNL     1      39.360   7.471  44.811  1.00  0.00    -0.387 OA
ATOM     20  H   UNL     1      38.385   7.518  44.996  1.00  0.00     0.211 HD
ENDBRANCH  12  19
BRANCH  13  21
ATOM     21  O   UNL     1      40.124   5.059  45.212  1.00  0.00    -0.385 OA
ATOM     22  H   UNL     1      41.052   4.712  45.306  1.00  0.00     0.211 HD
ENDBRANCH  13  21
ENDBRANCH   7   8
ENDBRANCH   1   7
BRANCH   2  23
ATOM     23  C   UNL     1      39.982   2.273  41.074  1.00  0.00     0.191 C 
BRANCH  23  24
ATOM     24  O   UNL     1      40.077   1.796  39.762  1.00  0.00    -0.394 OA
ATOM     25  H   UNL     1      40.568   0.935  39.817  1.00  0.00     0.210 HD
ENDBRANCH  23  24
ENDBRANCH   2  23
BRANCH   6  26
ATOM     26  O   UNL     1      36.577   0.571  43.765  1.00  0.00    -0.387 OA
ATOM     27  H   UNL     1      36.548  -0.391  43.520  1.00  0.00     0.211 HD
ENDBRANCH   6  26
BRANCH   5  28
ATOM     28  O   UNL     1      39.683  -0.327  45.297  1.00  0.00    -0.385 OA
ATOM     29  H   UNL     1      40.528  -0.719  44.948  1.00  0.00     0.211 HD
ENDBRANCH   5  28
BRANCH   4  30
ATOM     30  O   UNL     1      38.480  -1.414  42.066  1.00  0.00    -0.341 OA
BRANCH  30  31
ATOM     31  C   UNL     1      38.981  -2.549  41.366  1.00  0.00     0.184 C 
ATOM     32  C   UNL     1      37.918  -3.672  41.404  1.00  0.00     0.178 C 
ATOM     33  C   UNL     1      39.240  -2.179  39.893  1.00  0.00     0.180 C 
ATOM     34  O   UNL     1      36.707  -3.236  40.800  1.00  0.00    -0.342 OA
ATOM     35  C   UNL     1      37.916  -1.831  39.195  1.00  0.00     0.201 C 
ATOM     36  C   UNL     1      36.881  -2.955  39.419  1.00  0.00     0.279 C 
BRANCH  32  37
ATOM     37  C   UNL     1      37.610  -4.112  42.843  1.00  0.00     0.191 C 
BRANCH  37  38
ATOM     38  O   UNL     1      36.747  -3.206  43.478  1.00  0.00    -0.394 OA
ATOM     39  H   UNL     1      35.978  -3.734  43.816  1.00  0.00     0.210 HD
ENDBRANCH  37  38
ENDBRANCH  32  37
BRANCH  33  40
ATOM     40  O   UNL     1      40.122  -1.091  39.807  1.00  0.00    -0.387 OA
ATOM     41  H   UNL     1      39.909  -0.487  40.566  1.00  0.00     0.211 HD
ENDBRANCH  33  40
BRANCH  35  42
ATOM     42  O   UNL     1      38.125  -1.650  37.818  1.00  0.00    -0.385 OA
ATOM     43  H   UNL     1      37.741  -0.766  37.581  1.00  0.00     0.211 HD
ENDBRANCH  35  42
BRANCH  36  44
ATOM     44  O   UNL     1      37.231  -4.125  38.718  1.00  0.00    -0.366 OA
ATOM     45  H   UNL     1      36.682  -4.864  39.088  1.00  0.00     0.213 HD
ENDBRANCH  36  44
ENDBRANCH  30  31
ENDBRANCH   4  30
TORSDOF 18
ENDMDL
MODEL 3
REMARK VINA RESULT:    -5.287      1.911      3.249
REMARK INTER + INTRA:         -11.515
REMARK INTER:                 -11.252
REMARK INTRA:                  -0.263
REMARK UNBOUND:                -2.365
REMARK SMILES OC[C@@H]1O[C@H](O[C@@H]2[C@@H](O)[C@H](O)[C@@H](O[C@@H]3[C@H](O)[C@@H](O)[C@@H](O)O[C@@H]3CO)O[C@@H]2CO)[C@H](O)[C@H](O)[C@@H]1O
REMARK SMILES IDX 7 1 26 2 25 3 12 4 10 5 8 6 6 7 5 8 3 9 33 10 4 11 31 12
REMARK SMILES IDX 29 13 2 14 1 15 34 17 32 19 30 21 27 23 28 24 9 26 11 28
REMARK SMILES IDX 13 30 14 31 22 32 15 33 21 34 17 35 19 36 23 37 24 38 16 40
REMARK SMILES IDX 18 42 20 44
REMARK H PARENT 1 16 34 18 32 20 30 22 28 25 9 27 11 29 24 39 16 41 18 43
REMARK H PARENT 20 45
REMARK Flexibility Score: inf
ROOT
ATOM      1  C   UNL     1      38.270   3.103  41.944  1.00  0.00     0.184 C 
ATOM      2  C   UNL     1      39.158   1.993  41.322  1.00  0.00     0.178 C 
ATOM      3  O   UNL     1      40.122   1.515  42.247  1.00  0.00    -0.341 OA
ATOM      4  C   UNL     1      39.507   0.849  43.342  1.00  0.00     0.282 C 
ATOM      5  C   UNL     1      38.654   1.814  44.193  1.00  0.00     0.202 C 
ATOM      6  C   UNL     1      37.699   2.704  43.343  1.00  0.00     0.180 C 
ENDROOT
BRANCH   1   7
ATOM      7  O   UNL     1      38.803   4.425  41.829  1.00  0.00    -0.341 OA
BRANCH   7   8
ATOM      8  C   UNL     1      37.950   5.487  42.223  1.00  0.00     0.282 C 
ATOM      9  C   UNL     1      35.866   5.991  43.243  1.00  0.00     0.178 C 
ATOM     10  C   UNL     1      36.413   7.460  43.256  1.00  0.00     0.177 C 
ATOM     11  O   UNL     1      36.853   4.997  42.967  1.00  0.00    -0.341 OA
ATOM     12  C   UNL     1      37.867   7.531  43.776  1.00  0.00     0.179 C 
ATOM     13  C   UNL     1      38.766   6.441  43.118  1.00  0.00     0.202 C 
BRANCH   9  14
ATOM     14  C   UNL     1      35.161   5.589  44.550  1.00  0.00     0.191 C 
BRANCH  14  15
ATOM     15  O   UNL     1      35.423   4.243  44.849  1.00  0.00    -0.394 OA
ATOM     16  H   UNL     1      34.656   3.924  45.396  1.00  0.00     0.210 HD
ENDBRANCH  14  15
ENDBRANCH   9  14
BRANCH  10  17
ATOM     17  O   UNL     1      35.555   8.367  43.913  1.00  0.00    -0.387 OA
ATOM     18  H   UNL     1      35.523   9.211  43.394  1.00  0.00     0.211 HD
ENDBRANCH  10  17
BRANCH  12  19
ATOM     19  O   UNL     1      37.881   7.416  45.178  1.00  0.00    -0.387 OA
ATOM     20  H   UNL     1      38.148   8.302  45.539  1.00  0.00     0.211 HD
ENDBRANCH  12  19
BRANCH  13  21
ATOM     21  O   UNL     1      39.429   5.680  44.103  1.00  0.00    -0.385 OA
ATOM     22  H   UNL     1      39.780   4.871  43.643  1.00  0.00     0.211 HD
ENDBRANCH  13  21
ENDBRANCH   7   8
ENDBRANCH   1   7
BRANCH   2  23
ATOM     23  C   UNL     1      39.860   2.447  40.033  1.00  0.00     0.191 C 
BRANCH  23  24
ATOM     24  O   UNL     1      38.962   3.142  39.215  1.00  0.00    -0.394 OA
ATOM     25  H   UNL     1      39.074   2.767  38.303  1.00  0.00     0.210 HD
ENDBRANCH  23  24
ENDBRANCH   2  23
BRANCH   6  26
ATOM     26  O   UNL     1      36.457   2.055  43.193  1.00  0.00    -0.387 OA
ATOM     27  H   UNL     1      36.627   1.159  42.800  1.00  0.00     0.211 HD
ENDBRANCH   6  26
BRANCH   5  28
ATOM     28  O   UNL     1      39.504   2.600  44.986  1.00  0.00    -0.385 OA
ATOM     29  H   UNL     1      39.494   2.212  45.901  1.00  0.00     0.211 HD
ENDBRANCH   5  28
BRANCH   4  30
ATOM     30  O   UNL     1      38.708  -0.247  42.905  1.00  0.00    -0.341 OA
BRANCH  30  31
ATOM     31  C   UNL     1      37.808  -0.717  43.904  1.00  0.00     0.184 C 
ATOM     32  C   UNL     1      36.666  -1.504  43.220  1.00  0.00     0.178 C 
ATOM     33  C   UNL     1      38.547  -1.672  44.861  1.00  0.00     0.180 C 
ATOM     34  O   UNL     1      37.185  -2.607  42.490  1.00  0.00    -0.342 OA
ATOM     35  C   UNL     1      39.000  -2.931  44.105  1.00  0.00     0.201 C 
ATOM     36  C   UNL     1      37.810  -3.555  43.342  1.00  0.00     0.279 C 
BRANCH  32  37
ATOM     37  C   UNL     1      35.866  -0.616  42.254  1.00  0.00     0.191 C 
BRANCH  37  38
ATOM     38  O   UNL     1      34.550  -0.431  42.707  1.00  0.00    -0.394 OA
ATOM     39  H   UNL     1      34.284  -1.273  43.160  1.00  0.00     0.210 HD
ENDBRANCH  37  38
ENDBRANCH  32  37
BRANCH  33  40
ATOM     40  O   UNL     1      39.659  -1.035  45.430  1.00  0.00    -0.387 OA
ATOM     41  H   UNL     1      39.546  -0.060  45.269  1.00  0.00     0.211 HD
ENDBRANCH  33  40
BRANCH  35  42
ATOM     42  O   UNL     1      39.529  -3.873  45.003  1.00  0.00    -0.385 OA
ATOM     43  H   UNL     1      39.486  -3.466  45.907  1.00  0.00     0.211 HD
ENDBRANCH  35  42
BRANCH  36  44
ATOM     44  O   UNL     1      36.870  -4.119  44.225  1.00  0.00    -0.366 OA
ATOM     45  H   UNL     1      37.372  -4.691  44.862  1.00  0.00     0.213 HD
ENDBRANCH  36  44
ENDBRANCH  30  31
ENDBRANCH   4  30
TORSDOF 18
ENDMDL
MODEL 4
REMARK VINA RESULT:    -5.188      2.296      4.061
REMARK INTER + INTRA:         -11.345
REMARK INTER:                  -9.649
REMARK INTRA:                  -1.696
REMARK UNBOUND:                -2.365
REMARK SMILES OC[C@@H]1O[C@H](O[C@@H]2[C@@H](O)[C@H](O)[C@@H](O[C@@H]3[C@H](O)[C@@H](O)[C@@H](O)O[C@@H]3CO)O[C@@H]2CO)[C@H](O)[C@H](O)[C@@H]1O
REMARK SMILES IDX 7 1 26 2 25 3 12 4 10 5 8 6 6 7 5 8 3 9 33 10 4 11 31 12
REMARK SMILES IDX 29 13 2 14 1 15 34 17 32 19 30 21 27 23 28 24 9 26 11 28
REMARK SMILES IDX 13 30 14 31 22 32 15 33 21 34 17 35 19 36 23 37 24 38 16 40
REMARK SMILES IDX 18 42 20 44
REMARK H PARENT 1 16 34 18 32 20 30 22 28 25 9 27 11 29 24 39 16 41 18 43
REMARK H PARENT 20 45
REMARK Flexibility Score: inf
ROOT
ATOM      1  C   UNL     1      38.269   1.544  42.714  1.00  0.00     0.184 C 
ATOM      2  C   UNL     1      36.942   1.144  42.018  1.00  0.00     0.178 C 
ATOM      3  O   UNL     1      36.664   1.976  40.903  1.00  0.00    -0.341 OA
ATOM      4  C   UNL     1      37.625   1.799  39.871  1.00  0.00     0.282 C 
ATOM      5  C   UNL     1      39.031   2.262  40.312  1.00  0.00     0.202 C 
ATOM      6  C   UNL     1      39.451   1.708  41.705  1.00  0.00     0.180 C 
ENDROOT
BRANCH   1   7
ATOM      7  O   UNL     1      38.136   2.562  43.708  1.00  0.00    -0.341 OA
BRANCH   7   8
ATOM      8  C   UNL     1      38.142   3.903  43.245  1.00  0.00     0.282 C 
ATOM      9  C   UNL     1      36.980   5.970  43.348  1.00  0.00     0.178 C 
ATOM     10  C   UNL     1      38.254   6.536  42.633  1.00  0.00     0.177 C 
ATOM     11  O   UNL     1      37.142   4.661  43.894  1.00  0.00    -0.341 OA
ATOM     12  C   UNL     1      39.558   6.045  43.301  1.00  0.00     0.179 C 
ATOM     13  C   UNL     1      39.519   4.512  43.580  1.00  0.00     0.202 C 
BRANCH   9  14
ATOM     14  C   UNL     1      36.457   6.876  44.475  1.00  0.00     0.191 C 
BRANCH  14  15
ATOM     15  O   UNL     1      35.728   7.949  43.937  1.00  0.00    -0.394 OA
ATOM     16  H   UNL     1      36.212   8.233  43.117  1.00  0.00     0.210 HD
ENDBRANCH  14  15
ENDBRANCH   9  14
BRANCH  10  17
ATOM     17  O   UNL     1      38.222   7.936  42.465  1.00  0.00    -0.387 OA
ATOM     18  H   UNL     1      39.115   8.243  42.164  1.00  0.00     0.211 HD
ENDBRANCH  10  17
BRANCH  12  19
ATOM     19  O   UNL     1      39.791   6.766  44.487  1.00  0.00    -0.387 OA
ATOM     20  H   UNL     1      38.955   7.261  44.693  1.00  0.00     0.211 HD
ENDBRANCH  12  19
BRANCH  13  21
ATOM     21  O   UNL     1      39.815   4.243  44.932  1.00  0.00    -0.385 OA
ATOM     22  H   UNL     1      38.978   3.889  45.338  1.00  0.00     0.211 HD
ENDBRANCH  13  21
ENDBRANCH   7   8
ENDBRANCH   1   7
BRANCH   2  23
ATOM     23  C   UNL     1      35.742   1.152  42.979  1.00  0.00     0.191 C 
BRANCH  23  24
ATOM     24  O   UNL     1      35.155   2.422  43.006  1.00  0.00    -0.394 OA
ATOM     25  H   UNL     1      35.902   3.072  42.942  1.00  0.00     0.210 HD
ENDBRANCH  23  24
ENDBRANCH   2  23
BRANCH   6  26
ATOM     26  O   UNL     1      40.124   0.480  41.541  1.00  0.00    -0.387 OA
ATOM     27  H   UNL     1      39.467  -0.250  41.690  1.00  0.00     0.211 HD
ENDBRANCH   6  26
BRANCH   5  28
ATOM     28  O   UNL     1      39.079   3.664  40.291  1.00  0.00    -0.385 OA
ATOM     29  H   UNL     1      38.237   3.993  40.706  1.00  0.00     0.211 HD
ENDBRANCH   5  28
BRANCH   4  30
ATOM     30  O   UNL     1      37.676   0.445  39.431  1.00  0.00    -0.341 OA
BRANCH  30  31
ATOM     31  C   UNL     1      38.104   0.312  38.079  1.00  0.00     0.184 C 
ATOM     32  C   UNL     1      38.749  -1.081  37.891  1.00  0.00     0.178 C 
ATOM     33  C   UNL     1      36.890   0.413  37.136  1.00  0.00     0.180 C 
ATOM     34  O   UNL     1      37.817  -2.109  38.199  1.00  0.00    -0.342 OA
ATOM     35  C   UNL     1      35.937  -0.770  37.373  1.00  0.00     0.201 C 
ATOM     36  C   UNL     1      36.714  -2.103  37.306  1.00  0.00     0.279 C 
BRANCH  32  37
ATOM     37  C   UNL     1      39.983  -1.260  38.789  1.00  0.00     0.191 C 
BRANCH  37  38
ATOM     38  O   UNL     1      39.625  -1.760  40.050  1.00  0.00    -0.394 OA
ATOM     39  H   UNL     1      39.537  -2.743  39.952  1.00  0.00     0.210 HD
ENDBRANCH  37  38
ENDBRANCH  32  37
BRANCH  33  40
ATOM     40  O   UNL     1      36.206   1.621  37.342  1.00  0.00    -0.387 OA
ATOM     41  H   UNL     1      35.307   1.386  37.697  1.00  0.00     0.211 HD
ENDBRANCH  33  40
BRANCH  35  42
ATOM     42  O   UNL     1      34.914  -0.770  36.411  1.00  0.00    -0.385 OA
ATOM     43  H   UNL     1      35.110  -0.030  35.780  1.00  0.00     0.211 HD
ENDBRANCH  35  42
BRANCH  36  44
ATOM     44  O   UNL     1      37.140  -2.386  35.994  1.00  0.00    -0.366 OA
ATOM     45  H   UNL     1      38.035  -2.807  36.061  1.00  0.00     0.213 HD
ENDBRANCH  36  44
ENDBRANCH  30  31
ENDBRANCH   4  30
TORSDOF 18
ENDMDL
MODEL 5
REMARK VINA RESULT:    -5.130      1.872      2.888
REMARK INTER + INTRA:         -11.244
REMARK INTER:                  -9.395
REMARK INTRA:                  -1.849
REMARK UNBOUND:                -2.365
REMARK SMILES OC[C@@H]1O[C@H](O[C@@H]2[C@@H](O)[C@H](O)[C@@H](O[C@@H]3[C@H](O)[C@@H](O)[C@@H](O)O[C@@H]3CO)O[C@@H]2CO)[C@H](O)[C@H](O)[C@@H]1O
REMARK SMILES IDX 7 1 26 2 25 3 12 4 10 5 8 6 6 7 5 8 3 9 33 10 4 11 31 12
REMARK SMILES IDX 29 13 2 14 1 15 34 17 32 19 30 21 27 23 28 24 9 26 11 28
REMARK SMILES IDX 13 30 14 31 22 32 15 33 21 34 17 35 19 36 23 37 24 38 16 40
REMARK SMILES IDX 18 42 20 44
REMARK H PARENT 1 16 34 18 32 20 30 22 28 25 9 27 11 29 24 39 16 41 18 43
REMARK H PARENT 20 45
REMARK Flexibility Score: inf
ROOT
ATOM      1  C   UNL     1      38.043   2.563  42.263  1.00  0.00     0.184 C 
ATOM      2  C   UNL     1      38.525   2.027  40.889  1.00  0.00     0.178 C 
ATOM      3  O   UNL     1      39.662   1.189  41.024  1.00  0.00    -0.341 OA
ATOM      4  C   UNL     1      39.349  -0.002  41.733  1.00  0.00     0.282 C 
ATOM      5  C   UNL     1      38.954   0.290  43.197  1.00  0.00     0.202 C 
ATOM      6  C   UNL     1      37.905   1.433  43.334  1.00  0.00     0.180 C 
ENDROOT
BRANCH   1   7
ATOM      7  O   UNL     1      38.683   3.768  42.689  1.00  0.00    -0.341 OA
BRANCH   7   8
ATOM      8  C   UNL     1      37.852   4.908  42.831  1.00  0.00     0.282 C 
ATOM      9  C   UNL     1      35.814   5.688  43.766  1.00  0.00     0.178 C 
ATOM     10  C   UNL     1      36.369   7.103  43.384  1.00  0.00     0.177 C 
ATOM     11  O   UNL     1      36.782   4.641  43.715  1.00  0.00    -0.341 OA
ATOM     12  C   UNL     1      37.842   7.281  43.815  1.00  0.00     0.179 C 
ATOM     13  C   UNL     1      38.708   6.046  43.423  1.00  0.00     0.202 C 
BRANCH   9  14
ATOM     14  C   UNL     1      35.159   5.642  45.157  1.00  0.00     0.191 C 
BRANCH  14  15
ATOM     15  O   UNL     1      35.602   6.720  45.938  1.00  0.00    -0.394 OA
ATOM     16  H   UNL     1      34.982   6.777  46.714  1.00  0.00     0.210 HD
ENDBRANCH  14  15
ENDBRANCH   9  14
BRANCH  10  17
ATOM     17  O   UNL     1      35.543   8.160  43.819  1.00  0.00    -0.387 OA
ATOM     18  H   UNL     1      34.699   8.143  43.300  1.00  0.00     0.211 HD
ENDBRANCH  10  17
BRANCH  12  19
ATOM     19  O   UNL     1      37.912   7.526  45.198  1.00  0.00    -0.387 OA
ATOM     20  H   UNL     1      37.355   6.834  45.643  1.00  0.00     0.211 HD
ENDBRANCH  12  19
BRANCH  13  21
ATOM     21  O   UNL     1      39.406   5.550  44.543  1.00  0.00    -0.385 OA
ATOM     22  H   UNL     1      39.634   6.339  45.105  1.00  0.00     0.211 HD
ENDBRANCH  13  21
ENDBRANCH   7   8
ENDBRANCH   1   7
BRANCH   2  23
ATOM     23  C   UNL     1      38.829   3.152  39.886  1.00  0.00     0.191 C 
BRANCH  23  24
ATOM     24  O   UNL     1      40.081   3.714  40.159  1.00  0.00    -0.394 OA
ATOM     25  H   UNL     1      40.578   3.709  39.300  1.00  0.00     0.210 HD
ENDBRANCH  23  24
ENDBRANCH   2  23
BRANCH   6  26
ATOM     26  O   UNL     1      36.605   0.888  43.301  1.00  0.00    -0.387 OA
ATOM     27  H   UNL     1      35.994   1.531  43.747  1.00  0.00     0.211 HD
ENDBRANCH   6  26
BRANCH   5  28
ATOM     28  O   UNL     1      40.112   0.576  43.936  1.00  0.00    -0.385 OA
ATOM     29  H   UNL     1      40.202   1.566  43.969  1.00  0.00     0.211 HD
ENDBRANCH   5  28
BRANCH   4  30
ATOM     30  O   UNL     1      38.312  -0.737  41.089  1.00  0.00    -0.341 OA
BRANCH  30  31
ATOM     31  C   UNL     1      38.751  -1.991  40.575  1.00  0.00     0.184 C 
ATOM     32  C   UNL     1      37.703  -3.072  40.926  1.00  0.00     0.178 C 
ATOM     33  C   UNL     1      38.868  -1.911  39.041  1.00  0.00     0.180 C 
ATOM     34  O   UNL     1      36.439  -2.744  40.366  1.00  0.00    -0.342 OA
ATOM     35  C   UNL     1      37.482  -1.686  38.417  1.00  0.00     0.201 C 
ATOM     36  C   UNL     1      36.479  -2.734  38.947  1.00  0.00     0.279 C 
BRANCH  32  37
ATOM     37  C   UNL     1      37.535  -3.226  42.445  1.00  0.00     0.191 C 
BRANCH  37  38
ATOM     38  O   UNL     1      36.647  -2.269  42.958  1.00  0.00    -0.394 OA
ATOM     39  H   UNL     1      36.517  -2.486  43.917  1.00  0.00     0.210 HD
ENDBRANCH  37  38
ENDBRANCH  32  37
BRANCH  33  40
ATOM     40  O   UNL     1      39.732  -0.871  38.666  1.00  0.00    -0.387 OA
ATOM     41  H   UNL     1      40.505  -0.900  39.291  1.00  0.00     0.211 HD
ENDBRANCH  33  40
BRANCH  35  42
ATOM     42  O   UNL     1      37.559  -1.773  37.017  1.00  0.00    -0.385 OA
ATOM     43  H   UNL     1      37.763  -2.719  36.797  1.00  0.00     0.211 HD
ENDBRANCH  35  42
BRANCH  36  44
ATOM     44  O   UNL     1      36.769  -4.020  38.452  1.00  0.00    -0.366 OA
ATOM     45  H   UNL     1      36.012  -4.287  37.869  1.00  0.00     0.213 HD
ENDBRANCH  36  44
ENDBRANCH  30  31
ENDBRANCH   4  30
TORSDOF 18
ENDMDL
MODEL 6
REMARK VINA RESULT:    -5.061      1.714      8.078
REMARK INTER + INTRA:         -11.124
REMARK INTER:                  -9.759
REMARK INTRA:                  -1.365
REMARK UNBOUND:                -2.365
REMARK SMILES OC[C@@H]1O[C@H](O[C@@H]2[C@@H](O)[C@H](O)[C@@H](O[C@@H]3[C@H](O)[C@@H](O)[C@@H](O)O[C@@H]3CO)O[C@@H]2CO)[C@H](O)[C@H](O)[C@@H]1O
REMARK SMILES IDX 7 1 26 2 25 3 12 4 10 5 8 6 6 7 5 8 3 9 33 10 4 11 31 12
REMARK SMILES IDX 29 13 2 14 1 15 34 17 32 19 30 21 27 23 28 24 9 26 11 28
REMARK SMILES IDX 13 30 14 31 22 32 15 33 21 34 17 35 19 36 23 37 24 38 16 40
REMARK SMILES IDX 18 42 20 44
REMARK H PARENT 1 16 34 18 32 20 30 22 28 25 9 27 11 29 24 39 16 41 18 43
REMARK H PARENT 20 45
REMARK Flexibility Score: inf
ROOT
ATOM      1  C   UNL     1      38.028   0.716  43.355  1.00  0.00     0.184 C 
ATOM      2  C   UNL     1      38.195   1.594  44.623  1.00  0.00     0.178 C 
ATOM      3  O   UNL     1      39.236   2.545  44.468  1.00  0.00    -0.341 OA
ATOM      4  C   UNL     1      38.922   3.500  43.463  1.00  0.00     0.282 C 
ATOM      5  C   UNL     1      38.829   2.852  42.065  1.00  0.00     0.202 C 
ATOM      6  C   UNL     1      37.956   1.562  42.043  1.00  0.00     0.180 C 
ENDROOT
BRANCH   1   7
ATOM      7  O   UNL     1      38.865  -0.443  43.320  1.00  0.00    -0.341 OA
BRANCH   7   8
ATOM      8  C   UNL     1      38.460  -1.489  42.452  1.00  0.00     0.282 C 
ATOM      9  C   UNL     1      36.768  -2.168  40.932  1.00  0.00     0.178 C 
ATOM     10  C   UNL     1      37.779  -3.309  40.569  1.00  0.00     0.177 C 
ATOM     11  O   UNL     1      37.331  -1.102  41.696  1.00  0.00    -0.341 OA
ATOM     12  C   UNL     1      39.210  -2.767  40.353  1.00  0.00     0.179 C 
ATOM     13  C   UNL     1      39.626  -1.778  41.484  1.00  0.00     0.202 C 
BRANCH   9  14
ATOM     14  C   UNL     1      36.084  -1.544  39.704  1.00  0.00     0.191 C 
BRANCH  14  15
ATOM     15  O   UNL     1      36.908  -0.558  39.138  1.00  0.00    -0.394 OA
ATOM     16  H   UNL     1      37.685  -1.036  38.743  1.00  0.00     0.210 HD
ENDBRANCH  14  15
ENDBRANCH   9  14
BRANCH  10  17
ATOM     17  O   UNL     1      37.341  -4.125  39.505  1.00  0.00    -0.387 OA
ATOM     18  H   UNL     1      36.546  -3.706  39.087  1.00  0.00     0.211 HD
ENDBRANCH  10  17
BRANCH  12  19
ATOM     19  O   UNL     1      39.306  -2.155  39.090  1.00  0.00    -0.387 OA
ATOM     20  H   UNL     1      39.474  -2.877  38.430  1.00  0.00     0.211 HD
ENDBRANCH  12  19
BRANCH  13  21
ATOM     21  O   UNL     1      40.074  -0.557  40.940  1.00  0.00    -0.385 OA
ATOM     22  H   UNL     1      39.870  -0.591  39.967  1.00  0.00     0.211 HD
ENDBRANCH  13  21
ENDBRANCH   7   8
ENDBRANCH   1   7
BRANCH   2  23
ATOM     23  C   UNL     1      38.440   0.763  45.893  1.00  0.00     0.191 C 
BRANCH  23  24
ATOM     24  O   UNL     1      39.660   1.125  46.476  1.00  0.00    -0.394 OA
ATOM     25  H   UNL     1      39.815   0.478  47.213  1.00  0.00     0.210 HD
ENDBRANCH  23  24
ENDBRANCH   2  23
BRANCH   6  26
ATOM     26  O   UNL     1      36.618   1.901  41.756  1.00  0.00    -0.387 OA
ATOM     27  H   UNL     1      36.328   2.581  42.419  1.00  0.00     0.211 HD
ENDBRANCH   6  26
BRANCH   5  28
ATOM     28  O   UNL     1      40.124   2.593  41.592  1.00  0.00    -0.385 OA
ATOM     29  H   UNL     1      40.468   1.805  42.093  1.00  0.00     0.211 HD
ENDBRANCH   5  28
BRANCH   4  30
ATOM     30  O   UNL     1      37.711   4.191  43.759  1.00  0.00    -0.341 OA
BRANCH  30  31
ATOM     31  C   UNL     1      37.492   5.321  42.921  1.00  0.00     0.184 C 
ATOM     32  C   UNL     1      35.973   5.600  42.841  1.00  0.00     0.178 C 
ATOM     33  C   UNL     1      38.180   6.559  43.528  1.00  0.00     0.180 C 
ATOM     34  O   UNL     1      35.443   5.857  44.134  1.00  0.00    -0.342 OA
ATOM     35  C   UNL     1      37.524   6.923  44.869  1.00  0.00     0.201 C 
ATOM     36  C   UNL     1      35.992   7.035  44.704  1.00  0.00     0.279 C 
BRANCH  32  37
ATOM     37  C   UNL     1      35.211   4.414  42.230  1.00  0.00     0.191 C 
BRANCH  37  38
ATOM     38  O   UNL     1      34.910   3.449  43.203  1.00  0.00    -0.394 OA
ATOM     39  H   UNL     1      34.341   3.897  43.882  1.00  0.00     0.210 HD
ENDBRANCH  37  38
ENDBRANCH  32  37
BRANCH  33  40
ATOM     40  O   UNL     1      39.549   6.318  43.719  1.00  0.00    -0.387 OA
ATOM     41  H   UNL     1      39.637   5.824  44.577  1.00  0.00     0.211 HD
ENDBRANCH  33  40
BRANCH  35  42
ATOM     42  O   UNL     1      38.037   8.140  45.347  1.00  0.00    -0.385 OA
ATOM     43  H   UNL     1      38.965   8.218  45.003  1.00  0.00     0.211 HD
ENDBRANCH  35  42
BRANCH  36  44
ATOM     44  O   UNL     1      35.638   8.163  43.940  1.00  0.00    -0.366 OA
ATOM     45  H   UNL     1      35.963   8.963  44.430  1.00  0.00     0.213 HD
ENDBRANCH  36  44
ENDBRANCH  30  31
ENDBRANCH   4  30
TORSDOF 18
ENDMDL
MODEL 7
REMARK VINA RESULT:    -5.006      3.786      7.387
REMARK INTER + INTRA:         -11.029
REMARK INTER:                  -8.602
REMARK INTRA:                  -2.426
REMARK UNBOUND:                -2.365
REMARK SMILES OC[C@@H]1O[C@H](O[C@@H]2[C@@H](O)[C@H](O)[C@@H](O[C@@H]3[C@H](O)[C@@H](O)[C@@H](O)O[C@@H]3CO)O[C@@H]2CO)[C@H](O)[C@H](O)[C@@H]1O
REMARK SMILES IDX 7 1 26 2 25 3 12 4 10 5 8 6 6 7 5 8 3 9 33 10 4 11 31 12
REMARK SMILES IDX 29 13 2 14 1 15 34 17 32 19 30 21 27 23 28 24 9 26 11 28
REMARK SMILES IDX 13 30 14 31 22 32 15 33 21 34 17 35 19 36 23 37 24 38 16 40
REMARK SMILES IDX 18 42 20 44
REMARK H PARENT 1 16 34 18 32 20 30 22 28 25 9 27 11 29 24 39 16 41 18 43
REMARK H PARENT 20 45
REMARK Flexibility Score: inf
ROOT
ATOM      1  C   UNL     1      37.991   0.262  38.942  1.00  0.00     0.184 C 
ATOM      2  C   UNL     1      37.360   1.115  40.074  1.00  0.00     0.178 C 
ATOM      3  O   UNL     1      36.365   0.391  40.782  1.00  0.00    -0.341 OA
ATOM      4  C   UNL     1      36.926  -0.706  41.490  1.00  0.00     0.282 C 
ATOM      5  C   UNL     1      37.514  -1.765  40.532  1.00  0.00     0.202 C 
ATOM      6  C   UNL     1      38.430  -1.156  39.431  1.00  0.00     0.180 C 
ENDROOT
BRANCH   1   7
ATOM      7  O   UNL     1      37.291   0.317  37.696  1.00  0.00    -0.341 OA
BRANCH   7   8
ATOM      8  C   UNL     1      38.020  -0.076  36.545  1.00  0.00     0.282 C 
ATOM      9  C   UNL     1      37.843  -1.187  34.454  1.00  0.00     0.178 C 
ATOM     10  C   UNL     1      39.274  -0.598  34.205  1.00  0.00     0.177 C 
ATOM     11  O   UNL     1      37.154  -0.613  35.565  1.00  0.00    -0.341 OA
ATOM     12  C   UNL     1      39.356   0.900  34.580  1.00  0.00     0.179 C 
ATOM     13  C   UNL     1      38.700   1.181  35.965  1.00  0.00     0.202 C 
BRANCH   9  14
ATOM     14  C   UNL     1      36.916  -1.080  33.232  1.00  0.00     0.191 C 
BRANCH  14  15
ATOM     15  O   UNL     1      36.345   0.200  33.166  1.00  0.00    -0.394 OA
ATOM     16  H   UNL     1      36.354   0.559  34.093  1.00  0.00     0.210 HD
ENDBRANCH  14  15
ENDBRANCH   9  14
BRANCH  10  17
ATOM     17  O   UNL     1      39.766  -0.861  32.910  1.00  0.00    -0.387 OA
ATOM     18  H   UNL     1      40.273  -0.071  32.592  1.00  0.00     0.211 HD
ENDBRANCH  10  17
BRANCH  12  19
ATOM     19  O   UNL     1      38.758   1.680  33.573  1.00  0.00    -0.387 OA
ATOM     20  H   UNL     1      38.908   2.631  33.817  1.00  0.00     0.211 HD
ENDBRANCH  12  19
BRANCH  13  21
ATOM     21  O   UNL     1      37.740   2.208  35.864  1.00  0.00    -0.385 OA
ATOM     22  H   UNL     1      37.687   2.450  34.901  1.00  0.00     0.211 HD
ENDBRANCH  13  21
ENDBRANCH   7   8
ENDBRANCH   1   7
BRANCH   2  23
ATOM     23  C   UNL     1      36.770   2.439  39.563  1.00  0.00     0.191 C 
BRANCH  23  24
ATOM     24  O   UNL     1      37.687   3.082  38.723  1.00  0.00    -0.394 OA
ATOM     25  H   UNL     1      38.206   3.698  39.303  1.00  0.00     0.210 HD
ENDBRANCH  23  24
ENDBRANCH   2  23
BRANCH   6  26
ATOM     26  O   UNL     1      39.763  -1.120  39.890  1.00  0.00    -0.387 OA
ATOM     27  H   UNL     1      40.359  -1.233  39.104  1.00  0.00     0.211 HD
ENDBRANCH   6  26
BRANCH   5  28
ATOM     28  O   UNL     1      36.464  -2.504  39.965  1.00  0.00    -0.385 OA
ATOM     29  H   UNL     1      35.946  -2.901  40.715  1.00  0.00     0.211 HD
ENDBRANCH   5  28
BRANCH   4  30
ATOM     30  O   UNL     1      37.924  -0.279  42.412  1.00  0.00    -0.341 OA
BRANCH  30  31
ATOM     31  C   UNL     1      37.433  -0.131  43.740  1.00  0.00     0.184 C 
ATOM     32  C   UNL     1      38.299  -0.986  44.695  1.00  0.00     0.178 C 
ATOM     33  C   UNL     1      37.546   1.343  44.176  1.00  0.00     0.180 C 
ATOM     34  O   UNL     1      39.658  -0.574  44.641  1.00  0.00    -0.342 OA
ATOM     35  C   UNL     1      39.023   1.761  44.246  1.00  0.00     0.201 C 
ATOM     36  C   UNL     1      39.822   0.757  45.107  1.00  0.00     0.279 C 
BRANCH  32  37
ATOM     37  C   UNL     1      38.230  -2.479  44.337  1.00  0.00     0.191 C 
BRANCH  37  38
ATOM     38  O   UNL     1      36.912  -2.873  44.055  1.00  0.00    -0.394 OA
ATOM     39  H   UNL     1      36.645  -3.504  44.772  1.00  0.00     0.210 HD
ENDBRANCH  37  38
ENDBRANCH  32  37
BRANCH  33  40
ATOM     40  O   UNL     1      36.860   2.175  43.278  1.00  0.00    -0.387 OA
ATOM     41  H   UNL     1      36.688   1.636  42.461  1.00  0.00     0.211 HD
ENDBRANCH  33  40
BRANCH  35  42
ATOM     42  O   UNL     1      39.138   3.048  44.795  1.00  0.00    -0.385 OA
ATOM     43  H   UNL     1      40.048   3.116  45.186  1.00  0.00     0.211 HD
ENDBRANCH  35  42
BRANCH  36  44
ATOM     44  O   UNL     1      39.472   0.851  46.467  1.00  0.00    -0.366 OA
ATOM     45  H   UNL     1      40.106   1.486  46.890  1.00  0.00     0.213 HD
ENDBRANCH  36  44
ENDBRANCH  30  31
ENDBRANCH   4  30
TORSDOF 18
ENDMDL
MODEL 8
REMARK VINA RESULT:    -4.897      3.855      8.649
REMARK INTER + INTRA:         -10.840
REMARK INTER:                  -8.241
REMARK INTRA:                  -2.600
REMARK UNBOUND:                -2.365
REMARK SMILES OC[C@@H]1O[C@H](O[C@@H]2[C@@H](O)[C@H](O)[C@@H](O[C@@H]3[C@H](O)[C@@H](O)[C@@H](O)O[C@@H]3CO)O[C@@H]2CO)[C@H](O)[C@H](O)[C@@H]1O
REMARK SMILES IDX 7 1 26 2 25 3 12 4 10 5 8 6 6 7 5 8 3 9 33 10 4 11 31 12
REMARK SMILES IDX 29 13 2 14 1 15 34 17 32 19 30 21 27 23 28 24 9 26 11 28
REMARK SMILES IDX 13 30 14 31 22 32 15 33 21 34 17 35 19 36 23 37 24 38 16 40
REMARK SMILES IDX 18 42 20 44
REMARK H PARENT 1 16 34 18 32 20 30 22 28 25 9 27 11 29 24 39 16 41 18 43
REMARK H PARENT 20 45
REMARK Flexibility Score: inf
ROOT
ATOM      1  C   UNL     1      36.797   0.638  38.465  1.00  0.00     0.184 C 
ATOM      2  C   UNL     1      37.039   0.480  39.989  1.00  0.00     0.178 C 
ATOM      3  O   UNL     1      38.419   0.550  40.310  1.00  0.00    -0.341 OA
ATOM      4  C   UNL     1      38.951   1.839  40.040  1.00  0.00     0.282 C 
ATOM      5  C   UNL     1      38.926   2.165  38.530  1.00  0.00     0.202 C 
ATOM      6  C   UNL     1      37.552   1.866  37.861  1.00  0.00     0.180 C 
ENDROOT
BRANCH   1   7
ATOM      7  O   UNL     1      36.868  -0.581  37.722  1.00  0.00    -0.341 OA
BRANCH   7   8
ATOM      8  C   UNL     1      35.826  -0.814  36.789  1.00  0.00     0.282 C 
ATOM      9  C   UNL     1      35.368  -1.462  34.551  1.00  0.00     0.178 C 
ATOM     10  C   UNL     1      33.886  -1.552  35.052  1.00  0.00     0.177 C 
ATOM     11  O   UNL     1      36.339  -1.367  35.594  1.00  0.00    -0.341 OA
ATOM     12  C   UNL     1      33.775  -2.310  36.395  1.00  0.00     0.179 C 
ATOM     13  C   UNL     1      34.845  -1.825  37.418  1.00  0.00     0.202 C 
BRANCH   9  14
ATOM     14  C   UNL     1      35.780  -2.634  33.645  1.00  0.00     0.191 C 
BRANCH  14  15
ATOM     15  O   UNL     1      36.289  -3.690  34.417  1.00  0.00    -0.394 OA
ATOM     16  H   UNL     1      37.017  -4.103  33.881  1.00  0.00     0.210 HD
ENDBRANCH  14  15
ENDBRANCH   9  14
BRANCH  10  17
ATOM     17  O   UNL     1      32.997  -2.044  34.074  1.00  0.00    -0.387 OA
ATOM     18  H   UNL     1      32.890  -3.021  34.202  1.00  0.00     0.211 HD
ENDBRANCH  10  17
BRANCH  12  19
ATOM     19  O   UNL     1      33.881  -3.695  36.174  1.00  0.00    -0.387 OA
ATOM     20  H   UNL     1      33.313  -4.141  36.856  1.00  0.00     0.211 HD
ENDBRANCH  12  19
BRANCH  13  21
ATOM     21  O   UNL     1      35.583  -2.915  37.923  1.00  0.00    -0.385 OA
ATOM     22  H   UNL     1      35.888  -2.651  38.833  1.00  0.00     0.211 HD
ENDBRANCH  13  21
ENDBRANCH   7   8
ENDBRANCH   1   7
BRANCH   2  23
ATOM     23  C   UNL     1      36.442  -0.820  40.554  1.00  0.00     0.191 C 
BRANCH  23  24
ATOM     24  O   UNL     1      37.243  -1.911  40.197  1.00  0.00    -0.394 OA
ATOM     25  H   UNL     1      37.604  -1.705  39.296  1.00  0.00     0.210 HD
ENDBRANCH  23  24
ENDBRANCH   2  23
BRANCH   6  26
ATOM     26  O   UNL     1      36.737   3.015  37.919  1.00  0.00    -0.387 OA
ATOM     27  H   UNL     1      35.793   2.715  37.994  1.00  0.00     0.211 HD
ENDBRANCH   6  26
BRANCH   5  28
ATOM     28  O   UNL     1      39.961   1.465  37.893  1.00  0.00    -0.385 OA
ATOM     29  H   UNL     1      40.769   2.044  37.924  1.00  0.00     0.211 HD
ENDBRANCH   5  28
BRANCH   4  30
ATOM     30  O   UNL     1      38.261   2.853  40.765  1.00  0.00    -0.341 OA
BRANCH  30  31
ATOM     31  C   UNL     1      38.987   3.325  41.895  1.00  0.00     0.184 C 
ATOM     32  C   UNL     1      38.910   4.870  41.932  1.00  0.00     0.178 C 
ATOM     33  C   UNL     1      38.352   2.779  43.188  1.00  0.00     0.180 C 
ATOM     34  O   UNL     1      37.559   5.301  42.021  1.00  0.00    -0.342 OA
ATOM     35  C   UNL     1      36.933   3.345  43.359  1.00  0.00     0.201 C 
ATOM     36  C   UNL     1      36.953   4.885  43.235  1.00  0.00     0.279 C 
BRANCH  32  37
ATOM     37  C   UNL     1      39.539   5.498  40.679  1.00  0.00     0.191 C 
BRANCH  37  38
ATOM     38  O   UNL     1      38.628   5.523  39.612  1.00  0.00    -0.394 OA
ATOM     39  H   UNL     1      37.866   6.087  39.902  1.00  0.00     0.210 HD
ENDBRANCH  37  38
ENDBRANCH  32  37
BRANCH  33  40
ATOM     40  O   UNL     1      38.303   1.377  43.158  1.00  0.00    -0.387 OA
ATOM     41  H   UNL     1      37.383   1.116  43.430  1.00  0.00     0.211 HD
ENDBRANCH  33  40
BRANCH  35  42
ATOM     42  O   UNL     1      36.412   2.980  44.611  1.00  0.00    -0.385 OA
ATOM     43  H   UNL     1      36.310   3.816  45.137  1.00  0.00     0.211 HD
ENDBRANCH  35  42
BRANCH  36  44
ATOM     44  O   UNL     1      37.593   5.483  44.336  1.00  0.00    -0.366 OA
ATOM     45  H   UNL     1      38.502   5.747  44.039  1.00  0.00     0.213 HD
ENDBRANCH  36  44
ENDBRANCH  30  31
ENDBRANCH   4  30
TORSDOF 18
ENDMDL
MODEL 9
REMARK VINA RESULT:    -4.193      1.997      4.228
REMARK INTER + INTRA:          -9.622
REMARK INTER:                  -7.486
REMARK INTRA:                  -2.136
REMARK UNBOUND:                -2.365
REMARK SMILES OC[C@@H]1O[C@H](O[C@@H]2[C@@H](O)[C@H](O)[C@@H](O[C@@H]3[C@H](O)[C@@H](O)[C@@H](O)O[C@@H]3CO)O[C@@H]2CO)[C@H](O)[C@H](O)[C@@H]1O
REMARK SMILES IDX 7 1 26 2 25 3 12 4 10 5 8 6 6 7 5 8 3 9 33 10 4 11 31 12
REMARK SMILES IDX 29 13 2 14 1 15 34 17 32 19 30 21 27 23 28 24 9 26 11 28
REMARK SMILES IDX 13 30 14 31 22 32 15 33 21 34 17 35 19 36 23 37 24 38 16 40
REMARK SMILES IDX 18 42 20 44
REMARK H PARENT 1 16 34 18 32 20 30 22 28 25 9 27 11 29 24 39 16 41 18 43
REMARK H PARENT 20 45
REMARK Flexibility Score: inf
ROOT
ATOM      1  C   UNL     1      39.082   1.964  42.483  1.00  0.00     0.184 C 
ATOM      2  C   UNL     1      38.099   0.773  42.628  1.00  0.00     0.178 C 
ATOM      3  O   UNL     1      36.828   1.073  42.074  1.00  0.00    -0.341 OA
ATOM      4  C   UNL     1      36.904   1.247  40.665  1.00  0.00     0.282 C 
ATOM      5  C   UNL     1      37.751   2.481  40.286  1.00  0.00     0.202 C 
ATOM      6  C   UNL     1      39.117   2.541  41.031  1.00  0.00     0.180 C 
ENDROOT
BRANCH   1   7
ATOM      7  O   UNL     1      39.021   2.919  43.545  1.00  0.00    -0.341 OA
BRANCH   7   8
ATOM      8  C   UNL     1      38.725   4.256  43.176  1.00  0.00     0.282 C 
ATOM      9  C   UNL     1      37.075   5.959  43.307  1.00  0.00     0.178 C 
ATOM     10  C   UNL     1      38.217   6.881  42.757  1.00  0.00     0.177 C 
ATOM     11  O   UNL     1      37.520   4.686  43.776  1.00  0.00    -0.341 OA
ATOM     12  C   UNL     1      39.548   6.666  43.513  1.00  0.00     0.179 C 
ATOM     13  C   UNL     1      39.874   5.152  43.682  1.00  0.00     0.202 C 
BRANCH   9  14
ATOM     14  C   UNL     1      36.257   6.605  44.438  1.00  0.00     0.191 C 
BRANCH  14  15
ATOM     15  O   UNL     1      35.435   7.620  43.924  1.00  0.00    -0.394 OA
ATOM     16  H   UNL     1      35.450   7.519  42.935  1.00  0.00     0.210 HD
ENDBRANCH  14  15
ENDBRANCH   9  14
BRANCH  10  17
ATOM     17  O   UNL     1      37.847   8.240  42.683  1.00  0.00    -0.387 OA
ATOM     18  H   UNL     1      36.909   8.300  42.370  1.00  0.00     0.211 HD
ENDBRANCH  10  17
BRANCH  12  19
ATOM     19  O   UNL     1      39.502   7.313  44.761  1.00  0.00    -0.387 OA
ATOM     20  H   UNL     1      39.864   6.675  45.431  1.00  0.00     0.211 HD
ENDBRANCH  12  19
BRANCH  13  21
ATOM     21  O   UNL     1      40.125   4.843  45.034  1.00  0.00    -0.385 OA
ATOM     22  H   UNL     1      39.758   5.598  45.568  1.00  0.00     0.211 HD
ENDBRANCH  13  21
ENDBRANCH   7   8
ENDBRANCH   1   7
BRANCH   2  23
ATOM     23  C   UNL     1      37.931   0.316  44.087  1.00  0.00     0.191 C 
BRANCH  23  24
ATOM     24  O   UNL     1      39.185   0.147  44.685  1.00  0.00    -0.394 OA
ATOM     25  H   UNL     1      39.778  -0.223  43.981  1.00  0.00     0.210 HD
ENDBRANCH  23  24
ENDBRANCH   2  23
BRANCH   6  26
ATOM     26  O   UNL     1      40.101   1.879  40.268  1.00  0.00    -0.387 OA
ATOM     27  H   UNL     1      39.882   2.010  39.308  1.00  0.00     0.211 HD
ENDBRANCH   6  26
BRANCH   5  28
ATOM     28  O   UNL     1      36.998   3.643  40.516  1.00  0.00    -0.385 OA
ATOM     29  H   UNL     1      36.777   3.661  41.486  1.00  0.00     0.211 HD
ENDBRANCH   5  28
BRANCH   4  30
ATOM     30  O   UNL     1      37.422   0.087  40.022  1.00  0.00    -0.341 OA
BRANCH  30  31
ATOM     31  C   UNL     1      36.407  -0.806  39.575  1.00  0.00     0.184 C 
ATOM     32  C   UNL     1      36.653  -1.142  38.085  1.00  0.00     0.178 C 
ATOM     33  C   UNL     1      36.474  -2.117  40.382  1.00  0.00     0.180 C 
ATOM     34  O   UNL     1      37.928  -1.746  37.912  1.00  0.00    -0.342 OA
ATOM     35  C   UNL     1      37.798  -2.843  40.101  1.00  0.00     0.201 C 
ATOM     36  C   UNL     1      38.011  -2.997  38.578  1.00  0.00     0.279 C 
BRANCH  32  37
ATOM     37  C   UNL     1      36.588   0.115  37.203  1.00  0.00     0.191 C 
BRANCH  37  38
ATOM     38  O   UNL     1      37.842   0.738  37.114  1.00  0.00    -0.394 OA
ATOM     39  H   UNL     1      38.503   0.021  36.930  1.00  0.00     0.210 HD
ENDBRANCH  37  38
ENDBRANCH  32  37
BRANCH  33  40
ATOM     40  O   UNL     1      36.359  -1.854  41.756  1.00  0.00    -0.387 OA
ATOM     41  H   UNL     1      37.265  -1.976  42.148  1.00  0.00     0.211 HD
ENDBRANCH  33  40
BRANCH  35  42
ATOM     42  O   UNL     1      37.796  -4.111  40.706  1.00  0.00    -0.385 OA
ATOM     43  H   UNL     1      37.875  -4.779  39.977  1.00  0.00     0.211 HD
ENDBRANCH  35  42
BRANCH  36  44
ATOM     44  O   UNL     1      37.100  -3.914  38.020  1.00  0.00    -0.366 OA
ATOM     45  H   UNL     1      36.880  -4.574  38.727  1.00  0.00     0.213 HD
ENDBRANCH  36  44
ENDBRANCH  30  31
ENDBRANCH   4  30
TORSDOF 18
ENDMDL
