MODEL 1
REMARK VINA RESULT:    -3.366      0.000      0.000
REMARK INTER + INTRA:          -5.437
REMARK INTER:                  -5.137
REMARK INTRA:                  -0.301
REMARK UNBOUND:                -0.301
REMARK SMILES CC1=CCC[C@H](C)C(=O)C[C@@H](C(C)C)C(=O)C1
REMARK SMILES IDX 8 1 9 2 6 3 7 4 5 5 4 6 3 7 2 8 1 9 10 11 11 12 15 13 16 14
REMARK SMILES IDX 17 15 12 17 13 18 14 19
REMARK H PARENT
REMARK Flexibility Score: 70.00
ROOT
ATOM      1  C   UNL     1     142.919 134.168 123.186  1.00  0.00     0.136 C 
ATOM      2  O   UNL     1     142.783 134.061 121.975  1.00  0.00    -0.299 OA
ENDROOT
BRANCH   1   3
ATOM      3  C   UNL     1     144.293 134.416 123.773  1.00  0.00     0.053 C 
ATOM      4  C   UNL     1     145.207 133.231 123.446  1.00  0.00     0.016 C 
BRANCH   3   5
ATOM      5  C   UNL     1     144.915 135.730 123.248  1.00  0.00     0.015 C 
BRANCH   5   6
ATOM      6  C   UNL     1     144.001 136.951 123.429  1.00  0.00     0.028 C 
BRANCH   6   7
ATOM      7  C   UNL     1     143.852 137.314 124.888  1.00  0.00    -0.028 C 
ATOM      8  C   UNL     1     142.686 137.562 125.527  1.00  0.00    -0.070 CG0
ATOM      9  C   UNL     1     142.743 137.902 126.994  1.00  0.00     0.039 C 
ATOM     10  G   UNL     1     141.330 137.477 124.851  1.00  0.00     0.000 G0
ENDBRANCH   6   7
ENDBRANCH   5   6
ENDBRANCH   3   5
ENDBRANCH   1   3
BRANCH   1  11
ATOM     11  C   UNL     1     141.712 134.006 124.073  1.00  0.00     0.087 C 
BRANCH  11  12
ATOM     12  C   UNL     1     140.663 135.122 123.829  1.00  0.00     0.066 C 
BRANCH  12  13
ATOM     13  C   UNL     1     140.696 136.101 124.991  1.00  0.00     0.140 C 
ATOM     14  O   UNL     1     140.159 135.797 126.047  1.00  0.00    -0.299 OA
BRANCH  13  15
ATOM     15  C   UNL     1     141.292 137.478 124.845  1.00  0.00     0.106 CG0
ATOM     16  G   UNL     1     142.657 137.554 125.503  1.00  0.00     0.000 G0
ENDBRANCH  13  15
ENDBRANCH  12  13
BRANCH  12  17
ATOM     17  C   UNL     1     139.220 134.549 123.639  1.00  0.00    -0.006 C 
ATOM     18  C   UNL     1     138.273 135.599 123.022  1.00  0.00     0.008 C 
ATOM     19  C   UNL     1     139.204 133.293 122.745  1.00  0.00     0.008 C 
ENDBRANCH  12  17
ENDBRANCH  11  12
ENDBRANCH   1  11
TORSDOF 1
ENDMDL
MODEL 2
REMARK VINA RESULT:    -3.289      5.115      6.972
REMARK INTER + INTRA:          -5.321
REMARK INTER:                  -5.032
REMARK INTRA:                  -0.289
REMARK UNBOUND:                -0.301
REMARK SMILES CC1=CCC[C@H](C)C(=O)C[C@@H](C(C)C)C(=O)C1
REMARK SMILES IDX 8 1 9 2 6 3 7 4 5 5 4 6 3 7 2 8 1 9 10 11 11 12 15 13 16 14
REMARK SMILES IDX 17 15 12 17 13 18 14 19
REMARK H PARENT
REMARK Flexibility Score: 70.00
ROOT
ATOM      1  C   UNL     1     136.908 138.376 118.779  1.00  0.00     0.136 C 
ATOM      2  O   UNL     1     136.038 138.935 119.433  1.00  0.00    -0.299 OA
ENDROOT
BRANCH   1   3
ATOM      3  C   UNL     1     137.467 139.042 117.540  1.00  0.00     0.053 C 
ATOM      4  C   UNL     1     136.404 139.963 116.935  1.00  0.00     0.016 C 
BRANCH   3   5
ATOM      5  C   UNL     1     138.755 139.840 117.845  1.00  0.00     0.015 C 
BRANCH   5   6
ATOM      6  C   UNL     1     140.039 139.019 117.656  1.00  0.00     0.028 C 
BRANCH   6   7
ATOM      7  C   UNL     1     140.879 139.018 118.912  1.00  0.00    -0.028 C 
ATOM      8  C   UNL     1     140.996 137.990 119.784  1.00  0.00    -0.070 CG0
ATOM      9  C   UNL     1     141.893 138.180 120.981  1.00  0.00     0.039 C 
ATOM     10  G   UNL     1     140.305 136.653 119.597  1.00  0.00     0.000 G0
ENDBRANCH   6   7
ENDBRANCH   5   6
ENDBRANCH   3   5
ENDBRANCH   1   3
BRANCH   1  11
ATOM     11  C   UNL     1     137.375 137.008 119.205  1.00  0.00     0.087 C 
BRANCH  11  12
ATOM     12  C   UNL     1     137.899 137.005 120.665  1.00  0.00     0.066 C 
BRANCH  12  13
ATOM     13  C   UNL     1     139.281 136.372 120.699  1.00  0.00     0.140 C 
ATOM     14  O   UNL     1     139.608 135.696 121.665  1.00  0.00    -0.299 OA
BRANCH  13  15
ATOM     15  C   UNL     1     140.293 136.633 119.613  1.00  0.00     0.106 CG0
ATOM     16  G   UNL     1     140.970 137.976 119.809  1.00  0.00     0.000 G0
ENDBRANCH  13  15
ENDBRANCH  12  13
BRANCH  12  17
ATOM     17  C   UNL     1     136.933 136.258 121.641  1.00  0.00    -0.006 C 
ATOM     18  C   UNL     1     136.174 137.247 122.551  1.00  0.00     0.008 C 
ATOM     19  C   UNL     1     135.899 135.394 120.892  1.00  0.00     0.008 C 
ENDBRANCH  12  17
ENDBRANCH  11  12
ENDBRANCH   1  11
TORSDOF 1
ENDMDL
MODEL 3
REMARK VINA RESULT:    -3.252      2.607      3.336
REMARK INTER + INTRA:          -5.264
REMARK INTER:                  -5.239
REMARK INTRA:                  -0.024
REMARK UNBOUND:                -0.301
REMARK SMILES CC1=CCC[C@H](C)C(=O)C[C@@H](C(C)C)C(=O)C1
REMARK SMILES IDX 8 1 9 2 6 3 7 4 5 5 4 6 3 7 2 8 1 9 10 11 11 12 15 13 16 14
REMARK SMILES IDX 17 15 12 17 13 18 14 19
REMARK H PARENT
REMARK Flexibility Score: 70.00
ROOT
ATOM      1  C   UNL     1     142.880 133.698 124.793  1.00  0.00     0.136 C 
ATOM      2  O   UNL     1     142.542 132.625 125.276  1.00  0.00    -0.299 OA
ENDROOT
BRANCH   1   3
ATOM      3  C   UNL     1     144.349 134.011 124.601  1.00  0.00     0.053 C 
ATOM      4  C   UNL     1     145.071 133.903 125.948  1.00  0.00     0.016 C 
BRANCH   3   5
ATOM      5  C   UNL     1     145.008 133.072 123.565  1.00  0.00     0.015 C 
BRANCH   5   6
ATOM      6  C   UNL     1     144.999 133.639 122.138  1.00  0.00     0.028 C 
BRANCH   6   7
ATOM      7  C   UNL     1     145.322 135.115 122.131  1.00  0.00    -0.028 C 
ATOM      8  C   UNL     1     144.506 136.102 121.697  1.00  0.00    -0.070 CG0
ATOM      9  C   UNL     1     145.008 137.521 121.779  1.00  0.00     0.039 C 
ATOM     10  G   UNL     1     143.104 135.855 121.172  1.00  0.00     0.000 G0
ENDBRANCH   6   7
ENDBRANCH   5   6
ENDBRANCH   3   5
ENDBRANCH   1   3
BRANCH   1  11
ATOM     11  C   UNL     1     141.817 134.705 124.438  1.00  0.00     0.087 C 
BRANCH  11  12
ATOM     12  C   UNL     1     141.490 134.689 122.922  1.00  0.00     0.066 C 
BRANCH  12  13
ATOM     13  C   UNL     1     142.051 135.945 122.277  1.00  0.00     0.140 C 
ATOM     14  O   UNL     1     141.606 137.037 122.603  1.00  0.00    -0.299 OA
BRANCH  13  15
ATOM     15  C   UNL     1     143.078 135.873 121.176  1.00  0.00     0.106 CG0
ATOM     16  G   UNL     1     144.477 136.095 121.719  1.00  0.00     0.000 G0
ENDBRANCH  13  15
ENDBRANCH  12  13
BRANCH  12  17
ATOM     17  C   UNL     1     139.954 134.574 122.648  1.00  0.00    -0.006 C 
ATOM     18  C   UNL     1     139.442 133.139 122.894  1.00  0.00     0.008 C 
ATOM     19  C   UNL     1     139.131 135.542 123.521  1.00  0.00     0.008 C 
ENDBRANCH  12  17
ENDBRANCH  11  12
ENDBRANCH   1  11
TORSDOF 1
ENDMDL
MODEL 4
REMARK VINA RESULT:    -3.160      1.517      4.254
REMARK INTER + INTRA:          -5.123
REMARK INTER:                  -4.989
REMARK INTRA:                  -0.134
REMARK UNBOUND:                -0.301
REMARK SMILES CC1=CCC[C@H](C)C(=O)C[C@@H](C(C)C)C(=O)C1
REMARK SMILES IDX 8 1 9 2 6 3 7 4 5 5 4 6 3 7 2 8 1 9 10 11 11 12 15 13 16 14
REMARK SMILES IDX 17 15 12 17 13 18 14 19
REMARK H PARENT
REMARK Flexibility Score: 70.00
ROOT
ATOM      1  C   UNL     1     141.561 134.092 123.284  1.00  0.00     0.136 C 
ATOM      2  O   UNL     1     141.673 133.123 124.023  1.00  0.00    -0.299 OA
ENDROOT
BRANCH   1   3
ATOM      3  C   UNL     1     140.252 134.853 123.230  1.00  0.00     0.053 C 
ATOM      4  C   UNL     1     139.126 133.899 122.820  1.00  0.00     0.016 C 
BRANCH   3   5
ATOM      5  C   UNL     1     139.919 135.523 124.583  1.00  0.00     0.015 C 
BRANCH   5   6
ATOM      6  C   UNL     1     141.127 136.209 125.236  1.00  0.00     0.028 C 
BRANCH   6   7
ATOM      7  C   UNL     1     141.453 137.516 124.552  1.00  0.00    -0.028 C 
ATOM      8  C   UNL     1     142.690 137.941 124.207  1.00  0.00    -0.070 CG0
ATOM      9  C   UNL     1     142.810 139.279 123.521  1.00  0.00     0.039 C 
ATOM     10  G   UNL     1     143.949 137.126 124.440  1.00  0.00     0.000 G0
ENDBRANCH   6   7
ENDBRANCH   5   6
ENDBRANCH   3   5
ENDBRANCH   1   3
BRANCH   1  11
ATOM     11  C   UNL     1     142.724 134.481 122.408  1.00  0.00     0.087 C 
BRANCH  11  12
ATOM     12  C   UNL     1     144.001 134.768 123.239  1.00  0.00     0.066 C 
BRANCH  12  13
ATOM     13  C   UNL     1     144.273 136.263 123.236  1.00  0.00     0.140 C 
ATOM     14  O   UNL     1     144.829 136.770 122.270  1.00  0.00    -0.299 OA
BRANCH  13  15
ATOM     15  C   UNL     1     143.961 137.123 124.434  1.00  0.00     0.106 CG0
ATOM     16  G   UNL     1     142.696 137.931 124.211  1.00  0.00     0.000 G0
ENDBRANCH  13  15
ENDBRANCH  12  13
BRANCH  12  17
ATOM     17  C   UNL     1     145.245 133.986 122.705  1.00  0.00    -0.006 C 
ATOM     18  C   UNL     1     145.569 132.765 123.592  1.00  0.00     0.008 C 
ATOM     19  C   UNL     1     145.049 133.496 121.256  1.00  0.00     0.008 C 
ENDBRANCH  12  17
ENDBRANCH  11  12
ENDBRANCH   1  11
TORSDOF 1
ENDMDL
MODEL 5
REMARK VINA RESULT:    -3.159      2.521      3.890
REMARK INTER + INTRA:          -5.122
REMARK INTER:                  -5.034
REMARK INTRA:                  -0.088
REMARK UNBOUND:                -0.301
REMARK SMILES CC1=CCC[C@H](C)C(=O)C[C@@H](C(C)C)C(=O)C1
REMARK SMILES IDX 8 1 9 2 6 3 7 4 5 5 4 6 3 7 2 8 1 9 10 11 11 12 15 13 16 14
REMARK SMILES IDX 17 15 12 17 13 18 14 19
REMARK H PARENT
REMARK Flexibility Score: 70.00
ROOT
ATOM      1  C   UNL     1     142.474 135.412 121.550  1.00  0.00     0.136 C 
ATOM      2  O   UNL     1     141.728 136.346 121.290  1.00  0.00    -0.299 OA
ENDROOT
BRANCH   1   3
ATOM      3  C   UNL     1     143.907 135.432 121.062  1.00  0.00     0.053 C 
ATOM      4  C   UNL     1     144.681 136.527 121.802  1.00  0.00     0.016 C 
BRANCH   3   5
ATOM      5  C   UNL     1     144.601 134.064 121.255  1.00  0.00     0.015 C 
BRANCH   5   6
ATOM      6  C   UNL     1     145.748 134.103 122.277  1.00  0.00     0.028 C 
BRANCH   6   7
ATOM      7  C   UNL     1     145.784 132.842 123.109  1.00  0.00    -0.028 C 
ATOM      8  C   UNL     1     145.134 132.648 124.280  1.00  0.00    -0.070 CG0
ATOM      9  C   UNL     1     145.290 131.312 124.960  1.00  0.00     0.039 C 
ATOM     10  G   UNL     1     144.231 133.689 124.916  1.00  0.00     0.000 G0
ENDBRANCH   6   7
ENDBRANCH   5   6
ENDBRANCH   3   5
ENDBRANCH   1   3
BRANCH   1  11
ATOM     11  C   UNL     1     141.930 134.236 122.320  1.00  0.00     0.087 C 
BRANCH  11  12
ATOM     12  C   UNL     1     141.926 134.500 123.848  1.00  0.00     0.066 C 
BRANCH  12  13
ATOM     13  C   UNL     1     142.769 133.441 124.540  1.00  0.00     0.140 C 
ATOM     14  O   UNL     1     142.248 132.386 124.878  1.00  0.00    -0.299 OA
BRANCH  13  15
ATOM     15  C   UNL     1     144.209 133.695 124.904  1.00  0.00     0.106 CG0
ATOM     16  G   UNL     1     145.119 132.640 124.303  1.00  0.00     0.000 G0
ENDBRANCH  13  15
ENDBRANCH  12  13
BRANCH  12  17
ATOM     17  C   UNL     1     140.480 134.520 124.443  1.00  0.00    -0.006 C 
ATOM     18  C   UNL     1     140.103 135.923 124.963  1.00  0.00     0.008 C 
ATOM     19  C   UNL     1     139.419 134.080 123.413  1.00  0.00     0.008 C 
ENDBRANCH  12  17
ENDBRANCH  11  12
ENDBRANCH   1  11
TORSDOF 1
ENDMDL
MODEL 6
REMARK VINA RESULT:    -3.006      1.940      4.126
REMARK INTER + INTRA:          -4.888
REMARK INTER:                  -4.564
REMARK INTRA:                  -0.324
REMARK UNBOUND:                -0.301
REMARK SMILES CC1=CCC[C@H](C)C(=O)C[C@@H](C(C)C)C(=O)C1
REMARK SMILES IDX 8 1 9 2 6 3 7 4 5 5 4 6 3 7 2 8 1 9 10 11 11 12 15 13 16 14
REMARK SMILES IDX 17 15 12 17 13 18 14 19
REMARK H PARENT
REMARK Flexibility Score: 70.00
ROOT
ATOM      1  C   UNL     1     142.852 135.037 121.956  1.00  0.00     0.136 C 
ATOM      2  O   UNL     1     143.264 134.372 121.016  1.00  0.00    -0.299 OA
ENDROOT
BRANCH   1   3
ATOM      3  C   UNL     1     141.445 135.595 121.928  1.00  0.00     0.053 C 
ATOM      4  C   UNL     1     141.209 136.312 120.595  1.00  0.00     0.016 C 
BRANCH   3   5
ATOM      5  C   UNL     1     140.383 134.491 122.136  1.00  0.00     0.015 C 
BRANCH   5   6
ATOM      6  C   UNL     1     140.030 134.255 123.612  1.00  0.00     0.028 C 
BRANCH   6   7
ATOM      7  C   UNL     1     140.040 135.549 124.392  1.00  0.00    -0.028 C 
ATOM      8  C   UNL     1     140.788 135.806 125.490  1.00  0.00    -0.070 CG0
ATOM      9  C   UNL     1     140.663 137.167 126.126  1.00  0.00     0.039 C 
ATOM     10  G   UNL     1     141.767 134.811 126.084  1.00  0.00     0.000 G0
ENDBRANCH   6   7
ENDBRANCH   5   6
ENDBRANCH   3   5
ENDBRANCH   1   3
BRANCH   1  11
ATOM     11  C   UNL     1     143.779 135.323 123.109  1.00  0.00     0.087 C 
BRANCH  11  12
ATOM     12  C   UNL     1     143.614 134.288 124.252  1.00  0.00     0.066 C 
BRANCH  12  13
ATOM     13  C   UNL     1     143.174 135.007 125.517  1.00  0.00     0.140 C 
ATOM     14  O   UNL     1     143.979 135.700 126.124  1.00  0.00    -0.299 OA
BRANCH  13  15
ATOM     15  C   UNL     1     141.796 134.812 126.095  1.00  0.00     0.106 CG0
ATOM     16  G   UNL     1     140.808 135.794 125.494  1.00  0.00     0.000 G0
ENDBRANCH  13  15
ENDBRANCH  12  13
BRANCH  12  17
ATOM     17  C   UNL     1     144.926 133.478 124.514  1.00  0.00    -0.006 C 
ATOM     18  C   UNL     1     144.638 132.172 125.285  1.00  0.00     0.008 C 
ATOM     19  C   UNL     1     145.662 133.121 123.207  1.00  0.00     0.008 C 
ENDBRANCH  12  17
ENDBRANCH  11  12
ENDBRANCH   1  11
TORSDOF 1
ENDMDL
MODEL 7
REMARK VINA RESULT:    -2.970      2.373      4.636
REMARK INTER + INTRA:          -4.834
REMARK INTER:                  -4.700
REMARK INTRA:                  -0.134
REMARK UNBOUND:                -0.301
REMARK SMILES CC1=CCC[C@H](C)C(=O)C[C@@H](C(C)C)C(=O)C1
REMARK SMILES IDX 8 1 9 2 6 3 7 4 5 5 4 6 3 7 2 8 1 9 10 11 11 12 15 13 16 14
REMARK SMILES IDX 17 15 12 17 13 18 14 19
REMARK H PARENT
REMARK Flexibility Score: 70.00
ROOT
ATOM      1  C   UNL     1     143.627 137.269 122.381  1.00  0.00     0.136 C 
ATOM      2  O   UNL     1     144.630 137.708 121.834  1.00  0.00    -0.299 OA
ENDROOT
BRANCH   1   3
ATOM      3  C   UNL     1     142.266 137.831 122.028  1.00  0.00     0.053 C 
ATOM      4  C   UNL     1     142.345 139.360 121.978  1.00  0.00     0.016 C 
BRANCH   3   5
ATOM      5  C   UNL     1     141.746 137.278 120.681  1.00  0.00     0.015 C 
BRANCH   5   6
ATOM      6  C   UNL     1     140.902 136.004 120.832  1.00  0.00     0.028 C 
BRANCH   6   7
ATOM      7  C   UNL     1     139.967 136.101 122.015  1.00  0.00    -0.028 C 
ATOM      8  C   UNL     1     139.894 135.222 123.040  1.00  0.00    -0.070 CG0
ATOM      9  C   UNL     1     138.897 135.498 124.137  1.00  0.00     0.039 C 
ATOM     10  G   UNL     1     140.789 134.002 123.160  1.00  0.00     0.000 G0
ENDBRANCH   6   7
ENDBRANCH   5   6
ENDBRANCH   3   5
ENDBRANCH   1   3
BRANCH   1  11
ATOM     11  C   UNL     1     143.779 136.199 123.432  1.00  0.00     0.087 C 
BRANCH  11  12
ATOM     12  C   UNL     1     143.295 134.817 122.923  1.00  0.00     0.066 C 
BRANCH  12  13
ATOM     13  C   UNL     1     142.130 134.349 123.779  1.00  0.00     0.140 C 
ATOM     14  O   UNL     1     142.296 134.184 124.980  1.00  0.00    -0.299 OA
BRANCH  13  15
ATOM     15  C   UNL     1     140.798 133.992 123.170  1.00  0.00     0.106 CG0
ATOM     16  G   UNL     1     139.913 135.218 123.036  1.00  0.00     0.000 G0
ENDBRANCH  13  15
ENDBRANCH  12  13
BRANCH  12  17
ATOM     17  C   UNL     1     144.438 133.749 122.927  1.00  0.00    -0.006 C 
ATOM     18  C   UNL     1     145.038 133.559 121.518  1.00  0.00     0.008 C 
ATOM     19  C   UNL     1     145.578 134.119 123.896  1.00  0.00     0.008 C 
ENDBRANCH  12  17
ENDBRANCH  11  12
ENDBRANCH   1  11
TORSDOF 1
ENDMDL
MODEL 8
REMARK VINA RESULT:    -2.912     14.016     16.854
REMARK INTER + INTRA:          -4.745
REMARK INTER:                  -4.651
REMARK INTRA:                  -0.095
REMARK UNBOUND:                -0.301
REMARK SMILES CC1=CCC[C@H](C)C(=O)C[C@@H](C(C)C)C(=O)C1
REMARK SMILES IDX 8 1 9 2 6 3 7 4 5 5 4 6 3 7 2 8 1 9 10 11 11 12 15 13 16 14
REMARK SMILES IDX 17 15 12 17 13 18 14 19
REMARK H PARENT
REMARK Flexibility Score: 70.00
ROOT
ATOM      1  C   UNL     1     130.437 142.604 116.418  1.00  0.00     0.136 C 
ATOM      2  O   UNL     1     131.427 143.256 116.114  1.00  0.00    -0.299 OA
ENDROOT
BRANCH   1   3
ATOM      3  C   UNL     1     129.054 143.173 116.177  1.00  0.00     0.053 C 
ATOM      4  C   UNL     1     129.063 144.675 116.477  1.00  0.00     0.016 C 
BRANCH   3   5
ATOM      5  C   UNL     1     128.571 142.920 114.730  1.00  0.00     0.015 C 
BRANCH   5   6
ATOM      6  C   UNL     1     127.147 142.350 114.655  1.00  0.00     0.028 C 
BRANCH   6   7
ATOM      7  C   UNL     1     127.149 140.934 114.132  1.00  0.00    -0.028 C 
ATOM      8  C   UNL     1     127.354 139.818 114.869  1.00  0.00    -0.070 CG0
ATOM      9  C   UNL     1     127.311 138.487 114.162  1.00  0.00     0.039 C 
ATOM     10  G   UNL     1     127.582 139.839 116.369  1.00  0.00     0.000 G0
ENDBRANCH   6   7
ENDBRANCH   5   6
ENDBRANCH   3   5
ENDBRANCH   1   3
BRANCH   1  11
ATOM     11  C   UNL     1     130.622 141.258 117.069  1.00  0.00     0.087 C 
BRANCH  11  12
ATOM     12  C   UNL     1     130.197 140.099 116.129  1.00  0.00     0.066 C 
BRANCH  12  13
ATOM     13  C   UNL     1     128.989 139.393 116.722  1.00  0.00     0.140 C 
ATOM     14  O   UNL     1     129.156 138.412 117.433  1.00  0.00    -0.299 OA
BRANCH  13  15
ATOM     15  C   UNL     1     127.583 139.815 116.378  1.00  0.00     0.106 CG0
ATOM     16  G   UNL     1     127.365 139.813 114.876  1.00  0.00     0.000 G0
ENDBRANCH  13  15
ENDBRANCH  12  13
BRANCH  12  17
ATOM     17  C   UNL     1     131.357 139.080 115.882  1.00  0.00    -0.006 C 
ATOM     18  C   UNL     1     131.169 138.322 114.552  1.00  0.00     0.008 C 
ATOM     19  C   UNL     1     132.740 139.762 115.863  1.00  0.00     0.008 C 
ENDBRANCH  12  17
ENDBRANCH  11  12
ENDBRANCH   1  11
TORSDOF 1
ENDMDL
MODEL 9
REMARK VINA RESULT:    -2.910      2.379      4.790
REMARK INTER + INTRA:          -4.742
REMARK INTER:                  -4.421
REMARK INTRA:                  -0.321
REMARK UNBOUND:                -0.301
REMARK SMILES CC1=CCC[C@H](C)C(=O)C[C@@H](C(C)C)C(=O)C1
REMARK SMILES IDX 8 1 9 2 6 3 7 4 5 5 4 6 3 7 2 8 1 9 10 11 11 12 15 13 16 14
REMARK SMILES IDX 17 15 12 17 13 18 14 19
REMARK H PARENT
REMARK Flexibility Score: 70.00
ROOT
ATOM      1  C   UNL     1     140.749 134.341 122.680  1.00  0.00     0.136 C 
ATOM      2  O   UNL     1     140.523 133.372 123.393  1.00  0.00    -0.299 OA
ENDROOT
BRANCH   1   3
ATOM      3  C   UNL     1     139.670 135.379 122.452  1.00  0.00     0.053 C 
ATOM      4  C   UNL     1     138.352 134.677 122.114  1.00  0.00     0.016 C 
BRANCH   3   5
ATOM      5  C   UNL     1     139.486 136.298 123.682  1.00  0.00     0.015 C 
BRANCH   5   6
ATOM      6  C   UNL     1     140.208 137.647 123.547  1.00  0.00     0.028 C 
BRANCH   6   7
ATOM      7  C   UNL     1     140.312 138.072 122.101  1.00  0.00    -0.028 C 
ATOM      8  C   UNL     1     141.461 138.253 121.411  1.00  0.00    -0.070 CG0
ATOM      9  C   UNL     1     141.358 138.673 119.967  1.00  0.00     0.039 C 
ATOM     10  G   UNL     1     142.838 138.016 122.003  1.00  0.00     0.000 G0
ENDBRANCH   6   7
ENDBRANCH   5   6
ENDBRANCH   3   5
ENDBRANCH   1   3
BRANCH   1  11
ATOM     11  C   UNL     1     142.092 134.454 122.007  1.00  0.00     0.087 C 
BRANCH  11  12
ATOM     12  C   UNL     1     143.009 135.482 122.719  1.00  0.00     0.066 C 
BRANCH  12  13
ATOM     13  C   UNL     1     143.336 136.611 121.755  1.00  0.00     0.140 C 
ATOM     14  O   UNL     1     144.066 136.391 120.799  1.00  0.00    -0.299 OA
BRANCH  13  15
ATOM     15  C   UNL     1     142.857 138.019 122.001  1.00  0.00     0.106 CG0
ATOM     16  G   UNL     1     141.474 138.236 121.415  1.00  0.00     0.000 G0
ENDBRANCH  13  15
ENDBRANCH  12  13
BRANCH  12  17
ATOM     17  C   UNL     1     144.324 134.830 123.260  1.00  0.00    -0.006 C 
ATOM     18  C   UNL     1     145.102 135.803 124.171  1.00  0.00     0.008 C 
ATOM     19  C   UNL     1     144.050 133.535 124.051  1.00  0.00     0.008 C 
ENDBRANCH  12  17
ENDBRANCH  11  12
ENDBRANCH   1  11
TORSDOF 1
ENDMDL
