MODEL 1
REMARK VINA RESULT:    -3.099      0.000      0.000
REMARK INTER + INTRA:          -4.581
REMARK INTER:                  -4.729
REMARK INTRA:                   0.148
REMARK UNBOUND:                 0.148
REMARK SMILES CC1=CCC[C@@H](C)C(=O)C[C@H](C(C)C)C(=O)C1
REMARK SMILES IDX 8 1 9 2 6 3 7 4 5 5 4 6 3 7 2 8 1 9 10 11 11 12 15 13 16 14
REMARK SMILES IDX 17 15 12 17 13 18 14 19
REMARK H PARENT
REMARK Flexibility Score: 70.00
ROOT
ATOM      1  C   UNL     1      96.446 141.501 136.155  1.00  0.00     0.136 C 
ATOM      2  O   UNL     1      95.288 141.743 135.841  1.00  0.00    -0.299 OA
ENDROOT
BRANCH   1   3
ATOM      3  C   UNL     1      97.559 142.031 135.262  1.00  0.00     0.053 C 
ATOM      4  C   UNL     1      97.000 143.000 134.211  1.00  0.00     0.016 C 
BRANCH   3   5
ATOM      5  C   UNL     1      98.381 140.904 134.591  1.00  0.00     0.015 C 
BRANCH   5   6
ATOM      6  C   UNL     1      99.907 140.961 134.819  1.00  0.00     0.028 C 
BRANCH   6   7
ATOM      7  C   UNL     1     100.378 141.511 136.148  1.00  0.00    -0.028 C 
ATOM      8  C   UNL     1     100.576 140.804 137.286  1.00  0.00    -0.070 CG0
ATOM      9  C   UNL     1     101.206 141.517 138.456  1.00  0.00     0.039 C 
ATOM     10  G   UNL     1     100.144 139.362 137.470  1.00  0.00     0.000 G0
ENDBRANCH   6   7
ENDBRANCH   5   6
ENDBRANCH   3   5
ENDBRANCH   1   3
BRANCH   1  11
ATOM     11  C   UNL     1      96.686 140.657 137.397  1.00  0.00     0.087 C 
BRANCH  11  12
ATOM     12  C   UNL     1      97.525 139.375 137.142  1.00  0.00     0.066 C 
BRANCH  12  13
ATOM     13  C   UNL     1      98.741 139.309 138.050  1.00  0.00     0.140 C 
ATOM     14  O   UNL     1      98.593 139.260 139.262  1.00  0.00    -0.299 OA
BRANCH  13  15
ATOM     15  C   UNL     1     100.142 139.354 137.482  1.00  0.00     0.106 CG0
ATOM     16  G   UNL     1     100.575 140.792 137.277  1.00  0.00     0.000 G0
ENDBRANCH  13  15
ENDBRANCH  12  13
BRANCH  12  17
ATOM     17  C   UNL     1      96.693 138.050 137.181  1.00  0.00    -0.006 C 
ATOM     18  C   UNL     1      95.719 137.864 136.003  1.00  0.00     0.008 C 
ATOM     19  C   UNL     1      97.608 136.819 137.290  1.00  0.00     0.008 C 
ENDBRANCH  12  17
ENDBRANCH  11  12
ENDBRANCH   1  11
TORSDOF 1
ENDMDL
MODEL 2
REMARK VINA RESULT:    -3.001      2.702      4.495
REMARK INTER + INTRA:          -4.432
REMARK INTER:                  -4.268
REMARK INTRA:                  -0.164
REMARK UNBOUND:                 0.148
REMARK SMILES CC1=CCC[C@@H](C)C(=O)C[C@H](C(C)C)C(=O)C1
REMARK SMILES IDX 8 1 9 2 6 3 7 4 5 5 4 6 3 7 2 8 1 9 10 11 11 12 15 13 16 14
REMARK SMILES IDX 17 15 12 17 13 18 14 19
REMARK H PARENT
REMARK Flexibility Score: 70.00
ROOT
ATOM      1  C   UNL     1      95.737 139.044 136.168  1.00  0.00     0.136 C 
ATOM      2  O   UNL     1      95.174 138.086 136.679  1.00  0.00    -0.299 OA
ENDROOT
BRANCH   1   3
ATOM      3  C   UNL     1      97.178 138.869 135.707  1.00  0.00     0.053 C 
ATOM      4  C   UNL     1      98.152 139.063 136.878  1.00  0.00     0.016 C 
BRANCH   3   5
ATOM      5  C   UNL     1      97.547 139.795 134.523  1.00  0.00     0.015 C 
BRANCH   5   6
ATOM      6  C   UNL     1      98.123 141.176 134.906  1.00  0.00     0.028 C 
BRANCH   6   7
ATOM      7  C   UNL     1      97.526 142.380 134.211  1.00  0.00    -0.028 C 
ATOM      8  C   UNL     1      96.957 143.453 134.810  1.00  0.00    -0.070 CG0
ATOM      9  C   UNL     1      96.571 144.621 133.938  1.00  0.00     0.039 C 
ATOM     10  G   UNL     1      96.629 143.520 136.289  1.00  0.00     0.000 G0
ENDBRANCH   6   7
ENDBRANCH   5   6
ENDBRANCH   3   5
ENDBRANCH   1   3
BRANCH   1  11
ATOM     11  C   UNL     1      94.968 140.351 136.062  1.00  0.00     0.087 C 
BRANCH  11  12
ATOM     12  C   UNL     1      95.342 141.399 137.146  1.00  0.00     0.066 C 
BRANCH  12  13
ATOM     13  C   UNL     1      95.337 142.811 136.588  1.00  0.00     0.140 C 
ATOM     14  O   UNL     1      94.276 143.359 136.328  1.00  0.00    -0.299 OA
BRANCH  13  15
ATOM     15  C   UNL     1      96.629 143.541 136.299  1.00  0.00     0.106 CG0
ATOM     16  G   UNL     1      96.968 143.436 134.825  1.00  0.00     0.000 G0
ENDBRANCH  13  15
ENDBRANCH  12  13
BRANCH  12  17
ATOM     17  C   UNL     1      94.500 141.286 138.460  1.00  0.00    -0.006 C 
ATOM     18  C   UNL     1      93.033 140.862 138.254  1.00  0.00     0.008 C 
ATOM     19  C   UNL     1      95.168 140.341 139.473  1.00  0.00     0.008 C 
ENDBRANCH  12  17
ENDBRANCH  11  12
ENDBRANCH   1  11
TORSDOF 1
ENDMDL
MODEL 3
REMARK VINA RESULT:    -2.997      2.866      4.131
REMARK INTER + INTRA:          -4.426
REMARK INTER:                  -4.212
REMARK INTRA:                  -0.213
REMARK UNBOUND:                 0.148
REMARK SMILES CC1=CCC[C@@H](C)C(=O)C[C@H](C(C)C)C(=O)C1
REMARK SMILES IDX 8 1 9 2 6 3 7 4 5 5 4 6 3 7 2 8 1 9 10 11 11 12 15 13 16 14
REMARK SMILES IDX 17 15 12 17 13 18 14 19
REMARK H PARENT
REMARK Flexibility Score: 70.00
ROOT
ATOM      1  C   UNL     1      97.944 139.956 135.997  1.00  0.00     0.136 C 
ATOM      2  O   UNL     1      99.003 140.278 136.520  1.00  0.00    -0.299 OA
ENDROOT
BRANCH   1   3
ATOM      3  C   UNL     1      97.377 140.856 134.908  1.00  0.00     0.053 C 
ATOM      4  C   UNL     1      98.488 141.333 133.962  1.00  0.00     0.016 C 
BRANCH   3   5
ATOM      5  C   UNL     1      96.580 142.056 135.474  1.00  0.00     0.015 C 
BRANCH   5   6
ATOM      6  C   UNL     1      95.114 141.765 135.861  1.00  0.00     0.028 C 
BRANCH   6   7
ATOM      7  C   UNL     1      94.764 141.863 137.330  1.00  0.00    -0.028 C 
ATOM      8  C   UNL     1      94.651 140.832 138.200  1.00  0.00    -0.070 CG0
ATOM      9  C   UNL     1      94.455 141.162 139.658  1.00  0.00     0.039 C 
ATOM     10  G   UNL     1      94.648 139.374 137.785  1.00  0.00     0.000 G0
ENDBRANCH   6   7
ENDBRANCH   5   6
ENDBRANCH   3   5
ENDBRANCH   1   3
BRANCH   1  11
ATOM     11  C   UNL     1      97.255 138.697 136.499  1.00  0.00     0.087 C 
BRANCH  11  12
ATOM     12  C   UNL     1      97.162 138.597 138.047  1.00  0.00     0.066 C 
BRANCH  12  13
ATOM     13  C   UNL     1      95.720 138.597 138.524  1.00  0.00     0.140 C 
ATOM     14  O   UNL     1      95.403 137.937 139.502  1.00  0.00    -0.299 OA
BRANCH  13  15
ATOM     15  C   UNL     1      94.651 139.364 137.778  1.00  0.00     0.106 CG0
ATOM     16  G   UNL     1      94.643 140.813 138.224  1.00  0.00     0.000 G0
ENDBRANCH  13  15
ENDBRANCH  12  13
BRANCH  12  17
ATOM     17  C   UNL     1      97.981 137.413 138.660  1.00  0.00    -0.006 C 
ATOM     18  C   UNL     1      98.501 136.388 137.635  1.00  0.00     0.008 C 
ATOM     19  C   UNL     1      99.154 137.927 139.512  1.00  0.00     0.008 C 
ENDBRANCH  12  17
ENDBRANCH  11  12
ENDBRANCH   1  11
TORSDOF 1
ENDMDL
MODEL 4
REMARK VINA RESULT:    -2.931      2.204      4.906
REMARK INTER + INTRA:          -4.325
REMARK INTER:                  -4.060
REMARK INTRA:                  -0.265
REMARK UNBOUND:                 0.148
REMARK SMILES CC1=CCC[C@@H](C)C(=O)C[C@H](C(C)C)C(=O)C1
REMARK SMILES IDX 8 1 9 2 6 3 7 4 5 5 4 6 3 7 2 8 1 9 10 11 11 12 15 13 16 14
REMARK SMILES IDX 17 15 12 17 13 18 14 19
REMARK H PARENT
REMARK Flexibility Score: 70.00
ROOT
ATOM      1  C   UNL     1      99.117 140.887 137.662  1.00  0.00     0.136 C 
ATOM      2  O   UNL     1     100.160 141.480 137.420  1.00  0.00    -0.299 OA
ENDROOT
BRANCH   1   3
ATOM      3  C   UNL     1      99.199 139.565 138.414  1.00  0.00     0.053 C 
ATOM      4  C   UNL     1     100.443 139.526 139.312  1.00  0.00     0.016 C 
BRANCH   3   5
ATOM      5  C   UNL     1      99.157 138.335 137.475  1.00  0.00     0.015 C 
BRANCH   5   6
ATOM      6  C   UNL     1      97.896 137.451 137.584  1.00  0.00     0.028 C 
BRANCH   6   7
ATOM      7  C   UNL     1      96.783 137.959 138.475  1.00  0.00    -0.028 C 
ATOM      8  C   UNL     1      95.611 138.501 138.067  1.00  0.00    -0.070 CG0
ATOM      9  C   UNL     1      94.568 138.792 139.118  1.00  0.00     0.039 C 
ATOM     10  G   UNL     1      95.314 138.889 136.632  1.00  0.00     0.000 G0
ENDBRANCH   6   7
ENDBRANCH   5   6
ENDBRANCH   3   5
ENDBRANCH   1   3
BRANCH   1  11
ATOM     11  C   UNL     1      97.817 141.497 137.162  1.00  0.00     0.087 C 
BRANCH  11  12
ATOM     12  C   UNL     1      97.136 140.695 136.020  1.00  0.00     0.066 C 
BRANCH  12  13
ATOM     13  C   UNL     1      95.700 140.338 136.363  1.00  0.00     0.140 C 
ATOM     14  O   UNL     1      94.863 141.220 136.471  1.00  0.00    -0.299 OA
BRANCH  13  15
ATOM     15  C   UNL     1      95.294 138.904 136.624  1.00  0.00     0.106 CG0
ATOM     16  G   UNL     1      95.617 138.524 138.055  1.00  0.00     0.000 G0
ENDBRANCH  13  15
ENDBRANCH  12  13
BRANCH  12  17
ATOM     17  C   UNL     1      97.251 141.368 134.611  1.00  0.00    -0.006 C 
ATOM     18  C   UNL     1      97.201 142.907 134.625  1.00  0.00     0.008 C 
ATOM     19  C   UNL     1      98.515 140.902 133.871  1.00  0.00     0.008 C 
ENDBRANCH  12  17
ENDBRANCH  11  12
ENDBRANCH   1  11
TORSDOF 1
ENDMDL
MODEL 5
REMARK VINA RESULT:    -2.910      2.521      4.462
REMARK INTER + INTRA:          -4.294
REMARK INTER:                  -3.979
REMARK INTRA:                  -0.314
REMARK UNBOUND:                 0.148
REMARK SMILES CC1=CCC[C@@H](C)C(=O)C[C@H](C(C)C)C(=O)C1
REMARK SMILES IDX 8 1 9 2 6 3 7 4 5 5 4 6 3 7 2 8 1 9 10 11 11 12 15 13 16 14
REMARK SMILES IDX 17 15 12 17 13 18 14 19
REMARK H PARENT
REMARK Flexibility Score: 70.00
ROOT
ATOM      1  C   UNL     1      97.610 142.203 135.815  1.00  0.00     0.136 C 
ATOM      2  O   UNL     1      97.765 143.065 134.962  1.00  0.00    -0.299 OA
ENDROOT
BRANCH   1   3
ATOM      3  C   UNL     1      98.260 140.844 135.591  1.00  0.00     0.053 C 
ATOM      4  C   UNL     1      99.711 141.005 135.117  1.00  0.00     0.016 C 
BRANCH   3   5
ATOM      5  C   UNL     1      97.458 139.947 134.616  1.00  0.00     0.015 C 
BRANCH   5   6
ATOM      6  C   UNL     1      96.596 138.847 135.274  1.00  0.00     0.028 C 
BRANCH   6   7
ATOM      7  C   UNL     1      96.937 138.475 136.700  1.00  0.00    -0.028 C 
ATOM      8  C   UNL     1      96.146 138.644 137.786  1.00  0.00    -0.070 CG0
ATOM      9  C   UNL     1      96.612 138.053 139.093  1.00  0.00     0.039 C 
ATOM     10  G   UNL     1      94.859 139.444 137.776  1.00  0.00     0.000 G0
ENDBRANCH   6   7
ENDBRANCH   5   6
ENDBRANCH   3   5
ENDBRANCH   1   3
BRANCH   1  11
ATOM     11  C   UNL     1      96.750 142.541 137.023  1.00  0.00     0.087 C 
BRANCH  11  12
ATOM     12  C   UNL     1      95.324 141.929 136.979  1.00  0.00     0.066 C 
BRANCH  12  13
ATOM     13  C   UNL     1      95.114 140.911 138.086  1.00  0.00     0.140 C 
ATOM     14  O   UNL     1      95.205 141.255 139.255  1.00  0.00    -0.299 OA
BRANCH  13  15
ATOM     15  C   UNL     1      94.842 139.457 137.768  1.00  0.00     0.106 CG0
ATOM     16  G   UNL     1      96.136 138.668 137.792  1.00  0.00     0.000 G0
ENDBRANCH  13  15
ENDBRANCH  12  13
BRANCH  12  17
ATOM     17  C   UNL     1      94.175 142.992 136.937  1.00  0.00    -0.006 C 
ATOM     18  C   UNL     1      94.599 144.381 136.424  1.00  0.00     0.008 C 
ATOM     19  C   UNL     1      92.976 142.487 136.116  1.00  0.00     0.008 C 
ENDBRANCH  12  17
ENDBRANCH  11  12
ENDBRANCH   1  11
TORSDOF 1
ENDMDL
MODEL 6
REMARK VINA RESULT:    -2.907      3.154      5.171
REMARK INTER + INTRA:          -4.289
REMARK INTER:                  -4.941
REMARK INTRA:                   0.651
REMARK UNBOUND:                 0.148
REMARK SMILES CC1=CCC[C@@H](C)C(=O)C[C@H](C(C)C)C(=O)C1
REMARK SMILES IDX 8 1 9 2 6 3 7 4 5 5 4 6 3 7 2 8 1 9 10 11 11 12 15 13 16 14
REMARK SMILES IDX 17 15 12 17 13 18 14 19
REMARK H PARENT
REMARK Flexibility Score: 70.00
ROOT
ATOM      1  C   UNL     1      96.936 144.874 135.136  1.00  0.00     0.136 C 
ATOM      2  O   UNL     1      97.708 145.089 136.061  1.00  0.00    -0.299 OA
ENDROOT
BRANCH   1   3
ATOM      3  C   UNL     1      95.945 145.967 134.759  1.00  0.00     0.053 C 
ATOM      4  C   UNL     1      96.621 147.346 134.778  1.00  0.00     0.016 C 
BRANCH   3   5
ATOM      5  C   UNL     1      94.676 145.962 135.646  1.00  0.00     0.015 C 
BRANCH   5   6
ATOM      6  C   UNL     1      93.917 144.619 135.721  1.00  0.00     0.028 C 
BRANCH   6   7
ATOM      7  C   UNL     1      93.957 143.887 137.045  1.00  0.00    -0.028 C 
ATOM      8  C   UNL     1      94.627 142.740 137.310  1.00  0.00    -0.070 CG0
ATOM      9  C   UNL     1      94.668 142.265 138.740  1.00  0.00     0.039 C 
ATOM     10  G   UNL     1      95.279 141.879 136.246  1.00  0.00     0.000 G0
ENDBRANCH   6   7
ENDBRANCH   5   6
ENDBRANCH   3   5
ENDBRANCH   1   3
BRANCH   1  11
ATOM     11  C   UNL     1      97.001 143.517 134.454  1.00  0.00     0.087 C 
BRANCH  11  12
ATOM     12  C   UNL     1      97.701 142.415 135.295  1.00  0.00     0.066 C 
BRANCH  12  13
ATOM     13  C   UNL     1      96.802 141.897 136.403  1.00  0.00     0.140 C 
ATOM     14  O   UNL     1      97.295 141.455 137.430  1.00  0.00    -0.299 OA
BRANCH  13  15
ATOM     15  C   UNL     1      95.299 141.870 136.241  1.00  0.00     0.106 CG0
ATOM     16  G   UNL     1      94.646 142.745 137.292  1.00  0.00     0.000 G0
ENDBRANCH  13  15
ENDBRANCH  12  13
BRANCH  12  17
ATOM     17  C   UNL     1      98.308 141.251 134.442  1.00  0.00    -0.006 C 
ATOM     18  C   UNL     1      99.800 140.969 134.704  1.00  0.00     0.008 C 
ATOM     19  C   UNL     1      97.503 139.953 134.614  1.00  0.00     0.008 C 
ENDBRANCH  12  17
ENDBRANCH  11  12
ENDBRANCH   1  11
TORSDOF 1
ENDMDL
MODEL 7
REMARK VINA RESULT:    -2.845      2.337      4.704
REMARK INTER + INTRA:          -4.194
REMARK INTER:                  -4.753
REMARK INTRA:                   0.559
REMARK UNBOUND:                 0.148
REMARK SMILES CC1=CCC[C@@H](C)C(=O)C[C@H](C(C)C)C(=O)C1
REMARK SMILES IDX 8 1 9 2 6 3 7 4 5 5 4 6 3 7 2 8 1 9 10 11 11 12 15 13 16 14
REMARK SMILES IDX 17 15 12 17 13 18 14 19
REMARK H PARENT
REMARK Flexibility Score: 70.00
ROOT
ATOM      1  C   UNL     1      98.523 141.897 136.451  1.00  0.00     0.136 C 
ATOM      2  O   UNL     1      98.844 141.993 137.627  1.00  0.00    -0.299 OA
ENDROOT
BRANCH   1   3
ATOM      3  C   UNL     1      99.104 140.748 135.639  1.00  0.00     0.053 C 
ATOM      4  C   UNL     1     100.459 141.139 135.032  1.00  0.00     0.016 C 
BRANCH   3   5
ATOM      5  C   UNL     1      98.137 140.235 134.543  1.00  0.00     0.015 C 
BRANCH   5   6
ATOM      6  C   UNL     1      97.133 139.151 134.990  1.00  0.00     0.028 C 
BRANCH   6   7
ATOM      7  C   UNL     1      97.000 138.916 136.480  1.00  0.00    -0.028 C 
ATOM      8  C   UNL     1      96.019 139.390 137.283  1.00  0.00    -0.070 CG0
ATOM      9  C   UNL     1      95.983 138.903 138.710  1.00  0.00     0.039 C 
ATOM     10  G   UNL     1      95.000 140.426 136.851  1.00  0.00     0.000 G0
ENDBRANCH   6   7
ENDBRANCH   5   6
ENDBRANCH   3   5
ENDBRANCH   1   3
BRANCH   1  11
ATOM     11  C   UNL     1      97.592 142.953 135.876  1.00  0.00     0.087 C 
BRANCH  11  12
ATOM     12  C   UNL     1      96.135 142.463 135.653  1.00  0.00     0.066 C 
BRANCH  12  13
ATOM     13  C   UNL     1      95.562 141.816 136.901  1.00  0.00     0.140 C 
ATOM     14  O   UNL     1      95.604 142.409 137.968  1.00  0.00    -0.299 OA
BRANCH  13  15
ATOM     15  C   UNL     1      94.981 140.420 136.859  1.00  0.00     0.106 CG0
ATOM     16  G   UNL     1      96.026 139.408 137.286  1.00  0.00     0.000 G0
ENDBRANCH  13  15
ENDBRANCH  12  13
BRANCH  12  17
ATOM     17  C   UNL     1      95.178 143.555 135.068  1.00  0.00    -0.006 C 
ATOM     18  C   UNL     1      94.644 144.567 136.099  1.00  0.00     0.008 C 
ATOM     19  C   UNL     1      95.838 144.311 133.902  1.00  0.00     0.008 C 
ENDBRANCH  12  17
ENDBRANCH  11  12
ENDBRANCH   1  11
TORSDOF 1
ENDMDL
MODEL 8
REMARK VINA RESULT:    -2.840      2.579      4.678
REMARK INTER + INTRA:          -4.187
REMARK INTER:                  -4.203
REMARK INTRA:                   0.016
REMARK UNBOUND:                 0.148
REMARK SMILES CC1=CCC[C@@H](C)C(=O)C[C@H](C(C)C)C(=O)C1
REMARK SMILES IDX 8 1 9 2 6 3 7 4 5 5 4 6 3 7 2 8 1 9 10 11 11 12 15 13 16 14
REMARK SMILES IDX 17 15 12 17 13 18 14 19
REMARK H PARENT
REMARK Flexibility Score: 70.00
ROOT
ATOM      1  C   UNL     1      96.194 142.955 136.441  1.00  0.00     0.136 C 
ATOM      2  O   UNL     1      97.188 143.668 136.461  1.00  0.00    -0.299 OA
ENDROOT
BRANCH   1   3
ATOM      3  C   UNL     1      94.998 143.365 137.289  1.00  0.00     0.053 C 
ATOM      4  C   UNL     1      95.185 144.783 137.846  1.00  0.00     0.016 C 
BRANCH   3   5
ATOM      5  C   UNL     1      94.695 142.360 138.427  1.00  0.00     0.015 C 
BRANCH   5   6
ATOM      6  C   UNL     1      93.860 141.125 138.025  1.00  0.00     0.028 C 
BRANCH   6   7
ATOM      7  C   UNL     1      94.334 139.784 138.543  1.00  0.00    -0.028 C 
ATOM      8  C   UNL     1      95.140 138.911 137.894  1.00  0.00    -0.070 CG0
ATOM      9  C   UNL     1      95.626 137.703 138.656  1.00  0.00     0.039 C 
ATOM     10  G   UNL     1      95.529 139.045 136.435  1.00  0.00     0.000 G0
ENDBRANCH   6   7
ENDBRANCH   5   6
ENDBRANCH   3   5
ENDBRANCH   1   3
BRANCH   1  11
ATOM     11  C   UNL     1      96.239 141.692 135.594  1.00  0.00     0.087 C 
BRANCH  11  12
ATOM     12  C   UNL     1      97.450 140.768 135.896  1.00  0.00     0.066 C 
BRANCH  12  13
ATOM     13  C   UNL     1      97.006 139.374 136.301  1.00  0.00     0.140 C 
ATOM     14  O   UNL     1      97.840 138.502 136.495  1.00  0.00    -0.299 OA
BRANCH  13  15
ATOM     15  C   UNL     1      95.539 139.025 136.422  1.00  0.00     0.106 CG0
ATOM     16  G   UNL     1      95.147 138.920 137.882  1.00  0.00     0.000 G0
ENDBRANCH  13  15
ENDBRANCH  12  13
BRANCH  12  17
ATOM     17  C   UNL     1      98.524 140.732 134.758  1.00  0.00    -0.006 C 
ATOM     18  C   UNL     1      98.117 141.457 133.462  1.00  0.00     0.008 C 
ATOM     19  C   UNL     1      99.876 141.279 135.248  1.00  0.00     0.008 C 
ENDBRANCH  12  17
ENDBRANCH  11  12
ENDBRANCH   1  11
TORSDOF 1
ENDMDL
MODEL 9
REMARK VINA RESULT:    -2.839      3.223      5.566
REMARK INTER + INTRA:          -4.186
REMARK INTER:                  -4.054
REMARK INTRA:                  -0.131
REMARK UNBOUND:                 0.148
REMARK SMILES CC1=CCC[C@@H](C)C(=O)C[C@H](C(C)C)C(=O)C1
REMARK SMILES IDX 8 1 9 2 6 3 7 4 5 5 4 6 3 7 2 8 1 9 10 11 11 12 15 13 16 14
REMARK SMILES IDX 17 15 12 17 13 18 14 19
REMARK H PARENT
REMARK Flexibility Score: 70.00
ROOT
ATOM      1  C   UNL     1      98.103 141.728 137.991  1.00  0.00     0.136 C 
ATOM      2  O   UNL     1      98.489 140.578 138.144  1.00  0.00    -0.299 OA
ENDROOT
BRANCH   1   3
ATOM      3  C   UNL     1      97.472 142.439 139.180  1.00  0.00     0.053 C 
ATOM      4  C   UNL     1      96.253 141.661 139.696  1.00  0.00     0.016 C 
BRANCH   3   5
ATOM      5  C   UNL     1      97.098 143.910 138.873  1.00  0.00     0.015 C 
BRANCH   5   6
ATOM      6  C   UNL     1      95.647 144.148 138.403  1.00  0.00     0.028 C 
BRANCH   6   7
ATOM      7  C   UNL     1      95.448 145.143 137.280  1.00  0.00    -0.028 C 
ATOM      8  C   UNL     1      95.107 144.855 136.002  1.00  0.00    -0.070 CG0
ATOM      9  C   UNL     1      94.799 146.009 135.080  1.00  0.00     0.039 C 
ATOM     10  G   UNL     1      95.080 143.451 135.432  1.00  0.00     0.000 G0
ENDBRANCH   6   7
ENDBRANCH   5   6
ENDBRANCH   3   5
ENDBRANCH   1   3
BRANCH   1  11
ATOM     11  C   UNL     1      98.251 142.353 136.612  1.00  0.00     0.087 C 
BRANCH  11  12
ATOM     12  C   UNL     1      97.195 141.872 135.580  1.00  0.00     0.066 C 
BRANCH  12  13
ATOM     13  C   UNL     1      96.461 143.038 134.942  1.00  0.00     0.140 C 
ATOM     14  O   UNL     1      96.998 143.684 134.054  1.00  0.00    -0.299 OA
BRANCH  13  15
ATOM     15  C   UNL     1      95.087 143.452 135.422  1.00  0.00     0.106 CG0
ATOM     16  G   UNL     1      95.138 144.853 136.000  1.00  0.00     0.000 G0
ENDBRANCH  13  15
ENDBRANCH  12  13
BRANCH  12  17
ATOM     17  C   UNL     1      97.757 140.878 134.509  1.00  0.00    -0.006 C 
ATOM     18  C   UNL     1      99.276 140.970 134.276  1.00  0.00     0.008 C 
ATOM     19  C   UNL     1      97.376 139.426 134.840  1.00  0.00     0.008 C 
ENDBRANCH  12  17
ENDBRANCH  11  12
ENDBRANCH   1  11
TORSDOF 1
ENDMDL
