MODEL 1
REMARK VINA RESULT:    -3.991      0.000      0.000
REMARK INTER + INTRA:          -4.188
REMARK INTER:                  -5.624
REMARK INTRA:                   1.436
REMARK UNBOUND:                 1.436
REMARK SMILES CC1=CCC(=C(C)C)C(=O)CC(C)=CCC1
REMARK SMILES IDX 12 1 14 2 13 3 15 4 16 5 2 6 1 7 3 8 11 10 9 11 10 12 5 13
REMARK SMILES IDX 6 14 7 15 8 16 4 17
REMARK H PARENT
REMARK Flexibility Score: 60.00
ROOT
ATOM      1  C   UNL     1      85.486   3.496  28.183  1.00  0.00    -0.070 C 
ATOM      2  C   UNL     1      85.268   4.688  27.580  1.00  0.00    -0.027 C 
ATOM      3  C   UNL     1      86.738   3.336  29.007  1.00  0.00     0.039 C 
ENDROOT
BRANCH   2   4
ATOM      4  C   UNL     1      84.102   5.004  26.670  1.00  0.00     0.032 C 
BRANCH   4   5
ATOM      5  C   UNL     1      83.471   6.363  27.008  1.00  0.00     0.034 C 
BRANCH   5   6
ATOM      6  C   UNL     1      82.052   6.257  27.546  1.00  0.00    -0.077 C 
ATOM      7  C   UNL     1      80.923   6.863  26.750  1.00  0.00     0.039 C 
ATOM      8  C   UNL     1      81.744   5.660  28.722  1.00  0.00    -0.023 CG0
ATOM      9  G   UNL     1      82.721   4.939  29.620  1.00  0.00     0.000 G0
ENDBRANCH   5   6
ENDBRANCH   4   5
ENDBRANCH   2   4
BRANCH   1  10
ATOM     10  C   UNL     1      84.529   2.326  28.067  1.00  0.00     0.111 C 
BRANCH  10  11
ATOM     11  C   UNL     1      83.105   2.769  28.253  1.00  0.00     0.163 C 
ATOM     12  O   UNL     1      82.281   2.610  27.313  1.00  0.00    -0.294 OA
BRANCH  11  13
ATOM     13  C   UNL     1      82.655   3.413  29.514  1.00  0.00    -0.002 C 
ATOM     14  C   UNL     1      82.200   2.656  30.548  1.00  0.00    -0.069 C 
ATOM     15  C   UNL     1      81.789   3.289  31.857  1.00  0.00     0.039 C 
ATOM     16  C   UNL     1      82.050   1.156  30.412  1.00  0.00     0.039 C 
BRANCH  13  17
ATOM     17  C   UNL     1      82.710   4.933  29.631  1.00  0.00     0.066 CG0
ATOM     18  G   UNL     1      81.733   5.649  28.728  1.00  0.00     0.000 G0
ENDBRANCH  13  17
ENDBRANCH  11  13
ENDBRANCH  10  11
ENDBRANCH   1  10
TORSDOF 0
ENDMDL
MODEL 2
REMARK VINA RESULT:    -3.912      1.703      3.736
REMARK INTER + INTRA:          -4.077
REMARK INTER:                  -5.559
REMARK INTRA:                   1.482
REMARK UNBOUND:                 1.436
REMARK SMILES CC1=CCC(=C(C)C)C(=O)CC(C)=CCC1
REMARK SMILES IDX 12 1 14 2 13 3 15 4 16 5 2 6 1 7 3 8 11 10 9 11 10 12 5 13
REMARK SMILES IDX 6 14 7 15 8 16 4 17
REMARK H PARENT
REMARK Flexibility Score: 60.00
ROOT
ATOM      1  C   UNL     1      82.743   5.798  27.844  1.00  0.00    -0.070 C 
ATOM      2  C   UNL     1      83.294   5.424  26.666  1.00  0.00    -0.027 C 
ATOM      3  C   UNL     1      81.318   6.289  27.838  1.00  0.00     0.039 C 
ENDROOT
BRANCH   2   4
ATOM      4  C   UNL     1      84.722   4.967  26.477  1.00  0.00     0.032 C 
BRANCH   4   5
ATOM      5  C   UNL     1      84.857   3.446  26.637  1.00  0.00     0.034 C 
BRANCH   5   6
ATOM      6  C   UNL     1      85.375   3.022  28.003  1.00  0.00    -0.077 C 
ATOM      7  C   UNL     1      86.865   2.949  28.227  1.00  0.00     0.039 C 
ATOM      8  C   UNL     1      84.566   2.683  29.034  1.00  0.00    -0.023 CG0
ATOM      9  G   UNL     1      83.057   2.760  29.025  1.00  0.00     0.000 G0
ENDBRANCH   5   6
ENDBRANCH   4   5
ENDBRANCH   2   4
BRANCH   1  10
ATOM     10  C   UNL     1      83.494   5.741  29.160  1.00  0.00     0.111 C 
BRANCH  10  11
ATOM     11  C   UNL     1      82.683   5.046  30.218  1.00  0.00     0.163 C 
ATOM     12  O   UNL     1      82.168   5.723  31.146  1.00  0.00    -0.294 OA
BRANCH  11  13
ATOM     13  C   UNL     1      82.498   3.572  30.204  1.00  0.00    -0.002 C 
ATOM     14  C   UNL     1      81.838   2.952  31.219  1.00  0.00    -0.069 C 
ATOM     15  C   UNL     1      81.594   1.461  31.196  1.00  0.00     0.039 C 
ATOM     16  C   UNL     1      81.359   3.727  32.428  1.00  0.00     0.039 C 
BRANCH  13  17
ATOM     17  C   UNL     1      83.060   2.765  29.037  1.00  0.00     0.066 CG0
ATOM     18  G   UNL     1      84.567   2.669  29.034  1.00  0.00     0.000 G0
ENDBRANCH  13  17
ENDBRANCH  11  13
ENDBRANCH  10  11
ENDBRANCH   1  10
TORSDOF 0
ENDMDL
MODEL 3
REMARK VINA RESULT:    -3.709     11.071     12.968
REMARK INTER + INTRA:          -3.790
REMARK INTER:                  -4.372
REMARK INTRA:                   0.582
REMARK UNBOUND:                 1.436
REMARK SMILES CC1=CCC(=C(C)C)C(=O)CC(C)=CCC1
REMARK SMILES IDX 12 1 14 2 13 3 15 4 16 5 2 6 1 7 3 8 11 10 9 11 10 12 5 13
REMARK SMILES IDX 6 14 7 15 8 16 4 17
REMARK H PARENT
REMARK Flexibility Score: 60.00
ROOT
ATOM      1  C   UNL     1      78.750  -6.875  29.386  1.00  0.00    -0.070 C 
ATOM      2  C   UNL     1      78.613  -5.934  28.422  1.00  0.00    -0.027 C 
ATOM      3  C   UNL     1      77.513  -7.321  30.122  1.00  0.00     0.039 C 
ENDROOT
BRANCH   2   4
ATOM      4  C   UNL     1      79.749  -5.328  27.629  1.00  0.00     0.032 C 
BRANCH   4   5
ATOM      5  C   UNL     1      79.667  -5.705  26.143  1.00  0.00     0.034 C 
BRANCH   5   6
ATOM      6  C   UNL     1      79.103  -7.098  25.900  1.00  0.00    -0.077 C 
ATOM      7  C   UNL     1      77.693  -7.233  25.383  1.00  0.00     0.039 C 
ATOM      8  C   UNL     1      79.797  -8.235  26.143  1.00  0.00    -0.023 CG0
ATOM      9  G   UNL     1      81.237  -8.303  26.593  1.00  0.00     0.000 G0
ENDBRANCH   5   6
ENDBRANCH   4   5
ENDBRANCH   2   4
BRANCH   1  10
ATOM     10  C   UNL     1      80.084  -7.496  29.750  1.00  0.00     0.111 C 
BRANCH  10  11
ATOM     11  C   UNL     1      80.322  -8.763  28.976  1.00  0.00     0.163 C 
ATOM     12  O   UNL     1      79.578  -9.759  29.179  1.00  0.00    -0.294 OA
BRANCH  11  13
ATOM     13  C   UNL     1      81.433  -8.871  27.996  1.00  0.00    -0.002 C 
ATOM     14  C   UNL     1      82.603  -9.470  28.347  1.00  0.00    -0.069 C 
ATOM     15  C   UNL     1      83.725  -9.636  27.348  1.00  0.00     0.039 C 
ATOM     16  C   UNL     1      82.840  -9.954  29.761  1.00  0.00     0.039 C 
BRANCH  13  17
ATOM     17  C   UNL     1      81.243  -8.301  26.594  1.00  0.00     0.066 CG0
ATOM     18  G   UNL     1      79.801  -8.247  26.149  1.00  0.00     0.000 G0
ENDBRANCH  13  17
ENDBRANCH  11  13
ENDBRANCH  10  11
ENDBRANCH   1  10
TORSDOF 0
ENDMDL
MODEL 4
REMARK VINA RESULT:    -3.683     11.250     13.290
REMARK INTER + INTRA:          -3.754
REMARK INTER:                  -4.253
REMARK INTRA:                   0.500
REMARK UNBOUND:                 1.436
REMARK SMILES CC1=CCC(=C(C)C)C(=O)CC(C)=CCC1
REMARK SMILES IDX 12 1 14 2 13 3 15 4 16 5 2 6 1 7 3 8 11 10 9 11 10 12 5 13
REMARK SMILES IDX 6 14 7 15 8 16 4 17
REMARK H PARENT
REMARK Flexibility Score: 60.00
ROOT
ATOM      1  C   UNL     1      79.479  -7.138  29.364  1.00  0.00    -0.070 C 
ATOM      2  C   UNL     1      79.923  -8.258  29.979  1.00  0.00    -0.027 C 
ATOM      3  C   UNL     1      77.990  -6.947  29.224  1.00  0.00     0.039 C 
ENDROOT
BRANCH   2   4
ATOM      4  C   UNL     1      81.375  -8.641  30.150  1.00  0.00     0.032 C 
BRANCH   4   5
ATOM      5  C   UNL     1      81.731  -9.896  29.339  1.00  0.00     0.034 C 
BRANCH   5   6
ATOM      6  C   UNL     1      82.553  -9.601  28.093  1.00  0.00    -0.077 C 
ATOM      7  C   UNL     1      84.042  -9.841  28.128  1.00  0.00     0.039 C 
ATOM      8  C   UNL     1      82.020  -9.112  26.949  1.00  0.00    -0.023 CG0
ATOM      9  G   UNL     1      80.550  -8.874  26.698  1.00  0.00     0.000 G0
ENDBRANCH   5   6
ENDBRANCH   4   5
ENDBRANCH   2   4
BRANCH   1  10
ATOM     10  C   UNL     1      80.409  -6.073  28.816  1.00  0.00     0.111 C 
BRANCH  10  11
ATOM     11  C   UNL     1      80.858  -6.411  27.421  1.00  0.00     0.163 C 
ATOM     12  O   UNL     1      81.859  -5.821  26.935  1.00  0.00    -0.294 OA
BRANCH  11  13
ATOM     13  C   UNL     1      80.129  -7.409  26.597  1.00  0.00    -0.002 C 
ATOM     14  C   UNL     1      79.108  -7.017  25.788  1.00  0.00    -0.069 C 
ATOM     15  C   UNL     1      78.390  -8.009  24.902  1.00  0.00     0.039 C 
ATOM     16  C   UNL     1      78.626  -5.583  25.775  1.00  0.00     0.039 C 
BRANCH  13  17
ATOM     17  C   UNL     1      80.541  -8.876  26.672  1.00  0.00     0.066 CG0
ATOM     18  G   UNL     1      82.011  -9.082  26.950  1.00  0.00     0.000 G0
ENDBRANCH  13  17
ENDBRANCH  11  13
ENDBRANCH  10  11
ENDBRANCH   1  10
TORSDOF 0
ENDMDL
MODEL 5
REMARK VINA RESULT:    -3.608     11.213     13.317
REMARK INTER + INTRA:          -3.648
REMARK INTER:                  -4.205
REMARK INTRA:                   0.557
REMARK UNBOUND:                 1.436
REMARK SMILES CC1=CCC(=C(C)C)C(=O)CC(C)=CCC1
REMARK SMILES IDX 12 1 14 2 13 3 15 4 16 5 2 6 1 7 3 8 11 10 9 11 10 12 5 13
REMARK SMILES IDX 6 14 7 15 8 16 4 17
REMARK H PARENT
REMARK Flexibility Score: 60.00
ROOT
ATOM      1  C   UNL     1      79.681  -5.870  28.183  1.00  0.00    -0.070 C 
ATOM      2  C   UNL     1      78.547  -5.857  27.445  1.00  0.00    -0.027 C 
ATOM      3  C   UNL     1      79.611  -5.365  29.601  1.00  0.00     0.039 C 
ENDROOT
BRANCH   2   4
ATOM      4  C   UNL     1      78.447  -6.266  25.993  1.00  0.00     0.032 C 
BRANCH   4   5
ATOM      5  C   UNL     1      77.550  -7.500  25.812  1.00  0.00     0.034 C 
BRANCH   5   6
ATOM      6  C   UNL     1      77.691  -8.522  26.930  1.00  0.00    -0.077 C 
ATOM      7  C   UNL     1      76.582  -8.651  27.945  1.00  0.00     0.039 C 
ATOM      8  C   UNL     1      78.776  -9.318  27.079  1.00  0.00    -0.023 CG0
ATOM      9  G   UNL     1      79.950  -9.384  26.131  1.00  0.00     0.000 G0
ENDBRANCH   5   6
ENDBRANCH   4   5
ENDBRANCH   2   4
BRANCH   1  10
ATOM     10  C   UNL     1      81.008  -6.370  27.647  1.00  0.00     0.111 C 
BRANCH  10  11
ATOM     11  C   UNL     1      81.156  -7.851  27.860  1.00  0.00     0.163 C 
ATOM     12  O   UNL     1      81.227  -8.302  29.033  1.00  0.00    -0.294 OA
BRANCH  11  13
ATOM     13  C   UNL     1      81.245  -8.790  26.712  1.00  0.00    -0.002 C 
ATOM     14  C   UNL     1      82.455  -9.108  26.177  1.00  0.00    -0.069 C 
ATOM     15  C   UNL     1      82.570 -10.101  25.044  1.00  0.00     0.039 C 
ATOM     16  C   UNL     1      83.725  -8.448  26.668  1.00  0.00     0.039 C 
BRANCH  13  17
ATOM     17  C   UNL     1      79.963  -9.390  26.143  1.00  0.00     0.066 CG0
ATOM     18  G   UNL     1      78.784  -9.309  27.083  1.00  0.00     0.000 G0
ENDBRANCH  13  17
ENDBRANCH  11  13
ENDBRANCH  10  11
ENDBRANCH   1  10
TORSDOF 0
ENDMDL
MODEL 6
REMARK VINA RESULT:    -3.568      9.907     12.130
REMARK INTER + INTRA:          -3.592
REMARK INTER:                  -4.176
REMARK INTRA:                   0.584
REMARK UNBOUND:                 1.436
REMARK SMILES CC1=CCC(=C(C)C)C(=O)CC(C)=CCC1
REMARK SMILES IDX 12 1 14 2 13 3 15 4 16 5 2 6 1 7 3 8 11 10 9 11 10 12 5 13
REMARK SMILES IDX 6 14 7 15 8 16 4 17
REMARK H PARENT
REMARK Flexibility Score: 60.00
ROOT
ATOM      1  C   UNL     1      80.757  -8.571  26.753  1.00  0.00    -0.070 C 
ATOM      2  C   UNL     1      81.572  -7.530  26.465  1.00  0.00    -0.027 C 
ATOM      3  C   UNL     1      80.394  -9.518  25.638  1.00  0.00     0.039 C 
ENDROOT
BRANCH   2   4
ATOM      4  C   UNL     1      81.988  -6.452  27.441  1.00  0.00     0.032 C 
BRANCH   4   5
ATOM      5  C   UNL     1      81.374  -5.092  27.078  1.00  0.00     0.034 C 
BRANCH   5   6
ATOM      6  C   UNL     1      80.256  -4.661  28.015  1.00  0.00    -0.077 C 
ATOM      7  C   UNL     1      80.575  -3.713  29.145  1.00  0.00     0.039 C 
ATOM      8  C   UNL     1      78.980  -5.099  27.903  1.00  0.00    -0.023 CG0
ATOM      9  G   UNL     1      78.454  -5.991  26.803  1.00  0.00     0.000 G0
ENDBRANCH   5   6
ENDBRANCH   4   5
ENDBRANCH   2   4
BRANCH   1  10
ATOM     10  C   UNL     1      80.200  -8.823  28.140  1.00  0.00     0.111 C 
BRANCH  10  11
ATOM     11  C   UNL     1      78.966  -8.000  28.387  1.00  0.00     0.163 C 
ATOM     12  O   UNL     1      78.584  -7.800  29.571  1.00  0.00    -0.294 OA
BRANCH  11  13
ATOM     13  C   UNL     1      78.176  -7.438  27.262  1.00  0.00    -0.002 C 
ATOM     14  C   UNL     1      77.234  -8.196  26.639  1.00  0.00    -0.069 C 
ATOM     15  C   UNL     1      76.383  -7.625  25.527  1.00  0.00     0.039 C 
ATOM     16  C   UNL     1      77.031  -9.649  27.006  1.00  0.00     0.039 C 
BRANCH  13  17
ATOM     17  C   UNL     1      78.436  -6.002  26.816  1.00  0.00     0.066 CG0
ATOM     18  G   UNL     1      78.974  -5.113  27.912  1.00  0.00     0.000 G0
ENDBRANCH  13  17
ENDBRANCH  11  13
ENDBRANCH  10  11
ENDBRANCH   1  10
TORSDOF 0
ENDMDL
MODEL 7
REMARK VINA RESULT:    -3.553      9.687     12.033
REMARK INTER + INTRA:          -3.571
REMARK INTER:                  -4.346
REMARK INTRA:                   0.775
REMARK UNBOUND:                 1.436
REMARK SMILES CC1=CCC(=C(C)C)C(=O)CC(C)=CCC1
REMARK SMILES IDX 12 1 14 2 13 3 15 4 16 5 2 6 1 7 3 8 11 10 9 11 10 12 5 13
REMARK SMILES IDX 6 14 7 15 8 16 4 17
REMARK H PARENT
REMARK Flexibility Score: 60.00
ROOT
ATOM      1  C   UNL     1      79.030  -6.666  26.132  1.00  0.00    -0.070 C 
ATOM      2  C   UNL     1      79.564  -5.464  26.450  1.00  0.00    -0.027 C 
ATOM      3  C   UNL     1      77.539  -6.747  25.924  1.00  0.00     0.039 C 
ENDROOT
BRANCH   2   4
ATOM      4  C   UNL     1      81.024  -5.212  26.753  1.00  0.00     0.032 C 
BRANCH   4   5
ATOM      5  C   UNL     1      81.255  -4.949  28.249  1.00  0.00     0.034 C 
BRANCH   5   6
ATOM      6  C   UNL     1      79.980  -4.997  29.078  1.00  0.00    -0.077 C 
ATOM      7  C   UNL     1      79.137  -3.752  29.191  1.00  0.00     0.039 C 
ATOM      8  C   UNL     1      79.566  -6.100  29.744  1.00  0.00    -0.023 CG0
ATOM      9  G   UNL     1      80.235  -7.454  29.697  1.00  0.00     0.000 G0
ENDBRANCH   5   6
ENDBRANCH   4   5
ENDBRANCH   2   4
BRANCH   1  10
ATOM     10  C   UNL     1      79.862  -7.923  25.975  1.00  0.00     0.111 C 
BRANCH  10  11
ATOM     11  C   UNL     1      80.562  -8.274  27.259  1.00  0.00     0.163 C 
ATOM     12  O   UNL     1      81.796  -8.525  27.241  1.00  0.00    -0.294 OA
BRANCH  11  13
ATOM     13  C   UNL     1      79.821  -8.355  28.544  1.00  0.00    -0.002 C 
ATOM     14  C   UNL     1      78.773  -9.212  28.680  1.00  0.00    -0.069 C 
ATOM     15  C   UNL     1      78.041  -9.346  29.996  1.00  0.00     0.039 C 
ATOM     16  C   UNL     1      78.276 -10.032  27.510  1.00  0.00     0.039 C 
BRANCH  13  17
ATOM     17  C   UNL     1      80.250  -7.464  29.706  1.00  0.00     0.066 CG0
ATOM     18  G   UNL     1      79.566  -6.118  29.724  1.00  0.00     0.000 G0
ENDBRANCH  13  17
ENDBRANCH  11  13
ENDBRANCH  10  11
ENDBRANCH   1  10
TORSDOF 0
ENDMDL
MODEL 8
REMARK VINA RESULT:    -3.460     10.168     12.702
REMARK INTER + INTRA:          -3.440
REMARK INTER:                  -4.160
REMARK INTRA:                   0.720
REMARK UNBOUND:                 1.436
REMARK SMILES CC1=CCC(=C(C)C)C(=O)CC(C)=CCC1
REMARK SMILES IDX 12 1 14 2 13 3 15 4 16 5 2 6 1 7 3 8 11 10 9 11 10 12 5 13
REMARK SMILES IDX 6 14 7 15 8 16 4 17
REMARK H PARENT
REMARK Flexibility Score: 60.00
ROOT
ATOM      1  C   UNL     1      77.715  -7.650  29.631  1.00  0.00    -0.070 C 
ATOM      2  C   UNL     1      78.166  -6.394  29.855  1.00  0.00    -0.027 C 
ATOM      3  C   UNL     1      76.279  -7.960  29.968  1.00  0.00     0.039 C 
ENDROOT
BRANCH   2   4
ATOM      4  C   UNL     1      79.586  -5.926  29.635  1.00  0.00     0.032 C 
BRANCH   4   5
ATOM      5  C   UNL     1      79.657  -4.806  28.587  1.00  0.00     0.034 C 
BRANCH   5   6
ATOM      6  C   UNL     1      80.298  -5.240  27.277  1.00  0.00    -0.077 C 
ATOM      7  C   UNL     1      81.758  -4.937  27.044  1.00  0.00     0.039 C 
ATOM      8  C   UNL     1      79.621  -5.871  26.290  1.00  0.00    -0.023 CG0
ATOM      9  G   UNL     1      78.180  -6.318  26.364  1.00  0.00     0.000 G0
ENDBRANCH   5   6
ENDBRANCH   4   5
ENDBRANCH   2   4
BRANCH   1  10
ATOM     10  C   UNL     1      78.587  -8.750  29.057  1.00  0.00     0.111 C 
BRANCH  10  11
ATOM     11  C   UNL     1      78.969  -8.451  27.634  1.00  0.00     0.163 C 
ATOM     12  O   UNL     1      80.129  -8.734  27.234  1.00  0.00    -0.294 OA
BRANCH  11  13
ATOM     13  C   UNL     1      78.013  -7.806  26.697  1.00  0.00    -0.002 C 
ATOM     14  C   UNL     1      77.004  -8.528  26.141  1.00  0.00    -0.069 C 
ATOM     15  C   UNL     1      75.991  -7.877  25.227  1.00  0.00     0.039 C 
ATOM     16  C   UNL     1      76.882 -10.017  26.382  1.00  0.00     0.039 C 
BRANCH  13  17
ATOM     17  C   UNL     1      78.181  -6.326  26.368  1.00  0.00     0.066 CG0
ATOM     18  G   UNL     1      79.622  -5.882  26.278  1.00  0.00     0.000 G0
ENDBRANCH  13  17
ENDBRANCH  11  13
ENDBRANCH  10  11
ENDBRANCH   1  10
TORSDOF 0
ENDMDL
MODEL 9
REMARK VINA RESULT:    -3.388     11.062     13.582
REMARK INTER + INTRA:          -3.338
REMARK INTER:                  -4.322
REMARK INTRA:                   0.984
REMARK UNBOUND:                 1.436
REMARK SMILES CC1=CCC(=C(C)C)C(=O)CC(C)=CCC1
REMARK SMILES IDX 12 1 14 2 13 3 15 4 16 5 2 6 1 7 3 8 11 10 9 11 10 12 5 13
REMARK SMILES IDX 6 14 7 15 8 16 4 17
REMARK H PARENT
REMARK Flexibility Score: 60.00
ROOT
ATOM      1  C   UNL     1      76.727  -8.490  27.640  1.00  0.00    -0.070 C 
ATOM      2  C   UNL     1      76.651  -8.180  26.325  1.00  0.00    -0.027 C 
ATOM      3  C   UNL     1      75.899  -9.643  28.147  1.00  0.00     0.039 C 
ENDROOT
BRANCH   2   4
ATOM      4  C   UNL     1      77.361  -7.023  25.660  1.00  0.00     0.032 C 
BRANCH   4   5
ATOM      5  C   UNL     1      78.379  -7.507  24.616  1.00  0.00     0.034 C 
BRANCH   5   6
ATOM      6  C   UNL     1      78.958  -8.879  24.924  1.00  0.00    -0.077 C 
ATOM      7  C   UNL     1      78.361 -10.090  24.250  1.00  0.00     0.039 C 
ATOM      8  C   UNL     1      79.977  -9.080  25.792  1.00  0.00    -0.023 CG0
ATOM      9  G   UNL     1      80.745  -7.994  26.507  1.00  0.00     0.000 G0
ENDBRANCH   5   6
ENDBRANCH   4   5
ENDBRANCH   2   4
BRANCH   1  10
ATOM     10  C   UNL     1      77.607  -7.734  28.617  1.00  0.00     0.111 C 
BRANCH  10  11
ATOM     11  C   UNL     1      79.049  -8.133  28.470  1.00  0.00     0.163 C 
ATOM     12  O   UNL     1      79.470  -9.157  29.069  1.00  0.00    -0.294 OA
BRANCH  11  13
ATOM     13  C   UNL     1      79.992  -7.328  27.652  1.00  0.00    -0.002 C 
ATOM     14  C   UNL     1      80.174  -6.006  27.915  1.00  0.00    -0.069 C 
ATOM     15  C   UNL     1      81.168  -5.183  27.128  1.00  0.00     0.039 C 
ATOM     16  C   UNL     1      79.358  -5.300  28.976  1.00  0.00     0.039 C 
BRANCH  13  17
ATOM     17  C   UNL     1      80.751  -8.004  26.514  1.00  0.00     0.066 CG0
ATOM     18  G   UNL     1      79.956  -9.072  25.802  1.00  0.00     0.000 G0
ENDBRANCH  13  17
ENDBRANCH  11  13
ENDBRANCH  10  11
ENDBRANCH   1  10
TORSDOF 0
ENDMDL
