MODEL 1
REMARK VINA RESULT:    -4.296      0.000      0.000
REMARK INTER + INTRA:          -5.651
REMARK INTER:                  -5.427
REMARK INTRA:                  -0.225
REMARK UNBOUND:                -0.225
REMARK SMILES CC(C)=CCCC(C)=CCO
REMARK SMILES IDX 7 1 9 2 8 3 6 4 5 5 4 6 1 7 2 8 3 9 10 10 11 11
REMARK H PARENT 11 12
REMARK Flexibility Score: inf
ROOT
ATOM      1  C   UNL     1       3.087  -9.120  28.433  1.00  0.00    -0.075 C 
ATOM      2  C   UNL     1       3.076  -9.456  27.124  1.00  0.00    -0.000 C 
ATOM      3  C   UNL     1       1.810  -8.981  29.226  1.00  0.00     0.039 C 
ENDROOT
BRANCH   1   4
ATOM      4  C   UNL     1       4.414  -8.884  29.123  1.00  0.00     0.034 C 
BRANCH   4   5
ATOM      5  C   UNL     1       5.413  -9.992  28.772  1.00  0.00     0.032 C 
BRANCH   5   6
ATOM      6  C   UNL     1       6.731  -9.404  28.332  1.00  0.00    -0.028 C 
ATOM      7  C   UNL     1       7.787  -9.674  30.587  1.00  0.00     0.039 C 
ATOM      8  C   UNL     1       7.799  -9.232  29.143  1.00  0.00    -0.080 C 
ATOM      9  C   UNL     1       9.038  -8.593  28.571  1.00  0.00     0.039 C 
ENDBRANCH   5   6
ENDBRANCH   4   5
ENDBRANCH   1   4
BRANCH   2  10
ATOM     10  C   UNL     1       1.821  -9.721  26.337  1.00  0.00     0.183 C 
BRANCH  10  11
ATOM     11  O   UNL     1       1.181  -8.512  26.040  1.00  0.00    -0.392 OA
ATOM     12  H   UNL     1       1.864  -7.940  25.602  1.00  0.00     0.210 HD
ENDBRANCH  10  11
ENDBRANCH   2  10
TORSDOF 5
ENDMDL
MODEL 2
REMARK VINA RESULT:    -4.133      1.997      2.337
REMARK INTER + INTRA:          -5.444
REMARK INTER:                  -4.874
REMARK INTRA:                  -0.570
REMARK UNBOUND:                -0.225
REMARK SMILES CC(C)=CCCC(C)=CCO
REMARK SMILES IDX 7 1 9 2 8 3 6 4 5 5 4 6 1 7 2 8 3 9 10 10 11 11
REMARK H PARENT 11 12
REMARK Flexibility Score: inf
ROOT
ATOM      1  C   UNL     1       3.975  -7.232  26.849  1.00  0.00    -0.075 C 
ATOM      2  C   UNL     1       3.490  -8.463  26.573  1.00  0.00    -0.000 C 
ATOM      3  C   UNL     1       3.230  -6.270  27.745  1.00  0.00     0.039 C 
ENDROOT
BRANCH   1   4
ATOM      4  C   UNL     1       5.300  -6.810  26.253  1.00  0.00     0.034 C 
BRANCH   4   5
ATOM      5  C   UNL     1       6.161  -8.033  25.920  1.00  0.00     0.032 C 
BRANCH   5   6
ATOM      6  C   UNL     1       7.406  -8.059  26.770  1.00  0.00    -0.028 C 
ATOM      7  C   UNL     1       6.417  -9.628  28.454  1.00  0.00     0.039 C 
ATOM      8  C   UNL     1       7.528  -8.752  27.925  1.00  0.00    -0.080 C 
ATOM      9  C   UNL     1       8.822  -8.650  28.690  1.00  0.00     0.039 C 
ENDBRANCH   5   6
ENDBRANCH   4   5
ENDBRANCH   1   4
BRANCH   2  10
ATOM     10  C   UNL     1       2.190  -8.994  27.114  1.00  0.00     0.183 C 
BRANCH  10  11
ATOM     11  O   UNL     1       1.153  -8.718  26.216  1.00  0.00    -0.392 OA
ATOM     12  H   UNL     1       1.586  -8.363  25.397  1.00  0.00     0.210 HD
ENDBRANCH  10  11
ENDBRANCH   2  10
TORSDOF 5
ENDMDL
MODEL 3
REMARK VINA RESULT:    -4.055      2.111      2.749
REMARK INTER + INTRA:          -5.346
REMARK INTER:                  -4.774
REMARK INTRA:                  -0.573
REMARK UNBOUND:                -0.225
REMARK SMILES CC(C)=CCCC(C)=CCO
REMARK SMILES IDX 7 1 9 2 8 3 6 4 5 5 4 6 1 7 2 8 3 9 10 10 11 11
REMARK H PARENT 11 12
REMARK Flexibility Score: inf
ROOT
ATOM      1  C   UNL     1       3.056  -7.687  27.448  1.00  0.00    -0.075 C 
ATOM      2  C   UNL     1       3.109  -6.353  27.657  1.00  0.00    -0.000 C 
ATOM      3  C   UNL     1       2.851  -8.265  26.068  1.00  0.00     0.039 C 
ENDROOT
BRANCH   1   4
ATOM      4  C   UNL     1       3.212  -8.626  28.625  1.00  0.00     0.034 C 
BRANCH   4   5
ATOM      5  C   UNL     1       4.117  -9.807  28.261  1.00  0.00     0.032 C 
BRANCH   5   6
ATOM      6  C   UNL     1       5.381  -9.787  29.085  1.00  0.00    -0.028 C 
ATOM      7  C   UNL     1       6.667  -8.488  27.372  1.00  0.00     0.039 C 
ATOM      8  C   UNL     1       6.542  -9.219  28.688  1.00  0.00    -0.080 C 
ATOM      9  C   UNL     1       7.736  -9.312  29.603  1.00  0.00     0.039 C 
ENDBRANCH   5   6
ENDBRANCH   4   5
ENDBRANCH   1   4
BRANCH   2  10
ATOM     10  C   UNL     1       2.974  -5.326  26.566  1.00  0.00     0.183 C 
BRANCH  10  11
ATOM     11  O   UNL     1       1.649  -4.883  26.491  1.00  0.00    -0.392 OA
ATOM     12  H   UNL     1       1.271  -4.988  27.402  1.00  0.00     0.210 HD
ENDBRANCH  10  11
ENDBRANCH   2  10
TORSDOF 5
ENDMDL
MODEL 4
REMARK VINA RESULT:    -4.035      1.301      2.204
REMARK INTER + INTRA:          -5.321
REMARK INTER:                  -4.880
REMARK INTRA:                  -0.441
REMARK UNBOUND:                -0.225
REMARK SMILES CC(C)=CCCC(C)=CCO
REMARK SMILES IDX 7 1 9 2 8 3 6 4 5 5 4 6 1 7 2 8 3 9 10 10 11 11
REMARK H PARENT 11 12
REMARK Flexibility Score: inf
ROOT
ATOM      1  C   UNL     1       4.313  -8.666  27.261  1.00  0.00    -0.075 C 
ATOM      2  C   UNL     1       3.225  -9.452  27.419  1.00  0.00    -0.000 C 
ATOM      3  C   UNL     1       4.574  -7.925  25.971  1.00  0.00     0.039 C 
ENDROOT
BRANCH   1   4
ATOM      4  C   UNL     1       5.290  -8.518  28.407  1.00  0.00     0.034 C 
BRANCH   4   5
ATOM      5  C   UNL     1       6.487  -9.458  28.226  1.00  0.00     0.032 C 
BRANCH   5   6
ATOM      6  C   UNL     1       7.757  -8.808  28.716  1.00  0.00    -0.028 C 
ATOM      7  C   UNL     1       8.295  -7.804  26.485  1.00  0.00     0.039 C 
ATOM      8  C   UNL     1       8.593  -8.083  27.939  1.00  0.00    -0.080 C 
ATOM      9  C   UNL     1       9.848  -7.526  28.560  1.00  0.00     0.039 C 
ENDBRANCH   5   6
ENDBRANCH   4   5
ENDBRANCH   1   4
BRANCH   2  10
ATOM     10  C   UNL     1       2.184  -9.668  26.355  1.00  0.00     0.183 C 
BRANCH  10  11
ATOM     11  O   UNL     1       1.155  -8.731  26.499  1.00  0.00    -0.392 OA
ATOM     12  H   UNL     1       1.397  -8.175  27.284  1.00  0.00     0.210 HD
ENDBRANCH  10  11
ENDBRANCH   2  10
TORSDOF 5
ENDMDL
MODEL 5
REMARK VINA RESULT:    -4.013      1.474      2.183
REMARK INTER + INTRA:          -5.294
REMARK INTER:                  -4.854
REMARK INTRA:                  -0.440
REMARK UNBOUND:                -0.225
REMARK SMILES CC(C)=CCCC(C)=CCO
REMARK SMILES IDX 7 1 9 2 8 3 6 4 5 5 4 6 1 7 2 8 3 9 10 10 11 11
REMARK H PARENT 11 12
REMARK Flexibility Score: inf
ROOT
ATOM      1  C   UNL     1       4.585  -8.758  27.745  1.00  0.00    -0.075 C 
ATOM      2  C   UNL     1       3.358  -8.823  27.182  1.00  0.00    -0.000 C 
ATOM      3  C   UNL     1       5.042  -9.772  28.767  1.00  0.00     0.039 C 
ENDROOT
BRANCH   1   4
ATOM      4  C   UNL     1       5.527  -7.647  27.335  1.00  0.00     0.034 C 
BRANCH   4   5
ATOM      5  C   UNL     1       6.793  -8.218  26.688  1.00  0.00     0.032 C 
BRANCH   5   6
ATOM      6  C   UNL     1       8.020  -7.488  27.176  1.00  0.00    -0.028 C 
ATOM      7  C   UNL     1       8.780  -9.396  28.610  1.00  0.00     0.039 C 
ATOM      8  C   UNL     1       8.909  -7.995  28.059  1.00  0.00    -0.080 C 
ATOM      9  C   UNL     1      10.068  -7.132  28.486  1.00  0.00     0.039 C 
ENDBRANCH   5   6
ENDBRANCH   4   5
ENDBRANCH   1   4
BRANCH   2  10
ATOM     10  C   UNL     1       2.342  -9.885  27.505  1.00  0.00     0.183 C 
BRANCH  10  11
ATOM     11  O   UNL     1       1.276  -9.814  26.601  1.00  0.00    -0.392 OA
ATOM     12  H   UNL     1       1.036  -8.853  26.533  1.00  0.00     0.210 HD
ENDBRANCH  10  11
ENDBRANCH   2  10
TORSDOF 5
ENDMDL
MODEL 6
REMARK VINA RESULT:    -3.955      1.580      2.153
REMARK INTER + INTRA:          -5.220
REMARK INTER:                  -4.937
REMARK INTRA:                  -0.284
REMARK UNBOUND:                -0.225
REMARK SMILES CC(C)=CCCC(C)=CCO
REMARK SMILES IDX 7 1 9 2 8 3 6 4 5 5 4 6 1 7 2 8 3 9 10 10 11 11
REMARK H PARENT 11 12
REMARK Flexibility Score: inf
ROOT
ATOM      1  C   UNL     1       3.839  -7.499  26.809  1.00  0.00    -0.075 C 
ATOM      2  C   UNL     1       3.290  -8.724  26.653  1.00  0.00    -0.000 C 
ATOM      3  C   UNL     1       3.182  -6.259  26.250  1.00  0.00     0.039 C 
ENDROOT
BRANCH   1   4
ATOM      4  C   UNL     1       5.141  -7.365  27.570  1.00  0.00     0.034 C 
BRANCH   4   5
ATOM      5  C   UNL     1       5.958  -8.658  27.480  1.00  0.00     0.032 C 
BRANCH   5   6
ATOM      6  C   UNL     1       6.409  -9.103  28.849  1.00  0.00    -0.028 C 
ATOM      7  C   UNL     1       8.838  -9.065  28.238  1.00  0.00     0.039 C 
ATOM      8  C   UNL     1       7.698  -9.314  29.197  1.00  0.00    -0.080 C 
ATOM      9  C   UNL     1       7.994  -9.796  30.594  1.00  0.00     0.039 C 
ENDBRANCH   5   6
ENDBRANCH   4   5
ENDBRANCH   1   4
BRANCH   2  10
ATOM     10  C   UNL     1       1.998  -8.977  25.923  1.00  0.00     0.183 C 
BRANCH  10  11
ATOM     11  O   UNL     1       1.240  -9.928  26.615  1.00  0.00    -0.392 OA
ATOM     12  H   UNL     1       0.397  -9.473  26.873  1.00  0.00     0.210 HD
ENDBRANCH  10  11
ENDBRANCH   2  10
TORSDOF 5
ENDMDL
MODEL 7
REMARK VINA RESULT:    -3.747      1.796      2.242
REMARK INTER + INTRA:          -4.958
REMARK INTER:                  -4.382
REMARK INTRA:                  -0.576
REMARK UNBOUND:                -0.225
REMARK SMILES CC(C)=CCCC(C)=CCO
REMARK SMILES IDX 7 1 9 2 8 3 6 4 5 5 4 6 1 7 2 8 3 9 10 10 11 11
REMARK H PARENT 11 12
REMARK Flexibility Score: inf
ROOT
ATOM      1  C   UNL     1       3.466  -9.263  27.928  1.00  0.00    -0.075 C 
ATOM      2  C   UNL     1       3.379  -9.017  26.601  1.00  0.00    -0.000 C 
ATOM      3  C   UNL     1       2.307  -9.000  28.859  1.00  0.00     0.039 C 
ENDROOT
BRANCH   1   4
ATOM      4  C   UNL     1       4.755  -9.821  28.492  1.00  0.00     0.034 C 
BRANCH   4   5
ATOM      5  C   UNL     1       5.732  -8.692  28.837  1.00  0.00     0.032 C 
BRANCH   5   6
ATOM      6  C   UNL     1       6.825  -8.596  27.802  1.00  0.00    -0.028 C 
ATOM      7  C   UNL     1       6.001  -6.409  26.901  1.00  0.00     0.039 C 
ATOM      8  C   UNL     1       6.945  -7.588  26.909  1.00  0.00    -0.080 C 
ATOM      9  C   UNL     1       8.068  -7.648  25.906  1.00  0.00     0.039 C 
ENDBRANCH   5   6
ENDBRANCH   4   5
ENDBRANCH   1   4
BRANCH   2  10
ATOM     10  C   UNL     1       2.150  -8.470  25.928  1.00  0.00     0.183 C 
BRANCH  10  11
ATOM     11  O   UNL     1       2.216  -7.073  25.879  1.00  0.00    -0.392 OA
ATOM     12  H   UNL     1       1.708  -6.746  26.665  1.00  0.00     0.210 HD
ENDBRANCH  10  11
ENDBRANCH   2  10
TORSDOF 5
ENDMDL
MODEL 8
REMARK VINA RESULT:    -3.565      2.839      5.759
REMARK INTER + INTRA:          -4.728
REMARK INTER:                  -4.271
REMARK INTRA:                  -0.457
REMARK UNBOUND:                -0.225
REMARK SMILES CC(C)=CCCC(C)=CCO
REMARK SMILES IDX 7 1 9 2 8 3 6 4 5 5 4 6 1 7 2 8 3 9 10 10 11 11
REMARK H PARENT 11 12
REMARK Flexibility Score: inf
ROOT
ATOM      1  C   UNL     1       6.652  -9.165  28.472  1.00  0.00    -0.075 C 
ATOM      2  C   UNL     1       7.793  -9.292  29.185  1.00  0.00    -0.000 C 
ATOM      3  C   UNL     1       6.597  -8.340  27.207  1.00  0.00     0.039 C 
ENDROOT
BRANCH   1   4
ATOM      4  C   UNL     1       5.401  -9.872  28.947  1.00  0.00     0.034 C 
BRANCH   4   5
ATOM      5  C   UNL     1       4.166  -8.990  28.738  1.00  0.00     0.032 C 
BRANCH   5   6
ATOM      6  C   UNL     1       3.187  -9.652  27.801  1.00  0.00    -0.028 C 
ATOM      7  C   UNL     1       3.082  -7.680  26.260  1.00  0.00     0.039 C 
ATOM      8  C   UNL     1       2.672  -9.067  26.696  1.00  0.00    -0.080 C 
ATOM      9  C   UNL     1       1.672  -9.839  25.875  1.00  0.00     0.039 C 
ENDBRANCH   5   6
ENDBRANCH   4   5
ENDBRANCH   1   4
BRANCH   2  10
ATOM     10  C   UNL     1       9.096  -8.643  28.807  1.00  0.00     0.183 C 
BRANCH  10  11
ATOM     11  O   UNL     1       9.860  -9.524  28.033  1.00  0.00    -0.392 OA
ATOM     12  H   UNL     1      10.659  -9.013  27.742  1.00  0.00     0.210 HD
ENDBRANCH  10  11
ENDBRANCH   2  10
TORSDOF 5
ENDMDL
