MODEL 1
REMARK VINA RESULT:    -5.621      0.000      0.000
REMARK INTER + INTRA:          -7.001
REMARK INTER:                  -6.772
REMARK INTRA:                  -0.229
REMARK UNBOUND:                -0.229
REMARK SMILES O=c1ccn([C@@H]2O[C@H](CO)[C@@H](O)[C@@H]2O)c(=O)[nH]1
REMARK SMILES IDX 6 1 13 2 11 3 8 4 7 5 5 6 3 7 4 8 2 9 17 10 1 11 15 12 16 14
REMARK SMILES IDX 14 15 12 17 9 19 10 20
REMARK H PARENT 17 13 14 16 12 18 10 21
REMARK Flexibility Score: inf
ROOT
ATOM      1  C   UNL     1      57.702 -42.179 -19.615  1.00  0.00     0.255 C 
ATOM      2  C   UNL     1      57.572 -42.255 -18.095  1.00  0.00     0.196 C 
ATOM      3  C   UNL     1      59.003 -42.499 -17.651  1.00  0.00     0.179 C 
ATOM      4  C   UNL     1      59.708 -43.000 -18.928  1.00  0.00     0.178 C 
ATOM      5  O   UNL     1      58.798 -42.972 -20.009  1.00  0.00    -0.347 OA
ENDROOT
BRANCH   1   6
ATOM      6  N   UNL     1      56.454 -42.574 -20.306  1.00  0.00    -0.271 N 
ATOM      7  C   UNL     1      55.323 -44.178 -21.688  1.00  0.00     0.090 A 
ATOM      8  C   UNL     1      56.454 -43.755 -20.996  1.00  0.00     0.099 A 
ATOM      9  C   UNL     1      54.193 -43.369 -21.674  1.00  0.00     0.253 A 
ATOM     10  N   UNL     1      54.213 -42.192 -20.999  1.00  0.00    -0.274 N 
ATOM     11  O   UNL     1      53.154 -43.727 -22.290  1.00  0.00    -0.269 OA
ATOM     12  C   UNL     1      55.326 -41.783 -20.326  1.00  0.00     0.330 A 
ATOM     13  H   UNL     1      53.361 -41.585 -21.001  1.00  0.00     0.175 HD
ATOM     14  O   UNL     1      55.302 -40.673 -19.729  1.00  0.00    -0.248 OA
ENDBRANCH   1   6
BRANCH   2  15
ATOM     15  O   UNL     1      56.716 -43.295 -17.681  1.00  0.00    -0.386 OA
ATOM     16  H   UNL     1      56.534 -43.183 -16.712  1.00  0.00     0.211 HD
ENDBRANCH   2  15
BRANCH   3  17
ATOM     17  O   UNL     1      59.599 -41.319 -17.166  1.00  0.00    -0.387 OA
ATOM     18  H   UNL     1      59.623 -41.370 -16.173  1.00  0.00     0.211 HD
ENDBRANCH   3  17
BRANCH   4  19
ATOM     19  C   UNL     1      60.247 -44.426 -18.756  1.00  0.00     0.191 C 
BRANCH  19  20
ATOM     20  O   UNL     1      59.670 -45.038 -17.635  1.00  0.00    -0.394 OA
ATOM     21  H   UNL     1      58.815 -44.563 -17.461  1.00  0.00     0.210 HD
ENDBRANCH  19  20
ENDBRANCH   4  19
TORSDOF 5
ENDMDL
MODEL 2
REMARK VINA RESULT:    -5.562      2.850      3.969
REMARK INTER + INTRA:          -6.929
REMARK INTER:                  -6.562
REMARK INTRA:                  -0.367
REMARK UNBOUND:                -0.229
REMARK SMILES O=c1ccn([C@@H]2O[C@H](CO)[C@@H](O)[C@@H]2O)c(=O)[nH]1
REMARK SMILES IDX 6 1 13 2 11 3 8 4 7 5 5 6 3 7 4 8 2 9 17 10 1 11 15 12 16 14
REMARK SMILES IDX 14 15 12 17 9 19 10 20
REMARK H PARENT 17 13 14 16 12 18 10 21
REMARK Flexibility Score: inf
ROOT
ATOM      1  C   UNL     1      57.608 -40.782 -18.468  1.00  0.00     0.255 C 
ATOM      2  C   UNL     1      56.563 -41.893 -18.557  1.00  0.00     0.196 C 
ATOM      3  C   UNL     1      57.369 -43.134 -18.216  1.00  0.00     0.179 C 
ATOM      4  C   UNL     1      58.833 -42.697 -18.430  1.00  0.00     0.178 C 
ATOM      5  O   UNL     1      58.869 -41.328 -18.780  1.00  0.00    -0.347 OA
ENDROOT
BRANCH   1   6
ATOM      6  N   UNL     1      57.274 -39.627 -19.332  1.00  0.00    -0.271 N 
ATOM      7  C   UNL     1      57.665 -38.457 -21.391  1.00  0.00     0.090 A 
ATOM      8  C   UNL     1      57.912 -39.527 -20.538  1.00  0.00     0.099 A 
ATOM      9  C   UNL     1      56.762 -37.479 -20.988  1.00  0.00     0.253 A 
ATOM     10  N   UNL     1      56.148 -37.582 -19.781  1.00  0.00    -0.274 N 
ATOM     11  O   UNL     1      56.517 -36.499 -21.740  1.00  0.00    -0.269 OA
ATOM     12  C   UNL     1      56.399 -38.633 -18.950  1.00  0.00     0.330 A 
ATOM     13  H   UNL     1      55.477 -36.839 -19.482  1.00  0.00     0.175 HD
ATOM     14  O   UNL     1      55.819 -38.675 -17.831  1.00  0.00    -0.248 OA
ENDBRANCH   1   6
BRANCH   2  15
ATOM     15  O   UNL     1      55.987 -41.985 -19.840  1.00  0.00    -0.386 OA
ATOM     16  H   UNL     1      55.026 -41.746 -19.768  1.00  0.00     0.211 HD
ENDBRANCH   2  15
BRANCH   3  17
ATOM     17  O   UNL     1      57.145 -43.542 -16.887  1.00  0.00    -0.387 OA
ATOM     18  H   UNL     1      56.203 -43.329 -16.653  1.00  0.00     0.211 HD
ENDBRANCH   3  17
BRANCH   4  19
ATOM     19  C   UNL     1      59.516 -43.520 -19.530  1.00  0.00     0.191 C 
BRANCH  19  20
ATOM     20  O   UNL     1      58.782 -43.451 -20.722  1.00  0.00    -0.394 OA
ATOM     21  H   UNL     1      57.982 -44.026 -20.598  1.00  0.00     0.210 HD
ENDBRANCH  19  20
ENDBRANCH   4  19
TORSDOF 5
ENDMDL
MODEL 3
REMARK VINA RESULT:    -5.365     13.164     14.701
REMARK INTER + INTRA:          -6.693
REMARK INTER:                  -6.421
REMARK INTRA:                  -0.272
REMARK UNBOUND:                -0.229
REMARK SMILES O=c1ccn([C@@H]2O[C@H](CO)[C@@H](O)[C@@H]2O)c(=O)[nH]1
REMARK SMILES IDX 6 1 13 2 11 3 8 4 7 5 5 6 3 7 4 8 2 9 17 10 1 11 15 12 16 14
REMARK SMILES IDX 14 15 12 17 9 19 10 20
REMARK H PARENT 17 13 14 16 12 18 10 21
REMARK Flexibility Score: inf
ROOT
ATOM      1  C   UNL     1      71.024 -46.708 -21.756  1.00  0.00     0.255 C 
ATOM      2  C   UNL     1      70.168 -47.947 -22.013  1.00  0.00     0.196 C 
ATOM      3  C   UNL     1      70.046 -47.957 -23.526  1.00  0.00     0.179 C 
ATOM      4  C   UNL     1      70.420 -46.519 -23.940  1.00  0.00     0.178 C 
ATOM      5  O   UNL     1      70.793 -45.782 -22.793  1.00  0.00    -0.347 OA
ENDROOT
BRANCH   1   6
ATOM      6  N   UNL     1      70.774 -46.119 -20.421  1.00  0.00    -0.271 N 
ATOM      7  C   UNL     1      69.954 -44.256 -19.149  1.00  0.00     0.090 A 
ATOM      8  C   UNL     1      70.198 -44.880 -20.368  1.00  0.00     0.099 A 
ATOM      9  C   UNL     1      70.319 -44.914 -17.980  1.00  0.00     0.253 A 
ATOM     10  N   UNL     1      70.906 -46.137 -18.048  1.00  0.00    -0.274 N 
ATOM     11  O   UNL     1      70.110 -44.374 -16.861  1.00  0.00    -0.269 OA
ATOM     12  C   UNL     1      71.143 -46.740 -19.247  1.00  0.00     0.330 A 
ATOM     13  H   UNL     1      71.185 -46.621 -17.164  1.00  0.00     0.175 HD
ATOM     14  O   UNL     1      71.707 -47.867 -19.259  1.00  0.00    -0.248 OA
ENDBRANCH   1   6
BRANCH   2  15
ATOM     15  O   UNL     1      68.905 -47.864 -21.391  1.00  0.00    -0.386 OA
ATOM     16  H   UNL     1      68.245 -48.336 -21.963  1.00  0.00     0.211 HD
ENDBRANCH   2  15
BRANCH   3  17
ATOM     17  O   UNL     1      70.918 -48.900 -24.104  1.00  0.00    -0.387 OA
ATOM     18  H   UNL     1      71.724 -48.971 -23.528  1.00  0.00     0.211 HD
ENDBRANCH   3  17
BRANCH   4  19
ATOM     19  C   UNL     1      69.255 -45.810 -24.642  1.00  0.00     0.191 C 
BRANCH  19  20
ATOM     20  O   UNL     1      68.105 -45.846 -23.841  1.00  0.00    -0.394 OA
ATOM     21  H   UNL     1      68.168 -45.077 -23.217  1.00  0.00     0.210 HD
ENDBRANCH  19  20
ENDBRANCH   4  19
TORSDOF 5
ENDMDL
MODEL 4
REMARK VINA RESULT:    -5.361     12.188     14.227
REMARK INTER + INTRA:          -6.687
REMARK INTER:                  -6.387
REMARK INTRA:                  -0.300
REMARK UNBOUND:                -0.229
REMARK SMILES O=c1ccn([C@@H]2O[C@H](CO)[C@@H](O)[C@@H]2O)c(=O)[nH]1
REMARK SMILES IDX 6 1 13 2 11 3 8 4 7 5 5 6 3 7 4 8 2 9 17 10 1 11 15 12 16 14
REMARK SMILES IDX 14 15 12 17 9 19 10 20
REMARK H PARENT 17 13 14 16 12 18 10 21
REMARK Flexibility Score: inf
ROOT
ATOM      1  C   UNL     1      70.093 -47.563 -21.923  1.00  0.00     0.255 C 
ATOM      2  C   UNL     1      71.134 -48.615 -22.303  1.00  0.00     0.196 C 
ATOM      3  C   UNL     1      72.403 -48.069 -21.673  1.00  0.00     0.179 C 
ATOM      4  C   UNL     1      72.081 -46.582 -21.418  1.00  0.00     0.178 C 
ATOM      5  O   UNL     1      70.743 -46.320 -21.790  1.00  0.00    -0.347 OA
ENDROOT
BRANCH   1   6
ATOM      6  N   UNL     1      68.975 -47.504 -22.892  1.00  0.00    -0.271 N 
ATOM      7  C   UNL     1      67.891 -46.301 -24.663  1.00  0.00     0.090 A 
ATOM      8  C   UNL     1      68.925 -46.434 -23.743  1.00  0.00     0.099 A 
ATOM      9  C   UNL     1      66.899 -47.274 -24.696  1.00  0.00     0.253 A 
ATOM     10  N   UNL     1      66.952 -48.322 -23.834  1.00  0.00    -0.274 N 
ATOM     11  O   UNL     1      65.950 -47.181 -25.520  1.00  0.00    -0.269 OA
ATOM     12  C   UNL     1      67.968 -48.443 -22.933  1.00  0.00     0.330 A 
ATOM     13  H   UNL     1      66.198 -49.044 -23.858  1.00  0.00     0.175 HD
ATOM     14  O   UNL     1      67.964 -49.424 -22.141  1.00  0.00    -0.248 OA
ENDBRANCH   1   6
BRANCH   2  15
ATOM     15  O   UNL     1      71.268 -48.757 -23.699  1.00  0.00    -0.386 OA
ATOM     16  H   UNL     1      70.801 -49.588 -23.974  1.00  0.00     0.211 HD
ENDBRANCH   2  15
BRANCH   3  17
ATOM     17  O   UNL     1      72.710 -48.740 -20.474  1.00  0.00    -0.387 OA
ATOM     18  H   UNL     1      73.488 -48.285 -20.055  1.00  0.00     0.211 HD
ENDBRANCH   3  17
BRANCH   4  19
ATOM     19  C   UNL     1      73.017 -45.656 -22.205  1.00  0.00     0.191 C 
BRANCH  19  20
ATOM     20  O   UNL     1      72.534 -45.462 -23.507  1.00  0.00    -0.394 OA
ATOM     21  H   UNL     1      73.141 -45.962 -24.113  1.00  0.00     0.210 HD
ENDBRANCH  19  20
ENDBRANCH   4  19
TORSDOF 5
ENDMDL
MODEL 5
REMARK VINA RESULT:    -5.341      2.446      3.593
REMARK INTER + INTRA:          -6.664
REMARK INTER:                  -6.563
REMARK INTRA:                  -0.101
REMARK UNBOUND:                -0.229
REMARK SMILES O=c1ccn([C@@H]2O[C@H](CO)[C@@H](O)[C@@H]2O)c(=O)[nH]1
REMARK SMILES IDX 6 1 13 2 11 3 8 4 7 5 5 6 3 7 4 8 2 9 17 10 1 11 15 12 16 14
REMARK SMILES IDX 14 15 12 17 9 19 10 20
REMARK H PARENT 17 13 14 16 12 18 10 21
REMARK Flexibility Score: inf
ROOT
ATOM      1  C   UNL     1      56.764 -42.379 -19.073  1.00  0.00     0.255 C 
ATOM      2  C   UNL     1      57.640 -42.230 -20.316  1.00  0.00     0.196 C 
ATOM      3  C   UNL     1      58.878 -43.028 -19.946  1.00  0.00     0.179 C 
ATOM      4  C   UNL     1      58.799 -43.147 -18.410  1.00  0.00     0.178 C 
ATOM      5  O   UNL     1      57.603 -42.549 -17.953  1.00  0.00    -0.347 OA
ENDROOT
BRANCH   1   6
ATOM      6  N   UNL     1      55.834 -41.240 -18.902  1.00  0.00    -0.271 N 
ATOM      7  C   UNL     1      53.624 -40.362 -19.225  1.00  0.00     0.090 A 
ATOM      8  C   UNL     1      54.546 -41.398 -19.333  1.00  0.00     0.099 A 
ATOM      9  C   UNL     1      54.040 -39.154 -18.678  1.00  0.00     0.253 A 
ATOM     10  N   UNL     1      55.326 -39.006 -18.269  1.00  0.00    -0.274 N 
ATOM     11  O   UNL     1      53.227 -38.199 -18.566  1.00  0.00    -0.269 OA
ATOM     12  C   UNL     1      56.224 -40.025 -18.381  1.00  0.00     0.330 A 
ATOM     13  H   UNL     1      55.634 -38.091 -17.867  1.00  0.00     0.175 HD
ATOM     14  O   UNL     1      57.413 -39.833 -18.005  1.00  0.00    -0.248 OA
ENDBRANCH   1   6
BRANCH   2  15
ATOM     15  O   UNL     1      57.954 -40.884 -20.592  1.00  0.00    -0.386 OA
ATOM     16  H   UNL     1      57.110 -40.361 -20.594  1.00  0.00     0.211 HD
ENDBRANCH   2  15
BRANCH   3  17
ATOM     17  O   UNL     1      58.874 -44.295 -20.560  1.00  0.00    -0.387 OA
ATOM     18  H   UNL     1      59.785 -44.469 -20.917  1.00  0.00     0.211 HD
ENDBRANCH   3  17
BRANCH   4  19
ATOM     19  C   UNL     1      59.996 -42.473 -17.726  1.00  0.00     0.191 C 
BRANCH  19  20
ATOM     20  O   UNL     1      59.567 -41.402 -16.929  1.00  0.00    -0.394 OA
ATOM     21  H   UNL     1      58.612 -41.246 -17.153  1.00  0.00     0.210 HD
ENDBRANCH  19  20
ENDBRANCH   4  19
TORSDOF 5
ENDMDL
MODEL 6
REMARK VINA RESULT:    -5.276     13.690     15.101
REMARK INTER + INTRA:          -6.585
REMARK INTER:                  -6.293
REMARK INTRA:                  -0.291
REMARK UNBOUND:                -0.229
REMARK SMILES O=c1ccn([C@@H]2O[C@H](CO)[C@@H](O)[C@@H]2O)c(=O)[nH]1
REMARK SMILES IDX 6 1 13 2 11 3 8 4 7 5 5 6 3 7 4 8 2 9 17 10 1 11 15 12 16 14
REMARK SMILES IDX 14 15 12 17 9 19 10 20
REMARK H PARENT 17 13 14 16 12 18 10 21
REMARK Flexibility Score: inf
ROOT
ATOM      1  C   UNL     1      71.149 -44.404 -20.662  1.00  0.00     0.255 C 
ATOM      2  C   UNL     1      72.380 -45.207 -21.079  1.00  0.00     0.196 C 
ATOM      3  C   UNL     1      71.874 -45.990 -22.278  1.00  0.00     0.179 C 
ATOM      4  C   UNL     1      70.339 -45.929 -22.142  1.00  0.00     0.178 C 
ATOM      5  O   UNL     1      69.997 -45.130 -21.027  1.00  0.00    -0.347 OA
ENDROOT
BRANCH   1   6
ATOM      6  N   UNL     1      71.159 -44.068 -19.220  1.00  0.00    -0.271 N 
ATOM      7  C   UNL     1      70.169 -44.391 -17.058  1.00  0.00     0.090 A 
ATOM      8  C   UNL     1      70.233 -44.676 -18.418  1.00  0.00     0.099 A 
ATOM      9  C   UNL     1      71.061 -43.465 -16.529  1.00  0.00     0.253 A 
ATOM     10  N   UNL     1      71.964 -42.858 -17.340  1.00  0.00    -0.274 N 
ATOM     11  O   UNL     1      71.028 -43.188 -15.300  1.00  0.00    -0.269 OA
ATOM     12  C   UNL     1      72.018 -43.140 -18.673  1.00  0.00     0.330 A 
ATOM     13  H   UNL     1      72.625 -42.156 -16.936  1.00  0.00     0.175 HD
ATOM     14  O   UNL     1      72.861 -42.536 -19.389  1.00  0.00    -0.248 OA
ENDBRANCH   1   6
BRANCH   2  15
ATOM     15  O   UNL     1      72.834 -46.062 -20.055  1.00  0.00    -0.386 OA
ATOM     16  H   UNL     1      73.138 -46.911 -20.470  1.00  0.00     0.211 HD
ENDBRANCH   2  15
BRANCH   3  17
ATOM     17  O   UNL     1      72.306 -45.411 -23.487  1.00  0.00    -0.387 OA
ATOM     18  H   UNL     1      72.514 -46.145 -24.124  1.00  0.00     0.211 HD
ENDBRANCH   3  17
BRANCH   4  19
ATOM     19  C   UNL     1      69.729 -47.326 -21.971  1.00  0.00     0.191 C 
BRANCH  19  20
ATOM     20  O   UNL     1      70.158 -47.905 -20.768  1.00  0.00    -0.394 OA
ATOM     21  H   UNL     1      69.955 -47.251 -20.050  1.00  0.00     0.210 HD
ENDBRANCH  19  20
ENDBRANCH   4  19
TORSDOF 5
ENDMDL
MODEL 7
REMARK VINA RESULT:    -5.263      2.301      5.115
REMARK INTER + INTRA:          -6.569
REMARK INTER:                  -6.290
REMARK INTRA:                  -0.278
REMARK UNBOUND:                -0.229
REMARK SMILES O=c1ccn([C@@H]2O[C@H](CO)[C@@H](O)[C@@H]2O)c(=O)[nH]1
REMARK SMILES IDX 6 1 13 2 11 3 8 4 7 5 5 6 3 7 4 8 2 9 17 10 1 11 15 12 16 14
REMARK SMILES IDX 14 15 12 17 9 19 10 20
REMARK H PARENT 17 13 14 16 12 18 10 21
REMARK Flexibility Score: inf
ROOT
ATOM      1  C   UNL     1      56.580 -40.673 -20.274  1.00  0.00     0.255 C 
ATOM      2  C   UNL     1      55.228 -40.875 -19.592  1.00  0.00     0.196 C 
ATOM      3  C   UNL     1      54.733 -39.451 -19.411  1.00  0.00     0.179 C 
ATOM      4  C   UNL     1      56.005 -38.592 -19.560  1.00  0.00     0.178 C 
ATOM      5  O   UNL     1      57.102 -39.428 -19.872  1.00  0.00    -0.347 OA
ENDROOT
BRANCH   1   6
ATOM      6  N   UNL     1      57.519 -41.784 -19.999  1.00  0.00    -0.271 N 
ATOM      7  C   UNL     1      59.429 -42.566 -18.774  1.00  0.00     0.090 A 
ATOM      8  C   UNL     1      58.498 -41.574 -19.067  1.00  0.00     0.099 A 
ATOM      9  C   UNL     1      59.352 -43.775 -19.457  1.00  0.00     0.253 A 
ATOM     10  N   UNL     1      58.385 -43.962 -20.390  1.00  0.00    -0.274 N 
ATOM     11  O   UNL     1      60.181 -44.691 -19.211  1.00  0.00    -0.269 OA
ATOM     12  C   UNL     1      57.478 -42.985 -20.674  1.00  0.00     0.330 A 
ATOM     13  H   UNL     1      58.339 -44.871 -20.905  1.00  0.00     0.175 HD
ATOM     14  O   UNL     1      56.610 -43.200 -21.562  1.00  0.00    -0.248 OA
ENDBRANCH   1   6
BRANCH   2  15
ATOM     15  O   UNL     1      55.344 -41.545 -18.358  1.00  0.00    -0.386 OA
ATOM     16  H   UNL     1      56.218 -42.016 -18.340  1.00  0.00     0.211 HD
ENDBRANCH   2  15
BRANCH   3  17
ATOM     17  O   UNL     1      53.770 -39.115 -20.382  1.00  0.00    -0.387 OA
ATOM     18  H   UNL     1      53.610 -39.915 -20.949  1.00  0.00     0.211 HD
ENDBRANCH   3  17
BRANCH   4  19
ATOM     19  C   UNL     1      56.314 -37.808 -18.278  1.00  0.00     0.191 C 
BRANCH  19  20
ATOM     20  O   UNL     1      55.439 -38.185 -17.249  1.00  0.00    -0.394 OA
ATOM     21  H   UNL     1      55.449 -37.449 -16.583  1.00  0.00     0.210 HD
ENDBRANCH  19  20
ENDBRANCH   4  19
TORSDOF 5
ENDMDL
MODEL 8
REMARK VINA RESULT:    -5.261     13.236     13.981
REMARK INTER + INTRA:          -6.567
REMARK INTER:                  -6.222
REMARK INTRA:                  -0.344
REMARK UNBOUND:                -0.229
REMARK SMILES O=c1ccn([C@@H]2O[C@H](CO)[C@@H](O)[C@@H]2O)c(=O)[nH]1
REMARK SMILES IDX 6 1 13 2 11 3 8 4 7 5 5 6 3 7 4 8 2 9 17 10 1 11 15 12 16 14
REMARK SMILES IDX 14 15 12 17 9 19 10 20
REMARK H PARENT 17 13 14 16 12 18 10 21
REMARK Flexibility Score: inf
ROOT
ATOM      1  C   UNL     1      69.521 -46.595 -21.278  1.00  0.00     0.255 C 
ATOM      2  C   UNL     1      70.714 -47.397 -20.760  1.00  0.00     0.196 C 
ATOM      3  C   UNL     1      71.196 -46.556 -19.591  1.00  0.00     0.179 C 
ATOM      4  C   UNL     1      70.561 -45.172 -19.841  1.00  0.00     0.178 C 
ATOM      5  O   UNL     1      69.739 -45.233 -20.989  1.00  0.00    -0.347 OA
ENDROOT
BRANCH   1   6
ATOM      6  N   UNL     1      69.274 -46.824 -22.720  1.00  0.00    -0.271 N 
ATOM      7  C   UNL     1      69.448 -45.989 -24.963  1.00  0.00     0.090 A 
ATOM      8  C   UNL     1      69.669 -45.851 -23.596  1.00  0.00     0.099 A 
ATOM      9  C   UNL     1      68.806 -47.133 -25.422  1.00  0.00     0.253 A 
ATOM     10  N   UNL     1      68.405 -48.083 -24.539  1.00  0.00    -0.274 N 
ATOM     11  O   UNL     1      68.594 -47.286 -26.655  1.00  0.00    -0.269 OA
ATOM     12  C   UNL     1      68.623 -47.939 -23.201  1.00  0.00     0.330 A 
ATOM     13  H   UNL     1      67.915 -48.936 -24.891  1.00  0.00     0.175 HD
ATOM     14  O   UNL     1      68.215 -48.839 -22.418  1.00  0.00    -0.248 OA
ENDBRANCH   1   6
BRANCH   2  15
ATOM     15  O   UNL     1      71.719 -47.553 -21.735  1.00  0.00    -0.386 OA
ATOM     16  H   UNL     1      71.609 -46.838 -22.414  1.00  0.00     0.211 HD
ENDBRANCH   2  15
BRANCH   3  17
ATOM     17  O   UNL     1      70.776 -47.098 -18.361  1.00  0.00    -0.387 OA
ATOM     18  H   UNL     1      71.528 -47.624 -17.982  1.00  0.00     0.211 HD
ENDBRANCH   3  17
BRANCH   4  19
ATOM     19  C   UNL     1      71.627 -44.086 -20.038  1.00  0.00     0.191 C 
BRANCH  19  20
ATOM     20  O   UNL     1      72.353 -44.319 -21.215  1.00  0.00    -0.394 OA
ATOM     21  H   UNL     1      72.640 -43.430 -21.552  1.00  0.00     0.210 HD
ENDBRANCH  19  20
ENDBRANCH   4  19
TORSDOF 5
ENDMDL
MODEL 9
REMARK VINA RESULT:    -5.145     13.052     14.017
REMARK INTER + INTRA:          -6.427
REMARK INTER:                  -6.072
REMARK INTRA:                  -0.355
REMARK UNBOUND:                -0.229
REMARK SMILES O=c1ccn([C@@H]2O[C@H](CO)[C@@H](O)[C@@H]2O)c(=O)[nH]1
REMARK SMILES IDX 6 1 13 2 11 3 8 4 7 5 5 6 3 7 4 8 2 9 17 10 1 11 15 12 16 14
REMARK SMILES IDX 14 15 12 17 9 19 10 20
REMARK H PARENT 17 13 14 16 12 18 10 21
REMARK Flexibility Score: inf
ROOT
ATOM      1  C   UNL     1      70.739 -47.209 -22.329  1.00  0.00     0.255 C 
ATOM      2  C   UNL     1      70.319 -45.804 -21.900  1.00  0.00     0.196 C 
ATOM      3  C   UNL     1      71.412 -45.416 -20.919  1.00  0.00     0.179 C 
ATOM      4  C   UNL     1      72.058 -46.762 -20.531  1.00  0.00     0.178 C 
ATOM      5  O   UNL     1      71.452 -47.804 -21.269  1.00  0.00    -0.347 OA
ENDROOT
BRANCH   1   6
ATOM      6  N   UNL     1      69.586 -48.034 -22.754  1.00  0.00    -0.271 N 
ATOM      7  C   UNL     1      67.971 -49.712 -22.173  1.00  0.00     0.090 A 
ATOM      8  C   UNL     1      69.041 -48.890 -21.836  1.00  0.00     0.099 A 
ATOM      9  C   UNL     1      67.470 -49.656 -23.468  1.00  0.00     0.253 A 
ATOM     10  N   UNL     1      68.031 -48.814 -24.374  1.00  0.00    -0.274 N 
ATOM     11  O   UNL     1      66.500 -50.387 -23.802  1.00  0.00    -0.269 OA
ATOM     12  C   UNL     1      69.081 -48.013 -24.036  1.00  0.00     0.330 A 
ATOM     13  H   UNL     1      67.654 -48.784 -25.348  1.00  0.00     0.175 HD
ATOM     14  O   UNL     1      69.581 -47.262 -24.917  1.00  0.00    -0.248 OA
ENDBRANCH   1   6
BRANCH   2  15
ATOM     15  O   UNL     1      69.047 -45.786 -21.294  1.00  0.00    -0.386 OA
ATOM     16  H   UNL     1      68.462 -46.426 -21.777  1.00  0.00     0.211 HD
ENDBRANCH   2  15
BRANCH   3  17
ATOM     17  O   UNL     1      72.350 -44.550 -21.512  1.00  0.00    -0.387 OA
ATOM     18  H   UNL     1      72.143 -44.487 -22.482  1.00  0.00     0.211 HD
ENDBRANCH   3  17
BRANCH   4  19
ATOM     19  C   UNL     1      71.909 -47.051 -19.031  1.00  0.00     0.191 C 
BRANCH  19  20
ATOM     20  O   UNL     1      70.560 -47.000 -18.653  1.00  0.00    -0.394 OA
ATOM     21  H   UNL     1      70.545 -46.833 -17.675  1.00  0.00     0.210 HD
ENDBRANCH  19  20
ENDBRANCH   4  19
TORSDOF 5
ENDMDL
