MODEL 1
REMARK VINA RESULT:    -5.029      0.000      0.000
REMARK INTER + INTRA:         -10.788
REMARK INTER:                  -9.146
REMARK INTRA:                  -1.642
REMARK UNBOUND:                -1.642
REMARK SMILES CCCCCCCCCCCCCCCC(=O)[O-]
REMARK SMILES IDX 9 1 10 2 11 3 12 4 13 5 14 6 15 7 16 8 17 9 18 10 8 11 7 12
REMARK SMILES IDX 6 13 5 14 4 15 3 16 2 17 1 18
REMARK H PARENT
REMARK Flexibility Score: inf
ROOT
ATOM      1  C   UNL     1      31.609  55.116  27.433  1.00  0.00     0.000 C 
ENDROOT
BRANCH   1   2
ATOM      2  C   UNL     1      32.621  53.955  27.571  1.00  0.00     0.000 C 
BRANCH   2   3
ATOM      3  C   UNL     1      33.253  53.836  28.972  1.00  0.00     0.000 C 
BRANCH   3   4
ATOM      4  C   UNL     1      32.984  55.026  29.917  1.00  0.00     0.000 C 
BRANCH   4   5
ATOM      5  C   UNL     1      33.200  54.744  31.418  1.00  0.00     0.000 C 
BRANCH   5   6
ATOM      6  C   UNL     1      32.615  55.803  32.369  1.00  0.00     0.006 C 
BRANCH   6   7
ATOM      7  C   UNL     1      33.638  56.309  33.394  1.00  0.00     0.053 C 
BRANCH   7   8
ATOM      8  C   UNL     1      33.265  55.857  34.771  1.00  0.00     0.041 C 
ATOM      9  O   UNL     1      32.244  55.143  34.949  1.00  0.00    -0.550 OA
ATOM     10  O   UNL     1      34.020  56.265  35.864  1.00  0.00    -0.550 OA
ENDBRANCH   7   8
ENDBRANCH   6   7
ENDBRANCH   5   6
ENDBRANCH   4   5
ENDBRANCH   3   4
ENDBRANCH   2   3
ENDBRANCH   1   2
BRANCH   1  11
ATOM     11  C   UNL     1      32.092  56.253  26.512  1.00  0.00     0.000 C 
BRANCH  11  12
ATOM     12  C   UNL     1      33.529  56.090  25.985  1.00  0.00    -0.000 C 
BRANCH  12  13
ATOM     13  C   UNL     1      34.564  57.037  26.622  1.00  0.00    -0.000 C 
BRANCH  13  14
ATOM     14  C   UNL     1      35.663  56.306  27.424  1.00  0.00    -0.000 C 
BRANCH  14  15
ATOM     15  C   UNL     1      36.859  57.221  27.741  1.00  0.00    -0.000 C 
BRANCH  15  16
ATOM     16  C   UNL     1      36.609  58.122  28.960  1.00  0.00    -0.000 C 
BRANCH  16  17
ATOM     17  C   UNL     1      35.682  57.470  29.996  1.00  0.00    -0.003 C 
ATOM     18  C   UNL     1      35.283  58.468  31.081  1.00  0.00     0.004 C 
ENDBRANCH  16  17
ENDBRANCH  15  16
ENDBRANCH  14  15
ENDBRANCH  13  14
ENDBRANCH  12  13
ENDBRANCH  11  12
ENDBRANCH   1  11
TORSDOF 14
ENDMDL
MODEL 2
REMARK VINA RESULT:    -4.909      2.367      5.032
REMARK INTER + INTRA:         -10.569
REMARK INTER:                  -8.781
REMARK INTRA:                  -1.788
REMARK UNBOUND:                -1.642
REMARK SMILES CCCCCCCCCCCCCCCC(=O)[O-]
REMARK SMILES IDX 9 1 10 2 11 3 12 4 13 5 14 6 15 7 16 8 17 9 18 10 8 11 7 12
REMARK SMILES IDX 6 13 5 14 4 15 3 16 2 17 1 18
REMARK H PARENT
REMARK Flexibility Score: inf
ROOT
ATOM      1  C   UNL     1      36.083  56.618  27.009  1.00  0.00     0.000 C 
ENDROOT
BRANCH   1   2
ATOM      2  C   UNL     1      34.706  57.251  26.705  1.00  0.00     0.000 C 
BRANCH   2   3
ATOM      3  C   UNL     1      33.734  56.314  25.961  1.00  0.00     0.000 C 
BRANCH   3   4
ATOM      4  C   UNL     1      32.272  56.359  26.454  1.00  0.00     0.000 C 
BRANCH   4   5
ATOM      5  C   UNL     1      31.793  55.111  27.222  1.00  0.00     0.000 C 
BRANCH   5   6
ATOM      6  C   UNL     1      32.509  54.855  28.560  1.00  0.00     0.006 C 
BRANCH   6   7
ATOM      7  C   UNL     1      33.491  53.679  28.493  1.00  0.00     0.053 C 
BRANCH   7   8
ATOM      8  C   UNL     1      32.926  52.487  29.199  1.00  0.00     0.041 C 
ATOM      9  O   UNL     1      31.812  52.014  28.852  1.00  0.00    -0.550 OA
ATOM     10  O   UNL     1      33.608  51.927  30.272  1.00  0.00    -0.550 OA
ENDBRANCH   7   8
ENDBRANCH   6   7
ENDBRANCH   5   6
ENDBRANCH   4   5
ENDBRANCH   3   4
ENDBRANCH   2   3
ENDBRANCH   1   2
BRANCH   1  11
ATOM     11  C   UNL     1      36.682  57.055  28.360  1.00  0.00     0.000 C 
BRANCH  11  12
ATOM     12  C   UNL     1      35.741  57.894  29.242  1.00  0.00    -0.000 C 
BRANCH  12  13
ATOM     13  C   UNL     1      34.929  57.087  30.274  1.00  0.00    -0.000 C 
BRANCH  13  14
ATOM     14  C   UNL     1      34.957  57.691  31.695  1.00  0.00    -0.000 C 
BRANCH  14  15
ATOM     15  C   UNL     1      34.084  56.897  32.683  1.00  0.00    -0.000 C 
BRANCH  15  16
ATOM     16  C   UNL     1      32.826  56.312  32.022  1.00  0.00    -0.000 C 
BRANCH  16  17
ATOM     17  C   UNL     1      32.696  54.797  32.236  1.00  0.00    -0.003 C 
ATOM     18  C   UNL     1      33.922  54.236  32.953  1.00  0.00     0.004 C 
ENDBRANCH  16  17
ENDBRANCH  15  16
ENDBRANCH  14  15
ENDBRANCH  13  14
ENDBRANCH  12  13
ENDBRANCH  11  12
ENDBRANCH   1  11
TORSDOF 14
ENDMDL
MODEL 3
REMARK VINA RESULT:    -4.872      0.986      1.825
REMARK INTER + INTRA:         -10.502
REMARK INTER:                  -8.819
REMARK INTRA:                  -1.684
REMARK UNBOUND:                -1.642
REMARK SMILES CCCCCCCCCCCCCCCC(=O)[O-]
REMARK SMILES IDX 9 1 10 2 11 3 12 4 13 5 14 6 15 7 16 8 17 9 18 10 8 11 7 12
REMARK SMILES IDX 6 13 5 14 4 15 3 16 2 17 1 18
REMARK H PARENT
REMARK Flexibility Score: inf
ROOT
ATOM      1  C   UNL     1      32.309  52.859  28.085  1.00  0.00     0.000 C 
ENDROOT
BRANCH   1   2
ATOM      2  C   UNL     1      33.341  53.194  29.187  1.00  0.00     0.000 C 
BRANCH   2   3
ATOM      3  C   UNL     1      33.143  52.403  30.495  1.00  0.00     0.000 C 
BRANCH   3   4
ATOM      4  C   UNL     1      33.338  53.219  31.791  1.00  0.00     0.000 C 
BRANCH   4   5
ATOM      5  C   UNL     1      33.705  54.703  31.591  1.00  0.00     0.000 C 
BRANCH   5   6
ATOM      6  C   UNL     1      32.547  55.694  31.808  1.00  0.00     0.006 C 
BRANCH   6   7
ATOM      7  C   UNL     1      32.759  56.597  33.029  1.00  0.00     0.053 C 
BRANCH   7   8
ATOM      8  C   UNL     1      32.506  55.836  34.292  1.00  0.00     0.041 C 
ATOM      9  O   UNL     1      31.392  55.284  34.487  1.00  0.00    -0.550 OA
ATOM     10  O   UNL     1      33.486  55.778  35.276  1.00  0.00    -0.550 OA
ENDBRANCH   7   8
ENDBRANCH   6   7
ENDBRANCH   5   6
ENDBRANCH   4   5
ENDBRANCH   3   4
ENDBRANCH   2   3
ENDBRANCH   1   2
BRANCH   1  11
ATOM     11  C   UNL     1      32.392  53.784  26.856  1.00  0.00     0.000 C 
BRANCH  11  12
ATOM     12  C   UNL     1      31.540  55.062  26.953  1.00  0.00    -0.000 C 
BRANCH  12  13
ATOM     13  C   UNL     1      32.269  56.359  26.550  1.00  0.00    -0.000 C 
BRANCH  13  14
ATOM     14  C   UNL     1      33.783  56.169  26.304  1.00  0.00    -0.000 C 
BRANCH  14  15
ATOM     15  C   UNL     1      34.638  57.083  27.198  1.00  0.00    -0.000 C 
BRANCH  15  16
ATOM     16  C   UNL     1      34.832  56.515  28.612  1.00  0.00    -0.000 C 
BRANCH  16  17
ATOM     17  C   UNL     1      35.868  57.301  29.428  1.00  0.00    -0.003 C 
ATOM     18  C   UNL     1      35.195  58.122  30.526  1.00  0.00     0.004 C 
ENDBRANCH  16  17
ENDBRANCH  15  16
ENDBRANCH  14  15
ENDBRANCH  13  14
ENDBRANCH  12  13
ENDBRANCH  11  12
ENDBRANCH   1  11
TORSDOF 14
ENDMDL
MODEL 4
REMARK VINA RESULT:    -4.859      2.295      2.996
REMARK INTER + INTRA:         -10.477
REMARK INTER:                  -8.491
REMARK INTRA:                  -1.986
REMARK UNBOUND:                -1.642
REMARK SMILES CCCCCCCCCCCCCCCC(=O)[O-]
REMARK SMILES IDX 9 1 10 2 11 3 12 4 13 5 14 6 15 7 16 8 17 9 18 10 8 11 7 12
REMARK SMILES IDX 6 13 5 14 4 15 3 16 2 17 1 18
REMARK H PARENT
REMARK Flexibility Score: inf
ROOT
ATOM      1  C   UNL     1      32.218  56.079  26.833  1.00  0.00     0.000 C 
ENDROOT
BRANCH   1   2
ATOM      2  C   UNL     1      32.179  55.195  28.101  1.00  0.00     0.000 C 
BRANCH   2   3
ATOM      3  C   UNL     1      33.124  53.978  28.047  1.00  0.00     0.000 C 
BRANCH   3   4
ATOM      4  C   UNL     1      33.387  53.291  29.404  1.00  0.00     0.000 C 
BRANCH   4   5
ATOM      5  C   UNL     1      33.152  54.170  30.649  1.00  0.00     0.000 C 
BRANCH   5   6
ATOM      6  C   UNL     1      33.035  53.400  31.976  1.00  0.00     0.006 C 
BRANCH   6   7
ATOM      7  C   UNL     1      34.387  53.215  32.677  1.00  0.00     0.053 C 
BRANCH   7   8
ATOM      8  C   UNL     1      34.899  51.825  32.465  1.00  0.00     0.041 C 
ATOM      9  O   UNL     1      36.116  51.563  32.650  1.00  0.00    -0.550 OA
ATOM     10  O   UNL     1      34.041  50.830  32.016  1.00  0.00    -0.550 OA
ENDBRANCH   7   8
ENDBRANCH   6   7
ENDBRANCH   5   6
ENDBRANCH   4   5
ENDBRANCH   3   4
ENDBRANCH   2   3
ENDBRANCH   1   2
BRANCH   1  11
ATOM     11  C   UNL     1      33.474  55.866  25.966  1.00  0.00     0.000 C 
BRANCH  11  12
ATOM     12  C   UNL     1      34.516  56.994  26.053  1.00  0.00    -0.000 C 
BRANCH  12  13
ATOM     13  C   UNL     1      35.642  56.759  27.079  1.00  0.00    -0.000 C 
BRANCH  13  14
ATOM     14  C   UNL     1      35.550  57.673  28.321  1.00  0.00    -0.000 C 
BRANCH  14  15
ATOM     15  C   UNL     1      35.506  56.870  29.633  1.00  0.00    -0.000 C 
BRANCH  15  16
ATOM     16  C   UNL     1      34.751  57.605  30.751  1.00  0.00    -0.000 C 
BRANCH  16  17
ATOM     17  C   UNL     1      34.935  56.943  32.124  1.00  0.00    -0.003 C 
ATOM     18  C   UNL     1      33.681  57.097  32.981  1.00  0.00     0.004 C 
ENDBRANCH  16  17
ENDBRANCH  15  16
ENDBRANCH  14  15
ENDBRANCH  13  14
ENDBRANCH  12  13
ENDBRANCH  11  12
ENDBRANCH   1  11
TORSDOF 14
ENDMDL
MODEL 5
REMARK VINA RESULT:    -4.838      1.190      3.883
REMARK INTER + INTRA:         -10.440
REMARK INTER:                  -8.816
REMARK INTRA:                  -1.624
REMARK UNBOUND:                -1.642
REMARK SMILES CCCCCCCCCCCCCCCC(=O)[O-]
REMARK SMILES IDX 9 1 10 2 11 3 12 4 13 5 14 6 15 7 16 8 17 9 18 10 8 11 7 12
REMARK SMILES IDX 6 13 5 14 4 15 3 16 2 17 1 18
REMARK H PARENT
REMARK Flexibility Score: inf
ROOT
ATOM      1  C   UNL     1      35.770  56.745  27.476  1.00  0.00     0.000 C 
ENDROOT
BRANCH   1   2
ATOM      2  C   UNL     1      36.205  57.831  28.487  1.00  0.00     0.000 C 
BRANCH   2   3
ATOM      3  C   UNL     1      35.491  57.743  29.850  1.00  0.00     0.000 C 
BRANCH   3   4
ATOM      4  C   UNL     1      34.384  56.671  29.943  1.00  0.00     0.000 C 
BRANCH   4   5
ATOM      5  C   UNL     1      34.331  55.887  31.270  1.00  0.00     0.000 C 
BRANCH   5   6
ATOM      6  C   UNL     1      32.980  55.944  32.006  1.00  0.00     0.006 C 
BRANCH   6   7
ATOM      7  C   UNL     1      32.791  54.784  32.991  1.00  0.00     0.053 C 
BRANCH   7   8
ATOM      8  C   UNL     1      32.310  55.295  34.313  1.00  0.00     0.041 C 
ATOM      9  O   UNL     1      31.077  55.409  34.538  1.00  0.00    -0.550 OA
ATOM     10  O   UNL     1      33.226  55.690  35.279  1.00  0.00    -0.550 OA
ENDBRANCH   7   8
ENDBRANCH   6   7
ENDBRANCH   5   6
ENDBRANCH   4   5
ENDBRANCH   3   4
ENDBRANCH   2   3
ENDBRANCH   1   2
BRANCH   1  11
ATOM     11  C   UNL     1      34.658  57.203  26.514  1.00  0.00     0.000 C 
BRANCH  11  12
ATOM     12  C   UNL     1      33.690  56.091  26.070  1.00  0.00    -0.000 C 
BRANCH  12  13
ATOM     13  C   UNL     1      32.273  56.191  26.667  1.00  0.00    -0.000 C 
BRANCH  13  14
ATOM     14  C   UNL     1      31.937  55.057  27.661  1.00  0.00    -0.000 C 
BRANCH  14  15
ATOM     15  C   UNL     1      33.034  53.980  27.710  1.00  0.00    -0.000 C 
BRANCH  15  16
ATOM     16  C   UNL     1      32.570  52.694  28.410  1.00  0.00    -0.000 C 
BRANCH  16  17
ATOM     17  C   UNL     1      33.125  52.563  29.836  1.00  0.00    -0.003 C 
ATOM     18  C   UNL     1      32.233  51.669  30.693  1.00  0.00     0.004 C 
ENDBRANCH  16  17
ENDBRANCH  15  16
ENDBRANCH  14  15
ENDBRANCH  13  14
ENDBRANCH  12  13
ENDBRANCH  11  12
ENDBRANCH   1  11
TORSDOF 14
ENDMDL
MODEL 6
REMARK VINA RESULT:    -4.792      1.626      3.941
REMARK INTER + INTRA:         -10.355
REMARK INTER:                  -8.737
REMARK INTRA:                  -1.619
REMARK UNBOUND:                -1.642
REMARK SMILES CCCCCCCCCCCCCCCC(=O)[O-]
REMARK SMILES IDX 9 1 10 2 11 3 12 4 13 5 14 6 15 7 16 8 17 9 18 10 8 11 7 12
REMARK SMILES IDX 6 13 5 14 4 15 3 16 2 17 1 18
REMARK H PARENT
REMARK Flexibility Score: inf
ROOT
ATOM      1  C   UNL     1      34.709  57.517  30.520  1.00  0.00     0.000 C 
ENDROOT
BRANCH   1   2
ATOM      2  C   UNL     1      34.273  56.088  30.918  1.00  0.00     0.000 C 
BRANCH   2   3
ATOM      3  C   UNL     1      32.763  55.947  31.197  1.00  0.00     0.000 C 
BRANCH   3   4
ATOM      4  C   UNL     1      32.273  56.607  32.503  1.00  0.00     0.000 C 
BRANCH   4   5
ATOM      5  C   UNL     1      32.518  55.793  33.790  1.00  0.00     0.000 C 
BRANCH   5   6
ATOM      6  C   UNL     1      33.648  56.324  34.689  1.00  0.00     0.006 C 
BRANCH   6   7
ATOM      7  C   UNL     1      34.164  57.699  34.247  1.00  0.00     0.053 C 
BRANCH   7   8
ATOM      8  C   UNL     1      35.613  57.848  34.587  1.00  0.00     0.041 C 
ATOM      9  O   UNL     1      35.958  58.407  35.660  1.00  0.00    -0.550 OA
ATOM     10  O   UNL     1      36.584  57.411  33.694  1.00  0.00    -0.550 OA
ENDBRANCH   7   8
ENDBRANCH   6   7
ENDBRANCH   5   6
ENDBRANCH   4   5
ENDBRANCH   3   4
ENDBRANCH   2   3
ENDBRANCH   1   2
BRANCH   1  11
ATOM     11  C   UNL     1      36.002  57.560  29.683  1.00  0.00     0.000 C 
BRANCH  11  12
ATOM     12  C   UNL     1      35.796  57.891  28.195  1.00  0.00    -0.000 C 
BRANCH  12  13
ATOM     13  C   UNL     1      35.462  56.680  27.303  1.00  0.00    -0.000 C 
BRANCH  13  14
ATOM     14  C   UNL     1      34.466  57.002  26.166  1.00  0.00    -0.000 C 
BRANCH  14  15
ATOM     15  C   UNL     1      33.454  55.866  25.938  1.00  0.00    -0.000 C 
BRANCH  15  16
ATOM     16  C   UNL     1      32.133  56.092  26.690  1.00  0.00    -0.000 C 
BRANCH  16  17
ATOM     17  C   UNL     1      31.892  55.049  27.791  1.00  0.00    -0.003 C 
ATOM     18  C   UNL     1      32.971  53.968  27.768  1.00  0.00     0.004 C 
ENDBRANCH  16  17
ENDBRANCH  15  16
ENDBRANCH  14  15
ENDBRANCH  13  14
ENDBRANCH  12  13
ENDBRANCH  11  12
ENDBRANCH   1  11
TORSDOF 14
ENDMDL
MODEL 7
REMARK VINA RESULT:    -4.790      2.323      4.603
REMARK INTER + INTRA:         -10.352
REMARK INTER:                  -8.783
REMARK INTRA:                  -1.569
REMARK UNBOUND:                -1.642
REMARK SMILES CCCCCCCCCCCCCCCC(=O)[O-]
REMARK SMILES IDX 9 1 10 2 11 3 12 4 13 5 14 6 15 7 16 8 17 9 18 10 8 11 7 12
REMARK SMILES IDX 6 13 5 14 4 15 3 16 2 17 1 18
REMARK H PARENT
REMARK Flexibility Score: inf
ROOT
ATOM      1  C   UNL     1      35.194  57.078  30.206  1.00  0.00     0.000 C 
ENDROOT
BRANCH   1   2
ATOM      2  C   UNL     1      35.059  57.708  31.612  1.00  0.00     0.000 C 
BRANCH   2   3
ATOM      3  C   UNL     1      33.810  57.246  32.390  1.00  0.00     0.000 C 
BRANCH   3   4
ATOM      4  C   UNL     1      32.920  56.222  31.654  1.00  0.00     0.000 C 
BRANCH   4   5
ATOM      5  C   UNL     1      32.654  54.907  32.415  1.00  0.00     0.000 C 
BRANCH   5   6
ATOM      6  C   UNL     1      33.385  53.673  31.857  1.00  0.00     0.006 C 
BRANCH   6   7
ATOM      7  C   UNL     1      34.549  53.220  32.747  1.00  0.00     0.053 C 
BRANCH   7   8
ATOM      8  C   UNL     1      34.954  51.821  32.405  1.00  0.00     0.041 C 
ATOM      9  O   UNL     1      36.101  51.400  32.709  1.00  0.00    -0.550 OA
ATOM     10  O   UNL     1      34.081  50.996  31.707  1.00  0.00    -0.550 OA
ENDBRANCH   7   8
ENDBRANCH   6   7
ENDBRANCH   5   6
ENDBRANCH   4   5
ENDBRANCH   3   4
ENDBRANCH   2   3
ENDBRANCH   1   2
BRANCH   1  11
ATOM     11  C   UNL     1      35.906  57.987  29.186  1.00  0.00     0.000 C 
BRANCH  11  12
ATOM     12  C   UNL     1      35.949  57.435  27.750  1.00  0.00    -0.000 C 
BRANCH  12  13
ATOM     13  C   UNL     1      34.985  56.264  27.477  1.00  0.00    -0.000 C 
BRANCH  13  14
ATOM     14  C   UNL     1      33.745  56.662  26.646  1.00  0.00    -0.000 C 
BRANCH  14  15
ATOM     15  C   UNL     1      32.475  55.924  27.103  1.00  0.00    -0.000 C 
BRANCH  15  16
ATOM     16  C   UNL     1      32.768  54.830  28.141  1.00  0.00    -0.000 C 
BRANCH  16  17
ATOM     17  C   UNL     1      32.561  53.414  27.582  1.00  0.00    -0.003 C 
ATOM     18  C   UNL     1      32.512  52.382  28.706  1.00  0.00     0.004 C 
ENDBRANCH  16  17
ENDBRANCH  15  16
ENDBRANCH  14  15
ENDBRANCH  13  14
ENDBRANCH  12  13
ENDBRANCH  11  12
ENDBRANCH   1  11
TORSDOF 14
ENDMDL
MODEL 8
REMARK VINA RESULT:    -4.763      2.690      4.300
REMARK INTER + INTRA:         -10.303
REMARK INTER:                  -8.794
REMARK INTRA:                  -1.509
REMARK UNBOUND:                -1.642
REMARK SMILES CCCCCCCCCCCCCCCC(=O)[O-]
REMARK SMILES IDX 9 1 10 2 11 3 12 4 13 5 14 6 15 7 16 8 17 9 18 10 8 11 7 12
REMARK SMILES IDX 6 13 5 14 4 15 3 16 2 17 1 18
REMARK H PARENT
REMARK Flexibility Score: inf
ROOT
ATOM      1  C   UNL     1      33.685  56.115  26.065  1.00  0.00     0.000 C 
ENDROOT
BRANCH   1   2
ATOM      2  C   UNL     1      32.197  56.266  26.455  1.00  0.00     0.000 C 
BRANCH   2   3
ATOM      3  C   UNL     1      31.719  55.252  27.514  1.00  0.00     0.000 C 
BRANCH   3   4
ATOM      4  C   UNL     1      32.603  53.996  27.666  1.00  0.00     0.000 C 
BRANCH   4   5
ATOM      5  C   UNL     1      33.377  53.886  28.996  1.00  0.00     0.000 C 
BRANCH   5   6
ATOM      6  C   UNL     1      33.294  52.512  29.684  1.00  0.00     0.006 C 
BRANCH   6   7
ATOM      7  C   UNL     1      32.212  51.609  29.081  1.00  0.00     0.053 C 
BRANCH   7   8
ATOM      8  C   UNL     1      31.574  50.775  30.146  1.00  0.00     0.041 C 
ATOM      9  O   UNL     1      30.347  50.899  30.399  1.00  0.00    -0.550 OA
ATOM     10  O   UNL     1      32.346  49.892  30.892  1.00  0.00    -0.550 OA
ENDBRANCH   7   8
ENDBRANCH   6   7
ENDBRANCH   5   6
ENDBRANCH   4   5
ENDBRANCH   3   4
ENDBRANCH   2   3
ENDBRANCH   1   2
BRANCH   1  11
ATOM     11  C   UNL     1      34.586  57.241  26.610  1.00  0.00     0.000 C 
BRANCH  11  12
ATOM     12  C   UNL     1      35.919  56.765  27.213  1.00  0.00    -0.000 C 
BRANCH  12  13
ATOM     13  C   UNL     1      36.239  57.337  28.608  1.00  0.00    -0.000 C 
BRANCH  13  14
ATOM     14  C   UNL     1      35.088  57.176  29.625  1.00  0.00    -0.000 C 
BRANCH  14  15
ATOM     15  C   UNL     1      35.261  58.088  30.851  1.00  0.00    -0.000 C 
BRANCH  15  16
ATOM     16  C   UNL     1      34.508  57.568  32.086  1.00  0.00    -0.000 C 
BRANCH  16  17
ATOM     17  C   UNL     1      33.938  56.157  31.881  1.00  0.00    -0.003 C 
ATOM     18  C   UNL     1      32.414  56.162  31.964  1.00  0.00     0.004 C 
ENDBRANCH  16  17
ENDBRANCH  15  16
ENDBRANCH  14  15
ENDBRANCH  13  14
ENDBRANCH  12  13
ENDBRANCH  11  12
ENDBRANCH   1  11
TORSDOF 14
ENDMDL
MODEL 9
REMARK VINA RESULT:    -4.755      2.856      6.364
REMARK INTER + INTRA:         -10.288
REMARK INTER:                  -8.792
REMARK INTRA:                  -1.496
REMARK UNBOUND:                -1.642
REMARK SMILES CCCCCCCCCCCCCCCC(=O)[O-]
REMARK SMILES IDX 9 1 10 2 11 3 12 4 13 5 14 6 15 7 16 8 17 9 18 10 8 11 7 12
REMARK SMILES IDX 6 13 5 14 4 15 3 16 2 17 1 18
REMARK H PARENT
REMARK Flexibility Score: inf
ROOT
ATOM      1  C   UNL     1      35.912  58.189  30.436  1.00  0.00     0.000 C 
ENDROOT
BRANCH   1   2
ATOM      2  C   UNL     1      36.311  58.363  28.952  1.00  0.00     0.000 C 
BRANCH   2   3
ATOM      3  C   UNL     1      36.708  57.050  28.249  1.00  0.00     0.000 C 
BRANCH   3   4
ATOM      4  C   UNL     1      35.965  56.763  26.927  1.00  0.00     0.000 C 
BRANCH   4   5
ATOM      5  C   UNL     1      34.456  57.077  26.932  1.00  0.00     0.000 C 
BRANCH   5   6
ATOM      6  C   UNL     1      33.536  55.852  26.787  1.00  0.00     0.006 C 
BRANCH   6   7
ATOM      7  C   UNL     1      33.579  54.929  28.011  1.00  0.00     0.053 C 
BRANCH   7   8
ATOM      8  C   UNL     1      32.643  53.776  27.829  1.00  0.00     0.041 C 
ATOM      9  O   UNL     1      31.486  53.966  27.371  1.00  0.00    -0.550 OA
ATOM     10  O   UNL     1      33.031  52.499  28.212  1.00  0.00    -0.550 OA
ENDBRANCH   7   8
ENDBRANCH   6   7
ENDBRANCH   5   6
ENDBRANCH   4   5
ENDBRANCH   3   4
ENDBRANCH   2   3
ENDBRANCH   1   2
BRANCH   1  11
ATOM     11  C   UNL     1      34.770  57.178  30.656  1.00  0.00     0.000 C 
BRANCH  11  12
ATOM     12  C   UNL     1      34.701  56.583  32.073  1.00  0.00    -0.000 C 
BRANCH  12  13
ATOM     13  C   UNL     1      33.592  57.169  32.969  1.00  0.00    -0.000 C 
BRANCH  13  14
ATOM     14  C   UNL     1      32.280  56.354  32.947  1.00  0.00    -0.000 C 
BRANCH  14  15
ATOM     15  C   UNL     1      32.195  55.354  34.113  1.00  0.00    -0.000 C 
BRANCH  15  16
ATOM     16  C   UNL     1      32.454  53.906  33.670  1.00  0.00    -0.000 C 
BRANCH  16  17
ATOM     17  C   UNL     1      32.468  53.748  32.143  1.00  0.00    -0.003 C 
ATOM     18  C   UNL     1      33.379  52.599  31.718  1.00  0.00     0.004 C 
ENDBRANCH  16  17
ENDBRANCH  15  16
ENDBRANCH  14  15
ENDBRANCH  13  14
ENDBRANCH  12  13
ENDBRANCH  11  12
ENDBRANCH   1  11
TORSDOF 14
ENDMDL
