MODEL 1
REMARK VINA RESULT:    -3.133      0.000      0.000
REMARK INTER + INTRA:          -3.999
REMARK INTER:                  -3.866
REMARK INTRA:                  -0.133
REMARK UNBOUND:                -0.133
REMARK SMILES CCCCCC(=O)[O-]
REMARK SMILES IDX 4 1 5 2 6 3 7 4 8 5 3 6 2 7 1 8
REMARK H PARENT
REMARK Flexibility Score: inf
ROOT
ATOM      1  C   UNL     1     188.936 196.566 171.599  1.00  0.00     0.006 C 
ENDROOT
BRANCH   1   2
ATOM      2  C   UNL     1     189.317 196.862 173.055  1.00  0.00     0.053 C 
BRANCH   2   3
ATOM      3  C   UNL     1     188.093 196.929 173.912  1.00  0.00     0.041 C 
ATOM      4  O   UNL     1     186.949 196.935 173.386  1.00  0.00    -0.550 OA
ATOM      5  O   UNL     1     188.217 197.035 175.292  1.00  0.00    -0.550 OA
ENDBRANCH   2   3
ENDBRANCH   1   2
BRANCH   1   6
ATOM      6  C   UNL     1     189.855 197.272 170.591  1.00  0.00     0.000 C 
BRANCH   6   7
ATOM      7  C   UNL     1     191.021 198.007 171.268  1.00  0.00    -0.003 C 
ATOM      8  C   UNL     1     192.360 197.583 170.670  1.00  0.00     0.004 C 
ENDBRANCH   6   7
ENDBRANCH   1   6
TORSDOF 4
ENDMDL
MODEL 2
REMARK VINA RESULT:    -3.065     10.379     11.168
REMARK INTER + INTRA:          -3.915
REMARK INTER:                  -3.760
REMARK INTRA:                  -0.156
REMARK UNBOUND:                -0.133
REMARK SMILES CCCCCC(=O)[O-]
REMARK SMILES IDX 4 1 5 2 6 3 7 4 8 5 3 6 2 7 1 8
REMARK H PARENT
REMARK Flexibility Score: inf
ROOT
ATOM      1  C   UNL     1     184.892 187.188 169.335  1.00  0.00     0.006 C 
ENDROOT
BRANCH   1   2
ATOM      2  C   UNL     1     183.595 187.996 169.206  1.00  0.00     0.053 C 
BRANCH   2   3
ATOM      3  C   UNL     1     182.699 187.738 170.376  1.00  0.00     0.041 C 
ATOM      4  O   UNL     1     183.001 186.858 171.224  1.00  0.00    -0.550 OA
ATOM      5  O   UNL     1     181.505 188.437 170.503  1.00  0.00    -0.550 OA
ENDBRANCH   2   3
ENDBRANCH   1   2
BRANCH   1   6
ATOM      6  C   UNL     1     186.149 188.061 169.205  1.00  0.00     0.000 C 
BRANCH   6   7
ATOM      7  C   UNL     1     187.153 187.827 170.343  1.00  0.00    -0.003 C 
ATOM      8  C   UNL     1     186.808 186.565 171.130  1.00  0.00     0.004 C 
ENDBRANCH   6   7
ENDBRANCH   1   6
TORSDOF 4
ENDMDL
MODEL 3
REMARK VINA RESULT:    -3.056     10.233     11.104
REMARK INTER + INTRA:          -3.904
REMARK INTER:                  -3.656
REMARK INTRA:                  -0.248
REMARK UNBOUND:                -0.133
REMARK SMILES CCCCCC(=O)[O-]
REMARK SMILES IDX 4 1 5 2 6 3 7 4 8 5 3 6 2 7 1 8
REMARK H PARENT
REMARK Flexibility Score: inf
ROOT
ATOM      1  C   UNL     1     185.350 187.630 169.240  1.00  0.00     0.006 C 
ENDROOT
BRANCH   1   2
ATOM      2  C   UNL     1     186.110 187.428 170.557  1.00  0.00     0.053 C 
BRANCH   2   3
ATOM      3  C   UNL     1     187.411 188.165 170.528  1.00  0.00     0.041 C 
ATOM      4  O   UNL     1     188.493 187.549 170.716  1.00  0.00    -0.550 OA
ATOM      5  O   UNL     1     187.425 189.542 170.342  1.00  0.00    -0.550 OA
ENDBRANCH   2   3
ENDBRANCH   1   2
BRANCH   1   6
ATOM      6  C   UNL     1     185.900 186.760 168.100  1.00  0.00     0.000 C 
BRANCH   6   7
ATOM      7  C   UNL     1     186.133 185.303 168.527  1.00  0.00    -0.003 C 
ATOM      8  C   UNL     1     187.581 184.885 168.285  1.00  0.00     0.004 C 
ENDBRANCH   6   7
ENDBRANCH   1   6
TORSDOF 4
ENDMDL
MODEL 4
REMARK VINA RESULT:    -3.042     10.238     10.966
REMARK INTER + INTRA:          -3.887
REMARK INTER:                  -3.750
REMARK INTRA:                  -0.137
REMARK UNBOUND:                -0.133
REMARK SMILES CCCCCC(=O)[O-]
REMARK SMILES IDX 4 1 5 2 6 3 7 4 8 5 3 6 2 7 1 8
REMARK H PARENT
REMARK Flexibility Score: inf
ROOT
ATOM      1  C   UNL     1     186.337 188.094 169.467  1.00  0.00     0.006 C 
ENDROOT
BRANCH   1   2
ATOM      2  C   UNL     1     185.293 186.970 169.475  1.00  0.00     0.053 C 
BRANCH   2   3
ATOM      3  C   UNL     1     183.958 187.499 169.893  1.00  0.00     0.041 C 
ATOM      4  O   UNL     1     183.350 188.330 169.168  1.00  0.00    -0.550 OA
ATOM      5  O   UNL     1     183.407 187.113 171.109  1.00  0.00    -0.550 OA
ENDBRANCH   2   3
ENDBRANCH   1   2
BRANCH   1   6
ATOM      6  C   UNL     1     187.499 187.830 170.437  1.00  0.00     0.000 C 
BRANCH   6   7
ATOM      7  C   UNL     1     187.312 186.538 171.246  1.00  0.00    -0.003 C 
ATOM      8  C   UNL     1     188.587 186.176 172.004  1.00  0.00     0.004 C 
ENDBRANCH   6   7
ENDBRANCH   1   6
TORSDOF 4
ENDMDL
MODEL 5
REMARK VINA RESULT:    -3.007     10.641     11.538
REMARK INTER + INTRA:          -3.844
REMARK INTER:                  -3.582
REMARK INTRA:                  -0.262
REMARK UNBOUND:                -0.133
REMARK SMILES CCCCCC(=O)[O-]
REMARK SMILES IDX 4 1 5 2 6 3 7 4 8 5 3 6 2 7 1 8
REMARK H PARENT
REMARK Flexibility Score: inf
ROOT
ATOM      1  C   UNL     1     185.846 187.347 170.494  1.00  0.00     0.006 C 
ENDROOT
BRANCH   1   2
ATOM      2  C   UNL     1     185.036 187.090 169.217  1.00  0.00     0.053 C 
BRANCH   2   3
ATOM      3  C   UNL     1     185.830 186.269 168.251  1.00  0.00     0.041 C 
ATOM      4  O   UNL     1     186.047 186.694 167.085  1.00  0.00    -0.550 OA
ATOM      5  O   UNL     1     186.287 185.011 168.621  1.00  0.00    -0.550 OA
ENDBRANCH   2   3
ENDBRANCH   1   2
BRANCH   1   6
ATOM      6  C   UNL     1     187.095 188.205 170.241  1.00  0.00     0.000 C 
BRANCH   6   7
ATOM      7  C   UNL     1     188.367 187.592 170.848  1.00  0.00    -0.003 C 
ATOM      8  C   UNL     1     188.040 186.342 171.661  1.00  0.00     0.004 C 
ENDBRANCH   6   7
ENDBRANCH   1   6
TORSDOF 4
ENDMDL
MODEL 6
REMARK VINA RESULT:    -3.007      2.647      4.226
REMARK INTER + INTRA:          -3.843
REMARK INTER:                  -3.752
REMARK INTRA:                  -0.091
REMARK UNBOUND:                -0.133
REMARK SMILES CCCCCC(=O)[O-]
REMARK SMILES IDX 4 1 5 2 6 3 7 4 8 5 3 6 2 7 1 8
REMARK H PARENT
REMARK Flexibility Score: inf
ROOT
ATOM      1  C   UNL     1     189.416 196.882 173.667  1.00  0.00     0.006 C 
ENDROOT
BRANCH   1   2
ATOM      2  C   UNL     1     188.947 196.579 172.238  1.00  0.00     0.053 C 
BRANCH   2   3
ATOM      3  C   UNL     1     189.897 197.163 171.241  1.00  0.00     0.041 C 
ATOM      4  O   UNL     1     189.733 196.953 170.010  1.00  0.00    -0.550 OA
ATOM      5  O   UNL     1     190.993 197.898 171.674  1.00  0.00    -0.550 OA
ENDBRANCH   2   3
ENDBRANCH   1   2
BRANCH   1   6
ATOM      6  C   UNL     1     188.260 197.273 174.599  1.00  0.00     0.000 C 
BRANCH   6   7
ATOM      7  C   UNL     1     188.720 197.506 176.046  1.00  0.00    -0.003 C 
ATOM      8  C   UNL     1     189.946 196.660 176.376  1.00  0.00     0.004 C 
ENDBRANCH   6   7
ENDBRANCH   1   6
TORSDOF 4
ENDMDL
MODEL 7
REMARK VINA RESULT:    -2.995      9.762     10.686
REMARK INTER + INTRA:          -3.829
REMARK INTER:                  -3.711
REMARK INTRA:                  -0.118
REMARK UNBOUND:                -0.133
REMARK SMILES CCCCCC(=O)[O-]
REMARK SMILES IDX 4 1 5 2 6 3 7 4 8 5 3 6 2 7 1 8
REMARK H PARENT
REMARK Flexibility Score: inf
ROOT
ATOM      1  C   UNL     1     184.845 187.264 170.348  1.00  0.00     0.006 C 
ENDROOT
BRANCH   1   2
ATOM      2  C   UNL     1     184.168 187.673 169.034  1.00  0.00     0.053 C 
BRANCH   2   3
ATOM      3  C   UNL     1     182.859 188.344 169.307  1.00  0.00     0.041 C 
ATOM      4  O   UNL     1     182.398 189.189 168.495  1.00  0.00    -0.550 OA
ATOM      5  O   UNL     1     182.172 188.073 170.484  1.00  0.00    -0.550 OA
ENDBRANCH   2   3
ENDBRANCH   1   2
BRANCH   1   6
ATOM      6  C   UNL     1     186.377 187.247 170.244  1.00  0.00     0.000 C 
BRANCH   6   7
ATOM      7  C   UNL     1     186.923 188.387 169.371  1.00  0.00    -0.003 C 
ATOM      8  C   UNL     1     187.510 189.504 170.229  1.00  0.00     0.004 C 
ENDBRANCH   6   7
ENDBRANCH   1   6
TORSDOF 4
ENDMDL
MODEL 8
REMARK VINA RESULT:    -2.973     10.760     11.437
REMARK INTER + INTRA:          -3.802
REMARK INTER:                  -3.687
REMARK INTRA:                  -0.115
REMARK UNBOUND:                -0.133
REMARK SMILES CCCCCC(=O)[O-]
REMARK SMILES IDX 4 1 5 2 6 3 7 4 8 5 3 6 2 7 1 8
REMARK H PARENT
REMARK Flexibility Score: inf
ROOT
ATOM      1  C   UNL     1     187.097 186.552 171.170  1.00  0.00     0.006 C 
ENDROOT
BRANCH   1   2
ATOM      2  C   UNL     1     186.234 187.580 170.427  1.00  0.00     0.053 C 
BRANCH   2   3
ATOM      3  C   UNL     1     185.456 186.917 169.335  1.00  0.00     0.041 C 
ATOM      4  O   UNL     1     184.415 187.459 168.879  1.00  0.00    -0.550 OA
ATOM      5  O   UNL     1     185.853 185.675 168.855  1.00  0.00    -0.550 OA
ENDBRANCH   2   3
ENDBRANCH   1   2
BRANCH   1   6
ATOM      6  C   UNL     1     188.601 186.840 171.043  1.00  0.00     0.000 C 
BRANCH   6   7
ATOM      7  C   UNL     1     189.407 186.313 172.240  1.00  0.00    -0.003 C 
ATOM      8  C   UNL     1     188.546 185.429 173.136  1.00  0.00     0.004 C 
ENDBRANCH   6   7
ENDBRANCH   1   6
TORSDOF 4
ENDMDL
MODEL 9
REMARK VINA RESULT:    -2.900      9.849     10.690
REMARK INTER + INTRA:          -3.711
REMARK INTER:                  -3.490
REMARK INTRA:                  -0.221
REMARK UNBOUND:                -0.133
REMARK SMILES CCCCCC(=O)[O-]
REMARK SMILES IDX 4 1 5 2 6 3 7 4 8 5 3 6 2 7 1 8
REMARK H PARENT
REMARK Flexibility Score: inf
ROOT
ATOM      1  C   UNL     1     186.884 186.538 170.365  1.00  0.00     0.006 C 
ENDROOT
BRANCH   1   2
ATOM      2  C   UNL     1     185.490 187.175 170.434  1.00  0.00     0.053 C 
BRANCH   2   3
ATOM      3  C   UNL     1     184.904 187.300 169.064  1.00  0.00     0.041 C 
ATOM      4  O   UNL     1     185.533 186.866 168.063  1.00  0.00    -0.550 OA
ATOM      5  O   UNL     1     183.684 187.942 168.886  1.00  0.00    -0.550 OA
ENDBRANCH   2   3
ENDBRANCH   1   2
BRANCH   1   6
ATOM      6  C   UNL     1     187.983 187.456 170.919  1.00  0.00     0.000 C 
BRANCH   6   7
ATOM      7  C   UNL     1     188.016 188.826 170.223  1.00  0.00    -0.003 C 
ATOM      8  C   UNL     1     188.627 188.719 168.829  1.00  0.00     0.004 C 
ENDBRANCH   6   7
ENDBRANCH   1   6
TORSDOF 4
ENDMDL
