MODEL 1
REMARK VINA RESULT:    -4.197      0.000      0.000
REMARK INTER + INTRA:          -9.885
REMARK INTER:                  -7.632
REMARK INTRA:                  -2.253
REMARK UNBOUND:                -2.253
REMARK SMILES CCCCCC=CCC=CCCCCCCCC(=O)[O-]
REMARK SMILES IDX 11 1 12 2 13 3 14 4 15 5 16 6 17 7 18 8 19 9 20 10 10 11
REMARK SMILES IDX 9 12 8 13 7 14 6 15 5 16 4 17 3 18 2 19 1 20
REMARK H PARENT
REMARK Flexibility Score: inf
ROOT
ATOM      1  C   UNL     1      12.152  35.772  21.956  1.00  0.00     0.027 C 
ENDROOT
BRANCH   1   2
ATOM      2  C   UNL     1      10.649  35.921  22.250  1.00  0.00     0.004 C 
BRANCH   2   3
ATOM      3  C   UNL     1       9.835  36.440  21.050  1.00  0.00     0.000 C 
BRANCH   3   4
ATOM      4  C   UNL     1       8.741  35.459  20.595  1.00  0.00     0.000 C 
BRANCH   4   5
ATOM      5  C   UNL     1       9.320  34.158  20.017  1.00  0.00     0.000 C 
BRANCH   5   6
ATOM      6  C   UNL     1       8.264  33.046  19.897  1.00  0.00     0.006 C 
BRANCH   6   7
ATOM      7  C   UNL     1       6.833  33.594  19.985  1.00  0.00     0.053 C 
BRANCH   7   8
ATOM      8  C   UNL     1       5.851  32.525  20.353  1.00  0.00     0.041 C 
ATOM      9  O   UNL     1       5.175  32.624  21.411  1.00  0.00    -0.550 OA
ATOM     10  O   UNL     1       5.652  31.441  19.508  1.00  0.00    -0.550 OA
ENDBRANCH   7   8
ENDBRANCH   6   7
ENDBRANCH   5   6
ENDBRANCH   4   5
ENDBRANCH   3   4
ENDBRANCH   2   3
ENDBRANCH   1   2
BRANCH   1  11
ATOM     11  C   UNL     1      12.478  35.975  20.494  1.00  0.00    -0.031 C 
ATOM     12  C   UNL     1      13.606  35.519  19.926  1.00  0.00    -0.027 C 
BRANCH  12  13
ATOM     13  C   UNL     1      14.656  34.748  20.685  1.00  0.00     0.054 C 
BRANCH  13  14
ATOM     14  C   UNL     1      15.206  33.616  19.856  1.00  0.00    -0.027 C 
ATOM     15  C   UNL     1      15.454  32.378  20.326  1.00  0.00    -0.031 C 
BRANCH  15  16
ATOM     16  C   UNL     1      15.273  31.954  21.762  1.00  0.00     0.027 C 
BRANCH  16  17
ATOM     17  C   UNL     1      13.974  31.158  21.992  1.00  0.00     0.004 C 
BRANCH  17  18
ATOM     18  C   UNL     1      12.698  32.021  21.959  1.00  0.00     0.000 C 
BRANCH  18  19
ATOM     19  C   UNL     1      11.633  31.478  20.996  1.00  0.00    -0.003 C 
ATOM     20  C   UNL     1      12.027  31.727  19.543  1.00  0.00     0.004 C 
ENDBRANCH  18  19
ENDBRANCH  17  18
ENDBRANCH  16  17
ENDBRANCH  15  16
ENDBRANCH  13  14
ENDBRANCH  12  13
ENDBRANCH   1  11
TORSDOF 14
ENDMDL
MODEL 2
REMARK VINA RESULT:    -4.130      1.438      2.561
REMARK INTER + INTRA:          -9.762
REMARK INTER:                  -8.686
REMARK INTRA:                  -1.076
REMARK UNBOUND:                -2.253
REMARK SMILES CCCCCC=CCC=CCCCCCCCC(=O)[O-]
REMARK SMILES IDX 11 1 12 2 13 3 14 4 15 5 16 6 17 7 18 8 19 9 20 10 10 11
REMARK SMILES IDX 9 12 8 13 7 14 6 15 5 16 4 17 3 18 2 19 1 20
REMARK H PARENT
REMARK Flexibility Score: inf
ROOT
ATOM      1  C   UNL     1      11.495  35.292  21.885  1.00  0.00     0.027 C 
ENDROOT
BRANCH   1   2
ATOM      2  C   UNL     1      10.101  35.940  21.949  1.00  0.00     0.004 C 
BRANCH   2   3
ATOM      3  C   UNL     1       9.327  35.864  20.619  1.00  0.00     0.000 C 
BRANCH   3   4
ATOM      4  C   UNL     1       9.108  34.423  20.130  1.00  0.00     0.000 C 
BRANCH   4   5
ATOM      5  C   UNL     1       7.763  34.244  19.409  1.00  0.00     0.000 C 
BRANCH   5   6
ATOM      6  C   UNL     1       6.676  33.657  20.326  1.00  0.00     0.006 C 
BRANCH   6   7
ATOM      7  C   UNL     1       6.114  32.336  19.785  1.00  0.00     0.053 C 
BRANCH   7   8
ATOM      8  C   UNL     1       4.960  31.846  20.605  1.00  0.00     0.041 C 
ATOM      9  O   UNL     1       4.694  32.388  21.710  1.00  0.00    -0.550 OA
ATOM     10  O   UNL     1       4.155  30.818  20.131  1.00  0.00    -0.550 OA
ENDBRANCH   7   8
ENDBRANCH   6   7
ENDBRANCH   5   6
ENDBRANCH   4   5
ENDBRANCH   3   4
ENDBRANCH   2   3
ENDBRANCH   1   2
BRANCH   1  11
ATOM     11  C   UNL     1      12.535  36.213  21.290  1.00  0.00    -0.031 C 
ATOM     12  C   UNL     1      13.491  35.790  20.447  1.00  0.00    -0.027 C 
BRANCH  12  13
ATOM     13  C   UNL     1      13.617  34.356  19.998  1.00  0.00     0.054 C 
BRANCH  13  14
ATOM     14  C   UNL     1      14.982  33.803  20.320  1.00  0.00    -0.027 C 
ATOM     15  C   UNL     1      15.204  32.721  21.091  1.00  0.00    -0.031 C 
BRANCH  15  16
ATOM     16  C   UNL     1      14.126  31.932  21.792  1.00  0.00     0.027 C 
BRANCH  16  17
ATOM     17  C   UNL     1      14.666  30.671  22.492  1.00  0.00     0.004 C 
BRANCH  17  18
ATOM     18  C   UNL     1      16.190  30.685  22.717  1.00  0.00     0.000 C 
BRANCH  18  19
ATOM     19  C   UNL     1      16.577  30.550  24.197  1.00  0.00    -0.003 C 
ATOM     20  C   UNL     1      17.878  31.290  24.494  1.00  0.00     0.004 C 
ENDBRANCH  18  19
ENDBRANCH  17  18
ENDBRANCH  16  17
ENDBRANCH  15  16
ENDBRANCH  13  14
ENDBRANCH  12  13
ENDBRANCH   1  11
TORSDOF 14
ENDMDL
MODEL 3
REMARK VINA RESULT:    -4.126      4.504      7.927
REMARK INTER + INTRA:          -9.757
REMARK INTER:                  -7.779
REMARK INTRA:                  -1.978
REMARK UNBOUND:                -2.253
REMARK SMILES CCCCCC=CCC=CCCCCCCCC(=O)[O-]
REMARK SMILES IDX 11 1 12 2 13 3 14 4 15 5 16 6 17 7 18 8 19 9 20 10 10 11
REMARK SMILES IDX 9 12 8 13 7 14 6 15 5 16 4 17 3 18 2 19 1 20
REMARK H PARENT
REMARK Flexibility Score: inf
ROOT
ATOM      1  C   UNL     1      13.605  34.215  20.677  1.00  0.00     0.027 C 
ENDROOT
BRANCH   1   2
ATOM      2  C   UNL     1      15.090  33.916  20.408  1.00  0.00     0.004 C 
BRANCH   2   3
ATOM      3  C   UNL     1      15.315  32.771  19.402  1.00  0.00     0.000 C 
BRANCH   3   4
ATOM      4  C   UNL     1      16.136  31.609  19.986  1.00  0.00     0.000 C 
BRANCH   4   5
ATOM      5  C   UNL     1      16.354  31.745  21.501  1.00  0.00     0.000 C 
BRANCH   5   6
ATOM      6  C   UNL     1      17.841  31.879  21.872  1.00  0.00     0.006 C 
BRANCH   6   7
ATOM      7  C   UNL     1      18.288  30.799  22.867  1.00  0.00     0.053 C 
BRANCH   7   8
ATOM      8  C   UNL     1      17.919  31.152  24.275  1.00  0.00     0.041 C 
ATOM      9  O   UNL     1      16.870  30.684  24.791  1.00  0.00    -0.550 OA
ATOM     10  O   UNL     1      18.753  31.966  25.030  1.00  0.00    -0.550 OA
ENDBRANCH   7   8
ENDBRANCH   6   7
ENDBRANCH   5   6
ENDBRANCH   4   5
ENDBRANCH   3   4
ENDBRANCH   2   3
ENDBRANCH   1   2
BRANCH   1  11
ATOM     11  C   UNL     1      12.856  33.009  21.196  1.00  0.00    -0.031 C 
ATOM     12  C   UNL     1      11.735  32.541  20.624  1.00  0.00    -0.027 C 
BRANCH  12  13
ATOM     13  C   UNL     1      11.116  33.163  19.398  1.00  0.00     0.054 C 
BRANCH  13  14
ATOM     14  C   UNL     1       9.740  33.702  19.697  1.00  0.00    -0.027 C 
ATOM     15  C   UNL     1       9.431  35.011  19.759  1.00  0.00    -0.031 C 
BRANCH  15  16
ATOM     16  C   UNL     1      10.423  36.135  19.594  1.00  0.00     0.027 C 
BRANCH  16  17
ATOM     17  C   UNL     1      11.063  36.571  20.926  1.00  0.00     0.004 C 
BRANCH  17  18
ATOM     18  C   UNL     1      10.257  36.155  22.171  1.00  0.00     0.000 C 
BRANCH  18  19
ATOM     19  C   UNL     1      11.124  35.492  23.251  1.00  0.00    -0.003 C 
ATOM     20  C   UNL     1      11.072  36.279  24.557  1.00  0.00     0.004 C 
ENDBRANCH  18  19
ENDBRANCH  17  18
ENDBRANCH  16  17
ENDBRANCH  15  16
ENDBRANCH  13  14
ENDBRANCH  12  13
ENDBRANCH   1  11
TORSDOF 14
ENDMDL
MODEL 4
REMARK VINA RESULT:    -4.123      1.037      2.093
REMARK INTER + INTRA:          -9.751
REMARK INTER:                  -7.424
REMARK INTRA:                  -2.326
REMARK UNBOUND:                -2.253
REMARK SMILES CCCCCC=CCC=CCCCCCCCC(=O)[O-]
REMARK SMILES IDX 11 1 12 2 13 3 14 4 15 5 16 6 17 7 18 8 19 9 20 10 10 11
REMARK SMILES IDX 9 12 8 13 7 14 6 15 5 16 4 17 3 18 2 19 1 20
REMARK H PARENT
REMARK Flexibility Score: inf
ROOT
ATOM      1  C   UNL     1      12.740  35.944  21.506  1.00  0.00     0.027 C 
ENDROOT
BRANCH   1   2
ATOM      2  C   UNL     1      11.392  35.372  21.981  1.00  0.00     0.004 C 
BRANCH   2   3
ATOM      3  C   UNL     1      10.200  36.312  21.719  1.00  0.00     0.000 C 
BRANCH   3   4
ATOM      4  C   UNL     1       9.157  35.709  20.763  1.00  0.00     0.000 C 
BRANCH   4   5
ATOM      5  C   UNL     1       9.543  34.300  20.284  1.00  0.00     0.000 C 
BRANCH   5   6
ATOM      6  C   UNL     1       8.429  33.632  19.460  1.00  0.00     0.006 C 
BRANCH   6   7
ATOM      7  C   UNL     1       7.057  33.752  20.137  1.00  0.00     0.053 C 
BRANCH   7   8
ATOM      8  C   UNL     1       6.455  32.408  20.413  1.00  0.00     0.041 C 
ATOM      9  O   UNL     1       5.216  32.298  20.609  1.00  0.00    -0.550 OA
ATOM     10  O   UNL     1       7.255  31.273  20.412  1.00  0.00    -0.550 OA
ENDBRANCH   7   8
ENDBRANCH   6   7
ENDBRANCH   5   6
ENDBRANCH   4   5
ENDBRANCH   3   4
ENDBRANCH   2   3
ENDBRANCH   1   2
BRANCH   1  11
ATOM     11  C   UNL     1      12.756  36.234  20.024  1.00  0.00    -0.031 C 
ATOM     12  C   UNL     1      13.317  35.411  19.122  1.00  0.00    -0.027 C 
BRANCH  12  13
ATOM     13  C   UNL     1      13.978  34.109  19.497  1.00  0.00     0.054 C 
BRANCH  13  14
ATOM     14  C   UNL     1      12.997  32.965  19.438  1.00  0.00    -0.027 C 
ATOM     15  C   UNL     1      12.702  32.161  20.478  1.00  0.00    -0.031 C 
BRANCH  15  16
ATOM     16  C   UNL     1      13.347  32.247  21.839  1.00  0.00     0.027 C 
BRANCH  16  17
ATOM     17  C   UNL     1      14.071  30.948  22.243  1.00  0.00     0.004 C 
BRANCH  17  18
ATOM     18  C   UNL     1      15.604  31.081  22.302  1.00  0.00     0.000 C 
BRANCH  18  19
ATOM     19  C   UNL     1      16.231  31.392  20.935  1.00  0.00    -0.003 C 
ATOM     20  C   UNL     1      17.118  32.632  21.007  1.00  0.00     0.004 C 
ENDBRANCH  18  19
ENDBRANCH  17  18
ENDBRANCH  16  17
ENDBRANCH  15  16
ENDBRANCH  13  14
ENDBRANCH  12  13
ENDBRANCH   1  11
TORSDOF 14
ENDMDL
MODEL 5
REMARK VINA RESULT:    -3.905      4.226      7.220
REMARK INTER + INTRA:          -9.355
REMARK INTER:                  -7.437
REMARK INTRA:                  -1.918
REMARK UNBOUND:                -2.253
REMARK SMILES CCCCCC=CCC=CCCCCCCCC(=O)[O-]
REMARK SMILES IDX 11 1 12 2 13 3 14 4 15 5 16 6 17 7 18 8 19 9 20 10 10 11
REMARK SMILES IDX 9 12 8 13 7 14 6 15 5 16 4 17 3 18 2 19 1 20
REMARK H PARENT
REMARK Flexibility Score: inf
ROOT
ATOM      1  C   UNL     1      14.672  34.332  20.743  1.00  0.00     0.027 C 
ENDROOT
BRANCH   1   2
ATOM      2  C   UNL     1      14.734  33.195  19.708  1.00  0.00     0.004 C 
BRANCH   2   3
ATOM      3  C   UNL     1      13.675  32.099  19.934  1.00  0.00     0.000 C 
BRANCH   3   4
ATOM      4  C   UNL     1      13.330  31.892  21.418  1.00  0.00     0.000 C 
BRANCH   4   5
ATOM      5  C   UNL     1      14.032  30.665  22.020  1.00  0.00     0.000 C 
BRANCH   5   6
ATOM      6  C   UNL     1      15.372  31.021  22.686  1.00  0.00     0.006 C 
BRANCH   6   7
ATOM      7  C   UNL     1      16.574  30.640  21.810  1.00  0.00     0.053 C 
BRANCH   7   8
ATOM      8  C   UNL     1      17.719  31.588  21.995  1.00  0.00     0.041 C 
ATOM      9  O   UNL     1      17.852  32.577  21.226  1.00  0.00    -0.550 OA
ATOM     10  O   UNL     1      18.615  31.404  23.040  1.00  0.00    -0.550 OA
ENDBRANCH   7   8
ENDBRANCH   6   7
ENDBRANCH   5   6
ENDBRANCH   4   5
ENDBRANCH   3   4
ENDBRANCH   2   3
ENDBRANCH   1   2
BRANCH   1  11
ATOM     11  C   UNL     1      13.909  35.534  20.237  1.00  0.00    -0.031 C 
ATOM     12  C   UNL     1      12.711  35.900  20.723  1.00  0.00    -0.027 C 
BRANCH  12  13
ATOM     13  C   UNL     1      12.012  35.154  21.831  1.00  0.00     0.054 C 
BRANCH  13  14
ATOM     14  C   UNL     1      11.006  36.035  22.528  1.00  0.00    -0.027 C 
ATOM     15  C   UNL     1       9.937  36.594  21.928  1.00  0.00    -0.031 C 
BRANCH  15  16
ATOM     16  C   UNL     1       9.615  36.468  20.460  1.00  0.00     0.027 C 
BRANCH  16  17
ATOM     17  C   UNL     1       8.414  35.543  20.186  1.00  0.00     0.004 C 
BRANCH  17  18
ATOM     18  C   UNL     1       8.774  34.046  20.149  1.00  0.00     0.000 C 
BRANCH  18  19
ATOM     19  C   UNL     1       9.889  33.723  19.145  1.00  0.00    -0.003 C 
ATOM     20  C   UNL     1      10.211  32.232  19.143  1.00  0.00     0.004 C 
ENDBRANCH  18  19
ENDBRANCH  17  18
ENDBRANCH  16  17
ENDBRANCH  15  16
ENDBRANCH  13  14
ENDBRANCH  12  13
ENDBRANCH   1  11
TORSDOF 14
ENDMDL
MODEL 6
REMARK VINA RESULT:    -3.899      3.038      5.925
REMARK INTER + INTRA:          -9.343
REMARK INTER:                  -7.051
REMARK INTRA:                  -2.292
REMARK UNBOUND:                -2.253
REMARK SMILES CCCCCC=CCC=CCCCCCCCC(=O)[O-]
REMARK SMILES IDX 11 1 12 2 13 3 14 4 15 5 16 6 17 7 18 8 19 9 20 10 10 11
REMARK SMILES IDX 9 12 8 13 7 14 6 15 5 16 4 17 3 18 2 19 1 20
REMARK H PARENT
REMARK Flexibility Score: inf
ROOT
ATOM      1  C   UNL     1      10.128  36.461  20.854  1.00  0.00     0.027 C 
ENDROOT
BRANCH   1   2
ATOM      2  C   UNL     1      10.970  36.102  22.091  1.00  0.00     0.004 C 
BRANCH   2   3
ATOM      3  C   UNL     1      12.455  35.846  21.771  1.00  0.00     0.000 C 
BRANCH   3   4
ATOM      4  C   UNL     1      12.827  36.196  20.320  1.00  0.00     0.000 C 
BRANCH   4   5
ATOM      5  C   UNL     1      13.763  35.155  19.686  1.00  0.00     0.000 C 
BRANCH   5   6
ATOM      6  C   UNL     1      14.482  34.291  20.736  1.00  0.00     0.006 C 
BRANCH   6   7
ATOM      7  C   UNL     1      14.566  32.818  20.314  1.00  0.00     0.053 C 
BRANCH   7   8
ATOM      8  C   UNL     1      14.251  31.895  21.451  1.00  0.00     0.041 C 
ATOM      9  O   UNL     1      13.221  32.082  22.151  1.00  0.00    -0.550 OA
ATOM     10  O   UNL     1      15.072  30.806  21.713  1.00  0.00    -0.550 OA
ENDBRANCH   7   8
ENDBRANCH   6   7
ENDBRANCH   5   6
ENDBRANCH   4   5
ENDBRANCH   3   4
ENDBRANCH   2   3
ENDBRANCH   1   2
BRANCH   1  11
ATOM     11  C   UNL     1       8.880  35.618  20.739  1.00  0.00    -0.031 C 
ATOM     12  C   UNL     1       8.802  34.527  19.959  1.00  0.00    -0.027 C 
BRANCH  12  13
ATOM     13  C   UNL     1       9.957  34.026  19.129  1.00  0.00     0.054 C 
BRANCH  13  14
ATOM     14  C   UNL     1      10.754  32.989  19.876  1.00  0.00    -0.027 C 
ATOM     15  C   UNL     1      10.443  31.679  19.928  1.00  0.00    -0.031 C 
BRANCH  15  16
ATOM     16  C   UNL     1       9.222  31.063  19.293  1.00  0.00     0.027 C 
BRANCH  16  17
ATOM     17  C   UNL     1       8.085  30.809  20.302  1.00  0.00     0.004 C 
BRANCH  17  18
ATOM     18  C   UNL     1       6.683  31.152  19.763  1.00  0.00     0.000 C 
BRANCH  18  19
ATOM     19  C   UNL     1       6.098  32.427  20.387  1.00  0.00    -0.003 C 
ATOM     20  C   UNL     1       4.877  32.109  21.244  1.00  0.00     0.004 C 
ENDBRANCH  18  19
ENDBRANCH  17  18
ENDBRANCH  16  17
ENDBRANCH  15  16
ENDBRANCH  13  14
ENDBRANCH  12  13
ENDBRANCH   1  11
TORSDOF 14
ENDMDL
MODEL 7
REMARK VINA RESULT:    -3.856      2.562      6.184
REMARK INTER + INTRA:          -9.266
REMARK INTER:                  -7.564
REMARK INTRA:                  -1.702
REMARK UNBOUND:                -2.253
REMARK SMILES CCCCCC=CCC=CCCCCCCCC(=O)[O-]
REMARK SMILES IDX 11 1 12 2 13 3 14 4 15 5 16 6 17 7 18 8 19 9 20 10 10 11
REMARK SMILES IDX 9 12 8 13 7 14 6 15 5 16 4 17 3 18 2 19 1 20
REMARK H PARENT
REMARK Flexibility Score: inf
ROOT
ATOM      1  C   UNL     1      11.646  35.020  21.745  1.00  0.00     0.027 C 
ENDROOT
BRANCH   1   2
ATOM      2  C   UNL     1      13.015  35.674  21.489  1.00  0.00     0.004 C 
BRANCH   2   3
ATOM      3  C   UNL     1      13.352  35.828  19.994  1.00  0.00     0.000 C 
BRANCH   3   4
ATOM      4  C   UNL     1      14.071  34.600  19.409  1.00  0.00     0.000 C 
BRANCH   4   5
ATOM      5  C   UNL     1      15.079  33.985  20.392  1.00  0.00     0.000 C 
BRANCH   5   6
ATOM      6  C   UNL     1      14.951  32.455  20.486  1.00  0.00     0.006 C 
BRANCH   6   7
ATOM      7  C   UNL     1      14.506  31.997  21.882  1.00  0.00     0.053 C 
BRANCH   7   8
ATOM      8  C   UNL     1      13.204  31.257  21.834  1.00  0.00     0.041 C 
ATOM      9  O   UNL     1      12.290  31.634  21.054  1.00  0.00    -0.550 OA
ATOM     10  O   UNL     1      13.015  30.128  22.621  1.00  0.00    -0.550 OA
ENDBRANCH   7   8
ENDBRANCH   6   7
ENDBRANCH   5   6
ENDBRANCH   4   5
ENDBRANCH   3   4
ENDBRANCH   2   3
ENDBRANCH   1   2
BRANCH   1  11
ATOM     11  C   UNL     1      10.618  36.008  22.248  1.00  0.00    -0.031 C 
ATOM     12  C   UNL     1       9.748  36.634  21.438  1.00  0.00    -0.027 C 
BRANCH  12  13
ATOM     13  C   UNL     1       9.699  36.406  19.949  1.00  0.00     0.054 C 
BRANCH  13  14
ATOM     14  C   UNL     1       8.305  36.053  19.498  1.00  0.00    -0.027 C 
ATOM     15  C   UNL     1       7.786  34.810  19.531  1.00  0.00    -0.031 C 
BRANCH  15  16
ATOM     16  C   UNL     1       8.537  33.578  19.970  1.00  0.00     0.027 C 
BRANCH  16  17
ATOM     17  C   UNL     1       7.699  32.291  19.852  1.00  0.00     0.004 C 
BRANCH  17  18
ATOM     18  C   UNL     1       6.178  32.535  19.835  1.00  0.00     0.000 C 
BRANCH  18  19
ATOM     19  C   UNL     1       5.424  31.682  20.864  1.00  0.00    -0.003 C 
ATOM     20  C   UNL     1       6.036  30.289  20.978  1.00  0.00     0.004 C 
ENDBRANCH  18  19
ENDBRANCH  17  18
ENDBRANCH  16  17
ENDBRANCH  15  16
ENDBRANCH  13  14
ENDBRANCH  12  13
ENDBRANCH   1  11
TORSDOF 14
ENDMDL
MODEL 8
REMARK VINA RESULT:    -3.791      3.769      6.557
REMARK INTER + INTRA:          -9.146
REMARK INTER:                  -6.672
REMARK INTRA:                  -2.474
REMARK UNBOUND:                -2.253
REMARK SMILES CCCCCC=CCC=CCCCCCCCC(=O)[O-]
REMARK SMILES IDX 11 1 12 2 13 3 14 4 15 5 16 6 17 7 18 8 19 9 20 10 10 11
REMARK SMILES IDX 9 12 8 13 7 14 6 15 5 16 4 17 3 18 2 19 1 20
REMARK H PARENT
REMARK Flexibility Score: inf
ROOT
ATOM      1  C   UNL     1      12.219  35.173  21.412  1.00  0.00     0.027 C 
ENDROOT
BRANCH   1   2
ATOM      2  C   UNL     1      13.156  36.184  20.727  1.00  0.00     0.004 C 
BRANCH   2   3
ATOM      3  C   UNL     1      13.678  35.709  19.358  1.00  0.00     0.000 C 
BRANCH   3   4
ATOM      4  C   UNL     1      13.529  34.193  19.151  1.00  0.00     0.000 C 
BRANCH   4   5
ATOM      5  C   UNL     1      14.869  33.449  19.266  1.00  0.00     0.000 C 
BRANCH   5   6
ATOM      6  C   UNL     1      15.352  33.328  20.721  1.00  0.00     0.006 C 
BRANCH   6   7
ATOM      7  C   UNL     1      16.766  32.738  20.815  1.00  0.00     0.053 C 
BRANCH   7   8
ATOM      8  C   UNL     1      16.800  31.510  21.673  1.00  0.00     0.041 C 
ATOM      9  O   UNL     1      17.694  30.641  21.499  1.00  0.00    -0.550 OA
ATOM     10  O   UNL     1      15.869  31.346  22.691  1.00  0.00    -0.550 OA
ENDBRANCH   7   8
ENDBRANCH   6   7
ENDBRANCH   5   6
ENDBRANCH   4   5
ENDBRANCH   3   4
ENDBRANCH   2   3
ENDBRANCH   1   2
BRANCH   1  11
ATOM     11  C   UNL     1      11.223  35.839  22.333  1.00  0.00    -0.031 C 
ATOM     12  C   UNL     1      10.039  36.314  21.911  1.00  0.00    -0.027 C 
BRANCH  12  13
ATOM     13  C   UNL     1       9.579  36.221  20.479  1.00  0.00     0.054 C 
BRANCH  13  14
ATOM     14  C   UNL     1       8.413  35.276  20.343  1.00  0.00    -0.027 C 
ATOM     15  C   UNL     1       8.485  34.052  19.783  1.00  0.00    -0.031 C 
BRANCH  15  16
ATOM     16  C   UNL     1       9.727  33.466  19.160  1.00  0.00     0.027 C 
BRANCH  16  17
ATOM     17  C   UNL     1      10.398  32.401  20.048  1.00  0.00     0.004 C 
BRANCH  17  18
ATOM     18  C   UNL     1      11.211  31.355  19.262  1.00  0.00     0.000 C 
BRANCH  18  19
ATOM     19  C   UNL     1      12.394  30.792  20.063  1.00  0.00    -0.003 C 
ATOM     20  C   UNL     1      12.388  31.317  21.495  1.00  0.00     0.004 C 
ENDBRANCH  18  19
ENDBRANCH  17  18
ENDBRANCH  16  17
ENDBRANCH  15  16
ENDBRANCH  13  14
ENDBRANCH  12  13
ENDBRANCH   1  11
TORSDOF 14
ENDMDL
MODEL 9
REMARK VINA RESULT:    -1.773      1.163      2.380
REMARK INTER + INTRA:          -5.477
REMARK INTER:                  -3.466
REMARK INTRA:                  -2.011
REMARK UNBOUND:                -2.253
REMARK SMILES CCCCCC=CCC=CCCCCCCCC(=O)[O-]
REMARK SMILES IDX 11 1 12 2 13 3 14 4 15 5 16 6 17 7 18 8 19 9 20 10 10 11
REMARK SMILES IDX 9 12 8 13 7 14 6 15 5 16 4 17 3 18 2 19 1 20
REMARK H PARENT
REMARK Flexibility Score: inf
ROOT
ATOM      1  C   UNL     1      10.169  36.527  21.912  1.00  0.00     0.027 C 
ENDROOT
BRANCH   1   2
ATOM      2  C   UNL     1       9.400  35.557  20.998  1.00  0.00     0.004 C 
BRANCH   2   3
ATOM      3  C   UNL     1       8.901  36.207  19.693  1.00  0.00     0.000 C 
BRANCH   3   4
ATOM      4  C   UNL     1       7.689  35.481  19.085  1.00  0.00     0.000 C 
BRANCH   4   5
ATOM      5  C   UNL     1       7.764  33.957  19.266  1.00  0.00     0.000 C 
BRANCH   5   6
ATOM      6  C   UNL     1       6.684  33.423  20.222  1.00  0.00     0.006 C 
BRANCH   6   7
ATOM      7  C   UNL     1       6.047  32.125  19.709  1.00  0.00     0.053 C 
BRANCH   7   8
ATOM      8  C   UNL     1       4.847  31.737  20.519  1.00  0.00     0.041 C 
ATOM      9  O   UNL     1       4.654  32.254  21.650  1.00  0.00    -0.550 OA
ATOM     10  O   UNL     1       3.923  30.835  20.006  1.00  0.00    -0.550 OA
ENDBRANCH   7   8
ENDBRANCH   6   7
ENDBRANCH   5   6
ENDBRANCH   4   5
ENDBRANCH   3   4
ENDBRANCH   2   3
ENDBRANCH   1   2
BRANCH   1  11
ATOM     11  C   UNL     1      11.430  35.915  22.476  1.00  0.00    -0.031 C 
ATOM     12  C   UNL     1      12.562  35.785  21.764  1.00  0.00    -0.027 C 
BRANCH  12  13
ATOM     13  C   UNL     1      12.693  36.247  20.335  1.00  0.00     0.054 C 
BRANCH  13  14
ATOM     14  C   UNL     1      13.620  35.351  19.556  1.00  0.00    -0.027 C 
ATOM     15  C   UNL     1      13.233  34.244  18.893  1.00  0.00    -0.031 C 
BRANCH  15  16
ATOM     16  C   UNL     1      11.824  33.705  18.875  1.00  0.00     0.027 C 
BRANCH  16  17
ATOM     17  C   UNL     1      11.483  32.878  20.129  1.00  0.00     0.004 C 
BRANCH  17  18
ATOM     18  C   UNL     1      12.498  31.760  20.435  1.00  0.00     0.000 C 
BRANCH  18  19
ATOM     19  C   UNL     1      13.070  31.844  21.857  1.00  0.00    -0.003 C 
ATOM     20  C   UNL     1      14.569  32.127  21.830  1.00  0.00     0.004 C 
ENDBRANCH  18  19
ENDBRANCH  17  18
ENDBRANCH  16  17
ENDBRANCH  15  16
ENDBRANCH  13  14
ENDBRANCH  12  13
ENDBRANCH   1  11
TORSDOF 14
ENDMDL
