MODEL 1
REMARK VINA RESULT:    -4.987      0.000      0.000
REMARK INTER + INTRA:          -5.855
REMARK INTER:                  -5.570
REMARK INTRA:                  -0.285
REMARK UNBOUND:                -0.285
REMARK SMILES CC(=O)c1ccc(O)cc1O
REMARK SMILES IDX 4 1 10 2 9 3 7 4 6 5 5 6 2 7 1 8 3 9 11 10 8 12
REMARK H PARENT 11 11 8 13
REMARK Flexibility Score: inf
ROOT
ATOM      1  C   UNL     1      72.614  34.157  55.342  1.00  0.00     0.059 A 
ATOM      2  C   UNL     1      72.846  33.313  54.230  1.00  0.00     0.130 A 
ATOM      3  C   UNL     1      73.567  33.790  53.123  1.00  0.00     0.093 A 
ATOM      4  C   UNL     1      74.064  35.094  53.108  1.00  0.00     0.119 A 
ATOM      5  C   UNL     1      73.843  35.933  54.204  1.00  0.00     0.047 A 
ATOM      6  C   UNL     1      73.125  35.471  55.309  1.00  0.00     0.019 A 
ENDROOT
BRANCH   1   7
ATOM      7  C   UNL     1      71.843  33.681  56.526  1.00  0.00     0.163 C 
ATOM      8  C   UNL     1      70.500  34.250  56.875  1.00  0.00     0.093 C 
ATOM      9  O   UNL     1      72.302  32.756  57.251  1.00  0.00    -0.294 OA
ENDBRANCH   1   7
BRANCH   2  10
ATOM     10  O   UNL     1      72.375  32.000  54.222  1.00  0.00    -0.507 OA
ATOM     11  H   UNL     1      71.987  31.568  55.053  1.00  0.00     0.293 HD
ENDBRANCH   2  10
BRANCH   4  12
ATOM     12  O   UNL     1      74.778  35.546  52.000  1.00  0.00    -0.508 OA
ATOM     13  H   UNL     1      75.773  35.727  52.049  1.00  0.00     0.293 HD
ENDBRANCH   4  12
TORSDOF 3
ENDMDL
MODEL 2
REMARK VINA RESULT:    -4.736     16.592     17.608
REMARK INTER + INTRA:          -5.575
REMARK INTER:                  -5.277
REMARK INTRA:                  -0.298
REMARK UNBOUND:                -0.285
REMARK SMILES CC(=O)c1ccc(O)cc1O
REMARK SMILES IDX 4 1 10 2 9 3 7 4 6 5 5 6 2 7 1 8 3 9 11 10 8 12
REMARK H PARENT 11 11 8 13
REMARK Flexibility Score: inf
ROOT
ATOM      1  C   UNL     1      85.827  32.127  65.835  1.00  0.00     0.059 A 
ATOM      2  C   UNL     1      85.595  32.130  67.230  1.00  0.00     0.130 A 
ATOM      3  C   UNL     1      84.309  31.871  67.730  1.00  0.00     0.093 A 
ATOM      4  C   UNL     1      83.248  31.607  66.861  1.00  0.00     0.119 A 
ATOM      5  C   UNL     1      83.469  31.600  65.481  1.00  0.00     0.047 A 
ATOM      6  C   UNL     1      84.744  31.858  64.972  1.00  0.00     0.019 A 
ENDROOT
BRANCH   1   7
ATOM      7  C   UNL     1      87.180  32.408  65.275  1.00  0.00     0.163 C 
ATOM      8  C   UNL     1      87.893  31.421  64.400  1.00  0.00     0.093 C 
ATOM      9  O   UNL     1      87.746  33.511  65.508  1.00  0.00    -0.294 OA
ENDBRANCH   1   7
BRANCH   2  10
ATOM     10  O   UNL     1      86.637  32.375  68.125  1.00  0.00    -0.507 OA
ATOM     11  H   UNL     1      86.558  33.073  68.857  1.00  0.00     0.293 HD
ENDBRANCH   2  10
BRANCH   4  12
ATOM     12  O   UNL     1      81.980  31.353  67.379  1.00  0.00    -0.508 OA
ATOM     13  H   UNL     1      81.759  30.472  67.828  1.00  0.00     0.293 HD
ENDBRANCH   4  12
TORSDOF 3
ENDMDL
MODEL 3
REMARK VINA RESULT:    -4.411     16.121     17.077
REMARK INTER + INTRA:          -5.212
REMARK INTER:                  -4.910
REMARK INTRA:                  -0.301
REMARK UNBOUND:                -0.285
REMARK SMILES CC(=O)c1ccc(O)cc1O
REMARK SMILES IDX 4 1 10 2 9 3 7 4 6 5 5 6 2 7 1 8 3 9 11 10 8 12
REMARK H PARENT 11 11 8 13
REMARK Flexibility Score: inf
ROOT
ATOM      1  C   UNL     1      85.542  32.331  65.973  1.00  0.00     0.059 A 
ATOM      2  C   UNL     1      84.506  32.007  65.065  1.00  0.00     0.130 A 
ATOM      3  C   UNL     1      83.251  31.601  65.545  1.00  0.00     0.093 A 
ATOM      4  C   UNL     1      83.009  31.516  66.917  1.00  0.00     0.119 A 
ATOM      5  C   UNL     1      84.025  31.838  67.821  1.00  0.00     0.047 A 
ATOM      6  C   UNL     1      85.279  32.240  67.356  1.00  0.00     0.019 A 
ENDROOT
BRANCH   1   7
ATOM      7  C   UNL     1      86.888  32.755  65.492  1.00  0.00     0.163 C 
ATOM      8  C   UNL     1      88.125  31.968  65.812  1.00  0.00     0.093 C 
ATOM      9  O   UNL     1      87.009  33.783  64.772  1.00  0.00    -0.294 OA
ENDBRANCH   1   7
BRANCH   2  10
ATOM     10  O   UNL     1      84.713  32.097  63.688  1.00  0.00    -0.507 OA
ATOM     11  H   UNL     1      85.466  32.652  63.297  1.00  0.00     0.293 HD
ENDBRANCH   2  10
BRANCH   4  12
ATOM     12  O   UNL     1      81.755  31.113  67.371  1.00  0.00    -0.508 OA
ATOM     13  H   UNL     1      81.134  30.561  66.792  1.00  0.00     0.293 HD
ENDBRANCH   4  12
TORSDOF 3
ENDMDL
MODEL 4
REMARK VINA RESULT:    -4.256     16.220     16.983
REMARK INTER + INTRA:          -5.038
REMARK INTER:                  -4.818
REMARK INTRA:                  -0.220
REMARK UNBOUND:                -0.285
REMARK SMILES CC(=O)c1ccc(O)cc1O
REMARK SMILES IDX 4 1 10 2 9 3 7 4 6 5 5 6 2 7 1 8 3 9 11 10 8 12
REMARK H PARENT 11 11 8 13
REMARK Flexibility Score: inf
ROOT
ATOM      1  C   UNL     1      84.633  31.499  65.427  1.00  0.00     0.059 A 
ATOM      2  C   UNL     1      84.614  31.798  66.810  1.00  0.00     0.130 A 
ATOM      3  C   UNL     1      85.784  32.234  67.452  1.00  0.00     0.093 A 
ATOM      4  C   UNL     1      86.974  32.379  66.737  1.00  0.00     0.119 A 
ATOM      5  C   UNL     1      87.002  32.089  65.370  1.00  0.00     0.047 A 
ATOM      6  C   UNL     1      85.845  31.653  64.721  1.00  0.00     0.019 A 
ENDROOT
BRANCH   1   7
ATOM      7  C   UNL     1      83.409  31.024  64.720  1.00  0.00     0.163 C 
ATOM      8  C   UNL     1      83.196  29.576  64.394  1.00  0.00     0.093 C 
ATOM      9  O   UNL     1      82.502  31.843  64.405  1.00  0.00    -0.294 OA
ENDBRANCH   1   7
BRANCH   2  10
ATOM     10  O   UNL     1      83.436  31.677  67.548  1.00  0.00    -0.507 OA
ATOM     11  H   UNL     1      83.303  32.170  68.423  1.00  0.00     0.293 HD
ENDBRANCH   2  10
BRANCH   4  12
ATOM     12  O   UNL     1      88.123  32.814  67.394  1.00  0.00    -0.508 OA
ATOM     13  H   UNL     1      88.500  33.742  67.244  1.00  0.00     0.293 HD
ENDBRANCH   4  12
TORSDOF 3
ENDMDL
MODEL 5
REMARK VINA RESULT:    -4.220     16.327     17.080
REMARK INTER + INTRA:          -4.999
REMARK INTER:                  -4.717
REMARK INTRA:                  -0.281
REMARK UNBOUND:                -0.285
REMARK SMILES CC(=O)c1ccc(O)cc1O
REMARK SMILES IDX 4 1 10 2 9 3 7 4 6 5 5 6 2 7 1 8 3 9 11 10 8 12
REMARK H PARENT 11 11 8 13
REMARK Flexibility Score: inf
ROOT
ATOM      1  C   UNL     1      85.678  31.184  66.078  1.00  0.00     0.059 A 
ATOM      2  C   UNL     1      85.502  30.167  65.109  1.00  0.00     0.130 A 
ATOM      3  C   UNL     1      84.244  29.966  64.521  1.00  0.00     0.093 A 
ATOM      4  C   UNL     1      83.157  30.764  64.879  1.00  0.00     0.119 A 
ATOM      5  C   UNL     1      83.322  31.773  65.832  1.00  0.00     0.047 A 
ATOM      6  C   UNL     1      84.568  31.981  66.426  1.00  0.00     0.019 A 
ENDROOT
BRANCH   1   7
ATOM      7  C   UNL     1      87.001  31.413  66.727  1.00  0.00     0.163 C 
ATOM      8  C   UNL     1      87.444  32.781  67.154  1.00  0.00     0.093 C 
ATOM      9  O   UNL     1      87.770  30.441  66.958  1.00  0.00    -0.294 OA
ENDBRANCH   1   7
BRANCH   2  10
ATOM     10  O   UNL     1      86.574  29.362  64.720  1.00  0.00    -0.507 OA
ATOM     11  H   UNL     1      86.512  28.743  63.918  1.00  0.00     0.293 HD
ENDBRANCH   2  10
BRANCH   4  12
ATOM     12  O   UNL     1      81.917  30.548  64.281  1.00  0.00    -0.508 OA
ATOM     13  H   UNL     1      81.512  31.221  63.641  1.00  0.00     0.293 HD
ENDBRANCH   4  12
TORSDOF 3
ENDMDL
MODEL 6
REMARK VINA RESULT:    -4.123     15.326     16.228
REMARK INTER + INTRA:          -4.890
REMARK INTER:                  -4.591
REMARK INTRA:                  -0.299
REMARK UNBOUND:                -0.285
REMARK SMILES CC(=O)c1ccc(O)cc1O
REMARK SMILES IDX 4 1 10 2 9 3 7 4 6 5 5 6 2 7 1 8 3 9 11 10 8 12
REMARK H PARENT 11 11 8 13
REMARK Flexibility Score: inf
ROOT
ATOM      1  C   UNL     1      84.957  31.071  64.756  1.00  0.00     0.059 A 
ATOM      2  C   UNL     1      83.564  30.906  64.572  1.00  0.00     0.130 A 
ATOM      3  C   UNL     1      83.000  29.621  64.586  1.00  0.00     0.093 A 
ATOM      4  C   UNL     1      83.801  28.495  64.785  1.00  0.00     0.119 A 
ATOM      5  C   UNL     1      85.177  28.649  64.971  1.00  0.00     0.047 A 
ATOM      6  C   UNL     1      85.751  29.922  64.956  1.00  0.00     0.019 A 
ENDROOT
BRANCH   1   7
ATOM      7  C   UNL     1      85.586  32.423  64.736  1.00  0.00     0.163 C 
ATOM      8  C   UNL     1      86.671  32.804  65.699  1.00  0.00     0.093 C 
ATOM      9  O   UNL     1      85.231  33.274  63.875  1.00  0.00    -0.294 OA
ENDBRANCH   1   7
BRANCH   2  10
ATOM     10  O   UNL     1      82.735  32.013  64.387  1.00  0.00    -0.507 OA
ATOM     11  H   UNL     1      82.579  32.691  65.124  1.00  0.00     0.293 HD
ENDBRANCH   2  10
BRANCH   4  12
ATOM     12  O   UNL     1      83.219  27.229  64.796  1.00  0.00    -0.508 OA
ATOM     13  H   UNL     1      83.040  26.737  65.663  1.00  0.00     0.293 HD
ENDBRANCH   4  12
TORSDOF 3
ENDMDL
MODEL 7
REMARK VINA RESULT:    -3.950     15.538     16.176
REMARK INTER + INTRA:          -4.697
REMARK INTER:                  -4.552
REMARK INTRA:                  -0.145
REMARK UNBOUND:                -0.285
REMARK SMILES CC(=O)c1ccc(O)cc1O
REMARK SMILES IDX 4 1 10 2 9 3 7 4 6 5 5 6 2 7 1 8 3 9 11 10 8 12
REMARK H PARENT 11 11 8 13
REMARK Flexibility Score: inf
ROOT
ATOM      1  C   UNL     1      84.459  30.441  64.803  1.00  0.00     0.059 A 
ATOM      2  C   UNL     1      84.199  31.825  64.662  1.00  0.00     0.130 A 
ATOM      3  C   UNL     1      85.225  32.759  64.874  1.00  0.00     0.093 A 
ATOM      4  C   UNL     1      86.509  32.337  65.221  1.00  0.00     0.119 A 
ATOM      5  C   UNL     1      86.777  30.972  65.359  1.00  0.00     0.047 A 
ATOM      6  C   UNL     1      85.763  30.033  65.153  1.00  0.00     0.019 A 
ENDROOT
BRANCH   1   7
ATOM      7  C   UNL     1      83.387  29.426  64.594  1.00  0.00     0.163 C 
ATOM      8  C   UNL     1      83.693  27.960  64.507  1.00  0.00     0.093 C 
ATOM      9  O   UNL     1      82.181  29.787  64.513  1.00  0.00    -0.294 OA
ENDBRANCH   1   7
BRANCH   2  10
ATOM     10  O   UNL     1      82.929  32.277  64.301  1.00  0.00    -0.507 OA
ATOM     11  H   UNL     1      82.801  33.104  63.728  1.00  0.00     0.293 HD
ENDBRANCH   2  10
BRANCH   4  12
ATOM     12  O   UNL     1      87.512  33.282  65.426  1.00  0.00    -0.508 OA
ATOM     13  H   UNL     1      87.688  33.678  66.342  1.00  0.00     0.293 HD
ENDBRANCH   4  12
TORSDOF 3
ENDMDL
MODEL 8
REMARK VINA RESULT:    -3.893     16.566     17.212
REMARK INTER + INTRA:          -4.633
REMARK INTER:                  -4.368
REMARK INTRA:                  -0.266
REMARK UNBOUND:                -0.285
REMARK SMILES CC(=O)c1ccc(O)cc1O
REMARK SMILES IDX 4 1 10 2 9 3 7 4 6 5 5 6 2 7 1 8 3 9 11 10 8 12
REMARK H PARENT 11 11 8 13
REMARK Flexibility Score: inf
ROOT
ATOM      1  C   UNL     1      84.902  30.431  65.413  1.00  0.00     0.059 A 
ATOM      2  C   UNL     1      86.270  30.093  65.288  1.00  0.00     0.130 A 
ATOM      3  C   UNL     1      87.248  30.866  65.934  1.00  0.00     0.093 A 
ATOM      4  C   UNL     1      86.884  31.970  66.708  1.00  0.00     0.119 A 
ATOM      5  C   UNL     1      85.534  32.308  66.840  1.00  0.00     0.047 A 
ATOM      6  C   UNL     1      84.553  31.549  66.199  1.00  0.00     0.019 A 
ENDROOT
BRANCH   1   7
ATOM      7  C   UNL     1      83.842  29.634  64.729  1.00  0.00     0.163 C 
ATOM      8  C   UNL     1      82.563  30.261  64.259  1.00  0.00     0.093 C 
ATOM      9  O   UNL     1      84.019  28.406  64.505  1.00  0.00    -0.294 OA
ENDBRANCH   1   7
BRANCH   2  10
ATOM     10  O   UNL     1      86.664  28.987  64.534  1.00  0.00    -0.507 OA
ATOM     11  H   UNL     1      85.997  28.439  64.002  1.00  0.00     0.293 HD
ENDBRANCH   2  10
BRANCH   4  12
ATOM     12  O   UNL     1      87.870  32.722  67.341  1.00  0.00    -0.508 OA
ATOM     13  H   UNL     1      88.618  33.161  66.819  1.00  0.00     0.293 HD
ENDBRANCH   4  12
TORSDOF 3
ENDMDL
MODEL 9
REMARK VINA RESULT:    -3.826      3.256      5.639
REMARK INTER + INTRA:          -4.559
REMARK INTER:                  -4.266
REMARK INTRA:                  -0.293
REMARK UNBOUND:                -0.285
REMARK SMILES CC(=O)c1ccc(O)cc1O
REMARK SMILES IDX 4 1 10 2 9 3 7 4 6 5 5 6 2 7 1 8 3 9 11 10 8 12
REMARK H PARENT 11 11 8 13
REMARK Flexibility Score: inf
ROOT
ATOM      1  C   UNL     1      76.792  34.650  51.937  1.00  0.00     0.059 A 
ATOM      2  C   UNL     1      76.065  33.484  52.273  1.00  0.00     0.130 A 
ATOM      3  C   UNL     1      74.752  33.589  52.757  1.00  0.00     0.093 A 
ATOM      4  C   UNL     1      74.148  34.838  52.908  1.00  0.00     0.119 A 
ATOM      5  C   UNL     1      74.857  35.995  52.576  1.00  0.00     0.047 A 
ATOM      6  C   UNL     1      76.166  35.904  52.096  1.00  0.00     0.019 A 
ENDROOT
BRANCH   1   7
ATOM      7  C   UNL     1      78.193  34.570  51.431  1.00  0.00     0.163 C 
ATOM      8  C   UNL     1      78.701  35.494  50.365  1.00  0.00     0.093 C 
ATOM      9  O   UNL     1      78.995  33.729  51.919  1.00  0.00    -0.294 OA
ENDBRANCH   1   7
BRANCH   2  10
ATOM     10  O   UNL     1      76.636  32.220  52.119  1.00  0.00    -0.507 OA
ATOM     11  H   UNL     1      77.218  31.992  51.320  1.00  0.00     0.293 HD
ENDBRANCH   2  10
BRANCH   4  12
ATOM     12  O   UNL     1      72.843  34.919  53.389  1.00  0.00    -0.508 OA
ATOM     13  H   UNL     1      72.547  35.675  53.994  1.00  0.00     0.293 HD
ENDBRANCH   4  12
TORSDOF 3
ENDMDL
