MODEL 1
REMARK VINA RESULT:    -2.441      0.000      0.000
REMARK INTER + INTRA:          -5.811
REMARK INTER:                  -4.440
REMARK INTRA:                  -1.371
REMARK UNBOUND:                -1.371
REMARK SMILES CCCCCCCCCCCCCCCC(=O)[O-]
REMARK SMILES IDX 9 1 10 2 11 3 12 4 13 5 14 6 15 7 16 8 17 9 18 10 8 11 7 12
REMARK SMILES IDX 6 13 5 14 4 15 3 16 2 17 1 18
REMARK H PARENT
REMARK Flexibility Score: inf
ROOT
ATOM      1  C   UNL     1      -7.804 -23.125  21.061  1.00  0.00     0.000 C 
ENDROOT
BRANCH   1   2
ATOM      2  C   UNL     1      -6.614 -22.980  20.093  1.00  0.00     0.000 C 
BRANCH   2   3
ATOM      3  C   UNL     1      -7.000 -22.916  18.605  1.00  0.00     0.000 C 
BRANCH   3   4
ATOM      4  C   UNL     1      -8.516 -22.788  18.390  1.00  0.00     0.000 C 
BRANCH   4   5
ATOM      5  C   UNL     1      -8.873 -21.405  17.822  1.00  0.00     0.000 C 
BRANCH   5   6
ATOM      6  C   UNL     1     -10.235 -21.389  17.112  1.00  0.00     0.006 C 
BRANCH   6   7
ATOM      7  C   UNL     1     -10.510 -20.069  16.380  1.00  0.00     0.053 C 
BRANCH   7   8
ATOM      8  C   UNL     1     -10.304 -20.236  14.907  1.00  0.00     0.041 C 
ATOM      9  O   UNL     1     -11.125 -20.903  14.224  1.00  0.00    -0.550 OA
ATOM     10  O   UNL     1      -9.188 -19.680  14.294  1.00  0.00    -0.550 OA
ENDBRANCH   7   8
ENDBRANCH   6   7
ENDBRANCH   5   6
ENDBRANCH   4   5
ENDBRANCH   3   4
ENDBRANCH   2   3
ENDBRANCH   1   2
BRANCH   1  11
ATOM     11  C   UNL     1      -7.690 -22.236  22.319  1.00  0.00     0.000 C 
BRANCH  11  12
ATOM     12  C   UNL     1      -8.934 -22.341  23.220  1.00  0.00    -0.000 C 
BRANCH  12  13
ATOM     13  C   UNL     1     -10.227 -22.522  22.410  1.00  0.00    -0.000 C 
BRANCH  13  14
ATOM     14  C   UNL     1     -10.969 -21.192  22.191  1.00  0.00    -0.000 C 
BRANCH  14  15
ATOM     15  C   UNL     1     -10.714 -20.591  20.798  1.00  0.00    -0.000 C 
BRANCH  15  16
ATOM     16  C   UNL     1     -11.068 -19.096  20.655  1.00  0.00    -0.000 C 
BRANCH  16  17
ATOM     17  C   UNL     1      -9.937 -18.120  21.031  1.00  0.00    -0.003 C 
ATOM     18  C   UNL     1      -9.396 -18.351  22.441  1.00  0.00     0.004 C 
ENDBRANCH  16  17
ENDBRANCH  15  16
ENDBRANCH  14  15
ENDBRANCH  13  14
ENDBRANCH  12  13
ENDBRANCH  11  12
ENDBRANCH   1  11
TORSDOF 14
ENDMDL
MODEL 2
REMARK VINA RESULT:    -2.034      2.439      5.665
REMARK INTER + INTRA:          -5.070
REMARK INTER:                  -4.415
REMARK INTRA:                  -0.655
REMARK UNBOUND:                -1.371
REMARK SMILES CCCCCCCCCCCCCCCC(=O)[O-]
REMARK SMILES IDX 9 1 10 2 11 3 12 4 13 5 14 6 15 7 16 8 17 9 18 10 8 11 7 12
REMARK SMILES IDX 6 13 5 14 4 15 3 16 2 17 1 18
REMARK H PARENT
REMARK Flexibility Score: inf
ROOT
ATOM      1  C   UNL     1      -9.638 -22.400  20.170  1.00  0.00     0.000 C 
ENDROOT
BRANCH   1   2
ATOM      2  C   UNL     1      -9.835 -22.993  21.578  1.00  0.00     0.000 C 
BRANCH   2   3
ATOM      3  C   UNL     1     -11.120 -22.541  22.292  1.00  0.00     0.000 C 
BRANCH   3   4
ATOM      4  C   UNL     1     -10.919 -21.267  23.127  1.00  0.00     0.000 C 
BRANCH   4   5
ATOM      5  C   UNL     1      -9.654 -20.516  22.683  1.00  0.00     0.000 C 
BRANCH   5   6
ATOM      6  C   UNL     1      -9.851 -18.993  22.643  1.00  0.00     0.006 C 
BRANCH   6   7
ATOM      7  C   UNL     1     -11.081 -18.573  21.825  1.00  0.00     0.053 C 
BRANCH   7   8
ATOM      8  C   UNL     1     -10.694 -18.295  20.407  1.00  0.00     0.041 C 
ATOM      9  O   UNL     1     -10.766 -17.124  19.948  1.00  0.00    -0.550 OA
ATOM     10  O   UNL     1     -10.283 -19.334  19.581  1.00  0.00    -0.550 OA
ENDBRANCH   7   8
ENDBRANCH   6   7
ENDBRANCH   5   6
ENDBRANCH   4   5
ENDBRANCH   3   4
ENDBRANCH   2   3
ENDBRANCH   1   2
BRANCH   1  11
ATOM     11  C   UNL     1     -10.929 -22.375  19.323  1.00  0.00     0.000 C 
BRANCH  11  12
ATOM     12  C   UNL     1     -10.696 -22.886  17.890  1.00  0.00    -0.000 C 
BRANCH  12  13
ATOM     13  C   UNL     1      -9.203 -22.946  17.529  1.00  0.00    -0.000 C 
BRANCH  13  14
ATOM     14  C   UNL     1      -8.698 -21.630  16.915  1.00  0.00    -0.000 C 
BRANCH  14  15
ATOM     15  C   UNL     1      -7.271 -21.746  16.349  1.00  0.00    -0.000 C 
BRANCH  15  16
ATOM     16  C   UNL     1      -6.585 -23.109  16.578  1.00  0.00    -0.000 C 
BRANCH  16  17
ATOM     17  C   UNL     1      -5.511 -23.119  17.682  1.00  0.00    -0.003 C 
ATOM     18  C   UNL     1      -6.098 -22.983  19.086  1.00  0.00     0.004 C 
ENDBRANCH  16  17
ENDBRANCH  15  16
ENDBRANCH  14  15
ENDBRANCH  13  14
ENDBRANCH  12  13
ENDBRANCH  11  12
ENDBRANCH   1  11
TORSDOF 14
ENDMDL
MODEL 3
REMARK VINA RESULT:    -1.579      4.428      5.780
REMARK INTER + INTRA:          -4.243
REMARK INTER:                  -3.515
REMARK INTRA:                  -0.728
REMARK UNBOUND:                -1.371
REMARK SMILES CCCCCCCCCCCCCCCC(=O)[O-]
REMARK SMILES IDX 9 1 10 2 11 3 12 4 13 5 14 6 15 7 16 8 17 9 18 10 8 11 7 12
REMARK SMILES IDX 6 13 5 14 4 15 3 16 2 17 1 18
REMARK H PARENT
REMARK Flexibility Score: inf
ROOT
ATOM      1  C   UNL     1      -6.984 -22.910  18.953  1.00  0.00     0.000 C 
ENDROOT
BRANCH   1   2
ATOM      2  C   UNL     1      -6.176 -23.125  17.659  1.00  0.00     0.000 C 
BRANCH   2   3
ATOM      3  C   UNL     1      -6.525 -22.158  16.514  1.00  0.00     0.000 C 
BRANCH   3   4
ATOM      4  C   UNL     1      -5.280 -21.557  15.845  1.00  0.00     0.000 C 
BRANCH   4   5
ATOM      5  C   UNL     1      -3.997 -22.194  16.403  1.00  0.00     0.000 C 
BRANCH   5   6
ATOM      6  C   UNL     1      -2.830 -22.151  15.405  1.00  0.00     0.006 C 
BRANCH   6   7
ATOM      7  C   UNL     1      -1.695 -23.116  15.774  1.00  0.00     0.053 C 
BRANCH   7   8
ATOM      8  C   UNL     1      -0.394 -22.381  15.861  1.00  0.00     0.041 C 
ATOM      9  O   UNL     1       0.602 -22.774  15.199  1.00  0.00    -0.550 OA
ATOM     10  O   UNL     1      -0.273 -21.279  16.699  1.00  0.00    -0.550 OA
ENDBRANCH   7   8
ENDBRANCH   6   7
ENDBRANCH   5   6
ENDBRANCH   4   5
ENDBRANCH   3   4
ENDBRANCH   2   3
ENDBRANCH   1   2
BRANCH   1  11
ATOM     11  C   UNL     1      -8.513 -22.988  18.747  1.00  0.00     0.000 C 
BRANCH  11  12
ATOM     12  C   UNL     1      -9.162 -21.594  18.676  1.00  0.00    -0.000 C 
BRANCH  12  13
ATOM     13  C   UNL     1     -10.663 -21.633  19.004  1.00  0.00    -0.000 C 
BRANCH  13  14
ATOM     14  C   UNL     1     -11.028 -20.704  20.174  1.00  0.00    -0.000 C 
BRANCH  14  15
ATOM     15  C   UNL     1     -10.560 -21.249  21.535  1.00  0.00    -0.000 C 
BRANCH  15  16
ATOM     16  C   UNL     1     -10.006 -20.188  22.509  1.00  0.00    -0.000 C 
BRANCH  16  17
ATOM     17  C   UNL     1     -10.179 -18.728  22.050  1.00  0.00    -0.003 C 
ATOM     18  C   UNL     1      -9.137 -17.787  22.652  1.00  0.00     0.004 C 
ENDBRANCH  16  17
ENDBRANCH  15  16
ENDBRANCH  14  15
ENDBRANCH  13  14
ENDBRANCH  12  13
ENDBRANCH  11  12
ENDBRANCH   1  11
TORSDOF 14
ENDMDL
MODEL 4
REMARK VINA RESULT:    -1.535      5.861      7.325
REMARK INTER + INTRA:          -4.162
REMARK INTER:                  -3.859
REMARK INTRA:                  -0.303
REMARK UNBOUND:                -1.371
REMARK SMILES CCCCCCCCCCCCCCCC(=O)[O-]
REMARK SMILES IDX 9 1 10 2 11 3 12 4 13 5 14 6 15 7 16 8 17 9 18 10 8 11 7 12
REMARK SMILES IDX 6 13 5 14 4 15 3 16 2 17 1 18
REMARK H PARENT
REMARK Flexibility Score: inf
ROOT
ATOM      1  C   UNL     1      -6.616 -22.247  16.647  1.00  0.00     0.000 C 
ENDROOT
BRANCH   1   2
ATOM      2  C   UNL     1      -5.294 -23.036  16.589  1.00  0.00     0.000 C 
BRANCH   2   3
ATOM      3  C   UNL     1      -4.035 -22.169  16.411  1.00  0.00     0.000 C 
BRANCH   3   4
ATOM      4  C   UNL     1      -2.810 -22.986  15.974  1.00  0.00     0.000 C 
BRANCH   4   5
ATOM      5  C   UNL     1      -1.536 -22.127  16.017  1.00  0.00     0.000 C 
BRANCH   5   6
ATOM      6  C   UNL     1      -0.310 -22.855  15.446  1.00  0.00     0.006 C 
BRANCH   6   7
ATOM      7  C   UNL     1       1.002 -22.095  15.690  1.00  0.00     0.053 C 
BRANCH   7   8
ATOM      8  C   UNL     1       2.101 -22.670  14.854  1.00  0.00     0.041 C 
ATOM      9  O   UNL     1       3.277 -22.722  15.300  1.00  0.00    -0.550 OA
ATOM     10  O   UNL     1       1.832 -23.123  13.567  1.00  0.00    -0.550 OA
ENDBRANCH   7   8
ENDBRANCH   6   7
ENDBRANCH   5   6
ENDBRANCH   4   5
ENDBRANCH   3   4
ENDBRANCH   2   3
ENDBRANCH   1   2
BRANCH   1  11
ATOM     11  C   UNL     1      -7.677 -22.885  17.570  1.00  0.00     0.000 C 
BRANCH  11  12
ATOM     12  C   UNL     1      -8.927 -21.999  17.718  1.00  0.00    -0.000 C 
BRANCH  12  13
ATOM     13  C   UNL     1      -9.676 -22.263  19.035  1.00  0.00    -0.000 C 
BRANCH  13  14
ATOM     14  C   UNL     1     -10.620 -21.108  19.409  1.00  0.00    -0.000 C 
BRANCH  14  15
ATOM     15  C   UNL     1     -10.265 -20.464  20.761  1.00  0.00    -0.000 C 
BRANCH  15  16
ATOM     16  C   UNL     1     -10.935 -19.100  21.032  1.00  0.00    -0.000 C 
BRANCH  16  17
ATOM     17  C   UNL     1      -9.967 -17.906  21.126  1.00  0.00    -0.003 C 
ATOM     18  C   UNL     1      -9.203 -17.863  22.449  1.00  0.00     0.004 C 
ENDBRANCH  16  17
ENDBRANCH  15  16
ENDBRANCH  14  15
ENDBRANCH  13  14
ENDBRANCH  12  13
ENDBRANCH  11  12
ENDBRANCH   1  11
TORSDOF 14
ENDMDL
MODEL 5
REMARK VINA RESULT:    -1.524     13.466     16.188
REMARK INTER + INTRA:          -4.143
REMARK INTER:                  -3.333
REMARK INTRA:                  -0.809
REMARK UNBOUND:                -1.371
REMARK SMILES CCCCCCCCCCCCCCCC(=O)[O-]
REMARK SMILES IDX 9 1 10 2 11 3 12 4 13 5 14 6 15 7 16 8 17 9 18 10 8 11 7 12
REMARK SMILES IDX 6 13 5 14 4 15 3 16 2 17 1 18
REMARK H PARENT
REMARK Flexibility Score: inf
ROOT
ATOM      1  C   UNL     1       6.549 -21.380  16.238  1.00  0.00     0.000 C 
ENDROOT
BRANCH   1   2
ATOM      2  C   UNL     1       5.240 -21.603  17.020  1.00  0.00     0.000 C 
BRANCH   2   3
ATOM      3  C   UNL     1       4.043 -22.041  16.159  1.00  0.00     0.000 C 
BRANCH   3   4
ATOM      4  C   UNL     1       4.471 -22.681  14.830  1.00  0.00     0.000 C 
BRANCH   4   5
ATOM      5  C   UNL     1       3.245 -23.025  13.968  1.00  0.00     0.000 C 
BRANCH   5   6
ATOM      6  C   UNL     1       2.000 -22.214  14.358  1.00  0.00     0.006 C 
BRANCH   6   7
ATOM      7  C   UNL     1       1.196 -22.864  15.492  1.00  0.00     0.053 C 
BRANCH   7   8
ATOM      8  C   UNL     1       0.303 -21.855  16.144  1.00  0.00     0.041 C 
ATOM      9  O   UNL     1       0.785 -20.990  16.921  1.00  0.00    -0.550 OA
ATOM     10  O   UNL     1      -1.068 -21.890  15.917  1.00  0.00    -0.550 OA
ENDBRANCH   7   8
ENDBRANCH   6   7
ENDBRANCH   5   6
ENDBRANCH   4   5
ENDBRANCH   3   4
ENDBRANCH   2   3
ENDBRANCH   1   2
BRANCH   1  11
ATOM     11  C   UNL     1       7.783 -22.030  16.899  1.00  0.00     0.000 C 
BRANCH  11  12
ATOM     12  C   UNL     1       8.738 -22.651  15.863  1.00  0.00    -0.000 C 
BRANCH  12  13
ATOM     13  C   UNL     1       8.627 -21.973  14.488  1.00  0.00    -0.000 C 
BRANCH  13  14
ATOM     14  C   UNL     1       8.044 -22.913  13.420  1.00  0.00    -0.000 C 
BRANCH  14  15
ATOM     15  C   UNL     1       7.244 -22.163  12.340  1.00  0.00    -0.000 C 
BRANCH  15  16
ATOM     16  C   UNL     1       8.062 -21.727  11.106  1.00  0.00    -0.000 C 
BRANCH  16  17
ATOM     17  C   UNL     1       8.733 -20.346  11.225  1.00  0.00    -0.003 C 
ATOM     18  C   UNL     1       7.804 -19.281  11.808  1.00  0.00     0.004 C 
ENDBRANCH  16  17
ENDBRANCH  15  16
ENDBRANCH  14  15
ENDBRANCH  13  14
ENDBRANCH  12  13
ENDBRANCH  11  12
ENDBRANCH   1  11
TORSDOF 14
ENDMDL
MODEL 6
REMARK VINA RESULT:    -1.516     12.215     14.452
REMARK INTER + INTRA:          -4.128
REMARK INTER:                  -3.493
REMARK INTRA:                  -0.635
REMARK UNBOUND:                -1.371
REMARK SMILES CCCCCCCCCCCCCCCC(=O)[O-]
REMARK SMILES IDX 9 1 10 2 11 3 12 4 13 5 14 6 15 7 16 8 17 9 18 10 8 11 7 12
REMARK SMILES IDX 6 13 5 14 4 15 3 16 2 17 1 18
REMARK H PARENT
REMARK Flexibility Score: inf
ROOT
ATOM      1  C   UNL     1       4.436 -22.441  15.187  1.00  0.00     0.000 C 
ENDROOT
BRANCH   1   2
ATOM      2  C   UNL     1       4.427 -21.784  16.581  1.00  0.00     0.000 C 
BRANCH   2   3
ATOM      3  C   UNL     1       5.815 -21.390  17.115  1.00  0.00     0.000 C 
BRANCH   3   4
ATOM      4  C   UNL     1       6.956 -22.140  16.412  1.00  0.00     0.000 C 
BRANCH   4   5
ATOM      5  C   UNL     1       7.957 -21.154  15.790  1.00  0.00     0.000 C 
BRANCH   5   6
ATOM      6  C   UNL     1       7.979 -21.221  14.255  1.00  0.00     0.006 C 
BRANCH   6   7
ATOM      7  C   UNL     1       8.279 -19.863  13.604  1.00  0.00     0.053 C 
BRANCH   7   8
ATOM      8  C   UNL     1       8.165 -19.962  12.115  1.00  0.00     0.041 C 
ATOM      9  O   UNL     1       8.632 -20.961  11.508  1.00  0.00    -0.550 OA
ATOM     10  O   UNL     1       7.568 -18.935  11.394  1.00  0.00    -0.550 OA
ENDBRANCH   7   8
ENDBRANCH   6   7
ENDBRANCH   5   6
ENDBRANCH   4   5
ENDBRANCH   3   4
ENDBRANCH   2   3
ENDBRANCH   1   2
BRANCH   1  11
ATOM     11  C   UNL     1       3.059 -22.986  14.750  1.00  0.00     0.000 C 
BRANCH  11  12
ATOM     12  C   UNL     1       1.897 -22.250  15.441  1.00  0.00    -0.000 C 
BRANCH  12  13
ATOM     13  C   UNL     1       0.554 -22.972  15.249  1.00  0.00    -0.000 C 
BRANCH  13  14
ATOM     14  C   UNL     1      -0.603 -22.251  15.961  1.00  0.00    -0.000 C 
BRANCH  14  15
ATOM     15  C   UNL     1      -1.938 -23.007  15.845  1.00  0.00    -0.000 C 
BRANCH  15  16
ATOM     16  C   UNL     1      -3.194 -22.113  15.777  1.00  0.00    -0.000 C 
BRANCH  16  17
ATOM     17  C   UNL     1      -4.350 -22.542  16.699  1.00  0.00    -0.003 C 
ATOM     18  C   UNL     1      -5.684 -21.904  16.317  1.00  0.00     0.004 C 
ENDBRANCH  16  17
ENDBRANCH  15  16
ENDBRANCH  14  15
ENDBRANCH  13  14
ENDBRANCH  12  13
ENDBRANCH  11  12
ENDBRANCH   1  11
TORSDOF 14
ENDMDL
MODEL 7
REMARK VINA RESULT:    -1.493      3.167      6.452
REMARK INTER + INTRA:          -4.085
REMARK INTER:                  -3.186
REMARK INTRA:                  -0.899
REMARK UNBOUND:                -1.371
REMARK SMILES CCCCCCCCCCCCCCCC(=O)[O-]
REMARK SMILES IDX 9 1 10 2 11 3 12 4 13 5 14 6 15 7 16 8 17 9 18 10 8 11 7 12
REMARK SMILES IDX 6 13 5 14 4 15 3 16 2 17 1 18
REMARK H PARENT
REMARK Flexibility Score: inf
ROOT
ATOM      1  C   UNL     1      -9.878 -21.710  18.917  1.00  0.00     0.000 C 
ENDROOT
BRANCH   1   2
ATOM      2  C   UNL     1      -9.337 -22.737  19.931  1.00  0.00     0.000 C 
BRANCH   2   3
ATOM      3  C   UNL     1     -10.274 -23.025  21.117  1.00  0.00     0.000 C 
BRANCH   3   4
ATOM      4  C   UNL     1      -9.920 -22.204  22.366  1.00  0.00     0.000 C 
BRANCH   4   5
ATOM      5  C   UNL     1     -11.125 -21.372  22.833  1.00  0.00     0.000 C 
BRANCH   5   6
ATOM      6  C   UNL     1     -10.904 -19.861  22.662  1.00  0.00     0.006 C 
BRANCH   6   7
ATOM      7  C   UNL     1      -9.445 -19.504  22.344  1.00  0.00     0.053 C 
BRANCH   7   8
ATOM      8  C   UNL     1      -9.299 -18.028  22.149  1.00  0.00     0.041 C 
ATOM      9  O   UNL     1      -8.879 -17.302  23.088  1.00  0.00    -0.550 OA
ATOM     10  O   UNL     1      -9.658 -17.448  20.937  1.00  0.00    -0.550 OA
ENDBRANCH   7   8
ENDBRANCH   6   7
ENDBRANCH   5   6
ENDBRANCH   4   5
ENDBRANCH   3   4
ENDBRANCH   2   3
ENDBRANCH   1   2
BRANCH   1  11
ATOM     11  C   UNL     1     -10.524 -22.353  17.671  1.00  0.00     0.000 C 
BRANCH  11  12
ATOM     12  C   UNL     1     -10.871 -21.311  16.593  1.00  0.00    -0.000 C 
BRANCH  12  13
ATOM     13  C   UNL     1      -9.698 -20.361  16.302  1.00  0.00    -0.000 C 
BRANCH  13  14
ATOM     14  C   UNL     1      -8.667 -20.982  15.345  1.00  0.00    -0.000 C 
BRANCH  14  15
ATOM     15  C   UNL     1      -7.836 -22.096  16.006  1.00  0.00    -0.000 C 
BRANCH  15  16
ATOM     16  C   UNL     1      -6.542 -21.622  16.700  1.00  0.00    -0.000 C 
BRANCH  16  17
ATOM     17  C   UNL     1      -5.453 -22.700  16.853  1.00  0.00    -0.003 C 
ATOM     18  C   UNL     1      -4.155 -22.343  16.131  1.00  0.00     0.004 C 
ENDBRANCH  16  17
ENDBRANCH  15  16
ENDBRANCH  14  15
ENDBRANCH  13  14
ENDBRANCH  12  13
ENDBRANCH  11  12
ENDBRANCH   1  11
TORSDOF 14
ENDMDL
MODEL 8
REMARK VINA RESULT:    -1.386     11.565     13.591
REMARK INTER + INTRA:          -3.891
REMARK INTER:                  -3.610
REMARK INTRA:                  -0.281
REMARK UNBOUND:                -1.371
REMARK SMILES CCCCCCCCCCCCCCCC(=O)[O-]
REMARK SMILES IDX 9 1 10 2 11 3 12 4 13 5 14 6 15 7 16 8 17 9 18 10 8 11 7 12
REMARK SMILES IDX 6 13 5 14 4 15 3 16 2 17 1 18
REMARK H PARENT
REMARK Flexibility Score: inf
ROOT
ATOM      1  C   UNL     1       1.671 -22.641  14.353  1.00  0.00     0.000 C 
ENDROOT
BRANCH   1   2
ATOM      2  C   UNL     1       3.103 -23.089  14.706  1.00  0.00     0.000 C 
BRANCH   2   3
ATOM      3  C   UNL     1       4.080 -23.116  13.518  1.00  0.00     0.000 C 
BRANCH   3   4
ATOM      4  C   UNL     1       5.545 -22.961  13.952  1.00  0.00     0.000 C 
BRANCH   4   5
ATOM      5  C   UNL     1       6.472 -22.874  12.728  1.00  0.00     0.000 C 
BRANCH   5   6
ATOM      6  C   UNL     1       7.268 -21.561  12.679  1.00  0.00     0.006 C 
BRANCH   6   7
ATOM      7  C   UNL     1       8.241 -21.498  11.494  1.00  0.00     0.053 C 
BRANCH   7   8
ATOM      8  C   UNL     1       8.108 -20.191  10.778  1.00  0.00     0.041 C 
ATOM      9  O   UNL     1       8.370 -20.111   9.549  1.00  0.00    -0.550 OA
ATOM     10  O   UNL     1       7.722 -19.052  11.476  1.00  0.00    -0.550 OA
ENDBRANCH   7   8
ENDBRANCH   6   7
ENDBRANCH   5   6
ENDBRANCH   4   5
ENDBRANCH   3   4
ENDBRANCH   2   3
ENDBRANCH   1   2
BRANCH   1  11
ATOM     11  C   UNL     1       0.805 -22.307  15.587  1.00  0.00     0.000 C 
BRANCH  11  12
ATOM     12  C   UNL     1      -0.603 -22.921  15.492  1.00  0.00    -0.000 C 
BRANCH  12  13
ATOM     13  C   UNL     1      -1.627 -22.168  16.356  1.00  0.00    -0.000 C 
BRANCH  13  14
ATOM     14  C   UNL     1      -2.992 -22.035  15.660  1.00  0.00    -0.000 C 
BRANCH  14  15
ATOM     15  C   UNL     1      -4.107 -22.812  16.383  1.00  0.00    -0.000 C 
BRANCH  15  16
ATOM     16  C   UNL     1      -5.429 -22.039  16.570  1.00  0.00    -0.000 C 
BRANCH  16  17
ATOM     17  C   UNL     1      -6.565 -22.841  17.232  1.00  0.00    -0.003 C 
ATOM     18  C   UNL     1      -7.869 -22.052  17.334  1.00  0.00     0.004 C 
ENDBRANCH  16  17
ENDBRANCH  15  16
ENDBRANCH  14  15
ENDBRANCH  13  14
ENDBRANCH  12  13
ENDBRANCH  11  12
ENDBRANCH   1  11
TORSDOF 14
ENDMDL
MODEL 9
REMARK VINA RESULT:    -0.431      1.672      2.267
REMARK INTER + INTRA:          -2.155
REMARK INTER:                  -1.406
REMARK INTRA:                  -0.749
REMARK UNBOUND:                -1.371
REMARK SMILES CCCCCCCCCCCCCCCC(=O)[O-]
REMARK SMILES IDX 9 1 10 2 11 3 12 4 13 5 14 6 15 7 16 8 17 9 18 10 8 11 7 12
REMARK SMILES IDX 6 13 5 14 4 15 3 16 2 17 1 18
REMARK H PARENT
REMARK Flexibility Score: inf
ROOT
ATOM      1  C   UNL     1      -5.870 -22.855  19.273  1.00  0.00     0.000 C 
ENDROOT
BRANCH   1   2
ATOM      2  C   UNL     1      -6.392 -23.004  17.832  1.00  0.00     0.000 C 
BRANCH   2   3
ATOM      3  C   UNL     1      -5.911 -21.916  16.857  1.00  0.00     0.000 C 
BRANCH   3   4
ATOM      4  C   UNL     1      -6.747 -21.860  15.570  1.00  0.00     0.000 C 
BRANCH   4   5
ATOM      5  C   UNL     1      -8.175 -21.374  15.866  1.00  0.00     0.000 C 
BRANCH   5   6
ATOM      6  C   UNL     1      -8.675 -20.343  14.843  1.00  0.00     0.006 C 
BRANCH   6   7
ATOM      7  C   UNL     1     -10.206 -20.312  14.727  1.00  0.00     0.053 C 
BRANCH   7   8
ATOM      8  C   UNL     1     -10.832 -20.330  16.086  1.00  0.00     0.041 C 
ATOM      9  O   UNL     1     -11.125 -21.424  16.636  1.00  0.00    -0.550 OA
ATOM     10  O   UNL     1     -11.122 -19.134  16.734  1.00  0.00    -0.550 OA
ENDBRANCH   7   8
ENDBRANCH   6   7
ENDBRANCH   5   6
ENDBRANCH   4   5
ENDBRANCH   3   4
ENDBRANCH   2   3
ENDBRANCH   1   2
BRANCH   1  11
ATOM     11  C   UNL     1      -6.945 -23.114  20.351  1.00  0.00     0.000 C 
BRANCH  11  12
ATOM     12  C   UNL     1      -8.368 -23.119  19.764  1.00  0.00    -0.000 C 
BRANCH  12  13
ATOM     13  C   UNL     1      -9.447 -23.002  20.852  1.00  0.00    -0.000 C 
BRANCH  13  14
ATOM     14  C   UNL     1     -10.674 -22.207  20.373  1.00  0.00    -0.000 C 
BRANCH  14  15
ATOM     15  C   UNL     1     -10.403 -20.695  20.278  1.00  0.00    -0.000 C 
BRANCH  15  16
ATOM     16  C   UNL     1     -10.148 -19.990  21.627  1.00  0.00    -0.000 C 
BRANCH  16  17
ATOM     17  C   UNL     1     -10.135 -18.451  21.565  1.00  0.00    -0.003 C 
ATOM     18  C   UNL     1      -9.172 -17.823  22.572  1.00  0.00     0.004 C 
ENDBRANCH  16  17
ENDBRANCH  15  16
ENDBRANCH  14  15
ENDBRANCH  13  14
ENDBRANCH  12  13
ENDBRANCH  11  12
ENDBRANCH   1  11
TORSDOF 14
ENDMDL
