MODEL 1
REMARK VINA RESULT:    -6.630      0.000      0.000
REMARK INTER + INTRA:          -8.091
REMARK INTER:                  -9.536
REMARK INTRA:                   1.445
REMARK UNBOUND:                 1.445
REMARK SMILES O=c1cc(-c2ccc(O)c(O)c2)oc2cc(O[C@H]3O[C@H](CO)[C@H](O)[C@H](O)[C@@H]3O)cc(O)c12
REMARK SMILES IDX 17 1 16 2 4 3 3 4 13 5 2 6 14 7 1 8 32 9 15 10 30 11 29 12
REMARK SMILES IDX 5 13 6 14 7 15 8 16 12 17 10 18 9 19 11 21 31 23 18 25 27 26
REMARK SMILES IDX 19 27 25 28 20 29 23 30 28 31 26 33 21 35 22 36 24 38
REMARK H PARENT 9 20 11 22 31 24 28 32 26 34 22 37 24 39
REMARK Flexibility Score: inf
ROOT
ATOM      1  O   UNL     1     -32.738  11.766  56.986  1.00  0.00    -0.462 OA
ENDROOT
BRANCH   1   2
ATOM      2  C   UNL     1     -32.523  13.086  57.417  1.00  0.00     0.130 A 
ATOM      3  C   UNL     1     -30.468  17.278  56.439  1.00  0.00     0.138 A 
ATOM      4  C   UNL     1     -30.945  17.860  57.625  1.00  0.00     0.100 A 
ATOM      5  O   UNL     1     -30.757  16.007  56.172  1.00  0.00    -0.456 OA
ATOM      6  C   UNL     1     -31.726  17.101  58.497  1.00  0.00     0.197 A 
ATOM      7  C   UNL     1     -31.497  15.243  56.971  1.00  0.00     0.146 A 
ATOM      8  O   UNL     1     -32.148  17.631  59.560  1.00  0.00    -0.289 OA
ATOM      9  C   UNL     1     -32.023  15.761  58.177  1.00  0.00     0.107 A 
ATOM     10  C   UNL     1     -31.751  13.920  56.602  1.00  0.00     0.094 A 
ATOM     11  C   UNL     1     -32.807  14.922  59.002  1.00  0.00     0.134 A 
ATOM     12  C   UNL     1     -33.053  13.596  58.616  1.00  0.00     0.093 A 
BRANCH   3  13
ATOM     13  C   UNL     1     -29.631  18.038  55.475  1.00  0.00     0.021 A 
ATOM     14  C   UNL     1     -30.151  19.112  54.732  1.00  0.00     0.016 A 
ATOM     15  C   UNL     1     -29.343  19.800  53.825  1.00  0.00     0.051 A 
ATOM     16  C   UNL     1     -28.007  19.432  53.634  1.00  0.00     0.157 A 
ATOM     17  C   UNL     1     -28.293  17.659  55.273  1.00  0.00     0.062 A 
ATOM     18  C   UNL     1     -27.476  18.345  54.366  1.00  0.00     0.158 A 
BRANCH  16  19
ATOM     19  O   UNL     1     -27.254  20.164  52.715  1.00  0.00    -0.504 OA
ATOM     20  H   UNL     1     -27.246  19.984  51.721  1.00  0.00     0.293 HD
ENDBRANCH  16  19
BRANCH  18  21
ATOM     21  O   UNL     1     -26.154  17.916  54.226  1.00  0.00    -0.504 OA
ATOM     22  H   UNL     1     -25.579  18.113  53.420  1.00  0.00     0.293 HD
ENDBRANCH  18  21
ENDBRANCH   3  13
BRANCH  11  23
ATOM     23  O   UNL     1     -33.345  15.396  60.199  1.00  0.00    -0.507 OA
ATOM     24  H   UNL     1     -34.220  15.905  60.227  1.00  0.00     0.293 HD
ENDBRANCH  11  23
ENDBRANCH   1   2
BRANCH   1  25
ATOM     25  C   UNL     1     -33.874  11.293  56.250  1.00  0.00     0.339 C 
ATOM     26  C   UNL     1     -34.267  12.280  55.117  1.00  0.00     0.214 C 
ATOM     27  O   UNL     1     -34.966  11.057  57.129  1.00  0.00    -0.332 OA
ATOM     28  C   UNL     1     -34.890  13.567  55.706  1.00  0.00     0.180 C 
ATOM     29  C   UNL     1     -35.380  12.247  57.786  1.00  0.00     0.179 C 
ATOM     30  C   UNL     1     -35.960  13.258  56.775  1.00  0.00     0.177 C 
BRANCH  26  31
ATOM     31  O   UNL     1     -35.120  11.663  54.182  1.00  0.00    -0.384 OA
ATOM     32  H   UNL     1     -36.027  12.052  54.280  1.00  0.00     0.211 HD
ENDBRANCH  26  31
BRANCH  28  33
ATOM     33  O   UNL     1     -35.380  14.422  54.702  1.00  0.00    -0.387 OA
ATOM     34  H   UNL     1     -35.878  15.161  55.137  1.00  0.00     0.211 HD
ENDBRANCH  28  33
BRANCH  29  35
ATOM     35  C   UNL     1     -36.416  11.887  58.861  1.00  0.00     0.191 C 
BRANCH  35  36
ATOM     36  O   UNL     1     -36.017  12.387  60.109  1.00  0.00    -0.394 OA
ATOM     37  H   UNL     1     -36.746  12.985  60.422  1.00  0.00     0.210 HD
ENDBRANCH  35  36
ENDBRANCH  29  35
BRANCH  30  38
ATOM     38  O   UNL     1     -37.125  12.735  56.185  1.00  0.00    -0.387 OA
ATOM     39  H   UNL     1     -37.081  12.947  55.216  1.00  0.00     0.211 HD
ENDBRANCH  30  38
ENDBRANCH   1  25
TORSDOF 11
ENDMDL
MODEL 2
REMARK VINA RESULT:    -6.267      2.543      4.137
REMARK INTER + INTRA:          -7.569
REMARK INTER:                  -7.733
REMARK INTRA:                   0.164
REMARK UNBOUND:                 1.445
REMARK SMILES O=c1cc(-c2ccc(O)c(O)c2)oc2cc(O[C@H]3O[C@H](CO)[C@H](O)[C@H](O)[C@@H]3O)cc(O)c12
REMARK SMILES IDX 17 1 16 2 4 3 3 4 13 5 2 6 14 7 1 8 32 9 15 10 30 11 29 12
REMARK SMILES IDX 5 13 6 14 7 15 8 16 12 17 10 18 9 19 11 21 31 23 18 25 27 26
REMARK SMILES IDX 19 27 25 28 20 29 23 30 28 31 26 33 21 35 22 36 24 38
REMARK H PARENT 9 20 11 22 31 24 28 32 26 34 22 37 24 39
REMARK Flexibility Score: inf
ROOT
ATOM      1  O   UNL     1     -35.472  14.775  55.930  1.00  0.00    -0.462 OA
ENDROOT
BRANCH   1   2
ATOM      2  C   UNL     1     -34.108  15.020  56.160  1.00  0.00     0.130 A 
ATOM      3  C   UNL     1     -30.825  18.256  57.385  1.00  0.00     0.138 A 
ATOM      4  C   UNL     1     -29.776  17.329  57.270  1.00  0.00     0.100 A 
ATOM      5  O   UNL     1     -32.071  17.869  57.130  1.00  0.00    -0.456 OA
ATOM      6  C   UNL     1     -30.060  16.013  56.903  1.00  0.00     0.197 A 
ATOM      7  C   UNL     1     -32.393  16.627  56.777  1.00  0.00     0.146 A 
ATOM      8  O   UNL     1     -29.113  15.189  56.800  1.00  0.00    -0.289 OA
ATOM      9  C   UNL     1     -31.394  15.634  56.651  1.00  0.00     0.107 A 
ATOM     10  C   UNL     1     -33.732  16.314  56.534  1.00  0.00     0.094 A 
ATOM     11  C   UNL     1     -31.769  14.323  56.277  1.00  0.00     0.134 A 
ATOM     12  C   UNL     1     -33.120  14.026  56.037  1.00  0.00     0.093 A 
BRANCH   3  13
ATOM     13  C   UNL     1     -30.581  19.670  57.771  1.00  0.00     0.021 A 
ATOM     14  C   UNL     1     -30.382  20.047  59.110  1.00  0.00     0.016 A 
ATOM     15  C   UNL     1     -30.166  21.386  59.442  1.00  0.00     0.051 A 
ATOM     16  C   UNL     1     -30.150  22.376  58.454  1.00  0.00     0.157 A 
ATOM     17  C   UNL     1     -30.580  20.666  56.779  1.00  0.00     0.062 A 
ATOM     18  C   UNL     1     -30.363  22.011  57.105  1.00  0.00     0.158 A 
BRANCH  16  19
ATOM     19  O   UNL     1     -29.927  23.694  58.855  1.00  0.00    -0.504 OA
ATOM     20  H   UNL     1     -30.392  24.134  59.636  1.00  0.00     0.293 HD
ENDBRANCH  16  19
BRANCH  18  21
ATOM     21  O   UNL     1     -30.367  22.943  56.064  1.00  0.00    -0.504 OA
ATOM     22  H   UNL     1     -29.540  23.409  55.721  1.00  0.00     0.293 HD
ENDBRANCH  18  21
ENDBRANCH   3  13
BRANCH  11  23
ATOM     23  O   UNL     1     -30.814  13.316  56.143  1.00  0.00    -0.507 OA
ATOM     24  H   UNL     1     -31.049  12.402  55.774  1.00  0.00     0.293 HD
ENDBRANCH  11  23
ENDBRANCH   1   2
BRANCH   1  25
ATOM     25  C   UNL     1     -36.404  14.241  56.879  1.00  0.00     0.339 C 
ATOM     26  C   UNL     1     -35.696  13.814  58.193  1.00  0.00     0.214 C 
ATOM     27  O   UNL     1     -37.125  13.159  56.306  1.00  0.00    -0.332 OA
ATOM     28  C   UNL     1     -34.844  12.543  57.965  1.00  0.00     0.180 C 
ATOM     29  C   UNL     1     -36.265  12.088  55.944  1.00  0.00     0.179 C 
ATOM     30  C   UNL     1     -35.621  11.454  57.195  1.00  0.00     0.177 C 
BRANCH  26  31
ATOM     31  O   UNL     1     -36.624  13.643  59.237  1.00  0.00    -0.384 OA
ATOM     32  H   UNL     1     -36.168  13.834  60.097  1.00  0.00     0.211 HD
ENDBRANCH  26  31
BRANCH  28  33
ATOM     33  O   UNL     1     -34.297  12.053  59.165  1.00  0.00    -0.387 OA
ATOM     34  H   UNL     1     -33.309  12.112  59.104  1.00  0.00     0.211 HD
ENDBRANCH  28  33
BRANCH  29  35
ATOM     35  C   UNL     1     -37.071  11.047  55.153  1.00  0.00     0.191 C 
BRANCH  35  36
ATOM     36  O   UNL     1     -37.113  11.392  53.795  1.00  0.00    -0.394 OA
ATOM     37  H   UNL     1     -38.059  11.609  53.585  1.00  0.00     0.210 HD
ENDBRANCH  35  36
ENDBRANCH  29  35
BRANCH  30  38
ATOM     38  O   UNL     1     -36.613  10.875  58.007  1.00  0.00    -0.387 OA
ATOM     39  H   UNL     1     -37.445  11.399  57.869  1.00  0.00     0.211 HD
ENDBRANCH  30  38
ENDBRANCH   1  25
TORSDOF 11
ENDMDL
MODEL 3
REMARK VINA RESULT:    -5.942      2.292      3.898
REMARK INTER + INTRA:          -7.102
REMARK INTER:                  -9.424
REMARK INTRA:                   2.322
REMARK UNBOUND:                 1.445
REMARK SMILES O=c1cc(-c2ccc(O)c(O)c2)oc2cc(O[C@H]3O[C@H](CO)[C@H](O)[C@H](O)[C@@H]3O)cc(O)c12
REMARK SMILES IDX 17 1 16 2 4 3 3 4 13 5 2 6 14 7 1 8 32 9 15 10 30 11 29 12
REMARK SMILES IDX 5 13 6 14 7 15 8 16 12 17 10 18 9 19 11 21 31 23 18 25 27 26
REMARK SMILES IDX 19 27 25 28 20 29 23 30 28 31 26 33 21 35 22 36 24 38
REMARK H PARENT 9 20 11 22 31 24 28 32 26 34 22 37 24 39
REMARK Flexibility Score: inf
ROOT
ATOM      1  O   UNL     1     -35.380  13.787  58.299  1.00  0.00    -0.462 OA
ENDROOT
BRANCH   1   2
ATOM      2  C   UNL     1     -34.077  14.167  57.934  1.00  0.00     0.130 A 
ATOM      3  C   UNL     1     -30.941  17.749  57.640  1.00  0.00     0.138 A 
ATOM      4  C   UNL     1     -29.944  16.917  57.104  1.00  0.00     0.100 A 
ATOM      5  O   UNL     1     -32.133  17.237  57.935  1.00  0.00    -0.456 OA
ATOM      6  C   UNL     1     -30.216  15.563  56.903  1.00  0.00     0.197 A 
ATOM      7  C   UNL     1     -32.439  15.954  57.760  1.00  0.00     0.146 A 
ATOM      8  O   UNL     1     -29.316  14.824  56.420  1.00  0.00    -0.289 OA
ATOM      9  C   UNL     1     -31.486  15.051  57.236  1.00  0.00     0.107 A 
ATOM     10  C   UNL     1     -33.718  15.508  58.104  1.00  0.00     0.094 A 
ATOM     11  C   UNL     1     -31.843  13.694  57.066  1.00  0.00     0.134 A 
ATOM     12  C   UNL     1     -33.132  13.263  57.417  1.00  0.00     0.093 A 
BRANCH   3  13
ATOM     13  C   UNL     1     -30.708  19.197  57.875  1.00  0.00     0.021 A 
ATOM     14  C   UNL     1     -30.544  19.719  59.169  1.00  0.00     0.016 A 
ATOM     15  C   UNL     1     -30.338  21.087  59.359  1.00  0.00     0.051 A 
ATOM     16  C   UNL     1     -30.298  21.963  58.270  1.00  0.00     0.157 A 
ATOM     17  C   UNL     1     -30.683  20.079  56.781  1.00  0.00     0.062 A 
ATOM     18  C   UNL     1     -30.476  21.452  56.963  1.00  0.00     0.158 A 
BRANCH  16  19
ATOM     19  O   UNL     1     -30.086  23.318  58.529  1.00  0.00    -0.504 OA
ATOM     20  H   UNL     1     -30.642  24.063  58.135  1.00  0.00     0.293 HD
ENDBRANCH  16  19
BRANCH  18  21
ATOM     21  O   UNL     1     -30.454  22.265  55.828  1.00  0.00    -0.504 OA
ATOM     22  H   UNL     1     -30.483  21.915  54.882  1.00  0.00     0.293 HD
ENDBRANCH  18  21
ENDBRANCH   3  13
BRANCH  11  23
ATOM     23  O   UNL     1     -30.931  12.772  56.553  1.00  0.00    -0.507 OA
ATOM     24  H   UNL     1     -30.420  12.946  55.696  1.00  0.00     0.293 HD
ENDBRANCH  11  23
ENDBRANCH   1   2
BRANCH   1  25
ATOM     25  C   UNL     1     -36.395  13.297  57.413  1.00  0.00     0.339 C 
ATOM     26  C   UNL     1     -36.005  11.922  56.808  1.00  0.00     0.214 C 
ATOM     27  O   UNL     1     -36.662  14.251  56.396  1.00  0.00    -0.332 OA
ATOM     28  C   UNL     1     -34.859  12.082  55.782  1.00  0.00     0.180 C 
ATOM     29  C   UNL     1     -35.516  14.499  55.593  1.00  0.00     0.179 C 
ATOM     30  C   UNL     1     -35.121  13.239  54.794  1.00  0.00     0.177 C 
BRANCH  26  31
ATOM     31  O   UNL     1     -37.125  11.278  56.248  1.00  0.00    -0.384 OA
ATOM     32  H   UNL     1     -37.243  10.404  56.700  1.00  0.00     0.211 HD
ENDBRANCH  26  31
BRANCH  28  33
ATOM     33  O   UNL     1     -34.574  10.875  55.116  1.00  0.00    -0.387 OA
ATOM     34  H   UNL     1     -33.600  10.841  54.937  1.00  0.00     0.211 HD
ENDBRANCH  28  33
BRANCH  29  35
ATOM     35  C   UNL     1     -35.811  15.677  54.653  1.00  0.00     0.191 C 
BRANCH  35  36
ATOM     36  O   UNL     1     -35.175  16.839  55.112  1.00  0.00    -0.394 OA
ATOM     37  H   UNL     1     -34.434  17.028  54.478  1.00  0.00     0.210 HD
ENDBRANCH  35  36
ENDBRANCH  29  35
BRANCH  30  38
ATOM     38  O   UNL     1     -36.144  12.905  53.888  1.00  0.00    -0.387 OA
ATOM     39  H   UNL     1     -35.709  12.492  53.097  1.00  0.00     0.211 HD
ENDBRANCH  30  38
ENDBRANCH   1  25
TORSDOF 11
ENDMDL
MODEL 4
REMARK VINA RESULT:    -5.839      2.786      3.577
REMARK INTER + INTRA:          -6.954
REMARK INTER:                  -6.514
REMARK INTRA:                  -0.441
REMARK UNBOUND:                 1.445
REMARK SMILES O=c1cc(-c2ccc(O)c(O)c2)oc2cc(O[C@H]3O[C@H](CO)[C@H](O)[C@H](O)[C@@H]3O)cc(O)c12
REMARK SMILES IDX 17 1 16 2 4 3 3 4 13 5 2 6 14 7 1 8 32 9 15 10 30 11 29 12
REMARK SMILES IDX 5 13 6 14 7 15 8 16 12 17 10 18 9 19 11 21 31 23 18 25 27 26
REMARK SMILES IDX 19 27 25 28 20 29 23 30 28 31 26 33 21 35 22 36 24 38
REMARK H PARENT 9 20 11 22 31 24 28 32 26 34 22 37 24 39
REMARK Flexibility Score: inf
ROOT
ATOM      1  O   UNL     1     -33.850  13.899  57.905  1.00  0.00    -0.462 OA
ENDROOT
BRANCH   1   2
ATOM      2  C   UNL     1     -33.096  14.939  57.335  1.00  0.00     0.130 A 
ATOM      3  C   UNL     1     -29.094  17.522  57.592  1.00  0.00     0.138 A 
ATOM      4  C   UNL     1     -29.444  18.292  56.471  1.00  0.00     0.100 A 
ATOM      5  O   UNL     1     -29.921  16.569  58.014  1.00  0.00    -0.456 OA
ATOM      6  C   UNL     1     -30.645  18.036  55.809  1.00  0.00     0.197 A 
ATOM      7  C   UNL     1     -31.076  16.287  57.418  1.00  0.00     0.146 A 
ATOM      8  O   UNL     1     -30.952  18.733  54.805  1.00  0.00    -0.289 OA
ATOM      9  C   UNL     1     -31.492  17.011  56.277  1.00  0.00     0.107 A 
ATOM     10  C   UNL     1     -31.875  15.263  57.933  1.00  0.00     0.094 A 
ATOM     11  C   UNL     1     -32.724  16.684  55.666  1.00  0.00     0.134 A 
ATOM     12  C   UNL     1     -33.514  15.652  56.196  1.00  0.00     0.093 A 
BRANCH   3  13
ATOM     13  C   UNL     1     -27.829  17.751  58.336  1.00  0.00     0.021 A 
ATOM     14  C   UNL     1     -27.656  18.867  59.173  1.00  0.00     0.016 A 
ATOM     15  C   UNL     1     -26.451  19.062  59.850  1.00  0.00     0.051 A 
ATOM     16  C   UNL     1     -25.394  18.158  59.707  1.00  0.00     0.157 A 
ATOM     17  C   UNL     1     -26.762  16.850  58.180  1.00  0.00     0.062 A 
ATOM     18  C   UNL     1     -25.551  17.038  58.857  1.00  0.00     0.158 A 
BRANCH  16  19
ATOM     19  O   UNL     1     -24.218  18.410  60.415  1.00  0.00    -0.504 OA
ATOM     20  H   UNL     1     -24.109  18.248  61.406  1.00  0.00     0.293 HD
ENDBRANCH  16  19
BRANCH  18  21
ATOM     21  O   UNL     1     -24.540  16.095  58.659  1.00  0.00    -0.504 OA
ATOM     22  H   UNL     1     -24.642  15.109  58.849  1.00  0.00     0.293 HD
ENDBRANCH  18  21
ENDBRANCH   3  13
BRANCH  11  23
ATOM     23  O   UNL     1     -33.169  17.374  54.538  1.00  0.00    -0.507 OA
ATOM     24  H   UNL     1     -33.093  16.982  53.608  1.00  0.00     0.293 HD
ENDBRANCH  11  23
ENDBRANCH   1   2
BRANCH   1  25
ATOM     25  C   UNL     1     -33.935  12.554  57.417  1.00  0.00     0.339 C 
ATOM     26  C   UNL     1     -34.266  12.520  55.900  1.00  0.00     0.214 C 
ATOM     27  O   UNL     1     -34.887  11.816  58.169  1.00  0.00    -0.332 OA
ATOM     28  C   UNL     1     -35.731  12.950  55.652  1.00  0.00     0.180 C 
ATOM     29  C   UNL     1     -36.191  12.368  58.052  1.00  0.00     0.179 C 
ATOM     30  C   UNL     1     -36.715  12.239  56.606  1.00  0.00     0.177 C 
BRANCH  26  31
ATOM     31  O   UNL     1     -33.990  11.254  55.349  1.00  0.00    -0.384 OA
ATOM     32  H   UNL     1     -33.070  11.267  54.980  1.00  0.00     0.211 HD
ENDBRANCH  26  31
BRANCH  28  33
ATOM     33  O   UNL     1     -36.103  12.800  54.303  1.00  0.00    -0.387 OA
ATOM     34  H   UNL     1     -35.362  12.347  53.825  1.00  0.00     0.211 HD
ENDBRANCH  28  33
BRANCH  29  35
ATOM     35  C   UNL     1     -37.125  11.655  59.041  1.00  0.00     0.191 C 
BRANCH  35  36
ATOM     36  O   UNL     1     -36.810  12.018  60.358  1.00  0.00    -0.394 OA
ATOM     37  H   UNL     1     -36.608  11.176  60.845  1.00  0.00     0.210 HD
ENDBRANCH  35  36
ENDBRANCH  29  35
BRANCH  30  38
ATOM     38  O   UNL     1     -36.854  10.881  56.264  1.00  0.00    -0.387 OA
ATOM     39  H   UNL     1     -36.735  10.814  55.281  1.00  0.00     0.211 HD
ENDBRANCH  30  38
ENDBRANCH   1  25
TORSDOF 11
ENDMDL
MODEL 5
REMARK VINA RESULT:    -5.565      2.541      4.008
REMARK INTER + INTRA:          -6.559
REMARK INTER:                  -7.512
REMARK INTRA:                   0.953
REMARK UNBOUND:                 1.445
REMARK SMILES O=c1cc(-c2ccc(O)c(O)c2)oc2cc(O[C@H]3O[C@H](CO)[C@H](O)[C@H](O)[C@@H]3O)cc(O)c12
REMARK SMILES IDX 17 1 16 2 4 3 3 4 13 5 2 6 14 7 1 8 32 9 15 10 30 11 29 12
REMARK SMILES IDX 5 13 6 14 7 15 8 16 12 17 10 18 9 19 11 21 31 23 18 25 27 26
REMARK SMILES IDX 19 27 25 28 20 29 23 30 28 31 26 33 21 35 22 36 24 38
REMARK H PARENT 9 20 11 22 31 24 28 32 26 34 22 37 24 39
REMARK Flexibility Score: inf
ROOT
ATOM      1  O   UNL     1     -34.926  14.250  58.420  1.00  0.00    -0.462 OA
ENDROOT
BRANCH   1   2
ATOM      2  C   UNL     1     -34.129  15.122  57.659  1.00  0.00     0.130 A 
ATOM      3  C   UNL     1     -29.886  17.264  57.255  1.00  0.00     0.138 A 
ATOM      4  C   UNL     1     -30.260  17.923  56.073  1.00  0.00     0.100 A 
ATOM      5  O   UNL     1     -30.760  16.466  57.864  1.00  0.00    -0.456 OA
ATOM      6  C   UNL     1     -31.537  17.719  55.548  1.00  0.00     0.197 A 
ATOM      7  C   UNL     1     -31.987  16.241  57.404  1.00  0.00     0.146 A 
ATOM      8  O   UNL     1     -31.865  18.316  54.487  1.00  0.00    -0.289 OA
ATOM      9  C   UNL     1     -32.433  16.859  56.213  1.00  0.00     0.107 A 
ATOM     10  C   UNL     1     -32.832  15.382  58.111  1.00  0.00     0.094 A 
ATOM     11  C   UNL     1     -33.743  16.596  55.749  1.00  0.00     0.134 A 
ATOM     12  C   UNL     1     -34.578  15.731  56.473  1.00  0.00     0.093 A 
BRANCH   3  13
ATOM     13  C   UNL     1     -28.541  17.443  57.860  1.00  0.00     0.021 A 
ATOM     14  C   UNL     1     -27.404  16.806  57.335  1.00  0.00     0.016 A 
ATOM     15  C   UNL     1     -26.155  16.985  57.932  1.00  0.00     0.051 A 
ATOM     16  C   UNL     1     -26.011  17.795  59.064  1.00  0.00     0.157 A 
ATOM     17  C   UNL     1     -28.400  18.245  59.006  1.00  0.00     0.062 A 
ATOM     18  C   UNL     1     -27.151  18.431  59.609  1.00  0.00     0.158 A 
BRANCH  16  19
ATOM     19  O   UNL     1     -24.734  17.934  59.609  1.00  0.00    -0.504 OA
ATOM     20  H   UNL     1     -23.888  17.627  59.152  1.00  0.00     0.293 HD
ENDBRANCH  16  19
BRANCH  18  21
ATOM     21  O   UNL     1     -27.087  19.249  60.740  1.00  0.00    -0.504 OA
ATOM     22  H   UNL     1     -26.270  19.774  61.012  1.00  0.00     0.293 HD
ENDBRANCH  18  21
ENDBRANCH   3  13
BRANCH  11  23
ATOM     23  O   UNL     1     -34.220  17.186  54.579  1.00  0.00    -0.507 OA
ATOM     24  H   UNL     1     -35.093  16.898  54.153  1.00  0.00     0.293 HD
ENDBRANCH  11  23
ENDBRANCH   1   2
BRANCH   1  25
ATOM     25  C   UNL     1     -34.939  12.820  58.323  1.00  0.00     0.339 C 
ATOM     26  C   UNL     1     -33.538  12.263  57.954  1.00  0.00     0.214 C 
ATOM     27  O   UNL     1     -35.923  12.399  57.390  1.00  0.00    -0.332 OA
ATOM     28  C   UNL     1     -33.190  12.592  56.483  1.00  0.00     0.180 C 
ATOM     29  C   UNL     1     -35.652  12.886  56.083  1.00  0.00     0.179 C 
ATOM     30  C   UNL     1     -34.354  12.265  55.524  1.00  0.00     0.177 C 
BRANCH  26  31
ATOM     31  O   UNL     1     -33.455  10.882  58.217  1.00  0.00    -0.384 OA
ATOM     32  H   UNL     1     -34.339  10.572  58.543  1.00  0.00     0.211 HD
ENDBRANCH  26  31
BRANCH  28  33
ATOM     33  O   UNL     1     -31.987  11.985  56.078  1.00  0.00    -0.387 OA
ATOM     34  H   UNL     1     -31.293  12.690  56.002  1.00  0.00     0.211 HD
ENDBRANCH  28  33
BRANCH  29  35
ATOM     35  C   UNL     1     -36.849  12.569  55.175  1.00  0.00     0.191 C 
BRANCH  35  36
ATOM     36  O   UNL     1     -36.408  12.046  53.951  1.00  0.00    -0.394 OA
ATOM     37  H   UNL     1     -35.460  11.780  54.080  1.00  0.00     0.210 HD
ENDBRANCH  35  36
ENDBRANCH  29  35
BRANCH  30  38
ATOM     38  O   UNL     1     -34.510  10.875  55.377  1.00  0.00    -0.387 OA
ATOM     39  H   UNL     1     -34.926  10.720  54.489  1.00  0.00     0.211 HD
ENDBRANCH  30  38
ENDBRANCH   1  25
TORSDOF 11
ENDMDL
MODEL 6
REMARK VINA RESULT:    -5.501      2.139      8.697
REMARK INTER + INTRA:          -6.467
REMARK INTER:                  -7.154
REMARK INTRA:                   0.686
REMARK UNBOUND:                 1.445
REMARK SMILES O=c1cc(-c2ccc(O)c(O)c2)oc2cc(O[C@H]3O[C@H](CO)[C@H](O)[C@H](O)[C@@H]3O)cc(O)c12
REMARK SMILES IDX 17 1 16 2 4 3 3 4 13 5 2 6 14 7 1 8 32 9 15 10 30 11 29 12
REMARK SMILES IDX 5 13 6 14 7 15 8 16 12 17 10 18 9 19 11 21 31 23 18 25 27 26
REMARK SMILES IDX 19 27 25 28 20 29 23 30 28 31 26 33 21 35 22 36 24 38
REMARK H PARENT 9 20 11 22 31 24 28 32 26 34 22 37 24 39
REMARK Flexibility Score: inf
ROOT
ATOM      1  O   UNL     1     -29.475  19.558  55.050  1.00  0.00    -0.462 OA
ENDROOT
BRANCH   1   2
ATOM      2  C   UNL     1     -30.250  18.806  55.950  1.00  0.00     0.130 A 
ATOM      3  C   UNL     1     -33.558  15.404  56.433  1.00  0.00     0.138 A 
ATOM      4  C   UNL     1     -33.549  15.506  57.834  1.00  0.00     0.100 A 
ATOM      5  O   UNL     1     -32.763  16.193  55.715  1.00  0.00    -0.456 OA
ATOM      6  C   UNL     1     -32.695  16.421  58.451  1.00  0.00     0.197 A 
ATOM      7  C   UNL     1     -31.933  17.081  56.256  1.00  0.00     0.146 A 
ATOM      8  O   UNL     1     -32.695  16.507  59.708  1.00  0.00    -0.289 OA
ATOM      9  C   UNL     1     -31.858  17.233  57.660  1.00  0.00     0.107 A 
ATOM     10  C   UNL     1     -31.133  17.861  55.418  1.00  0.00     0.094 A 
ATOM     11  C   UNL     1     -30.964  18.185  58.202  1.00  0.00     0.134 A 
ATOM     12  C   UNL     1     -30.167  18.960  57.346  1.00  0.00     0.093 A 
BRANCH   3  13
ATOM     13  C   UNL     1     -34.446  14.448  55.724  1.00  0.00     0.021 A 
ATOM     14  C   UNL     1     -35.711  14.831  55.245  1.00  0.00     0.016 A 
ATOM     15  C   UNL     1     -36.529  13.907  54.592  1.00  0.00     0.051 A 
ATOM     16  C   UNL     1     -36.110  12.586  54.405  1.00  0.00     0.157 A 
ATOM     17  C   UNL     1     -34.031  13.117  55.549  1.00  0.00     0.062 A 
ATOM     18  C   UNL     1     -34.844  12.185  54.893  1.00  0.00     0.158 A 
BRANCH  16  19
ATOM     19  O   UNL     1     -36.974  11.714  53.741  1.00  0.00    -0.504 OA
ATOM     20  H   UNL     1     -36.858  10.711  53.718  1.00  0.00     0.293 HD
ENDBRANCH  16  19
BRANCH  18  21
ATOM     21  O   UNL     1     -34.360  10.883  54.750  1.00  0.00    -0.504 OA
ATOM     22  H   UNL     1     -33.416  10.604  54.972  1.00  0.00     0.293 HD
ENDBRANCH  18  21
ENDBRANCH   3  13
BRANCH  11  23
ATOM     23  O   UNL     1     -30.860  18.365  59.581  1.00  0.00    -0.507 OA
ATOM     24  H   UNL     1     -29.962  18.428  60.046  1.00  0.00     0.293 HD
ENDBRANCH  11  23
ENDBRANCH   1   2
BRANCH   1  25
ATOM     25  C   UNL     1     -28.090  19.347  54.750  1.00  0.00     0.339 C 
ATOM     26  C   UNL     1     -27.574  18.013  55.355  1.00  0.00     0.214 C 
ATOM     27  O   UNL     1     -27.315  20.450  55.200  1.00  0.00    -0.332 OA
ATOM     28  C   UNL     1     -27.465  18.118  56.894  1.00  0.00     0.180 C 
ATOM     29  C   UNL     1     -27.400  20.612  56.609  1.00  0.00     0.179 C 
ATOM     30  C   UNL     1     -26.757  19.415  57.340  1.00  0.00     0.177 C 
BRANCH  26  31
ATOM     31  O   UNL     1     -26.354  17.628  54.767  1.00  0.00    -0.384 OA
ATOM     32  H   UNL     1     -26.503  16.793  54.253  1.00  0.00     0.211 HD
ENDBRANCH  26  31
BRANCH  28  33
ATOM     33  O   UNL     1     -26.874  16.973  57.459  1.00  0.00    -0.387 OA
ATOM     34  H   UNL     1     -26.212  16.614  56.814  1.00  0.00     0.211 HD
ENDBRANCH  28  33
BRANCH  29  35
ATOM     35  C   UNL     1     -26.714  21.929  57.001  1.00  0.00     0.191 C 
BRANCH  35  36
ATOM     36  O   UNL     1     -25.784  22.305  56.022  1.00  0.00    -0.394 OA
ATOM     37  H   UNL     1     -25.024  22.731  56.500  1.00  0.00     0.210 HD
ENDBRANCH  35  36
ENDBRANCH  29  35
BRANCH  30  38
ATOM     38  O   UNL     1     -25.381  19.360  57.054  1.00  0.00    -0.387 OA
ATOM     39  H   UNL     1     -24.930  20.000  57.665  1.00  0.00     0.211 HD
ENDBRANCH  30  38
ENDBRANCH   1  25
TORSDOF 11
ENDMDL
MODEL 7
REMARK VINA RESULT:    -5.137      2.790      9.154
REMARK INTER + INTRA:          -5.944
REMARK INTER:                  -6.631
REMARK INTRA:                   0.687
REMARK UNBOUND:                 1.445
REMARK SMILES O=c1cc(-c2ccc(O)c(O)c2)oc2cc(O[C@H]3O[C@H](CO)[C@H](O)[C@H](O)[C@@H]3O)cc(O)c12
REMARK SMILES IDX 17 1 16 2 4 3 3 4 13 5 2 6 14 7 1 8 32 9 15 10 30 11 29 12
REMARK SMILES IDX 5 13 6 14 7 15 8 16 12 17 10 18 9 19 11 21 31 23 18 25 27 26
REMARK SMILES IDX 19 27 25 28 20 29 23 30 28 31 26 33 21 35 22 36 24 38
REMARK H PARENT 9 20 11 22 31 24 28 32 26 34 22 37 24 39
REMARK Flexibility Score: inf
ROOT
ATOM      1  O   UNL     1     -27.897  17.395  57.667  1.00  0.00    -0.462 OA
ENDROOT
BRANCH   1   2
ATOM      2  C   UNL     1     -29.189  17.271  57.128  1.00  0.00     0.130 A 
ATOM      3  C   UNL     1     -33.526  15.358  57.658  1.00  0.00     0.138 A 
ATOM      4  C   UNL     1     -33.997  15.939  56.469  1.00  0.00     0.100 A 
ATOM      5  O   UNL     1     -32.268  15.568  58.035  1.00  0.00    -0.456 OA
ATOM      6  C   UNL     1     -33.142  16.739  55.710  1.00  0.00     0.197 A 
ATOM      7  C   UNL     1     -31.415  16.322  57.347  1.00  0.00     0.146 A 
ATOM      8  O   UNL     1     -33.573  17.254  54.644  1.00  0.00    -0.289 OA
ATOM      9  C   UNL     1     -31.818  16.949  56.145  1.00  0.00     0.107 A 
ATOM     10  C   UNL     1     -30.114  16.488  57.826  1.00  0.00     0.094 A 
ATOM     11  C   UNL     1     -30.888  17.746  55.438  1.00  0.00     0.134 A 
ATOM     12  C   UNL     1     -29.584  17.902  55.935  1.00  0.00     0.093 A 
BRANCH   3  13
ATOM     13  C   UNL     1     -34.391  14.497  58.505  1.00  0.00     0.021 A 
ATOM     14  C   UNL     1     -34.589  14.764  59.871  1.00  0.00     0.016 A 
ATOM     15  C   UNL     1     -35.398  13.930  60.644  1.00  0.00     0.051 A 
ATOM     16  C   UNL     1     -36.022  12.813  60.079  1.00  0.00     0.157 A 
ATOM     17  C   UNL     1     -35.006  13.367  57.940  1.00  0.00     0.062 A 
ATOM     18  C   UNL     1     -35.820  12.526  58.709  1.00  0.00     0.158 A 
BRANCH  16  19
ATOM     19  O   UNL     1     -36.821  12.023  60.907  1.00  0.00    -0.504 OA
ATOM     20  H   UNL     1     -36.600  11.810  61.870  1.00  0.00     0.293 HD
ENDBRANCH  16  19
BRANCH  18  21
ATOM     21  O   UNL     1     -36.405  11.427  58.076  1.00  0.00    -0.504 OA
ATOM     22  H   UNL     1     -36.486  10.511  58.494  1.00  0.00     0.293 HD
ENDBRANCH  18  21
ENDBRANCH   3  13
BRANCH  11  23
ATOM     23  O   UNL     1     -31.247  18.382  54.250  1.00  0.00    -0.507 OA
ATOM     24  H   UNL     1     -30.826  18.134  53.363  1.00  0.00     0.293 HD
ENDBRANCH  11  23
ENDBRANCH   1   2
BRANCH   1  25
ATOM     25  C   UNL     1     -27.440  18.444  58.530  1.00  0.00     0.339 C 
ATOM     26  C   UNL     1     -28.619  19.107  59.291  1.00  0.00     0.214 C 
ATOM     27  O   UNL     1     -26.700  19.404  57.788  1.00  0.00    -0.332 OA
ATOM     28  C   UNL     1     -29.481  19.957  58.328  1.00  0.00     0.180 C 
ATOM     29  C   UNL     1     -27.497  20.025  56.789  1.00  0.00     0.179 C 
ATOM     30  C   UNL     1     -28.620  20.869  57.429  1.00  0.00     0.177 C 
BRANCH  26  31
ATOM     31  O   UNL     1     -28.156  19.862  60.385  1.00  0.00    -0.384 OA
ATOM     32  H   UNL     1     -28.927  20.064  60.976  1.00  0.00     0.211 HD
ENDBRANCH  26  31
BRANCH  28  33
ATOM     33  O   UNL     1     -30.478  20.679  59.010  1.00  0.00    -0.387 OA
ATOM     34  H   UNL     1     -31.354  20.467  58.597  1.00  0.00     0.211 HD
ENDBRANCH  28  33
BRANCH  29  35
ATOM     35  C   UNL     1     -26.594  20.893  55.900  1.00  0.00     0.191 C 
BRANCH  35  36
ATOM     36  O   UNL     1     -25.516  21.395  56.642  1.00  0.00    -0.394 OA
ATOM     37  H   UNL     1     -24.910  21.844  55.996  1.00  0.00     0.210 HD
ENDBRANCH  35  36
ENDBRANCH  29  35
BRANCH  30  38
ATOM     38  O   UNL     1     -28.063  21.927  58.171  1.00  0.00    -0.387 OA
ATOM     39  H   UNL     1     -27.255  21.572  58.623  1.00  0.00     0.211 HD
ENDBRANCH  30  38
ENDBRANCH   1  25
TORSDOF 11
ENDMDL
MODEL 8
REMARK VINA RESULT:    -5.136      1.216      2.495
REMARK INTER + INTRA:          -5.943
REMARK INTER:                  -7.642
REMARK INTRA:                   1.699
REMARK UNBOUND:                 1.445
REMARK SMILES O=c1cc(-c2ccc(O)c(O)c2)oc2cc(O[C@H]3O[C@H](CO)[C@H](O)[C@H](O)[C@@H]3O)cc(O)c12
REMARK SMILES IDX 17 1 16 2 4 3 3 4 13 5 2 6 14 7 1 8 32 9 15 10 30 11 29 12
REMARK SMILES IDX 5 13 6 14 7 15 8 16 12 17 10 18 9 19 11 21 31 23 18 25 27 26
REMARK SMILES IDX 19 27 25 28 20 29 23 30 28 31 26 33 21 35 22 36 24 38
REMARK H PARENT 9 20 11 22 31 24 28 32 26 34 22 37 24 39
REMARK Flexibility Score: inf
ROOT
ATOM      1  O   UNL     1     -35.513  14.761  55.909  1.00  0.00    -0.462 OA
ENDROOT
BRANCH   1   2
ATOM      2  C   UNL     1     -34.446  15.416  56.546  1.00  0.00     0.130 A 
ATOM      3  C   UNL     1     -30.451  17.958  55.963  1.00  0.00     0.138 A 
ATOM      4  C   UNL     1     -30.229  18.045  57.347  1.00  0.00     0.100 A 
ATOM      5  O   UNL     1     -31.514  17.296  55.511  1.00  0.00    -0.456 OA
ATOM      6  C   UNL     1     -31.134  17.449  58.227  1.00  0.00     0.197 A 
ATOM      7  C   UNL     1     -32.404  16.712  56.309  1.00  0.00     0.146 A 
ATOM      8  O   UNL     1     -30.925  17.530  59.467  1.00  0.00    -0.289 OA
ATOM      9  C   UNL     1     -32.255  16.765  57.714  1.00  0.00     0.107 A 
ATOM     10  C   UNL     1     -33.491  16.044  55.741  1.00  0.00     0.094 A 
ATOM     11  C   UNL     1     -33.220  16.136  58.533  1.00  0.00     0.134 A 
ATOM     12  C   UNL     1     -34.306  15.470  57.945  1.00  0.00     0.093 A 
BRANCH   3  13
ATOM     13  C   UNL     1     -29.522  18.571  54.981  1.00  0.00     0.021 A 
ATOM     14  C   UNL     1     -29.952  19.547  54.065  1.00  0.00     0.016 A 
ATOM     15  C   UNL     1     -29.058  20.097  53.146  1.00  0.00     0.051 A 
ATOM     16  C   UNL     1     -27.721  19.687  53.113  1.00  0.00     0.157 A 
ATOM     17  C   UNL     1     -28.182  18.148  54.939  1.00  0.00     0.062 A 
ATOM     18  C   UNL     1     -27.279  18.697  54.021  1.00  0.00     0.158 A 
BRANCH  16  19
ATOM     19  O   UNL     1     -26.879  20.280  52.172  1.00  0.00    -0.504 OA
ATOM     20  H   UNL     1     -26.181  20.976  52.395  1.00  0.00     0.293 HD
ENDBRANCH  16  19
BRANCH  18  21
ATOM     21  O   UNL     1     -25.961  18.233  54.045  1.00  0.00    -0.504 OA
ATOM     22  H   UNL     1     -25.670  17.339  53.678  1.00  0.00     0.293 HD
ENDBRANCH  18  21
ENDBRANCH   3  13
BRANCH  11  23
ATOM     23  O   UNL     1     -33.109  16.167  59.924  1.00  0.00    -0.507 OA
ATOM     24  H   UNL     1     -32.215  16.074  60.390  1.00  0.00     0.293 HD
ENDBRANCH  11  23
ENDBRANCH   1   2
BRANCH   1  25
ATOM     25  C   UNL     1     -35.690  13.343  55.803  1.00  0.00     0.339 C 
ATOM     26  C   UNL     1     -36.657  12.808  56.894  1.00  0.00     0.214 C 
ATOM     27  O   UNL     1     -34.433  12.685  55.860  1.00  0.00    -0.332 OA
ATOM     28  C   UNL     1     -35.987  12.855  58.287  1.00  0.00     0.180 C 
ATOM     29  C   UNL     1     -33.775  12.915  57.099  1.00  0.00     0.179 C 
ATOM     30  C   UNL     1     -34.557  12.273  58.264  1.00  0.00     0.177 C 
BRANCH  26  31
ATOM     31  O   UNL     1     -37.115  11.516  56.575  1.00  0.00    -0.384 OA
ATOM     32  H   UNL     1     -36.492  11.115  55.916  1.00  0.00     0.211 HD
ENDBRANCH  26  31
BRANCH  28  33
ATOM     33  O   UNL     1     -36.786  12.252  59.276  1.00  0.00    -0.387 OA
ATOM     34  H   UNL     1     -36.250  12.180  60.108  1.00  0.00     0.211 HD
ENDBRANCH  28  33
BRANCH  29  35
ATOM     35  C   UNL     1     -32.348  12.352  57.018  1.00  0.00     0.191 C 
BRANCH  35  36
ATOM     36  O   UNL     1     -32.289  11.307  56.084  1.00  0.00    -0.394 OA
ATOM     37  H   UNL     1     -32.147  11.727  55.195  1.00  0.00     0.210 HD
ENDBRANCH  35  36
ENDBRANCH  29  35
BRANCH  30  38
ATOM     38  O   UNL     1     -34.585  10.875  58.113  1.00  0.00    -0.387 OA
ATOM     39  H   UNL     1     -34.032  10.492  58.842  1.00  0.00     0.211 HD
ENDBRANCH  30  38
ENDBRANCH   1  25
TORSDOF 11
ENDMDL
MODEL 9
REMARK VINA RESULT:    -4.813      3.456      5.236
REMARK INTER + INTRA:          -5.478
REMARK INTER:                  -4.591
REMARK INTRA:                  -0.887
REMARK UNBOUND:                 1.445
REMARK SMILES O=c1cc(-c2ccc(O)c(O)c2)oc2cc(O[C@H]3O[C@H](CO)[C@H](O)[C@H](O)[C@@H]3O)cc(O)c12
REMARK SMILES IDX 17 1 16 2 4 3 3 4 13 5 2 6 14 7 1 8 32 9 15 10 30 11 29 12
REMARK SMILES IDX 5 13 6 14 7 15 8 16 12 17 10 18 9 19 11 21 31 23 18 25 27 26
REMARK SMILES IDX 19 27 25 28 20 29 23 30 28 31 26 33 21 35 22 36 24 38
REMARK H PARENT 9 20 11 22 31 24 28 32 26 34 22 37 24 39
REMARK Flexibility Score: inf
ROOT
ATOM      1  O   UNL     1     -32.501  15.159  56.921  1.00  0.00    -0.462 OA
ENDROOT
BRANCH   1   2
ATOM      2  C   UNL     1     -31.396  16.009  57.099  1.00  0.00     0.130 A 
ATOM      3  C   UNL     1     -29.934  20.430  58.136  1.00  0.00     0.138 A 
ATOM      4  C   UNL     1     -28.579  20.080  58.006  1.00  0.00     0.100 A 
ATOM      5  O   UNL     1     -30.870  19.506  57.932  1.00  0.00    -0.456 OA
ATOM      6  C   UNL     1     -28.237  18.768  57.680  1.00  0.00     0.197 A 
ATOM      7  C   UNL     1     -30.594  18.243  57.620  1.00  0.00     0.146 A 
ATOM      8  O   UNL     1     -27.019  18.464  57.563  1.00  0.00    -0.289 OA
ATOM      9  C   UNL     1     -29.254  17.812  57.482  1.00  0.00     0.107 A 
ATOM     10  C   UNL     1     -31.646  17.344  57.430  1.00  0.00     0.094 A 
ATOM     11  C   UNL     1     -28.996  16.462  57.151  1.00  0.00     0.134 A 
ATOM     12  C   UNL     1     -30.065  15.573  56.965  1.00  0.00     0.093 A 
BRANCH   3  13
ATOM     13  C   UNL     1     -30.356  21.811  58.480  1.00  0.00     0.021 A 
ATOM     14  C   UNL     1     -30.354  22.844  57.526  1.00  0.00     0.016 A 
ATOM     15  C   UNL     1     -30.746  24.135  57.882  1.00  0.00     0.051 A 
ATOM     16  C   UNL     1     -31.143  24.429  59.191  1.00  0.00     0.157 A 
ATOM     17  C   UNL     1     -30.741  22.108  59.798  1.00  0.00     0.062 A 
ATOM     18  C   UNL     1     -31.137  23.401  60.163  1.00  0.00     0.158 A 
BRANCH  16  19
ATOM     19  O   UNL     1     -31.525  25.739  59.479  1.00  0.00    -0.504 OA
ATOM     20  H   UNL     1     -31.532  26.488  58.801  1.00  0.00     0.293 HD
ENDBRANCH  16  19
BRANCH  18  21
ATOM     21  O   UNL     1     -31.514  23.618  61.490  1.00  0.00    -0.504 OA
ATOM     22  H   UNL     1     -31.490  24.519  61.944  1.00  0.00     0.293 HD
ENDBRANCH  18  21
ENDBRANCH   3  13
BRANCH  11  23
ATOM     23  O   UNL     1     -27.688  15.998  57.008  1.00  0.00    -0.507 OA
ATOM     24  H   UNL     1     -27.465  15.011  57.041  1.00  0.00     0.293 HD
ENDBRANCH  11  23
ENDBRANCH   1   2
BRANCH   1  25
ATOM     25  C   UNL     1     -33.747  15.240  57.624  1.00  0.00     0.339 C 
ATOM     26  C   UNL     1     -33.827  14.186  58.761  1.00  0.00     0.214 C 
ATOM     27  O   UNL     1     -34.833  15.103  56.718  1.00  0.00    -0.332 OA
ATOM     28  C   UNL     1     -33.982  12.763  58.176  1.00  0.00     0.180 C 
ATOM     29  C   UNL     1     -34.820  13.840  56.068  1.00  0.00     0.179 C 
ATOM     30  C   UNL     1     -35.065  12.700  57.079  1.00  0.00     0.177 C 
BRANCH  26  31
ATOM     31  O   UNL     1     -34.859  14.496  59.668  1.00  0.00    -0.384 OA
ATOM     32  H   UNL     1     -35.643  13.927  59.458  1.00  0.00     0.211 HD
ENDBRANCH  26  31
BRANCH  28  33
ATOM     33  O   UNL     1     -34.192  11.800  59.181  1.00  0.00    -0.387 OA
ATOM     34  H   UNL     1     -34.853  12.162  59.825  1.00  0.00     0.211 HD
ENDBRANCH  28  33
BRANCH  29  35
ATOM     35  C   UNL     1     -35.888  13.836  54.964  1.00  0.00     0.191 C 
BRANCH  35  36
ATOM     36  O   UNL     1     -37.125  14.247  55.481  1.00  0.00    -0.394 OA
ATOM     37  H   UNL     1     -37.335  15.120  55.056  1.00  0.00     0.210 HD
ENDBRANCH  35  36
ENDBRANCH  29  35
BRANCH  30  38
ATOM     38  O   UNL     1     -36.352  12.818  57.635  1.00  0.00    -0.387 OA
ATOM     39  H   UNL     1     -36.584  11.935  58.024  1.00  0.00     0.211 HD
ENDBRANCH  30  38
ENDBRANCH   1  25
TORSDOF 11
ENDMDL
