MODEL 1
REMARK VINA RESULT:    -3.396      0.000      0.000
REMARK INTER + INTRA:          -5.673
REMARK INTER:                  -5.182
REMARK INTRA:                  -0.490
REMARK UNBOUND:                -0.490
REMARK SMILES CC1=CCC[C@@H](C)C(=O)C[C@@H](C(C)C)C(=O)C1
REMARK SMILES IDX 8 1 9 2 6 3 7 4 5 5 4 6 3 7 2 8 1 9 10 11 11 12 15 13 16 14
REMARK SMILES IDX 17 15 12 17 13 18 14 19
REMARK H PARENT
REMARK Flexibility Score: 70.00
ROOT
ATOM      1  C   UNL     1     -19.288  -0.566  10.163  1.00  0.00     0.136 C 
ATOM      2  O   UNL     1     -18.855   0.561   9.968  1.00  0.00    -0.299 OA
ENDROOT
BRANCH   1   3
ATOM      3  C   UNL     1     -18.425  -1.596  10.860  1.00  0.00     0.053 C 
ATOM      4  C   UNL     1     -17.470  -0.889  11.827  1.00  0.00     0.016 C 
BRANCH   3   5
ATOM      5  C   UNL     1     -17.624  -2.467   9.863  1.00  0.00     0.015 C 
BRANCH   5   6
ATOM      6  C   UNL     1     -18.151  -3.903   9.732  1.00  0.00     0.028 C 
BRANCH   6   7
ATOM      7  C   UNL     1     -18.887  -4.104   8.429  1.00  0.00    -0.028 C 
ATOM      8  C   UNL     1     -20.217  -4.324   8.316  1.00  0.00    -0.070 CG0
ATOM      9  C   UNL     1     -20.792  -4.500   6.933  1.00  0.00     0.039 C 
ATOM     10  G   UNL     1     -21.146  -4.389   9.513  1.00  0.00     0.000 G0
ENDBRANCH   6   7
ENDBRANCH   5   6
ENDBRANCH   3   5
ENDBRANCH   1   3
BRANCH   1  11
ATOM     11  C   UNL     1     -20.705  -0.891   9.754  1.00  0.00     0.087 C 
BRANCH  11  12
ATOM     12  C   UNL     1     -21.386  -1.964  10.645  1.00  0.00     0.066 C 
BRANCH  12  13
ATOM     13  C   UNL     1     -21.927  -3.103   9.784  1.00  0.00     0.140 C 
ATOM     14  O   UNL     1     -23.065  -3.017   9.346  1.00  0.00    -0.299 OA
BRANCH  13  15
ATOM     15  C   UNL     1     -21.159  -4.383   9.523  1.00  0.00     0.106 CG0
ATOM     16  G   UNL     1     -20.226  -4.320   8.327  1.00  0.00     0.000 G0
ENDBRANCH  13  15
ENDBRANCH  12  13
BRANCH  12  17
ATOM     17  C   UNL     1     -22.532  -1.346  11.508  1.00  0.00    -0.006 C 
ATOM     18  C   UNL     1     -22.889   0.085  11.064  1.00  0.00     0.008 C 
ATOM     19  C   UNL     1     -22.165  -1.322  13.003  1.00  0.00     0.008 C 
ENDBRANCH  12  17
ENDBRANCH  11  12
ENDBRANCH   1  11
TORSDOF 1
ENDMDL
MODEL 2
REMARK VINA RESULT:    -3.285      2.244      4.414
REMARK INTER + INTRA:          -5.503
REMARK INTER:                  -5.312
REMARK INTRA:                  -0.191
REMARK UNBOUND:                -0.490
REMARK SMILES CC1=CCC[C@@H](C)C(=O)C[C@@H](C(C)C)C(=O)C1
REMARK SMILES IDX 8 1 9 2 6 3 7 4 5 5 4 6 3 7 2 8 1 9 10 11 11 12 15 13 16 14
REMARK SMILES IDX 17 15 12 17 13 18 14 19
REMARK H PARENT
REMARK Flexibility Score: 70.00
ROOT
ATOM      1  C   UNL     1     -20.677  -3.927   9.554  1.00  0.00     0.136 C 
ATOM      2  O   UNL     1     -21.380  -4.927   9.533  1.00  0.00    -0.299 OA
ENDROOT
BRANCH   1   3
ATOM      3  C   UNL     1     -19.379  -3.900   8.775  1.00  0.00     0.053 C 
ATOM      4  C   UNL     1     -19.259  -5.180   7.941  1.00  0.00     0.016 C 
BRANCH   3   5
ATOM      5  C   UNL     1     -18.142  -3.746   9.693  1.00  0.00     0.015 C 
BRANCH   5   6
ATOM      6  C   UNL     1     -17.374  -2.433   9.484  1.00  0.00     0.028 C 
BRANCH   6   7
ATOM      7  C   UNL     1     -17.046  -1.771  10.801  1.00  0.00    -0.028 C 
ATOM      8  C   UNL     1     -17.627  -0.642  11.267  1.00  0.00    -0.070 CG0
ATOM      9  C   UNL     1     -17.182  -0.117  12.609  1.00  0.00     0.039 C 
ATOM     10  G   UNL     1     -18.707   0.104  10.506  1.00  0.00     0.000 G0
ENDBRANCH   6   7
ENDBRANCH   5   6
ENDBRANCH   3   5
ENDBRANCH   1   3
BRANCH   1  11
ATOM     11  C   UNL     1     -21.148  -2.711  10.314  1.00  0.00     0.087 C 
BRANCH  11  12
ATOM     12  C   UNL     1     -20.764  -1.363   9.647  1.00  0.00     0.066 C 
BRANCH  12  13
ATOM     13  C   UNL     1     -20.114  -0.431  10.666  1.00  0.00     0.140 C 
ATOM     14  O   UNL     1     -20.773  -0.059  11.625  1.00  0.00    -0.299 OA
BRANCH  13  15
ATOM     15  C   UNL     1     -18.717   0.133  10.501  1.00  0.00     0.106 CG0
ATOM     16  G   UNL     1     -17.640  -0.631  11.249  1.00  0.00     0.000 G0
ENDBRANCH  13  15
ENDBRANCH  12  13
BRANCH  12  17
ATOM     17  C   UNL     1     -22.007  -0.672   8.998  1.00  0.00    -0.006 C 
ATOM     18  C   UNL     1     -23.321  -1.059   9.701  1.00  0.00     0.008 C 
ATOM     19  C   UNL     1     -22.128  -1.014   7.502  1.00  0.00     0.008 C 
ENDBRANCH  12  17
ENDBRANCH  11  12
ENDBRANCH   1  11
TORSDOF 1
ENDMDL
MODEL 3
REMARK VINA RESULT:    -3.197      1.948      4.211
REMARK INTER + INTRA:          -5.369
REMARK INTER:                  -5.410
REMARK INTRA:                   0.042
REMARK UNBOUND:                -0.490
REMARK SMILES CC1=CCC[C@@H](C)C(=O)C[C@@H](C(C)C)C(=O)C1
REMARK SMILES IDX 8 1 9 2 6 3 7 4 5 5 4 6 3 7 2 8 1 9 10 11 11 12 15 13 16 14
REMARK SMILES IDX 17 15 12 17 13 18 14 19
REMARK H PARENT
REMARK Flexibility Score: 70.00
ROOT
ATOM      1  C   UNL     1     -17.932  -2.639   9.748  1.00  0.00     0.136 C 
ATOM      2  O   UNL     1     -17.256  -3.242   8.926  1.00  0.00    -0.299 OA
ENDROOT
BRANCH   1   3
ATOM      3  C   UNL     1     -17.544  -1.234  10.159  1.00  0.00     0.053 C 
ATOM      4  C   UNL     1     -16.909  -1.268  11.553  1.00  0.00     0.016 C 
BRANCH   3   5
ATOM      5  C   UNL     1     -18.749  -0.263  10.147  1.00  0.00     0.015 C 
BRANCH   5   6
ATOM      6  C   UNL     1     -19.185   0.203  11.544  1.00  0.00     0.028 C 
BRANCH   6   7
ATOM      7  C   UNL     1     -20.657   0.537  11.579  1.00  0.00    -0.028 C 
ATOM      8  C   UNL     1     -21.655  -0.371  11.669  1.00  0.00    -0.070 CG0
ATOM      9  C   UNL     1     -23.075   0.136  11.696  1.00  0.00     0.039 C 
ATOM     10  G   UNL     1     -21.405  -1.865  11.756  1.00  0.00     0.000 G0
ENDBRANCH   6   7
ENDBRANCH   5   6
ENDBRANCH   3   5
ENDBRANCH   1   3
BRANCH   1  11
ATOM     11  C   UNL     1     -19.180  -3.289  10.296  1.00  0.00     0.087 C 
BRANCH  11  12
ATOM     12  C   UNL     1     -20.465  -2.961   9.491  1.00  0.00     0.066 C 
BRANCH  12  13
ATOM     13  C   UNL     1     -21.609  -2.604  10.437  1.00  0.00     0.140 C 
ATOM     14  O   UNL     1     -22.755  -2.848  10.091  1.00  0.00    -0.299 OA
BRANCH  13  15
ATOM     15  C   UNL     1     -21.402  -1.873  11.749  1.00  0.00     0.106 CG0
ATOM     16  G   UNL     1     -21.667  -0.381  11.684  1.00  0.00     0.000 G0
ENDBRANCH  13  15
ENDBRANCH  12  13
BRANCH  12  17
ATOM     17  C   UNL     1     -20.880  -4.151   8.566  1.00  0.00    -0.006 C 
ATOM     18  C   UNL     1     -20.244  -5.481   9.009  1.00  0.00     0.008 C 
ATOM     19  C   UNL     1     -20.500  -3.886   7.098  1.00  0.00     0.008 C 
ENDBRANCH  12  17
ENDBRANCH  11  12
ENDBRANCH   1  11
TORSDOF 1
ENDMDL
MODEL 4
REMARK VINA RESULT:    -3.067      1.621      3.768
REMARK INTER + INTRA:          -5.171
REMARK INTER:                  -4.872
REMARK INTRA:                  -0.299
REMARK UNBOUND:                -0.490
REMARK SMILES CC1=CCC[C@@H](C)C(=O)C[C@@H](C(C)C)C(=O)C1
REMARK SMILES IDX 8 1 9 2 6 3 7 4 5 5 4 6 3 7 2 8 1 9 10 11 11 12 15 13 16 14
REMARK SMILES IDX 17 15 12 17 13 18 14 19
REMARK H PARENT
REMARK Flexibility Score: 70.00
ROOT
ATOM      1  C   UNL     1     -21.438  -1.734  11.273  1.00  0.00     0.136 C 
ATOM      2  O   UNL     1     -22.060  -1.323  12.242  1.00  0.00    -0.299 OA
ENDROOT
BRANCH   1   3
ATOM      3  C   UNL     1     -22.111  -1.796   9.917  1.00  0.00     0.053 C 
ATOM      4  C   UNL     1     -23.033  -0.584   9.751  1.00  0.00     0.016 C 
BRANCH   3   5
ATOM      5  C   UNL     1     -22.910  -3.105   9.715  1.00  0.00     0.015 C 
BRANCH   5   6
ATOM      6  C   UNL     1     -22.044  -4.373   9.743  1.00  0.00     0.028 C 
BRANCH   6   7
ATOM      7  C   UNL     1     -21.254  -4.529   8.465  1.00  0.00    -0.028 C 
ATOM      8  C   UNL     1     -19.905  -4.508   8.380  1.00  0.00    -0.070 CG0
ATOM      9  C   UNL     1     -19.276  -4.683   7.020  1.00  0.00     0.039 C 
ATOM     10  G   UNL     1     -19.006  -4.330   9.589  1.00  0.00     0.000 G0
ENDBRANCH   6   7
ENDBRANCH   5   6
ENDBRANCH   3   5
ENDBRANCH   1   3
BRANCH   1  11
ATOM     11  C   UNL     1     -19.988  -2.119  11.436  1.00  0.00     0.087 C 
BRANCH  11  12
ATOM     12  C   UNL     1     -19.096  -1.737  10.225  1.00  0.00     0.066 C 
BRANCH  12  13
ATOM     13  C   UNL     1     -18.339  -2.961   9.715  1.00  0.00     0.140 C 
ATOM     14  O   UNL     1     -17.194  -2.817   9.311  1.00  0.00    -0.299 OA
BRANCH  13  15
ATOM     15  C   UNL     1     -18.968  -4.334   9.594  1.00  0.00     0.106 CG0
ATOM     16  G   UNL     1     -19.879  -4.503   8.392  1.00  0.00     0.000 G0
ENDBRANCH  13  15
ENDBRANCH  12  13
BRANCH  12  17
ATOM     17  C   UNL     1     -18.093  -0.595  10.590  1.00  0.00    -0.006 C 
ATOM     18  C   UNL     1     -17.349  -0.874  11.909  1.00  0.00     0.008 C 
ATOM     19  C   UNL     1     -18.803   0.767  10.702  1.00  0.00     0.008 C 
ENDBRANCH  12  17
ENDBRANCH  11  12
ENDBRANCH   1  11
TORSDOF 1
ENDMDL
MODEL 5
REMARK VINA RESULT:    -2.964      2.094      4.146
REMARK INTER + INTRA:          -5.014
REMARK INTER:                  -4.650
REMARK INTRA:                  -0.364
REMARK UNBOUND:                -0.490
REMARK SMILES CC1=CCC[C@@H](C)C(=O)C[C@@H](C(C)C)C(=O)C1
REMARK SMILES IDX 8 1 9 2 6 3 7 4 5 5 4 6 3 7 2 8 1 9 10 11 11 12 15 13 16 14
REMARK SMILES IDX 17 15 12 17 13 18 14 19
REMARK H PARENT
REMARK Flexibility Score: 70.00
ROOT
ATOM      1  C   UNL     1     -20.079  -5.176   8.991  1.00  0.00     0.136 C 
ATOM      2  O   UNL     1     -19.633  -6.252   9.364  1.00  0.00    -0.299 OA
ENDROOT
BRANCH   1   3
ATOM      3  C   UNL     1     -19.269  -4.309   8.051  1.00  0.00     0.053 C 
ATOM      4  C   UNL     1     -19.001  -5.077   6.752  1.00  0.00     0.016 C 
BRANCH   3   5
ATOM      5  C   UNL     1     -17.933  -3.845   8.679  1.00  0.00     0.015 C 
BRANCH   5   6
ATOM      6  C   UNL     1     -18.073  -3.314  10.113  1.00  0.00     0.028 C 
BRANCH   6   7
ATOM      7  C   UNL     1     -18.445  -1.850  10.124  1.00  0.00    -0.028 C 
ATOM      8  C   UNL     1     -19.570  -1.340  10.675  1.00  0.00    -0.070 CG0
ATOM      9  C   UNL     1     -19.784   0.151  10.601  1.00  0.00     0.039 C 
ATOM     10  G   UNL     1     -20.610  -2.199  11.371  1.00  0.00     0.000 G0
ENDBRANCH   6   7
ENDBRANCH   5   6
ENDBRANCH   3   5
ENDBRANCH   1   3
BRANCH   1  11
ATOM     11  C   UNL     1     -21.461  -4.760   9.431  1.00  0.00     0.087 C 
BRANCH  11  12
ATOM     12  C   UNL     1     -21.767  -3.255   9.203  1.00  0.00     0.066 C 
BRANCH  12  13
ATOM     13  C   UNL     1     -21.845  -2.520  10.540  1.00  0.00     0.140 C 
ATOM     14  O   UNL     1     -22.931  -2.109  10.920  1.00  0.00    -0.299 OA
BRANCH  13  15
ATOM     15  C   UNL     1     -20.626  -2.191  11.378  1.00  0.00     0.106 CG0
ATOM     16  G   UNL     1     -19.588  -1.342  10.667  1.00  0.00     0.000 G0
ENDBRANCH  13  15
ENDBRANCH  12  13
BRANCH  12  17
ATOM     17  C   UNL     1     -23.092  -3.056   8.399  1.00  0.00    -0.006 C 
ATOM     18  C   UNL     1     -23.414  -4.264   7.500  1.00  0.00     0.008 C 
ATOM     19  C   UNL     1     -23.039  -1.790   7.525  1.00  0.00     0.008 C 
ENDBRANCH  12  17
ENDBRANCH  11  12
ENDBRANCH   1  11
TORSDOF 1
ENDMDL
MODEL 6
REMARK VINA RESULT:    -2.964      1.964      4.264
REMARK INTER + INTRA:          -5.013
REMARK INTER:                  -4.908
REMARK INTRA:                  -0.105
REMARK UNBOUND:                -0.490
REMARK SMILES CC1=CCC[C@@H](C)C(=O)C[C@@H](C(C)C)C(=O)C1
REMARK SMILES IDX 8 1 9 2 6 3 7 4 5 5 4 6 3 7 2 8 1 9 10 11 11 12 15 13 16 14
REMARK SMILES IDX 17 15 12 17 13 18 14 19
REMARK H PARENT
REMARK Flexibility Score: 70.00
ROOT
ATOM      1  C   UNL     1     -19.197  -2.293  10.624  1.00  0.00     0.136 C 
ATOM      2  O   UNL     1     -19.970  -2.367  11.569  1.00  0.00    -0.299 OA
ENDROOT
BRANCH   1   3
ATOM      3  C   UNL     1     -18.265  -1.106  10.503  1.00  0.00     0.053 C 
ATOM      4  C   UNL     1     -17.142  -1.233  11.537  1.00  0.00     0.016 C 
BRANCH   3   5
ATOM      5  C   UNL     1     -19.002   0.243  10.681  1.00  0.00     0.015 C 
BRANCH   5   6
ATOM      6  C   UNL     1     -20.030   0.539   9.578  1.00  0.00     0.028 C 
BRANCH   6   7
ATOM      7  C   UNL     1     -21.442   0.330  10.071  1.00  0.00    -0.028 C 
ATOM      8  C   UNL     1     -22.331  -0.535   9.531  1.00  0.00    -0.070 CG0
ATOM      9  C   UNL     1     -23.703  -0.622  10.151  1.00  0.00     0.039 C 
ATOM     10  G   UNL     1     -22.001  -1.422   8.345  1.00  0.00     0.000 G0
ENDBRANCH   6   7
ENDBRANCH   5   6
ENDBRANCH   3   5
ENDBRANCH   1   3
BRANCH   1  11
ATOM     11  C   UNL     1     -19.147  -3.423   9.624  1.00  0.00     0.087 C 
BRANCH  11  12
ATOM     12  C   UNL     1     -19.984  -3.166   8.342  1.00  0.00     0.066 C 
BRANCH  12  13
ATOM     13  C   UNL     1     -21.412  -2.772   8.711  1.00  0.00     0.140 C 
ATOM     14  O   UNL     1     -22.129  -3.603   9.250  1.00  0.00    -0.299 OA
BRANCH  13  15
ATOM     15  C   UNL     1     -22.020  -1.430   8.356  1.00  0.00     0.106 CG0
ATOM     16  G   UNL     1     -22.333  -0.549   9.551  1.00  0.00     0.000 G0
ENDBRANCH  13  15
ENDBRANCH  12  13
BRANCH  12  17
ATOM     17  C   UNL     1     -19.992  -4.417   7.405  1.00  0.00    -0.006 C 
ATOM     18  C   UNL     1     -18.580  -4.991   7.189  1.00  0.00     0.008 C 
ATOM     19  C   UNL     1     -20.608  -4.091   6.033  1.00  0.00     0.008 C 
ENDBRANCH  12  17
ENDBRANCH  11  12
ENDBRANCH   1  11
TORSDOF 1
ENDMDL
MODEL 7
REMARK VINA RESULT:    -2.949      2.081      4.214
REMARK INTER + INTRA:          -4.990
REMARK INTER:                  -5.123
REMARK INTRA:                   0.132
REMARK UNBOUND:                -0.490
REMARK SMILES CC1=CCC[C@@H](C)C(=O)C[C@@H](C(C)C)C(=O)C1
REMARK SMILES IDX 8 1 9 2 6 3 7 4 5 5 4 6 3 7 2 8 1 9 10 11 11 12 15 13 16 14
REMARK SMILES IDX 17 15 12 17 13 18 14 19
REMARK H PARENT
REMARK Flexibility Score: 70.00
ROOT
ATOM      1  C   UNL     1     -18.623  -0.040  11.334  1.00  0.00     0.136 C 
ATOM      2  O   UNL     1     -17.744   0.488  12.001  1.00  0.00    -0.299 OA
ENDROOT
BRANCH   1   3
ATOM      3  C   UNL     1     -19.701   0.811  10.696  1.00  0.00     0.053 C 
ATOM      4  C   UNL     1     -19.050   1.860   9.789  1.00  0.00     0.016 C 
BRANCH   3   5
ATOM      5  C   UNL     1     -20.604   1.502  11.745  1.00  0.00     0.015 C 
BRANCH   5   6
ATOM      6  C   UNL     1     -22.025   0.924  11.819  1.00  0.00     0.028 C 
BRANCH   6   7
ATOM      7  C   UNL     1     -22.504   0.467  10.461  1.00  0.00    -0.028 C 
ATOM      8  C   UNL     1     -22.689  -0.822  10.098  1.00  0.00    -0.070 CG0
ATOM      9  C   UNL     1     -23.178  -1.103   8.699  1.00  0.00     0.039 C 
ATOM     10  G   UNL     1     -22.437  -1.987  11.037  1.00  0.00     0.000 G0
ENDBRANCH   6   7
ENDBRANCH   5   6
ENDBRANCH   3   5
ENDBRANCH   1   3
BRANCH   1  11
ATOM     11  C   UNL     1     -18.582  -1.533  11.112  1.00  0.00     0.087 C 
BRANCH  11  12
ATOM     12  C   UNL     1     -19.843  -2.099  10.406  1.00  0.00     0.066 C 
BRANCH  12  13
ATOM     13  C   UNL     1     -20.990  -2.244  11.403  1.00  0.00     0.140 C 
ATOM     14  O   UNL     1     -20.740  -2.645  12.530  1.00  0.00    -0.299 OA
BRANCH  13  15
ATOM     15  C   UNL     1     -22.442  -2.007  11.038  1.00  0.00     0.106 CG0
ATOM     16  G   UNL     1     -22.668  -0.842  10.092  1.00  0.00     0.000 G0
ENDBRANCH  13  15
ENDBRANCH  12  13
BRANCH  12  17
ATOM     17  C   UNL     1     -19.547  -3.470   9.718  1.00  0.00    -0.006 C 
ATOM     18  C   UNL     1     -18.037  -3.744   9.594  1.00  0.00     0.008 C 
ATOM     19  C   UNL     1     -20.180  -3.549   8.317  1.00  0.00     0.008 C 
ENDBRANCH  12  17
ENDBRANCH  11  12
ENDBRANCH   1  11
TORSDOF 1
ENDMDL
MODEL 8
REMARK VINA RESULT:    -2.703      2.050      3.988
REMARK INTER + INTRA:          -4.616
REMARK INTER:                  -4.601
REMARK INTRA:                  -0.015
REMARK UNBOUND:                -0.490
REMARK SMILES CC1=CCC[C@@H](C)C(=O)C[C@@H](C(C)C)C(=O)C1
REMARK SMILES IDX 8 1 9 2 6 3 7 4 5 5 4 6 3 7 2 8 1 9 10 11 11 12 15 13 16 14
REMARK SMILES IDX 17 15 12 17 13 18 14 19
REMARK H PARENT
REMARK Flexibility Score: 70.00
ROOT
ATOM      1  C   UNL     1     -19.045  -3.275   9.479  1.00  0.00     0.136 C 
ATOM      2  O   UNL     1     -18.184  -3.730  10.218  1.00  0.00    -0.299 OA
ENDROOT
BRANCH   1   3
ATOM      3  C   UNL     1     -19.734  -4.177   8.477  1.00  0.00     0.053 C 
ATOM      4  C   UNL     1     -18.704  -4.699   7.470  1.00  0.00     0.016 C 
BRANCH   3   5
ATOM      5  C   UNL     1     -20.888  -3.461   7.735  1.00  0.00     0.015 C 
BRANCH   5   6
ATOM      6  C   UNL     1     -22.275  -3.729   8.338  1.00  0.00     0.028 C 
BRANCH   6   7
ATOM      7  C   UNL     1     -23.033  -2.443   8.568  1.00  0.00    -0.028 C 
ATOM      8  C   UNL     1     -23.020  -1.731   9.717  1.00  0.00    -0.070 CG0
ATOM      9  C   UNL     1     -23.835  -0.463   9.775  1.00  0.00     0.039 C 
ATOM     10  G   UNL     1     -22.216  -2.146  10.935  1.00  0.00     0.000 G0
ENDBRANCH   6   7
ENDBRANCH   5   6
ENDBRANCH   3   5
ENDBRANCH   1   3
BRANCH   1  11
ATOM     11  C   UNL     1     -19.448  -1.827   9.622  1.00  0.00     0.087 C 
BRANCH  11  12
ATOM     12  C   UNL     1     -19.667  -1.377  11.091  1.00  0.00     0.066 C 
BRANCH  12  13
ATOM     13  C   UNL     1     -21.154  -1.170  11.367  1.00  0.00     0.140 C 
ATOM     14  O   UNL     1     -21.498  -0.204  12.034  1.00  0.00    -0.299 OA
BRANCH  13  15
ATOM     15  C   UNL     1     -22.223  -2.154  10.936  1.00  0.00     0.106 CG0
ATOM     16  G   UNL     1     -23.023  -1.718   9.722  1.00  0.00     0.000 G0
ENDBRANCH  13  15
ENDBRANCH  12  13
BRANCH  12  17
ATOM     17  C   UNL     1     -18.870  -0.072  11.414  1.00  0.00    -0.006 C 
ATOM     18  C   UNL     1     -18.749   0.855  10.190  1.00  0.00     0.008 C 
ATOM     19  C   UNL     1     -17.457  -0.387  11.937  1.00  0.00     0.008 C 
ENDBRANCH  12  17
ENDBRANCH  11  12
ENDBRANCH   1  11
TORSDOF 1
ENDMDL
MODEL 9
REMARK VINA RESULT:    -2.688     13.945     15.007
REMARK INTER + INTRA:          -4.593
REMARK INTER:                  -4.324
REMARK INTRA:                  -0.268
REMARK UNBOUND:                -0.490
REMARK SMILES CC1=CCC[C@@H](C)C(=O)C[C@@H](C(C)C)C(=O)C1
REMARK SMILES IDX 8 1 9 2 6 3 7 4 5 5 4 6 3 7 2 8 1 9 10 11 11 12 15 13 16 14
REMARK SMILES IDX 17 15 12 17 13 18 14 19
REMARK H PARENT
REMARK Flexibility Score: 70.00
ROOT
ATOM      1  C   UNL     1      -6.000  -3.640  10.078  1.00  0.00     0.136 C 
ATOM      2  O   UNL     1      -6.816  -3.973  10.926  1.00  0.00    -0.299 OA
ENDROOT
BRANCH   1   3
ATOM      3  C   UNL     1      -5.892  -4.424   8.787  1.00  0.00     0.053 C 
ATOM      4  C   UNL     1      -4.418  -4.540   8.383  1.00  0.00     0.016 C 
BRANCH   3   5
ATOM      5  C   UNL     1      -6.709  -3.784   7.639  1.00  0.00     0.015 C 
BRANCH   5   6
ATOM      6  C   UNL     1      -5.912  -2.777   6.797  1.00  0.00     0.028 C 
BRANCH   6   7
ATOM      7  C   UNL     1      -6.664  -1.477   6.636  1.00  0.00    -0.028 C 
ATOM      8  C   UNL     1      -6.378  -0.330   7.293  1.00  0.00    -0.070 CG0
ATOM      9  C   UNL     1      -7.230   0.882   7.010  1.00  0.00     0.039 C 
ATOM     10  G   UNL     1      -5.236  -0.211   8.286  1.00  0.00     0.000 G0
ENDBRANCH   6   7
ENDBRANCH   5   6
ENDBRANCH   3   5
ENDBRANCH   1   3
BRANCH   1  11
ATOM     11  C   UNL     1      -5.153  -2.413  10.312  1.00  0.00     0.087 C 
BRANCH  11  12
ATOM     12  C   UNL     1      -5.969  -1.146  10.684  1.00  0.00     0.066 C 
BRANCH  12  13
ATOM     13  C   UNL     1      -5.639  -0.002   9.728  1.00  0.00     0.140 C 
ATOM     14  O   UNL     1      -5.787   1.147  10.116  1.00  0.00    -0.299 OA
BRANCH  13  15
ATOM     15  C   UNL     1      -5.226  -0.219   8.286  1.00  0.00     0.106 CG0
ATOM     16  G   UNL     1      -6.384  -0.313   7.310  1.00  0.00     0.000 G0
ENDBRANCH  13  15
ENDBRANCH  12  13
BRANCH  12  17
ATOM     17  C   UNL     1      -5.707  -0.710  12.161  1.00  0.00    -0.006 C 
ATOM     18  C   UNL     1      -4.352  -1.219  12.687  1.00  0.00     0.008 C 
ATOM     19  C   UNL     1      -6.820  -1.204  13.103  1.00  0.00     0.008 C 
ENDBRANCH  12  17
ENDBRANCH  11  12
ENDBRANCH   1  11
TORSDOF 1
ENDMDL
