MODEL 1
REMARK VINA RESULT:    -2.850      0.000      0.000
REMARK INTER + INTRA:          -5.462
REMARK INTER:                  -4.350
REMARK INTRA:                  -1.112
REMARK UNBOUND:                -1.112
REMARK SMILES CCCCCCCCCCC(=O)[O-]
REMARK SMILES IDX 7 1 8 2 9 3 10 4 11 5 12 6 13 7 6 8 5 9 4 10 3 11 2 12 1 13
REMARK H PARENT
REMARK Flexibility Score: inf
ROOT
ATOM      1  C   UNL     1       2.728  10.228 -13.102  1.00  0.00     0.000 C 
ENDROOT
BRANCH   1   2
ATOM      2  C   UNL     1       2.431   8.721 -13.055  1.00  0.00     0.000 C 
BRANCH   2   3
ATOM      3  C   UNL     1       3.055   8.029 -11.833  1.00  0.00     0.006 C 
BRANCH   3   4
ATOM      4  C   UNL     1       3.664   9.057 -10.875  1.00  0.00     0.053 C 
BRANCH   4   5
ATOM      5  C   UNL     1       4.027   8.411  -9.576  1.00  0.00     0.041 C 
ATOM      6  O   UNL     1       5.226   8.391  -9.192  1.00  0.00    -0.550 OA
ATOM      7  O   UNL     1       3.035   7.875  -8.765  1.00  0.00    -0.550 OA
ENDBRANCH   4   5
ENDBRANCH   3   4
ENDBRANCH   2   3
ENDBRANCH   1   2
BRANCH   1   8
ATOM      8  C   UNL     1       3.086  10.716 -14.516  1.00  0.00     0.000 C 
BRANCH   8   9
ATOM      9  C   UNL     1       4.545  11.188 -14.627  1.00  0.00    -0.000 C 
BRANCH   9  10
ATOM     10  C   UNL     1       5.555  10.049 -14.422  1.00  0.00    -0.000 C 
BRANCH  10  11
ATOM     11  C   UNL     1       6.543  10.386 -13.299  1.00  0.00    -0.000 C 
BRANCH  11  12
ATOM     12  C   UNL     1       6.763   9.180 -12.379  1.00  0.00    -0.003 C 
ATOM     13  C   UNL     1       6.758   7.875 -13.169  1.00  0.00     0.004 C 
ENDBRANCH  11  12
ENDBRANCH  10  11
ENDBRANCH   9  10
ENDBRANCH   8   9
ENDBRANCH   1   8
TORSDOF 9
ENDMDL
MODEL 2
REMARK VINA RESULT:    -2.499      3.258      5.529
REMARK INTER + INTRA:          -4.926
REMARK INTER:                  -4.175
REMARK INTRA:                  -0.751
REMARK UNBOUND:                -1.112
REMARK SMILES CCCCCCCCCCC(=O)[O-]
REMARK SMILES IDX 7 1 8 2 9 3 10 4 11 5 12 6 13 7 6 8 5 9 4 10 3 11 2 12 1 13
REMARK H PARENT
REMARK Flexibility Score: inf
ROOT
ATOM      1  C   UNL     1       6.320   8.868 -12.867  1.00  0.00     0.000 C 
ENDROOT
BRANCH   1   2
ATOM      2  C   UNL     1       6.354  10.234 -13.572  1.00  0.00     0.000 C 
BRANCH   2   3
ATOM      3  C   UNL     1       5.281  10.366 -14.664  1.00  0.00     0.006 C 
BRANCH   3   4
ATOM      4  C   UNL     1       4.046  11.100 -14.132  1.00  0.00     0.053 C 
BRANCH   4   5
ATOM      5  C   UNL     1       3.871  12.409 -14.835  1.00  0.00     0.041 C 
ATOM      6  O   UNL     1       3.318  13.375 -14.247  1.00  0.00    -0.550 OA
ATOM      7  O   UNL     1       4.364  12.577 -16.123  1.00  0.00    -0.550 OA
ENDBRANCH   4   5
ENDBRANCH   3   4
ENDBRANCH   2   3
ENDBRANCH   1   2
BRANCH   1   8
ATOM      8  C   UNL     1       6.065   8.991 -11.355  1.00  0.00     0.000 C 
BRANCH   8   9
ATOM      9  C   UNL     1       4.857   8.160 -10.891  1.00  0.00    -0.000 C 
BRANCH   9  10
ATOM     10  C   UNL     1       3.630   8.336 -11.798  1.00  0.00    -0.000 C 
BRANCH  10  11
ATOM     11  C   UNL     1       2.460   8.956 -11.024  1.00  0.00    -0.000 C 
BRANCH  11  12
ATOM     12  C   UNL     1       2.170   8.169  -9.741  1.00  0.00    -0.003 C 
ATOM     13  C   UNL     1       2.185   9.082  -8.519  1.00  0.00     0.004 C 
ENDBRANCH  11  12
ENDBRANCH  10  11
ENDBRANCH   9  10
ENDBRANCH   8   9
ENDBRANCH   1   8
TORSDOF 9
ENDMDL
MODEL 3
REMARK VINA RESULT:    -2.448     13.627     15.992
REMARK INTER + INTRA:          -4.849
REMARK INTER:                  -4.488
REMARK INTRA:                  -0.361
REMARK UNBOUND:                -1.112
REMARK SMILES CCCCCCCCCCC(=O)[O-]
REMARK SMILES IDX 7 1 8 2 9 3 10 4 11 5 12 6 13 7 6 8 5 9 4 10 3 11 2 12 1 13
REMARK H PARENT
REMARK Flexibility Score: inf
ROOT
ATOM      1  C   UNL     1      19.127  12.035 -14.566  1.00  0.00     0.000 C 
ENDROOT
BRANCH   1   2
ATOM      2  C   UNL     1      20.394  11.282 -15.002  1.00  0.00     0.000 C 
BRANCH   2   3
ATOM      3  C   UNL     1      21.504  12.222 -15.497  1.00  0.00     0.006 C 
BRANCH   3   4
ATOM      4  C   UNL     1      20.962  13.637 -15.722  1.00  0.00     0.053 C 
BRANCH   4   5
ATOM      5  C   UNL     1      21.691  14.620 -14.862  1.00  0.00     0.041 C 
ATOM      6  O   UNL     1      21.887  15.795 -15.269  1.00  0.00    -0.550 OA
ATOM      7  O   UNL     1      22.111  14.252 -13.589  1.00  0.00    -0.550 OA
ENDBRANCH   4   5
ENDBRANCH   3   4
ENDBRANCH   2   3
ENDBRANCH   1   2
BRANCH   1   8
ATOM      8  C   UNL     1      18.266  11.223 -13.582  1.00  0.00     0.000 C 
BRANCH   8   9
ATOM      9  C   UNL     1      18.337   9.710 -13.845  1.00  0.00    -0.000 C 
BRANCH   9  10
ATOM     10  C   UNL     1      17.626   9.298 -15.143  1.00  0.00    -0.000 C 
BRANCH  10  11
ATOM     11  C   UNL     1      16.819   8.010 -14.941  1.00  0.00    -0.000 C 
BRANCH  11  12
ATOM     12  C   UNL     1      15.595   8.260 -14.053  1.00  0.00    -0.003 C 
ATOM     13  C   UNL     1      14.300   7.958 -14.801  1.00  0.00     0.004 C 
ENDBRANCH  11  12
ENDBRANCH  10  11
ENDBRANCH   9  10
ENDBRANCH   8   9
ENDBRANCH   1   8
TORSDOF 9
ENDMDL
MODEL 4
REMARK VINA RESULT:    -2.301     14.863     16.677
REMARK INTER + INTRA:          -4.623
REMARK INTER:                  -4.036
REMARK INTRA:                  -0.588
REMARK UNBOUND:                -1.112
REMARK SMILES CCCCCCCCCCC(=O)[O-]
REMARK SMILES IDX 7 1 8 2 9 3 10 4 11 5 12 6 13 7 6 8 5 9 4 10 3 11 2 12 1 13
REMARK H PARENT
REMARK Flexibility Score: inf
ROOT
ATOM      1  C   UNL     1      18.038  11.789 -13.501  1.00  0.00     0.000 C 
ENDROOT
BRANCH   1   2
ATOM      2  C   UNL     1      19.337  12.378 -14.075  1.00  0.00     0.000 C 
BRANCH   2   3
ATOM      3  C   UNL     1      19.111  13.150 -15.385  1.00  0.00     0.006 C 
BRANCH   3   4
ATOM      4  C   UNL     1      20.439  13.410 -16.102  1.00  0.00     0.053 C 
BRANCH   4   5
ATOM      5  C   UNL     1      21.091  14.645 -15.565  1.00  0.00     0.041 C 
ATOM      6  O   UNL     1      20.835  15.768 -16.074  1.00  0.00    -0.550 OA
ATOM      7  O   UNL     1      21.944  14.562 -14.472  1.00  0.00    -0.550 OA
ENDBRANCH   4   5
ENDBRANCH   3   4
ENDBRANCH   2   3
ENDBRANCH   1   2
BRANCH   1   8
ATOM      8  C   UNL     1      18.001  10.252 -13.582  1.00  0.00     0.000 C 
BRANCH   8   9
ATOM      9  C   UNL     1      18.274   9.729 -15.001  1.00  0.00    -0.000 C 
BRANCH   9  10
ATOM     10  C   UNL     1      19.617   8.993 -15.116  1.00  0.00    -0.000 C 
BRANCH  10  11
ATOM     11  C   UNL     1      20.539   9.689 -16.125  1.00  0.00    -0.000 C 
BRANCH  11  12
ATOM     12  C   UNL     1      21.972   9.781 -15.589  1.00  0.00    -0.003 C 
ATOM     13  C   UNL     1      22.125  10.949 -14.620  1.00  0.00     0.004 C 
ENDBRANCH  11  12
ENDBRANCH  10  11
ENDBRANCH   9  10
ENDBRANCH   8   9
ENDBRANCH   1   8
TORSDOF 9
ENDMDL
MODEL 5
REMARK VINA RESULT:    -2.282      2.339      3.183
REMARK INTER + INTRA:          -4.595
REMARK INTER:                  -3.635
REMARK INTRA:                  -0.960
REMARK UNBOUND:                -1.112
REMARK SMILES CCCCCCCCCCC(=O)[O-]
REMARK SMILES IDX 7 1 8 2 9 3 10 4 11 5 12 6 13 7 6 8 5 9 4 10 3 11 2 12 1 13
REMARK H PARENT
REMARK Flexibility Score: inf
ROOT
ATOM      1  C   UNL     1       2.190   9.779 -12.166  1.00  0.00     0.000 C 
ENDROOT
BRANCH   1   2
ATOM      2  C   UNL     1       3.185   9.116 -11.199  1.00  0.00     0.000 C 
BRANCH   2   3
ATOM      3  C   UNL     1       4.338   8.408 -11.926  1.00  0.00     0.006 C 
BRANCH   3   4
ATOM      4  C   UNL     1       5.687   8.780 -11.304  1.00  0.00     0.053 C 
BRANCH   4   5
ATOM      5  C   UNL     1       6.703   9.039 -12.371  1.00  0.00     0.041 C 
ATOM      6  O   UNL     1       7.527   8.143 -12.692  1.00  0.00    -0.550 OA
ATOM      7  O   UNL     1       6.708  10.253 -13.046  1.00  0.00    -0.550 OA
ENDBRANCH   4   5
ENDBRANCH   3   4
ENDBRANCH   2   3
ENDBRANCH   1   2
BRANCH   1   8
ATOM      8  C   UNL     1       2.709   9.814 -13.614  1.00  0.00     0.000 C 
BRANCH   8   9
ATOM      9  C   UNL     1       3.329  11.171 -13.986  1.00  0.00    -0.000 C 
BRANCH   9  10
ATOM     10  C   UNL     1       3.655  11.285 -15.483  1.00  0.00    -0.000 C 
BRANCH  10  11
ATOM     11  C   UNL     1       3.845   9.898 -16.110  1.00  0.00    -0.000 C 
BRANCH  11  12
ATOM     12  C   UNL     1       5.324   9.497 -16.122  1.00  0.00    -0.003 C 
ATOM     13  C   UNL     1       5.505   8.042 -15.701  1.00  0.00     0.004 C 
ENDBRANCH  11  12
ENDBRANCH  10  11
ENDBRANCH   9  10
ENDBRANCH   8   9
ENDBRANCH   1   8
TORSDOF 9
ENDMDL
MODEL 6
REMARK VINA RESULT:    -2.173      2.345      3.811
REMARK INTER + INTRA:          -4.429
REMARK INTER:                  -3.827
REMARK INTRA:                  -0.602
REMARK UNBOUND:                -1.112
REMARK SMILES CCCCCCCCCCC(=O)[O-]
REMARK SMILES IDX 7 1 8 2 9 3 10 4 11 5 12 6 13 7 6 8 5 9 4 10 3 11 2 12 1 13
REMARK H PARENT
REMARK Flexibility Score: inf
ROOT
ATOM      1  C   UNL     1       2.387   9.407 -11.603  1.00  0.00     0.000 C 
ENDROOT
BRANCH   1   2
ATOM      2  C   UNL     1       3.283   8.317 -10.993  1.00  0.00     0.000 C 
BRANCH   2   3
ATOM      3  C   UNL     1       4.520   8.015 -11.852  1.00  0.00     0.006 C 
BRANCH   3   4
ATOM      4  C   UNL     1       5.756   8.735 -11.305  1.00  0.00     0.053 C 
BRANCH   4   5
ATOM      5  C   UNL     1       6.744   8.987 -12.399  1.00  0.00     0.041 C 
ATOM      6  O   UNL     1       7.559   8.089 -12.736  1.00  0.00    -0.550 OA
ATOM      7  O   UNL     1       6.732  10.197 -13.080  1.00  0.00    -0.550 OA
ENDBRANCH   4   5
ENDBRANCH   3   4
ENDBRANCH   2   3
ENDBRANCH   1   2
BRANCH   1   8
ATOM      8  C   UNL     1       3.044  10.106 -12.807  1.00  0.00     0.000 C 
BRANCH   8   9
ATOM      9  C   UNL     1       2.365   9.751 -14.139  1.00  0.00    -0.000 C 
BRANCH   9  10
ATOM     10  C   UNL     1       3.342   9.750 -15.324  1.00  0.00    -0.000 C 
BRANCH  10  11
ATOM     11  C   UNL     1       4.196  11.024 -15.332  1.00  0.00    -0.000 C 
BRANCH  11  12
ATOM     12  C   UNL     1       3.375  12.233 -15.794  1.00  0.00    -0.003 C 
ATOM     13  C   UNL     1       3.338  13.317 -14.720  1.00  0.00     0.004 C 
ENDBRANCH  11  12
ENDBRANCH  10  11
ENDBRANCH   9  10
ENDBRANCH   8   9
ENDBRANCH   1   8
TORSDOF 9
ENDMDL
MODEL 7
REMARK VINA RESULT:    -2.032      3.411      4.635
REMARK INTER + INTRA:          -4.214
REMARK INTER:                  -3.099
REMARK INTRA:                  -1.114
REMARK UNBOUND:                -1.112
REMARK SMILES CCCCCCCCCCC(=O)[O-]
REMARK SMILES IDX 7 1 8 2 9 3 10 4 11 5 12 6 13 7 6 8 5 9 4 10 3 11 2 12 1 13
REMARK H PARENT
REMARK Flexibility Score: inf
ROOT
ATOM      1  C   UNL     1       2.220   8.818 -12.729  1.00  0.00     0.000 C 
ENDROOT
BRANCH   1   2
ATOM      2  C   UNL     1       2.770   9.461 -14.013  1.00  0.00     0.000 C 
BRANCH   2   3
ATOM      3  C   UNL     1       2.825  10.995 -13.932  1.00  0.00     0.006 C 
BRANCH   3   4
ATOM      4  C   UNL     1       3.585  11.578 -15.127  1.00  0.00     0.053 C 
BRANCH   4   5
ATOM      5  C   UNL     1       3.463  13.069 -15.148  1.00  0.00     0.041 C 
ATOM      6  O   UNL     1       4.119  13.747 -15.982  1.00  0.00    -0.550 OA
ATOM      7  O   UNL     1       2.587  13.707 -14.279  1.00  0.00    -0.550 OA
ENDBRANCH   4   5
ENDBRANCH   3   4
ENDBRANCH   2   3
ENDBRANCH   1   2
BRANCH   1   8
ATOM      8  C   UNL     1       3.302   8.062 -11.938  1.00  0.00     0.000 C 
BRANCH   8   9
ATOM      9  C   UNL     1       4.379   8.999 -11.367  1.00  0.00    -0.000 C 
BRANCH   9  10
ATOM     10  C   UNL     1       5.797   8.622 -11.822  1.00  0.00    -0.000 C 
BRANCH  10  11
ATOM     11  C   UNL     1       6.416   9.738 -12.672  1.00  0.00    -0.000 C 
BRANCH  11  12
ATOM     12  C   UNL     1       6.374   9.383 -14.162  1.00  0.00    -0.003 C 
ATOM     13  C   UNL     1       6.265   7.875 -14.367  1.00  0.00     0.004 C 
ENDBRANCH  11  12
ENDBRANCH  10  11
ENDBRANCH   9  10
ENDBRANCH   8   9
ENDBRANCH   1   8
TORSDOF 9
ENDMDL
