MODEL 1
REMARK VINA RESULT:    23.096      0.000      0.000
REMARK INTER + INTRA:          28.171
REMARK INTER:                  28.497
REMARK INTRA:                  -0.326
REMARK UNBOUND:                -0.326
REMARK SMILES O=c1c(O)c(-c2cc(O)c(O)c(O)c2)oc2cc(O)cc(O)c12
REMARK SMILES IDX 5 1 3 2 2 3 1 4 23 5 21 6 20 7 18 8 17 9 16 10 15 11 6 12
REMARK SMILES IDX 7 13 8 14 14 15 10 16 12 17 9 18 11 20 13 22 4 24 22 26
REMARK SMILES IDX 19 28
REMARK H PARENT 9 19 11 21 13 23 4 25 22 27 19 29
REMARK Flexibility Score: inf
ROOT
ATOM      1  C   UNL     1      26.767  30.304   5.009  1.00  0.00     0.180 A 
ATOM      2  C   UNL     1      27.921  30.845   4.419  1.00  0.00     0.208 A 
ATOM      3  C   UNL     1      28.508  30.177   3.332  1.00  0.00     0.238 A 
ATOM      4  O   UNL     1      29.582  30.628   2.857  1.00  0.00    -0.285 OA
ATOM      5  C   UNL     1      27.901  29.008   2.812  1.00  0.00     0.111 A 
ATOM      6  C   UNL     1      28.383  28.275   1.685  1.00  0.00     0.134 A 
ATOM      7  C   UNL     1      27.762  27.073   1.327  1.00  0.00     0.093 A 
ATOM      8  C   UNL     1      26.638  26.610   2.014  1.00  0.00     0.123 A 
ATOM      9  C   UNL     1      26.126  27.346   3.079  1.00  0.00     0.094 A 
ATOM     10  C   UNL     1      26.748  28.529   3.486  1.00  0.00     0.146 A 
ATOM     11  O   UNL     1      26.240  29.188   4.521  1.00  0.00    -0.452 OA
ENDROOT
BRANCH   1  12
ATOM     12  C   UNL     1      26.100  30.942   6.167  1.00  0.00     0.029 A 
ATOM     13  C   UNL     1      26.632  30.765   7.453  1.00  0.00     0.062 A 
ATOM     14  C   UNL     1      26.034  31.373   8.562  1.00  0.00     0.162 A 
ATOM     15  C   UNL     1      24.978  31.771   5.999  1.00  0.00     0.062 A 
ATOM     16  C   UNL     1      24.899  32.183   8.392  1.00  0.00     0.200 A 
ATOM     17  C   UNL     1      24.374  32.386   7.104  1.00  0.00     0.162 A 
BRANCH  14  18
ATOM     18  O   UNL     1      26.585  31.160   9.827  1.00  0.00    -0.504 OA
ATOM     19  H   UNL     1      27.007  31.908  10.364  1.00  0.00     0.293 HD
ENDBRANCH  14  18
BRANCH  16  20
ATOM     20  O   UNL     1      24.308  32.784   9.505  1.00  0.00    -0.502 OA
ATOM     21  H   UNL     1      24.771  33.511  10.035  1.00  0.00     0.293 HD
ENDBRANCH  16  20
BRANCH  17  22
ATOM     22  O   UNL     1      23.257  33.200   6.927  1.00  0.00    -0.504 OA
ATOM     23  H   UNL     1      23.005  33.565   6.016  1.00  0.00     0.293 HD
ENDBRANCH  17  22
ENDBRANCH   1  12
BRANCH   2  24
ATOM     24  O   UNL     1      28.461  32.042   4.898  1.00  0.00    -0.502 OA
ATOM     25  H   UNL     1      29.234  32.067   5.553  1.00  0.00     0.293 HD
ENDBRANCH   2  24
BRANCH   6  26
ATOM     26  O   UNL     1      29.444  28.692   0.875  1.00  0.00    -0.507 OA
ATOM     27  H   UNL     1      29.520  28.517  -0.115  1.00  0.00     0.293 HD
ENDBRANCH   6  26
BRANCH   8  28
ATOM     28  O   UNL     1      26.015  25.421   1.638  1.00  0.00    -0.508 OA
ATOM     29  H   UNL     1      25.736  24.729   2.324  1.00  0.00     0.293 HD
ENDBRANCH   8  28
TORSDOF 7
ENDMDL
MODEL 2
REMARK VINA RESULT:    23.735      0.077      1.756
REMARK INTER + INTRA:          28.959
REMARK INTER:                  29.312
REMARK INTRA:                  -0.352
REMARK UNBOUND:                -0.326
REMARK SMILES O=c1c(O)c(-c2cc(O)c(O)c(O)c2)oc2cc(O)cc(O)c12
REMARK SMILES IDX 5 1 3 2 2 3 1 4 23 5 21 6 20 7 18 8 17 9 16 10 15 11 6 12
REMARK SMILES IDX 7 13 8 14 14 15 10 16 12 17 9 18 11 20 13 22 4 24 22 26
REMARK SMILES IDX 19 28
REMARK H PARENT 9 19 11 21 13 23 4 25 22 27 19 29
REMARK Flexibility Score: inf
ROOT
ATOM      1  C   UNL     1      26.809  30.360   5.053  1.00  0.00     0.180 A 
ATOM      2  C   UNL     1      27.964  30.888   4.451  1.00  0.00     0.208 A 
ATOM      3  C   UNL     1      28.527  30.220   3.353  1.00  0.00     0.238 A 
ATOM      4  O   UNL     1      29.602  30.658   2.868  1.00  0.00    -0.285 OA
ATOM      5  C   UNL     1      27.897  29.063   2.833  1.00  0.00     0.111 A 
ATOM      6  C   UNL     1      28.355  28.330   1.696  1.00  0.00     0.134 A 
ATOM      7  C   UNL     1      27.712  27.140   1.337  1.00  0.00     0.093 A 
ATOM      8  C   UNL     1      26.589  26.688   2.034  1.00  0.00     0.123 A 
ATOM      9  C   UNL     1      26.102  27.424   3.111  1.00  0.00     0.094 A 
ATOM     10  C   UNL     1      26.745  28.596   3.518  1.00  0.00     0.146 A 
ATOM     11  O   UNL     1      26.260  29.254   4.563  1.00  0.00    -0.452 OA
ENDROOT
BRANCH   1  12
ATOM     12  C   UNL     1      26.165  31.000   6.223  1.00  0.00     0.029 A 
ATOM     13  C   UNL     1      25.025  31.793   6.033  1.00  0.00     0.062 A 
ATOM     14  C   UNL     1      24.384  32.393   7.123  1.00  0.00     0.162 A 
ATOM     15  C   UNL     1      26.638  30.781   7.528  1.00  0.00     0.062 A 
ATOM     16  C   UNL     1      24.873  32.190   8.424  1.00  0.00     0.200 A 
ATOM     17  C   UNL     1      26.001  31.376   8.625  1.00  0.00     0.162 A 
BRANCH  14  18
ATOM     18  O   UNL     1      23.260  33.188   6.891  1.00  0.00    -0.504 OA
ATOM     19  H   UNL     1      22.328  32.894   7.157  1.00  0.00     0.293 HD
ENDBRANCH  14  18
BRANCH  16  20
ATOM     20  O   UNL     1      24.229  32.794   9.505  1.00  0.00    -0.502 OA
ATOM     21  H   UNL     1      23.226  32.744   9.632  1.00  0.00     0.293 HD
ENDBRANCH  16  20
BRANCH  17  22
ATOM     22  O   UNL     1      26.483  31.158   9.915  1.00  0.00    -0.504 OA
ATOM     23  H   UNL     1      25.870  31.178  10.722  1.00  0.00     0.293 HD
ENDBRANCH  17  22
ENDBRANCH   1  12
BRANCH   2  24
ATOM     24  O   UNL     1      28.527  32.074   4.932  1.00  0.00    -0.502 OA
ATOM     25  H   UNL     1      29.263  32.565   4.440  1.00  0.00     0.293 HD
ENDBRANCH   2  24
BRANCH   6  26
ATOM     26  O   UNL     1      29.412  28.738   0.875  1.00  0.00    -0.507 OA
ATOM     27  H   UNL     1      29.759  28.224   0.081  1.00  0.00     0.293 HD
ENDBRANCH   6  26
BRANCH   8  28
ATOM     28  O   UNL     1      25.945  25.511   1.659  1.00  0.00    -0.508 OA
ATOM     29  H   UNL     1      25.756  25.298   0.687  1.00  0.00     0.293 HD
ENDBRANCH   8  28
TORSDOF 7
ENDMDL
MODEL 3
REMARK VINA RESULT:    25.664      1.289      2.870
REMARK INTER + INTRA:          31.339
REMARK INTER:                  31.703
REMARK INTRA:                  -0.364
REMARK UNBOUND:                -0.326
REMARK SMILES O=c1c(O)c(-c2cc(O)c(O)c(O)c2)oc2cc(O)cc(O)c12
REMARK SMILES IDX 5 1 3 2 2 3 1 4 23 5 21 6 20 7 18 8 17 9 16 10 15 11 6 12
REMARK SMILES IDX 7 13 8 14 14 15 10 16 12 17 9 18 11 20 13 22 4 24 22 26
REMARK SMILES IDX 19 28
REMARK H PARENT 9 19 11 21 13 23 4 25 22 27 19 29
REMARK Flexibility Score: inf
ROOT
ATOM      1  C   UNL     1      26.167  30.326   5.025  1.00  0.00     0.180 A 
ATOM      2  C   UNL     1      25.588  29.136   4.551  1.00  0.00     0.208 A 
ATOM      3  C   UNL     1      26.098  28.549   3.382  1.00  0.00     0.238 A 
ATOM      4  O   UNL     1      25.527  27.526   2.924  1.00  0.00    -0.285 OA
ATOM      5  C   UNL     1      27.216  29.126   2.733  1.00  0.00     0.111 A 
ATOM      6  C   UNL     1      27.844  28.591   1.567  1.00  0.00     0.134 A 
ATOM      7  C   UNL     1      28.878  29.305   0.950  1.00  0.00     0.093 A 
ATOM      8  C   UNL     1      29.349  30.503   1.492  1.00  0.00     0.123 A 
ATOM      9  C   UNL     1      28.781  31.005   2.660  1.00  0.00     0.094 A 
ATOM     10  C   UNL     1      27.721  30.335   3.278  1.00  0.00     0.146 A 
ATOM     11  O   UNL     1      27.194  30.861   4.376  1.00  0.00    -0.452 OA
ENDROOT
BRANCH   1  12
ATOM     12  C   UNL     1      25.676  31.012   6.242  1.00  0.00     0.029 A 
ATOM     13  C   UNL     1      26.324  30.791   7.466  1.00  0.00     0.062 A 
ATOM     14  C   UNL     1      25.895  31.442   8.628  1.00  0.00     0.162 A 
ATOM     15  C   UNL     1      24.611  31.926   6.187  1.00  0.00     0.062 A 
ATOM     16  C   UNL     1      24.815  32.339   8.572  1.00  0.00     0.200 A 
ATOM     17  C   UNL     1      24.175  32.584   7.345  1.00  0.00     0.162 A 
BRANCH  14  18
ATOM     18  O   UNL     1      26.557  31.185   9.830  1.00  0.00    -0.504 OA
ATOM     19  H   UNL     1      27.236  31.828  10.219  1.00  0.00     0.293 HD
ENDBRANCH  14  18
BRANCH  16  20
ATOM     20  O   UNL     1      24.391  32.982   9.737  1.00  0.00    -0.502 OA
ATOM     21  H   UNL     1      23.578  33.584   9.755  1.00  0.00     0.293 HD
ENDBRANCH  16  20
BRANCH  17  22
ATOM     22  O   UNL     1      23.112  33.483   7.280  1.00  0.00    -0.504 OA
ATOM     23  H   UNL     1      22.318  33.413   7.905  1.00  0.00     0.293 HD
ENDBRANCH  17  22
ENDBRANCH   1  12
BRANCH   2  24
ATOM     24  O   UNL     1      24.534  28.541   5.249  1.00  0.00    -0.502 OA
ATOM     25  H   UNL     1      24.210  28.887   6.145  1.00  0.00     0.293 HD
ENDBRANCH   2  24
BRANCH   6  26
ATOM     26  O   UNL     1      27.511  27.359   0.994  1.00  0.00    -0.507 OA
ATOM     27  H   UNL     1      27.024  26.614   1.467  1.00  0.00     0.293 HD
ENDBRANCH   6  26
BRANCH   8  28
ATOM     28  O   UNL     1      30.390  31.199   0.881  1.00  0.00    -0.508 OA
ATOM     29  H   UNL     1      31.084  30.725   0.316  1.00  0.00     0.293 HD
ENDBRANCH   8  28
TORSDOF 7
ENDMDL
MODEL 4
REMARK VINA RESULT:    25.855      1.291      3.357
REMARK INTER + INTRA:          31.575
REMARK INTER:                  31.918
REMARK INTRA:                  -0.343
REMARK UNBOUND:                -0.326
REMARK SMILES O=c1c(O)c(-c2cc(O)c(O)c(O)c2)oc2cc(O)cc(O)c12
REMARK SMILES IDX 5 1 3 2 2 3 1 4 23 5 21 6 20 7 18 8 17 9 16 10 15 11 6 12
REMARK SMILES IDX 7 13 8 14 14 15 10 16 12 17 9 18 11 20 13 22 4 24 22 26
REMARK SMILES IDX 19 28
REMARK H PARENT 9 19 11 21 13 23 4 25 22 27 19 29
REMARK Flexibility Score: inf
ROOT
ATOM      1  C   UNL     1      26.251  30.340   5.096  1.00  0.00     0.180 A 
ATOM      2  C   UNL     1      25.629  29.177   4.612  1.00  0.00     0.208 A 
ATOM      3  C   UNL     1      26.097  28.599   3.421  1.00  0.00     0.238 A 
ATOM      4  O   UNL     1      25.488  27.601   2.955  1.00  0.00    -0.285 OA
ATOM      5  C   UNL     1      27.218  29.157   2.759  1.00  0.00     0.111 A 
ATOM      6  C   UNL     1      27.806  28.627   1.571  1.00  0.00     0.134 A 
ATOM      7  C   UNL     1      28.847  29.325   0.946  1.00  0.00     0.093 A 
ATOM      8  C   UNL     1      29.363  30.498   1.500  1.00  0.00     0.123 A 
ATOM      9  C   UNL     1      28.834  30.993   2.689  1.00  0.00     0.094 A 
ATOM     10  C   UNL     1      27.768  30.341   3.316  1.00  0.00     0.146 A 
ATOM     11  O   UNL     1      27.279  30.859   4.436  1.00  0.00    -0.452 OA
ENDROOT
BRANCH   1  12
ATOM     12  C   UNL     1      25.805  31.016   6.336  1.00  0.00     0.029 A 
ATOM     13  C   UNL     1      24.719  31.902   6.285  1.00  0.00     0.062 A 
ATOM     14  C   UNL     1      24.263  32.539   7.445  1.00  0.00     0.162 A 
ATOM     15  C   UNL     1      26.409  30.744   7.575  1.00  0.00     0.062 A 
ATOM     16  C   UNL     1      24.884  32.280   8.678  1.00  0.00     0.200 A 
ATOM     17  C   UNL     1      25.957  31.376   8.741  1.00  0.00     0.162 A 
BRANCH  14  18
ATOM     18  O   UNL     1      23.189  33.424   7.350  1.00  0.00    -0.504 OA
ATOM     19  H   UNL     1      23.150  34.284   7.884  1.00  0.00     0.293 HD
ENDBRANCH  14  18
BRANCH  16  20
ATOM     20  O   UNL     1      24.424  32.922   9.829  1.00  0.00    -0.502 OA
ATOM     21  H   UNL     1      24.007  32.414  10.600  1.00  0.00     0.293 HD
ENDBRANCH  16  20
BRANCH  17  22
ATOM     22  O   UNL     1      26.569  31.104   9.964  1.00  0.00    -0.504 OA
ATOM     23  H   UNL     1      27.575  31.142  10.075  1.00  0.00     0.293 HD
ENDBRANCH  17  22
ENDBRANCH   1  12
BRANCH   2  24
ATOM     24  O   UNL     1      24.572  28.598   5.321  1.00  0.00    -0.502 OA
ATOM     25  H   UNL     1      23.678  28.392   4.892  1.00  0.00     0.293 HD
ENDBRANCH   2  24
BRANCH   6  26
ATOM     26  O   UNL     1      27.427  27.417   0.981  1.00  0.00    -0.507 OA
ATOM     27  H   UNL     1      26.484  27.061   0.948  1.00  0.00     0.293 HD
ENDBRANCH   6  26
BRANCH   8  28
ATOM     28  O   UNL     1      30.411  31.176   0.880  1.00  0.00    -0.508 OA
ATOM     29  H   UNL     1      30.242  31.863   0.155  1.00  0.00     0.293 HD
ENDBRANCH   8  28
TORSDOF 7
ENDMDL
