MODEL 1
REMARK VINA RESULT:    -3.644      0.000      0.000
REMARK INTER + INTRA:          -5.248
REMARK INTER:                  -4.923
REMARK INTRA:                  -0.326
REMARK UNBOUND:                -0.326
REMARK SMILES CCCCCCCC(=O)[O-]
REMARK SMILES IDX 5 1 6 2 7 3 8 4 9 5 10 6 4 7 3 8 2 9 1 10
REMARK H PARENT
REMARK Flexibility Score: inf
ROOT
ATOM      1  C   UNL     1      33.309  77.553   9.170  1.00  0.00     0.000 C 
ENDROOT
BRANCH   1   2
ATOM      2  C   UNL     1      34.064  78.137  10.378  1.00  0.00     0.006 C 
BRANCH   2   3
ATOM      3  C   UNL     1      34.684  77.043  11.256  1.00  0.00     0.053 C 
BRANCH   3   4
ATOM      4  C   UNL     1      36.180  77.064  11.194  1.00  0.00     0.041 C 
ATOM      5  O   UNL     1      36.837  77.834  11.944  1.00  0.00    -0.550 OA
ATOM      6  O   UNL     1      36.852  76.208  10.329  1.00  0.00    -0.550 OA
ENDBRANCH   3   4
ENDBRANCH   2   3
ENDBRANCH   1   2
BRANCH   1   7
ATOM      7  C   UNL     1      34.257  77.029   8.079  1.00  0.00     0.000 C 
BRANCH   7   8
ATOM      8  C   UNL     1      34.179  75.505   7.908  1.00  0.00    -0.000 C 
BRANCH   8   9
ATOM      9  C   UNL     1      34.972  75.049   6.677  1.00  0.00    -0.003 C 
ATOM     10  C   UNL     1      36.426  74.757   7.036  1.00  0.00     0.004 C 
ENDBRANCH   8   9
ENDBRANCH   7   8
ENDBRANCH   1   7
TORSDOF 6
ENDMDL
MODEL 2
REMARK VINA RESULT:    -3.636      0.961      1.387
REMARK INTER + INTRA:          -5.237
REMARK INTER:                  -5.037
REMARK INTRA:                  -0.200
REMARK UNBOUND:                -0.326
REMARK SMILES CCCCCCCC(=O)[O-]
REMARK SMILES IDX 5 1 6 2 7 3 8 4 9 5 10 6 4 7 3 8 2 9 1 10
REMARK H PARENT
REMARK Flexibility Score: inf
ROOT
ATOM      1  C   UNL     1      34.247  76.833   8.204  1.00  0.00     0.000 C 
ENDROOT
BRANCH   1   2
ATOM      2  C   UNL     1      34.384  76.318   9.648  1.00  0.00     0.006 C 
BRANCH   2   3
ATOM      3  C   UNL     1      34.842  77.419  10.613  1.00  0.00     0.053 C 
BRANCH   3   4
ATOM      4  C   UNL     1      36.264  77.224  11.040  1.00  0.00     0.041 C 
ATOM      5  O   UNL     1      36.731  77.878  12.010  1.00  0.00    -0.550 OA
ATOM      6  O   UNL     1      37.065  76.295  10.387  1.00  0.00    -0.550 OA
ENDBRANCH   3   4
ENDBRANCH   2   3
ENDBRANCH   1   2
BRANCH   1   7
ATOM      7  C   UNL     1      34.662  75.782   7.161  1.00  0.00     0.000 C 
BRANCH   7   8
ATOM      8  C   UNL     1      35.904  74.985   7.586  1.00  0.00    -0.000 C 
BRANCH   8   9
ATOM      9  C   UNL     1      36.430  74.131   6.426  1.00  0.00    -0.003 C 
ATOM     10  C   UNL     1      37.894  73.757   6.637  1.00  0.00     0.004 C 
ENDBRANCH   8   9
ENDBRANCH   7   8
ENDBRANCH   1   7
TORSDOF 6
ENDMDL
MODEL 3
REMARK VINA RESULT:    -3.608      1.646      3.825
REMARK INTER + INTRA:          -5.199
REMARK INTER:                  -4.626
REMARK INTRA:                  -0.572
REMARK UNBOUND:                -0.326
REMARK SMILES CCCCCCCC(=O)[O-]
REMARK SMILES IDX 5 1 6 2 7 3 8 4 9 5 10 6 4 7 3 8 2 9 1 10
REMARK H PARENT
REMARK Flexibility Score: inf
ROOT
ATOM      1  C   UNL     1      33.772  77.687   8.797  1.00  0.00     0.000 C 
ENDROOT
BRANCH   1   2
ATOM      2  C   UNL     1      34.266  76.322   8.285  1.00  0.00     0.006 C 
BRANCH   2   3
ATOM      3  C   UNL     1      35.565  75.883   8.972  1.00  0.00     0.053 C 
BRANCH   3   4
ATOM      4  C   UNL     1      35.452  75.946  10.465  1.00  0.00     0.041 C 
ATOM      5  O   UNL     1      34.685  75.157  11.077  1.00  0.00    -0.550 OA
ATOM      6  O   UNL     1      36.220  76.855  11.182  1.00  0.00    -0.550 OA
ENDBRANCH   3   4
ENDBRANCH   2   3
ENDBRANCH   1   2
BRANCH   1   7
ATOM      7  C   UNL     1      32.244  77.737   8.965  1.00  0.00     0.000 C 
BRANCH   7   8
ATOM      8  C   UNL     1      31.816  78.378  10.293  1.00  0.00    -0.000 C 
BRANCH   8   9
ATOM      9  C   UNL     1      33.037  78.727  11.153  1.00  0.00    -0.003 C 
ATOM     10  C   UNL     1      32.986  78.013  12.500  1.00  0.00     0.004 C 
ENDBRANCH   8   9
ENDBRANCH   7   8
ENDBRANCH   1   7
TORSDOF 6
ENDMDL
MODEL 4
REMARK VINA RESULT:    -3.597      2.772      4.538
REMARK INTER + INTRA:          -5.184
REMARK INTER:                  -4.793
REMARK INTRA:                  -0.391
REMARK UNBOUND:                -0.326
REMARK SMILES CCCCCCCC(=O)[O-]
REMARK SMILES IDX 5 1 6 2 7 3 8 4 9 5 10 6 4 7 3 8 2 9 1 10
REMARK H PARENT
REMARK Flexibility Score: inf
ROOT
ATOM      1  C   UNL     1      33.931  76.211   8.632  1.00  0.00     0.000 C 
ENDROOT
BRANCH   1   2
ATOM      2  C   UNL     1      34.683  75.882   7.330  1.00  0.00     0.006 C 
BRANCH   2   3
ATOM      3  C   UNL     1      36.011  75.162   7.595  1.00  0.00     0.053 C 
BRANCH   3   4
ATOM      4  C   UNL     1      36.203  73.995   6.675  1.00  0.00     0.041 C 
ATOM      5  O   UNL     1      37.361  73.653   6.318  1.00  0.00    -0.550 OA
ATOM      6  O   UNL     1      35.104  73.265   6.240  1.00  0.00    -0.550 OA
ENDBRANCH   3   4
ENDBRANCH   2   3
ENDBRANCH   1   2
BRANCH   1   7
ATOM      7  C   UNL     1      33.886  77.720   8.922  1.00  0.00     0.000 C 
BRANCH   7   8
ATOM      8  C   UNL     1      34.162  78.048  10.396  1.00  0.00    -0.000 C 
BRANCH   8   9
ATOM      9  C   UNL     1      35.044  76.972  11.041  1.00  0.00    -0.003 C 
ATOM     10  C   UNL     1      36.458  77.492  11.286  1.00  0.00     0.004 C 
ENDBRANCH   8   9
ENDBRANCH   7   8
ENDBRANCH   1   7
TORSDOF 6
ENDMDL
MODEL 5
REMARK VINA RESULT:    -3.583      2.702      4.870
REMARK INTER + INTRA:          -5.166
REMARK INTER:                  -4.896
REMARK INTRA:                  -0.270
REMARK UNBOUND:                -0.326
REMARK SMILES CCCCCCCC(=O)[O-]
REMARK SMILES IDX 5 1 6 2 7 3 8 4 9 5 10 6 4 7 3 8 2 9 1 10
REMARK H PARENT
REMARK Flexibility Score: inf
ROOT
ATOM      1  C   UNL     1      36.132  76.305  10.479  1.00  0.00     0.000 C 
ENDROOT
BRANCH   1   2
ATOM      2  C   UNL     1      35.556  75.909   9.108  1.00  0.00     0.006 C 
BRANCH   2   3
ATOM      3  C   UNL     1      36.606  75.245   8.209  1.00  0.00     0.053 C 
BRANCH   3   4
ATOM      4  C   UNL     1      36.016  74.784   6.912  1.00  0.00     0.041 C 
ATOM      5  O   UNL     1      36.575  73.872   6.248  1.00  0.00    -0.550 OA
ATOM      6  O   UNL     1      34.827  75.340   6.454  1.00  0.00    -0.550 OA
ENDBRANCH   3   4
ENDBRANCH   2   3
ENDBRANCH   1   2
BRANCH   1   7
ATOM      7  C   UNL     1      35.410  77.513  11.097  1.00  0.00     0.000 C 
BRANCH   7   8
ATOM      8  C   UNL     1      34.253  78.021  10.225  1.00  0.00    -0.000 C 
BRANCH   8   9
ATOM      9  C   UNL     1      33.080  78.496  11.091  1.00  0.00    -0.003 C 
ATOM     10  C   UNL     1      33.319  78.178  12.564  1.00  0.00     0.004 C 
ENDBRANCH   8   9
ENDBRANCH   7   8
ENDBRANCH   1   7
TORSDOF 6
ENDMDL
MODEL 6
REMARK VINA RESULT:    -3.524      2.348      3.312
REMARK INTER + INTRA:          -5.086
REMARK INTER:                  -4.828
REMARK INTRA:                  -0.258
REMARK UNBOUND:                -0.326
REMARK SMILES CCCCCCCC(=O)[O-]
REMARK SMILES IDX 5 1 6 2 7 3 8 4 9 5 10 6 4 7 3 8 2 9 1 10
REMARK H PARENT
REMARK Flexibility Score: inf
ROOT
ATOM      1  C   UNL     1      35.532  75.874   8.956  1.00  0.00     0.000 C 
ENDROOT
BRANCH   1   2
ATOM      2  C   UNL     1      34.355  76.398   8.114  1.00  0.00     0.006 C 
BRANCH   2   3
ATOM      3  C   UNL     1      33.833  77.746   8.626  1.00  0.00     0.053 C 
BRANCH   3   4
ATOM      4  C   UNL     1      32.957  77.580   9.830  1.00  0.00     0.041 C 
ATOM      5  O   UNL     1      32.247  76.549   9.962  1.00  0.00    -0.550 OA
ATOM      6  O   UNL     1      32.951  78.552  10.824  1.00  0.00    -0.550 OA
ENDBRANCH   3   4
ENDBRANCH   2   3
ENDBRANCH   1   2
BRANCH   1   7
ATOM      7  C   UNL     1      36.574  75.123   8.111  1.00  0.00     0.000 C 
BRANCH   7   8
ATOM      8  C   UNL     1      36.060  74.779   6.705  1.00  0.00    -0.000 C 
BRANCH   8   9
ATOM      9  C   UNL     1      36.801  73.565   6.133  1.00  0.00    -0.003 C 
ATOM     10  C   UNL     1      38.268  73.565   6.552  1.00  0.00     0.004 C 
ENDBRANCH   8   9
ENDBRANCH   7   8
ENDBRANCH   1   7
TORSDOF 6
ENDMDL
MODEL 7
REMARK VINA RESULT:    -3.515      8.974     10.004
REMARK INTER + INTRA:          -5.074
REMARK INTER:                  -4.839
REMARK INTRA:                  -0.235
REMARK UNBOUND:                -0.326
REMARK SMILES CCCCCCCC(=O)[O-]
REMARK SMILES IDX 5 1 6 2 7 3 8 4 9 5 10 6 4 7 3 8 2 9 1 10
REMARK H PARENT
REMARK Flexibility Score: inf
ROOT
ATOM      1  C   UNL     1      45.410  72.796  10.882  1.00  0.00     0.000 C 
ENDROOT
BRANCH   1   2
ATOM      2  C   UNL     1      44.734  74.030  11.506  1.00  0.00     0.006 C 
BRANCH   2   3
ATOM      3  C   UNL     1      45.273  74.339  12.908  1.00  0.00     0.053 C 
BRANCH   3   4
ATOM      4  C   UNL     1      44.239  74.999  13.767  1.00  0.00     0.041 C 
ATOM      5  O   UNL     1      43.028  74.995  13.421  1.00  0.00    -0.550 OA
ATOM      6  O   UNL     1      44.609  75.590  14.970  1.00  0.00    -0.550 OA
ENDBRANCH   3   4
ENDBRANCH   2   3
ENDBRANCH   1   2
BRANCH   1   7
ATOM      7  C   UNL     1      44.871  72.473   9.479  1.00  0.00     0.000 C 
BRANCH   7   8
ATOM      8  C   UNL     1      43.660  73.337   9.097  1.00  0.00    -0.000 C 
BRANCH   8   9
ATOM      9  C   UNL     1      43.061  72.880   7.761  1.00  0.00    -0.003 C 
ATOM     10  C   UNL     1      44.132  72.286   6.851  1.00  0.00     0.004 C 
ENDBRANCH   8   9
ENDBRANCH   7   8
ENDBRANCH   1   7
TORSDOF 6
ENDMDL
MODEL 8
REMARK VINA RESULT:    -3.490      2.100      2.813
REMARK INTER + INTRA:          -5.040
REMARK INTER:                  -4.753
REMARK INTRA:                  -0.287
REMARK UNBOUND:                -0.326
REMARK SMILES CCCCCCCC(=O)[O-]
REMARK SMILES IDX 5 1 6 2 7 3 8 4 9 5 10 6 4 7 3 8 2 9 1 10
REMARK H PARENT
REMARK Flexibility Score: inf
ROOT
ATOM      1  C   UNL     1      36.226  75.939  10.316  1.00  0.00     0.000 C 
ENDROOT
BRANCH   1   2
ATOM      2  C   UNL     1      35.779  77.163  11.135  1.00  0.00     0.006 C 
BRANCH   2   3
ATOM      3  C   UNL     1      34.624  77.917  10.464  1.00  0.00     0.053 C 
BRANCH   3   4
ATOM      4  C   UNL     1      33.486  78.146  11.411  1.00  0.00     0.041 C 
ATOM      5  O   UNL     1      32.748  79.158  11.284  1.00  0.00    -0.550 OA
ATOM      6  O   UNL     1      33.221  77.221  12.414  1.00  0.00    -0.550 OA
ENDBRANCH   3   4
ENDBRANCH   2   3
ENDBRANCH   1   2
BRANCH   1   7
ATOM      7  C   UNL     1      35.609  75.912   8.908  1.00  0.00     0.000 C 
BRANCH   7   8
ATOM      8  C   UNL     1      36.482  75.160   7.893  1.00  0.00    -0.000 C 
BRANCH   8   9
ATOM      9  C   UNL     1      35.684  74.823   6.628  1.00  0.00    -0.003 C 
ATOM     10  C   UNL     1      34.283  75.425   6.682  1.00  0.00     0.004 C 
ENDBRANCH   8   9
ENDBRANCH   7   8
ENDBRANCH   1   7
TORSDOF 6
ENDMDL
MODEL 9
REMARK VINA RESULT:    -3.370      2.647      3.645
REMARK INTER + INTRA:          -4.878
REMARK INTER:                  -4.293
REMARK INTRA:                  -0.585
REMARK UNBOUND:                -0.326
REMARK SMILES CCCCCCCC(=O)[O-]
REMARK SMILES IDX 5 1 6 2 7 3 8 4 9 5 10 6 4 7 3 8 2 9 1 10
REMARK H PARENT
REMARK Flexibility Score: inf
ROOT
ATOM      1  C   UNL     1      32.456  77.600   9.027  1.00  0.00     0.000 C 
ENDROOT
BRANCH   1   2
ATOM      2  C   UNL     1      31.681  78.185  10.221  1.00  0.00     0.006 C 
BRANCH   2   3
ATOM      3  C   UNL     1      32.591  78.975  11.170  1.00  0.00     0.053 C 
BRANCH   3   4
ATOM      4  C   UNL     1      32.414  78.546  12.594  1.00  0.00     0.041 C 
ATOM      5  O   UNL     1      31.906  79.333  13.436  1.00  0.00    -0.550 OA
ATOM      6  O   UNL     1      32.779  77.263  12.984  1.00  0.00    -0.550 OA
ENDBRANCH   3   4
ENDBRANCH   2   3
ENDBRANCH   1   2
BRANCH   1   7
ATOM      7  C   UNL     1      33.972  77.828   9.138  1.00  0.00     0.000 C 
BRANCH   7   8
ATOM      8  C   UNL     1      34.767  76.515   9.190  1.00  0.00    -0.000 C 
BRANCH   8   9
ATOM      9  C   UNL     1      35.227  76.209  10.620  1.00  0.00    -0.003 C 
ATOM     10  C   UNL     1      35.993  77.386  11.217  1.00  0.00     0.004 C 
ENDBRANCH   8   9
ENDBRANCH   7   8
ENDBRANCH   1   7
TORSDOF 6
ENDMDL
