MODEL 1
REMARK VINA RESULT:    -2.910      0.000      0.000
REMARK INTER + INTRA:          -5.531
REMARK INTER:                  -4.441
REMARK INTRA:                  -1.090
REMARK UNBOUND:                -1.090
REMARK SMILES CC(=O)CCC=C(C)CCC=C(C)CCC=C(C)C
REMARK SMILES IDX 10 1 11 2 12 3 13 4 14 5 15 6 16 7 18 8 17 9 19 10 9 11 7 12
REMARK SMILES IDX 6 13 8 14 5 15 4 16 2 17 3 18 1 19
REMARK H PARENT
REMARK Flexibility Score: inf
ROOT
ATOM      1  C   UNL     1       8.138 -34.947  13.000  1.00  0.00     0.032 C 
ENDROOT
BRANCH   1   2
ATOM      2  C   UNL     1       7.551 -35.912  13.998  1.00  0.00    -0.028 C 
ATOM      3  C   UNL     1       7.133 -35.581  15.241  1.00  0.00    -0.077 C 
ATOM      4  C   UNL     1       6.622 -36.681  16.137  1.00  0.00     0.039 C 
BRANCH   3   5
ATOM      5  C   UNL     1       7.128 -34.153  15.758  1.00  0.00     0.034 C 
BRANCH   5   6
ATOM      6  C   UNL     1       8.136 -33.950  16.898  1.00  0.00     0.032 C 
BRANCH   6   7
ATOM      7  C   UNL     1       8.977 -32.714  16.673  1.00  0.00    -0.028 C 
ATOM      8  C   UNL     1       8.656 -31.852  19.004  1.00  0.00     0.039 C 
ATOM      9  C   UNL     1       9.235 -31.778  17.614  1.00  0.00    -0.080 C 
ATOM     10  C   UNL     1      10.146 -30.622  17.290  1.00  0.00     0.039 C 
ENDBRANCH   6   7
ENDBRANCH   5   6
ENDBRANCH   3   5
ENDBRANCH   1   2
BRANCH   1  11
ATOM     11  C   UNL     1       9.588 -34.609  13.363  1.00  0.00     0.034 C 
BRANCH  11  12
ATOM     12  C   UNL     1       9.835 -33.119  13.238  1.00  0.00    -0.077 C 
ATOM     13  C   UNL     1      11.073 -32.572  13.246  1.00  0.00    -0.028 C 
ATOM     14  C   UNL     1       8.654 -32.211  13.014  1.00  0.00     0.039 C 
BRANCH  13  15
ATOM     15  C   UNL     1      12.354 -33.341  13.463  1.00  0.00     0.035 C 
BRANCH  15  16
ATOM     16  C   UNL     1      13.593 -32.444  13.335  1.00  0.00     0.079 C 
BRANCH  16  17
ATOM     17  C   UNL     1      13.415 -31.136  14.062  1.00  0.00     0.130 C 
ATOM     18  O   UNL     1      12.624 -31.060  14.991  1.00  0.00    -0.300 OA
ATOM     19  C   UNL     1      14.228 -29.938  13.679  1.00  0.00     0.087 C 
ENDBRANCH  16  17
ENDBRANCH  15  16
ENDBRANCH  13  15
ENDBRANCH  11  12
ENDBRANCH   1  11
TORSDOF 9
ENDMDL
MODEL 2
REMARK VINA RESULT:    -2.491      1.368      2.124
REMARK INTER + INTRA:          -4.892
REMARK INTER:                  -4.200
REMARK INTRA:                  -0.691
REMARK UNBOUND:                -1.090
REMARK SMILES CC(=O)CCC=C(C)CCC=C(C)CCC=C(C)C
REMARK SMILES IDX 10 1 11 2 12 3 13 4 14 5 15 6 16 7 18 8 17 9 19 10 9 11 7 12
REMARK SMILES IDX 6 13 8 14 5 15 4 16 2 17 3 18 1 19
REMARK H PARENT
REMARK Flexibility Score: inf
ROOT
ATOM      1  C   UNL     1       9.575 -34.305  14.268  1.00  0.00     0.032 C 
ENDROOT
BRANCH   1   2
ATOM      2  C   UNL     1       8.363 -35.076  14.725  1.00  0.00    -0.028 C 
ATOM      3  C   UNL     1       7.088 -34.633  14.644  1.00  0.00    -0.077 C 
ATOM      4  C   UNL     1       5.993 -35.507  15.200  1.00  0.00     0.039 C 
BRANCH   3   5
ATOM      5  C   UNL     1       6.711 -33.314  13.991  1.00  0.00     0.034 C 
BRANCH   5   6
ATOM      6  C   UNL     1       7.326 -32.114  14.723  1.00  0.00     0.032 C 
BRANCH   6   7
ATOM      7  C   UNL     1       7.426 -32.369  16.209  1.00  0.00    -0.028 C 
ATOM      8  C   UNL     1       9.726 -31.393  16.404  1.00  0.00     0.039 C 
ATOM      9  C   UNL     1       8.487 -32.032  16.978  1.00  0.00    -0.080 C 
ATOM     10  C   UNL     1       8.442 -32.276  18.464  1.00  0.00     0.039 C 
ENDBRANCH   6   7
ENDBRANCH   5   6
ENDBRANCH   3   5
ENDBRANCH   1   2
BRANCH   1  11
ATOM     11  C   UNL     1      10.017 -34.764  12.875  1.00  0.00     0.034 C 
BRANCH  11  12
ATOM     12  C   UNL     1      11.437 -35.293  12.915  1.00  0.00    -0.077 C 
ATOM     13  C   UNL     1      12.520 -34.490  13.034  1.00  0.00    -0.028 C 
ATOM     14  C   UNL     1      11.650 -36.784  12.901  1.00  0.00     0.039 C 
BRANCH  13  15
ATOM     15  C   UNL     1      12.477 -32.981  13.059  1.00  0.00     0.035 C 
BRANCH  15  16
ATOM     16  C   UNL     1      13.830 -32.372  13.453  1.00  0.00     0.079 C 
BRANCH  16  17
ATOM     17  C   UNL     1      13.667 -31.024  14.107  1.00  0.00     0.130 C 
ATOM     18  O   UNL     1      12.896 -30.892  15.045  1.00  0.00    -0.300 OA
ATOM     19  C   UNL     1      14.474 -29.851  13.639  1.00  0.00     0.087 C 
ENDBRANCH  16  17
ENDBRANCH  15  16
ENDBRANCH  13  15
ENDBRANCH  11  12
ENDBRANCH   1  11
TORSDOF 9
ENDMDL
MODEL 3
REMARK VINA RESULT:    -1.911      2.082      5.734
REMARK INTER + INTRA:          -4.006
REMARK INTER:                  -3.964
REMARK INTRA:                  -0.042
REMARK UNBOUND:                -1.090
REMARK SMILES CC(=O)CCC=C(C)CCC=C(C)CCC=C(C)C
REMARK SMILES IDX 10 1 11 2 12 3 13 4 14 5 15 6 16 7 18 8 17 9 19 10 9 11 7 12
REMARK SMILES IDX 6 13 8 14 5 15 4 16 2 17 3 18 1 19
REMARK H PARENT
REMARK Flexibility Score: inf
ROOT
ATOM      1  C   UNL     1      10.088 -31.950  14.048  1.00  0.00     0.032 C 
ENDROOT
BRANCH   1   2
ATOM      2  C   UNL     1      11.548 -31.697  13.769  1.00  0.00    -0.028 C 
ATOM      3  C   UNL     1      12.415 -31.128  14.638  1.00  0.00    -0.077 C 
ATOM      4  C   UNL     1      13.831 -30.892  14.179  1.00  0.00     0.039 C 
BRANCH   3   5
ATOM      5  C   UNL     1      12.031 -30.747  16.057  1.00  0.00     0.034 C 
BRANCH   5   6
ATOM      6  C   UNL     1      10.513 -30.603  16.225  1.00  0.00     0.032 C 
BRANCH   6   7
ATOM      7  C   UNL     1      10.108 -30.706  17.677  1.00  0.00    -0.028 C 
ATOM      8  C   UNL     1       8.514 -32.599  17.285  1.00  0.00     0.039 C 
ATOM      9  C   UNL     1       9.229 -31.609  18.169  1.00  0.00    -0.080 C 
ATOM     10  C   UNL     1       8.957 -31.659  19.650  1.00  0.00     0.039 C 
ENDBRANCH   6   7
ENDBRANCH   5   6
ENDBRANCH   3   5
ENDBRANCH   1   2
BRANCH   1  11
ATOM     11  C   UNL     1       9.440 -32.715  12.890  1.00  0.00     0.034 C 
BRANCH  11  12
ATOM     12  C   UNL     1       9.590 -34.210  13.088  1.00  0.00    -0.077 C 
ATOM     13  C   UNL     1       8.535 -35.048  13.214  1.00  0.00    -0.028 C 
ATOM     14  C   UNL     1      10.975 -34.802  13.064  1.00  0.00     0.039 C 
BRANCH  13  15
ATOM     15  C   UNL     1       7.090 -34.614  13.261  1.00  0.00     0.035 C 
BRANCH  15  16
ATOM     16  C   UNL     1       6.542 -34.585  14.695  1.00  0.00     0.079 C 
BRANCH  16  17
ATOM     17  C   UNL     1       6.525 -35.958  15.316  1.00  0.00     0.130 C 
ATOM     18  O   UNL     1       6.940 -36.117  16.454  1.00  0.00    -0.300 OA
ATOM     19  C   UNL     1       5.966 -37.125  14.560  1.00  0.00     0.087 C 
ENDBRANCH  16  17
ENDBRANCH  15  16
ENDBRANCH  13  15
ENDBRANCH  11  12
ENDBRANCH   1  11
TORSDOF 9
ENDMDL
MODEL 4
REMARK VINA RESULT:    -1.627      1.472      2.333
REMARK INTER + INTRA:          -3.573
REMARK INTER:                  -2.522
REMARK INTRA:                  -1.051
REMARK UNBOUND:                -1.090
REMARK SMILES CC(=O)CCC=C(C)CCC=C(C)CCC=C(C)C
REMARK SMILES IDX 10 1 11 2 12 3 13 4 14 5 15 6 16 7 18 8 17 9 19 10 9 11 7 12
REMARK SMILES IDX 6 13 8 14 5 15 4 16 2 17 3 18 1 19
REMARK H PARENT
REMARK Flexibility Score: inf
ROOT
ATOM      1  C   UNL     1       9.356 -34.773  13.678  1.00  0.00     0.032 C 
ENDROOT
BRANCH   1   2
ATOM      2  C   UNL     1       8.043 -34.093  13.383  1.00  0.00    -0.028 C 
ATOM      3  C   UNL     1       7.204 -33.592  14.318  1.00  0.00    -0.077 C 
ATOM      4  C   UNL     1       5.899 -32.994  13.857  1.00  0.00     0.039 C 
BRANCH   3   5
ATOM      5  C   UNL     1       7.532 -33.578  15.801  1.00  0.00     0.034 C 
BRANCH   5   6
ATOM      6  C   UNL     1       7.777 -32.156  16.323  1.00  0.00     0.032 C 
BRANCH   6   7
ATOM      7  C   UNL     1       8.138 -32.165  17.791  1.00  0.00    -0.028 C 
ATOM      8  C   UNL     1      10.159 -30.715  17.487  1.00  0.00     0.039 C 
ATOM      9  C   UNL     1       9.191 -31.507  18.328  1.00  0.00    -0.080 C 
ATOM     10  C   UNL     1       9.409 -31.535  19.819  1.00  0.00     0.039 C 
ENDBRANCH   6   7
ENDBRANCH   5   6
ENDBRANCH   3   5
ENDBRANCH   1   2
BRANCH   1  11
ATOM     11  C   UNL     1      10.532 -33.878  13.272  1.00  0.00     0.034 C 
BRANCH  11  12
ATOM     12  C   UNL     1      11.808 -34.690  13.170  1.00  0.00    -0.077 C 
ATOM     13  C   UNL     1      13.031 -34.129  13.031  1.00  0.00    -0.028 C 
ATOM     14  C   UNL     1      11.720 -36.187  13.309  1.00  0.00     0.039 C 
BRANCH  13  15
ATOM     15  C   UNL     1      13.289 -32.649  12.875  1.00  0.00     0.035 C 
BRANCH  15  16
ATOM     16  C   UNL     1      14.224 -32.108  13.966  1.00  0.00     0.079 C 
BRANCH  16  17
ATOM     17  C   UNL     1      13.626 -30.923  14.678  1.00  0.00     0.130 C 
ATOM     18  O   UNL     1      14.357 -30.064  15.148  1.00  0.00    -0.300 OA
ATOM     19  C   UNL     1      12.139 -30.770  14.782  1.00  0.00     0.087 C 
ENDBRANCH  16  17
ENDBRANCH  15  16
ENDBRANCH  13  15
ENDBRANCH  11  12
ENDBRANCH   1  11
TORSDOF 9
ENDMDL
MODEL 5
REMARK VINA RESULT:    -1.614      1.962      5.886
REMARK INTER + INTRA:          -3.553
REMARK INTER:                  -2.813
REMARK INTRA:                  -0.740
REMARK UNBOUND:                -1.090
REMARK SMILES CC(=O)CCC=C(C)CCC=C(C)CCC=C(C)C
REMARK SMILES IDX 10 1 11 2 12 3 13 4 14 5 15 6 16 7 18 8 17 9 19 10 9 11 7 12
REMARK SMILES IDX 6 13 8 14 5 15 4 16 2 17 3 18 1 19
REMARK H PARENT
REMARK Flexibility Score: inf
ROOT
ATOM      1  C   UNL     1      13.050 -33.164  13.615  1.00  0.00     0.032 C 
ENDROOT
BRANCH   1   2
ATOM      2  C   UNL     1      13.770 -31.874  13.313  1.00  0.00    -0.028 C 
ATOM      3  C   UNL     1      13.769 -30.782  14.112  1.00  0.00    -0.077 C 
ATOM      4  C   UNL     1      14.494 -29.550  13.634  1.00  0.00     0.039 C 
BRANCH   3   5
ATOM      5  C   UNL     1      13.100 -30.756  15.476  1.00  0.00     0.034 C 
BRANCH   5   6
ATOM      6  C   UNL     1      11.570 -30.707  15.365  1.00  0.00     0.032 C 
BRANCH   6   7
ATOM      7  C   UNL     1      10.920 -30.745  16.729  1.00  0.00    -0.028 C 
ATOM      8  C   UNL     1       8.976 -32.129  15.963  1.00  0.00     0.039 C 
ATOM      9  C   UNL     1       9.769 -31.395  17.015  1.00  0.00    -0.080 C 
ATOM     10  C   UNL     1       9.253 -31.417  18.431  1.00  0.00     0.039 C 
ENDBRANCH   6   7
ENDBRANCH   5   6
ENDBRANCH   3   5
ENDBRANCH   1   2
BRANCH   1  11
ATOM     11  C   UNL     1      11.573 -33.066  13.218  1.00  0.00     0.034 C 
BRANCH  11  12
ATOM     12  C   UNL     1      10.962 -34.447  13.095  1.00  0.00    -0.077 C 
ATOM     13  C   UNL     1       9.639 -34.655  12.905  1.00  0.00    -0.028 C 
ATOM     14  C   UNL     1      11.879 -35.642  13.105  1.00  0.00     0.039 C 
BRANCH  13  15
ATOM     15  C   UNL     1       8.591 -33.568  12.875  1.00  0.00     0.035 C 
BRANCH  15  16
ATOM     16  C   UNL     1       7.166 -34.141  12.884  1.00  0.00     0.079 C 
BRANCH  16  17
ATOM     17  C   UNL     1       6.811 -34.740  14.220  1.00  0.00     0.130 C 
ATOM     18  O   UNL     1       6.484 -34.012  15.145  1.00  0.00    -0.300 OA
ATOM     19  C   UNL     1       6.820 -36.226  14.412  1.00  0.00     0.087 C 
ENDBRANCH  16  17
ENDBRANCH  15  16
ENDBRANCH  13  15
ENDBRANCH  11  12
ENDBRANCH   1  11
TORSDOF 9
ENDMDL
MODEL 6
REMARK VINA RESULT:    -1.391      1.477      2.454
REMARK INTER + INTRA:          -3.213
REMARK INTER:                  -2.148
REMARK INTRA:                  -1.065
REMARK UNBOUND:                -1.090
REMARK SMILES CC(=O)CCC=C(C)CCC=C(C)CCC=C(C)C
REMARK SMILES IDX 10 1 11 2 12 3 13 4 14 5 15 6 16 7 18 8 17 9 19 10 9 11 7 12
REMARK SMILES IDX 6 13 8 14 5 15 4 16 2 17 3 18 1 19
REMARK H PARENT
REMARK Flexibility Score: inf
ROOT
ATOM      1  C   UNL     1       9.423 -33.318  13.627  1.00  0.00     0.032 C 
ENDROOT
BRANCH   1   2
ATOM      2  C   UNL     1       8.098 -32.693  13.981  1.00  0.00    -0.028 C 
ATOM      3  C   UNL     1       7.285 -33.115  14.977  1.00  0.00    -0.077 C 
ATOM      4  C   UNL     1       5.962 -32.415  15.162  1.00  0.00     0.039 C 
BRANCH   3   5
ATOM      5  C   UNL     1       7.659 -34.238  15.930  1.00  0.00     0.034 C 
BRANCH   5   6
ATOM      6  C   UNL     1       8.354 -33.712  17.193  1.00  0.00     0.032 C 
BRANCH   6   7
ATOM      7  C   UNL     1       9.273 -32.556  16.873  1.00  0.00    -0.028 C 
ATOM      8  C   UNL     1       8.736 -31.312  18.982  1.00  0.00     0.039 C 
ATOM      9  C   UNL     1       9.469 -31.484  17.676  1.00  0.00    -0.080 C 
ATOM     10  C   UNL     1      10.465 -30.425  17.280  1.00  0.00     0.039 C 
ENDBRANCH   6   7
ENDBRANCH   5   6
ENDBRANCH   3   5
ENDBRANCH   1   2
BRANCH   1  11
ATOM     11  C   UNL     1      10.462 -32.238  13.304  1.00  0.00     0.034 C 
BRANCH  11  12
ATOM     12  C   UNL     1      11.863 -32.811  13.369  1.00  0.00    -0.077 C 
ATOM     13  C   UNL     1      12.907 -32.147  13.917  1.00  0.00    -0.028 C 
ATOM     14  C   UNL     1      12.089 -34.216  12.875  1.00  0.00     0.039 C 
BRANCH  13  15
ATOM     15  C   UNL     1      12.847 -30.737  14.452  1.00  0.00     0.035 C 
BRANCH  15  16
ATOM     16  C   UNL     1      14.131 -30.348  15.199  1.00  0.00     0.079 C 
BRANCH  16  17
ATOM     17  C   UNL     1      14.808 -29.159  14.568  1.00  0.00     0.130 C 
ATOM     18  O   UNL     1      14.751 -28.998  13.358  1.00  0.00    -0.300 OA
ATOM     19  C   UNL     1      15.518 -28.151  15.419  1.00  0.00     0.087 C 
ENDBRANCH  16  17
ENDBRANCH  15  16
ENDBRANCH  13  15
ENDBRANCH  11  12
ENDBRANCH   1  11
TORSDOF 9
ENDMDL
MODEL 7
REMARK VINA RESULT:    -1.327      1.969      5.877
REMARK INTER + INTRA:          -3.115
REMARK INTER:                  -2.625
REMARK INTRA:                  -0.490
REMARK UNBOUND:                -1.090
REMARK SMILES CC(=O)CCC=C(C)CCC=C(C)CCC=C(C)C
REMARK SMILES IDX 10 1 11 2 12 3 13 4 14 5 15 6 16 7 18 8 17 9 19 10 9 11 7 12
REMARK SMILES IDX 6 13 8 14 5 15 4 16 2 17 3 18 1 19
REMARK H PARENT
REMARK Flexibility Score: inf
ROOT
ATOM      1  C   UNL     1      10.125 -32.395  13.796  1.00  0.00     0.032 C 
ENDROOT
BRANCH   1   2
ATOM      2  C   UNL     1      11.227 -31.594  14.442  1.00  0.00    -0.028 C 
ATOM      3  C   UNL     1      12.527 -31.624  14.070  1.00  0.00    -0.077 C 
ATOM      4  C   UNL     1      13.514 -30.803  14.860  1.00  0.00     0.039 C 
BRANCH   3   5
ATOM      5  C   UNL     1      13.026 -32.421  12.877  1.00  0.00     0.034 C 
BRANCH   5   6
ATOM      6  C   UNL     1      12.998 -33.932  13.141  1.00  0.00     0.032 C 
BRANCH   6   7
ATOM      7  C   UNL     1      11.627 -34.511  12.875  1.00  0.00    -0.028 C 
ATOM      8  C   UNL     1      12.232 -36.795  13.710  1.00  0.00     0.039 C 
ATOM      9  C   UNL     1      11.265 -35.786  13.144  1.00  0.00    -0.080 C 
ATOM     10  C   UNL     1       9.846 -36.229  12.898  1.00  0.00     0.039 C 
ENDBRANCH   6   7
ENDBRANCH   5   6
ENDBRANCH   3   5
ENDBRANCH   1   2
BRANCH   1  11
ATOM     11  C   UNL     1       8.751 -31.863  14.215  1.00  0.00     0.034 C 
BRANCH  11  12
ATOM     12  C   UNL     1       7.782 -33.007  14.436  1.00  0.00    -0.077 C 
ATOM     13  C   UNL     1       7.655 -33.648  15.621  1.00  0.00    -0.028 C 
ATOM     14  C   UNL     1       6.861 -33.397  13.310  1.00  0.00     0.039 C 
BRANCH  13  15
ATOM     15  C   UNL     1       8.501 -33.380  16.842  1.00  0.00     0.035 C 
BRANCH  15  16
ATOM     16  C   UNL     1       8.002 -32.163  17.634  1.00  0.00     0.079 C 
BRANCH  16  17
ATOM     17  C   UNL     1       9.116 -31.502  18.405  1.00  0.00     0.130 C 
ATOM     18  O   UNL     1       9.233 -31.711  19.603  1.00  0.00    -0.300 OA
ATOM     19  C   UNL     1      10.104 -30.619  17.706  1.00  0.00     0.087 C 
ENDBRANCH  16  17
ENDBRANCH  15  16
ENDBRANCH  13  15
ENDBRANCH  11  12
ENDBRANCH   1  11
TORSDOF 9
ENDMDL
MODEL 8
REMARK VINA RESULT:    -1.154      1.535      2.865
REMARK INTER + INTRA:          -2.850
REMARK INTER:                  -1.984
REMARK INTRA:                  -0.867
REMARK UNBOUND:                -1.090
REMARK SMILES CC(=O)CCC=C(C)CCC=C(C)CCC=C(C)C
REMARK SMILES IDX 10 1 11 2 12 3 13 4 14 5 15 6 16 7 18 8 17 9 19 10 9 11 7 12
REMARK SMILES IDX 6 13 8 14 5 15 4 16 2 17 3 18 1 19
REMARK H PARENT
REMARK Flexibility Score: inf
ROOT
ATOM      1  C   UNL     1      10.029 -32.596  12.875  1.00  0.00     0.032 C 
ENDROOT
BRANCH   1   2
ATOM      2  C   UNL     1       9.436 -33.981  12.940  1.00  0.00    -0.028 C 
ATOM      3  C   UNL     1       8.134 -34.254  13.184  1.00  0.00    -0.077 C 
ATOM      4  C   UNL     1       7.714 -35.700  13.274  1.00  0.00     0.039 C 
BRANCH   3   5
ATOM      5  C   UNL     1       7.078 -33.174  13.339  1.00  0.00     0.034 C 
BRANCH   5   6
ATOM      6  C   UNL     1       6.316 -33.299  14.666  1.00  0.00     0.032 C 
BRANCH   6   7
ATOM      7  C   UNL     1       7.004 -32.529  15.769  1.00  0.00    -0.028 C 
ATOM      8  C   UNL     1       8.069 -34.564  16.771  1.00  0.00     0.039 C 
ATOM      9  C   UNL     1       7.808 -33.081  16.706  1.00  0.00    -0.080 C 
ATOM     10  C   UNL     1       8.495 -32.198  17.717  1.00  0.00     0.039 C 
ENDBRANCH   6   7
ENDBRANCH   5   6
ENDBRANCH   3   5
ENDBRANCH   1   2
BRANCH   1  11
ATOM     11  C   UNL     1      11.438 -32.582  13.477  1.00  0.00     0.034 C 
BRANCH  11  12
ATOM     12  C   UNL     1      11.531 -31.559  14.591  1.00  0.00    -0.077 C 
ATOM     13  C   UNL     1      12.635 -30.810  14.815  1.00  0.00    -0.028 C 
ATOM     14  C   UNL     1      10.311 -31.305  15.437  1.00  0.00     0.039 C 
BRANCH  13  15
ATOM     15  C   UNL     1      13.936 -30.943  14.061  1.00  0.00     0.035 C 
BRANCH  15  16
ATOM     16  C   UNL     1      14.521 -29.577  13.674  1.00  0.00     0.079 C 
BRANCH  16  17
ATOM     17  C   UNL     1      15.127 -28.872  14.860  1.00  0.00     0.130 C 
ATOM     18  O   UNL     1      15.261 -29.468  15.918  1.00  0.00    -0.300 OA
ATOM     19  C   UNL     1      15.602 -27.456  14.740  1.00  0.00     0.087 C 
ENDBRANCH  16  17
ENDBRANCH  15  16
ENDBRANCH  13  15
ENDBRANCH  11  12
ENDBRANCH   1  11
TORSDOF 9
ENDMDL
MODEL 9
REMARK VINA RESULT:    -0.147      1.621      5.523
REMARK INTER + INTRA:          -1.314
REMARK INTER:                  -0.030
REMARK INTRA:                  -1.285
REMARK UNBOUND:                -1.090
REMARK SMILES CC(=O)CCC=C(C)CCC=C(C)CCC=C(C)C
REMARK SMILES IDX 10 1 11 2 12 3 13 4 14 5 15 6 16 7 18 8 17 9 19 10 9 11 7 12
REMARK SMILES IDX 6 13 8 14 5 15 4 16 2 17 3 18 1 19
REMARK H PARENT
REMARK Flexibility Score: inf
ROOT
ATOM      1  C   UNL     1       9.076 -33.761  12.875  1.00  0.00     0.032 C 
ENDROOT
BRANCH   1   2
ATOM      2  C   UNL     1       9.484 -32.665  13.827  1.00  0.00    -0.028 C 
ATOM      3  C   UNL     1      10.752 -32.233  14.011  1.00  0.00    -0.077 C 
ATOM      4  C   UNL     1      10.997 -31.165  15.047  1.00  0.00     0.039 C 
BRANCH   3   5
ATOM      5  C   UNL     1      11.928 -32.753  13.202  1.00  0.00     0.034 C 
BRANCH   5   6
ATOM      6  C   UNL     1      13.271 -32.462  13.886  1.00  0.00     0.032 C 
BRANCH   6   7
ATOM      7  C   UNL     1      13.830 -31.127  13.453  1.00  0.00    -0.028 C 
ATOM      8  C   UNL     1      14.370 -30.394  15.788  1.00  0.00     0.039 C 
ATOM      9  C   UNL     1      14.345 -30.200  14.293  1.00  0.00    -0.080 C 
ATOM     10  C   UNL     1      14.937 -28.931  13.736  1.00  0.00     0.039 C 
ENDBRANCH   6   7
ENDBRANCH   5   6
ENDBRANCH   3   5
ENDBRANCH   1   2
BRANCH   1  11
ATOM     11  C   UNL     1       7.672 -34.276  13.212  1.00  0.00     0.034 C 
BRANCH  11  12
ATOM     12  C   UNL     1       7.754 -35.564  14.006  1.00  0.00    -0.077 C 
ATOM     13  C   UNL     1       7.502 -35.629  15.334  1.00  0.00    -0.028 C 
ATOM     14  C   UNL     1       8.052 -36.844  13.271  1.00  0.00     0.039 C 
BRANCH  13  15
ATOM     15  C   UNL     1       7.193 -34.441  16.213  1.00  0.00     0.035 C 
BRANCH  15  16
ATOM     16  C   UNL     1       8.424 -33.972  17.002  1.00  0.00     0.079 C 
BRANCH  16  17
ATOM     17  C   UNL     1       8.368 -32.496  17.300  1.00  0.00     0.130 C 
ATOM     18  O   UNL     1       7.517 -31.800  16.767  1.00  0.00    -0.300 OA
ATOM     19  C   UNL     1       9.326 -31.882  18.275  1.00  0.00     0.087 C 
ENDBRANCH  16  17
ENDBRANCH  15  16
ENDBRANCH  13  15
ENDBRANCH  11  12
ENDBRANCH   1  11
TORSDOF 9
ENDMDL
