MODEL 1
REMARK VINA RESULT:    -3.156      0.000      0.000
REMARK INTER + INTRA:          -7.931
REMARK INTER:                  -5.924
REMARK INTRA:                  -2.007
REMARK UNBOUND:                -2.007
REMARK SMILES O=C([O-])CCCCCCCCCCCCCCC(=O)[O-]
REMARK SMILES IDX 10 1 9 2 8 3 7 4 6 5 5 6 4 7 2 8 1 9 3 10 11 11 12 12 13 13
REMARK SMILES IDX 14 14 15 15 16 16 17 17 18 18 19 19 20 20
REMARK H PARENT
REMARK Flexibility Score: inf
ROOT
ATOM      1  C   UNL     1       9.345  -2.082  18.605  1.00  0.00     0.000 C 
ENDROOT
BRANCH   1   2
ATOM      2  C   UNL     1      10.268  -3.200  19.108  1.00  0.00     0.000 C 
BRANCH   2   3
ATOM      3  C   UNL     1       9.509  -4.169  20.023  1.00  0.00     0.000 C 
BRANCH   3   4
ATOM      4  C   UNL     1       9.598  -5.607  19.499  1.00  0.00     0.000 C 
BRANCH   4   5
ATOM      5  C   UNL     1      10.122  -5.637  18.058  1.00  0.00     0.000 C 
BRANCH   5   6
ATOM      6  C   UNL     1       9.006  -6.023  17.075  1.00  0.00     0.006 C 
BRANCH   6   7
ATOM      7  C   UNL     1       7.933  -6.904  17.729  1.00  0.00     0.053 C 
BRANCH   7   8
ATOM      8  C   UNL     1       7.851  -8.252  17.082  1.00  0.00     0.041 C 
ATOM      9  O   UNL     1       8.509  -9.220  17.546  1.00  0.00    -0.550 OA
ATOM     10  O   UNL     1       7.020  -8.449  15.986  1.00  0.00    -0.550 OA
ENDBRANCH   7   8
ENDBRANCH   6   7
ENDBRANCH   5   6
ENDBRANCH   4   5
ENDBRANCH   3   4
ENDBRANCH   2   3
ENDBRANCH   1   2
BRANCH   1  11
ATOM     11  C   UNL     1       8.876  -2.301  17.155  1.00  0.00     0.000 C 
BRANCH  11  12
ATOM     12  C   UNL     1       7.399  -2.716  17.004  1.00  0.00     0.000 C 
BRANCH  12  13
ATOM     13  C   UNL     1       6.619  -2.861  18.327  1.00  0.00     0.000 C 
BRANCH  13  14
ATOM     14  C   UNL     1       5.504  -1.820  18.538  1.00  0.00     0.000 C 
BRANCH  14  15
ATOM     15  C   UNL     1       5.864  -0.439  17.964  1.00  0.00     0.000 C 
BRANCH  15  16
ATOM     16  C   UNL     1       4.650   0.296  17.366  1.00  0.00     0.006 C 
BRANCH  16  17
ATOM     17  C   UNL     1       4.812   0.658  15.880  1.00  0.00     0.053 C 
BRANCH  17  18
ATOM     18  C   UNL     1       5.336  -0.481  15.062  1.00  0.00     0.041 C 
ATOM     19  O   UNL     1       4.650  -1.526  14.914  1.00  0.00    -0.550 OA
ATOM     20  O   UNL     1       6.582  -0.383  14.452  1.00  0.00    -0.550 OA
ENDBRANCH  17  18
ENDBRANCH  16  17
ENDBRANCH  15  16
ENDBRANCH  14  15
ENDBRANCH  13  14
ENDBRANCH  12  13
ENDBRANCH  11  12
ENDBRANCH   1  11
TORSDOF 15
ENDMDL
MODEL 2
REMARK VINA RESULT:    -3.151      1.526      6.693
REMARK INTER + INTRA:          -7.920
REMARK INTER:                  -6.733
REMARK INTRA:                  -1.187
REMARK UNBOUND:                -2.007
REMARK SMILES O=C([O-])CCCCCCCCCCCCCCC(=O)[O-]
REMARK SMILES IDX 10 1 9 2 8 3 7 4 6 5 5 6 4 7 2 8 1 9 3 10 11 11 12 12 13 13
REMARK SMILES IDX 14 14 15 15 16 16 17 17 18 18 19 19 20 20
REMARK H PARENT
REMARK Flexibility Score: inf
ROOT
ATOM      1  C   UNL     1      10.841  -3.283  21.419  1.00  0.00     0.000 C 
ENDROOT
BRANCH   1   2
ATOM      2  C   UNL     1       9.624  -2.351  21.355  1.00  0.00     0.000 C 
BRANCH   2   3
ATOM      3  C   UNL     1       8.954  -2.416  19.977  1.00  0.00     0.000 C 
BRANCH   3   4
ATOM      4  C   UNL     1       7.462  -2.075  20.072  1.00  0.00     0.000 C 
BRANCH   4   5
ATOM      5  C   UNL     1       6.668  -2.767  18.958  1.00  0.00     0.000 C 
BRANCH   5   6
ATOM      6  C   UNL     1       5.531  -1.867  18.450  1.00  0.00     0.006 C 
BRANCH   6   7
ATOM      7  C   UNL     1       6.037  -0.769  17.504  1.00  0.00     0.053 C 
BRANCH   7   8
ATOM      8  C   UNL     1       6.082  -1.238  16.082  1.00  0.00     0.041 C 
ATOM      9  O   UNL     1       7.138  -1.116  15.407  1.00  0.00    -0.550 OA
ATOM     10  O   UNL     1       4.968  -1.843  15.514  1.00  0.00    -0.550 OA
ENDBRANCH   7   8
ENDBRANCH   6   7
ENDBRANCH   5   6
ENDBRANCH   4   5
ENDBRANCH   3   4
ENDBRANCH   2   3
ENDBRANCH   1   2
BRANCH   1  11
ATOM     11  C   UNL     1      10.915  -4.251  20.224  1.00  0.00     0.000 C 
BRANCH  11  12
ATOM     12  C   UNL     1      10.300  -5.643  20.473  1.00  0.00     0.000 C 
BRANCH  12  13
ATOM     13  C   UNL     1       9.905  -6.424  19.203  1.00  0.00     0.000 C 
BRANCH  13  14
ATOM     14  C   UNL     1       8.838  -5.738  18.329  1.00  0.00     0.000 C 
BRANCH  14  15
ATOM     15  C   UNL     1       7.806  -6.729  17.764  1.00  0.00     0.000 C 
BRANCH  15  16
ATOM     16  C   UNL     1       8.433  -7.785  16.835  1.00  0.00     0.006 C 
BRANCH  16  17
ATOM     17  C   UNL     1       8.092  -9.234  17.220  1.00  0.00     0.053 C 
BRANCH  17  18
ATOM     18  C   UNL     1       6.877  -9.749  16.513  1.00  0.00     0.041 C 
ATOM     19  O   UNL     1       6.414 -10.886  16.792  1.00  0.00    -0.550 OA
ATOM     20  O   UNL     1       6.248  -8.966  15.553  1.00  0.00    -0.550 OA
ENDBRANCH  17  18
ENDBRANCH  16  17
ENDBRANCH  15  16
ENDBRANCH  14  15
ENDBRANCH  13  14
ENDBRANCH  12  13
ENDBRANCH  11  12
ENDBRANCH   1  11
TORSDOF 15
ENDMDL
MODEL 3
REMARK VINA RESULT:    -3.122      2.122      6.232
REMARK INTER + INTRA:          -7.867
REMARK INTER:                  -5.939
REMARK INTRA:                  -1.927
REMARK UNBOUND:                -2.007
REMARK SMILES O=C([O-])CCCCCCCCCCCCCCC(=O)[O-]
REMARK SMILES IDX 10 1 9 2 8 3 7 4 6 5 5 6 4 7 2 8 1 9 3 10 11 11 12 12 13 13
REMARK SMILES IDX 14 14 15 15 16 16 17 17 18 18 19 19 20 20
REMARK H PARENT
REMARK Flexibility Score: inf
ROOT
ATOM      1  C   UNL     1       9.531  -2.792  20.485  1.00  0.00     0.000 C 
ENDROOT
BRANCH   1   2
ATOM      2  C   UNL     1       8.205  -2.989  19.738  1.00  0.00     0.000 C 
BRANCH   2   3
ATOM      3  C   UNL     1       8.160  -2.135  18.465  1.00  0.00     0.000 C 
BRANCH   3   4
ATOM      4  C   UNL     1       6.898  -2.430  17.646  1.00  0.00     0.000 C 
BRANCH   4   5
ATOM      5  C   UNL     1       5.640  -1.960  18.385  1.00  0.00     0.000 C 
BRANCH   5   6
ATOM      6  C   UNL     1       5.185  -0.583  17.876  1.00  0.00     0.006 C 
BRANCH   6   7
ATOM      7  C   UNL     1       5.837  -0.213  16.537  1.00  0.00     0.053 C 
BRANCH   7   8
ATOM      8  C   UNL     1       4.903  -0.427  15.386  1.00  0.00     0.041 C 
ATOM      9  O   UNL     1       4.774  -1.571  14.877  1.00  0.00    -0.550 OA
ATOM     10  O   UNL     1       4.148   0.632  14.897  1.00  0.00    -0.550 OA
ENDBRANCH   7   8
ENDBRANCH   6   7
ENDBRANCH   5   6
ENDBRANCH   4   5
ENDBRANCH   3   4
ENDBRANCH   2   3
ENDBRANCH   1   2
BRANCH   1  11
ATOM     11  C   UNL     1      10.656  -3.700  19.956  1.00  0.00     0.000 C 
BRANCH  11  12
ATOM     12  C   UNL     1      10.916  -4.969  20.792  1.00  0.00     0.000 C 
BRANCH  12  13
ATOM     13  C   UNL     1      10.067  -6.197  20.406  1.00  0.00     0.000 C 
BRANCH  13  14
ATOM     14  C   UNL     1      10.138  -6.590  18.919  1.00  0.00     0.000 C 
BRANCH  14  15
ATOM     15  C   UNL     1       8.764  -6.557  18.228  1.00  0.00     0.000 C 
BRANCH  15  16
ATOM     16  C   UNL     1       8.703  -5.552  17.063  1.00  0.00     0.006 C 
BRANCH  16  17
ATOM     17  C   UNL     1      10.080  -5.026  16.622  1.00  0.00     0.053 C 
BRANCH  17  18
ATOM     18  C   UNL     1       9.981  -3.856  15.694  1.00  0.00     0.041 C 
ATOM     19  O   UNL     1      10.840  -2.937  15.737  1.00  0.00    -0.550 OA
ATOM     20  O   UNL     1       8.944  -3.786  14.771  1.00  0.00    -0.550 OA
ENDBRANCH  17  18
ENDBRANCH  16  17
ENDBRANCH  15  16
ENDBRANCH  14  15
ENDBRANCH  13  14
ENDBRANCH  12  13
ENDBRANCH  11  12
ENDBRANCH   1  11
TORSDOF 15
ENDMDL
MODEL 4
REMARK VINA RESULT:    -3.118      1.984      3.067
REMARK INTER + INTRA:          -7.859
REMARK INTER:                  -6.080
REMARK INTRA:                  -1.779
REMARK UNBOUND:                -2.007
REMARK SMILES O=C([O-])CCCCCCCCCCCCCCC(=O)[O-]
REMARK SMILES IDX 10 1 9 2 8 3 7 4 6 5 5 6 4 7 2 8 1 9 3 10 11 11 12 12 13 13
REMARK SMILES IDX 14 14 15 15 16 16 17 17 18 18 19 19 20 20
REMARK H PARENT
REMARK Flexibility Score: inf
ROOT
ATOM      1  C   UNL     1      11.095  -4.178  20.651  1.00  0.00     0.000 C 
ENDROOT
BRANCH   1   2
ATOM      2  C   UNL     1      10.570  -5.591  20.359  1.00  0.00     0.000 C 
BRANCH   2   3
ATOM      3  C   UNL     1       9.357  -5.544  19.422  1.00  0.00     0.000 C 
BRANCH   3   4
ATOM      4  C   UNL     1       9.269  -6.814  18.568  1.00  0.00     0.000 C 
BRANCH   4   5
ATOM      5  C   UNL     1       8.041  -6.776  17.651  1.00  0.00     0.000 C 
BRANCH   5   6
ATOM      6  C   UNL     1       7.865  -8.110  16.910  1.00  0.00     0.006 C 
BRANCH   6   7
ATOM      7  C   UNL     1       8.826  -9.191  17.422  1.00  0.00     0.053 C 
BRANCH   7   8
ATOM      8  C   UNL     1       8.264 -10.567  17.237  1.00  0.00     0.041 C 
ATOM      9  O   UNL     1       8.671 -11.521  17.951  1.00  0.00    -0.550 OA
ATOM     10  O   UNL     1       7.266 -10.790  16.297  1.00  0.00    -0.550 OA
ENDBRANCH   7   8
ENDBRANCH   6   7
ENDBRANCH   5   6
ENDBRANCH   4   5
ENDBRANCH   3   4
ENDBRANCH   2   3
ENDBRANCH   1   2
BRANCH   1  11
ATOM     11  C   UNL     1      10.853  -3.200  19.487  1.00  0.00     0.000 C 
BRANCH  11  12
ATOM     12  C   UNL     1      10.141  -1.889  19.876  1.00  0.00     0.000 C 
BRANCH  12  13
ATOM     13  C   UNL     1       9.219  -1.983  21.109  1.00  0.00     0.000 C 
BRANCH  13  14
ATOM     14  C   UNL     1       7.815  -2.549  20.825  1.00  0.00     0.000 C 
BRANCH  14  15
ATOM     15  C   UNL     1       7.130  -1.866  19.629  1.00  0.00     0.000 C 
BRANCH  15  16
ATOM     16  C   UNL     1       6.583  -2.870  18.598  1.00  0.00     0.006 C 
BRANCH  16  17
ATOM     17  C   UNL     1       7.538  -3.137  17.421  1.00  0.00     0.053 C 
BRANCH  17  18
ATOM     18  C   UNL     1       7.637  -1.975  16.483  1.00  0.00     0.041 C 
ATOM     19  O   UNL     1       8.689  -1.286  16.434  1.00  0.00    -0.550 OA
ATOM     20  O   UNL     1       6.569  -1.660  15.651  1.00  0.00    -0.550 OA
ENDBRANCH  17  18
ENDBRANCH  16  17
ENDBRANCH  15  16
ENDBRANCH  14  15
ENDBRANCH  13  14
ENDBRANCH  12  13
ENDBRANCH  11  12
ENDBRANCH   1  11
TORSDOF 15
ENDMDL
MODEL 5
REMARK VINA RESULT:    -3.108      5.473      7.383
REMARK INTER + INTRA:          -7.839
REMARK INTER:                  -6.321
REMARK INTRA:                  -1.518
REMARK UNBOUND:                -2.007
REMARK SMILES O=C([O-])CCCCCCCCCCCCCCC(=O)[O-]
REMARK SMILES IDX 10 1 9 2 8 3 7 4 6 5 5 6 4 7 2 8 1 9 3 10 11 11 12 12 13 13
REMARK SMILES IDX 14 14 15 15 16 16 17 17 18 18 19 19 20 20
REMARK H PARENT
REMARK Flexibility Score: inf
ROOT
ATOM      1  C   UNL     1      10.130  -2.269  20.884  1.00  0.00     0.000 C 
ENDROOT
BRANCH   1   2
ATOM      2  C   UNL     1       8.622  -2.188  21.160  1.00  0.00     0.000 C 
BRANCH   2   3
ATOM      3  C   UNL     1       8.003  -0.966  20.470  1.00  0.00     0.000 C 
BRANCH   3   4
ATOM      4  C   UNL     1       6.834  -1.376  19.565  1.00  0.00     0.000 C 
BRANCH   4   5
ATOM      5  C   UNL     1       6.866  -2.881  19.274  1.00  0.00     0.000 C 
BRANCH   5   6
ATOM      6  C   UNL     1       7.346  -3.154  17.840  1.00  0.00     0.006 C 
BRANCH   6   7
ATOM      7  C   UNL     1       8.699  -3.878  17.807  1.00  0.00     0.053 C 
BRANCH   7   8
ATOM      8  C   UNL     1       8.641  -5.196  18.516  1.00  0.00     0.041 C 
ATOM      9  O   UNL     1       9.338  -5.394  19.546  1.00  0.00    -0.550 OA
ATOM     10  O   UNL     1       7.791  -6.195  18.060  1.00  0.00    -0.550 OA
ENDBRANCH   7   8
ENDBRANCH   6   7
ENDBRANCH   5   6
ENDBRANCH   4   5
ENDBRANCH   3   4
ENDBRANCH   2   3
ENDBRANCH   1   2
BRANCH   1  11
ATOM     11  C   UNL     1      10.964  -1.439  21.876  1.00  0.00     0.000 C 
BRANCH  11  12
ATOM     12  C   UNL     1      10.863  -1.888  23.347  1.00  0.00     0.000 C 
BRANCH  12  13
ATOM     13  C   UNL     1      10.457  -0.784  24.345  1.00  0.00     0.000 C 
BRANCH  13  14
ATOM     14  C   UNL     1       8.940  -0.637  24.564  1.00  0.00     0.000 C 
BRANCH  14  15
ATOM     15  C   UNL     1       8.314  -1.871  25.237  1.00  0.00     0.000 C 
BRANCH  15  16
ATOM     16  C   UNL     1       6.849  -1.647  25.653  1.00  0.00     0.006 C 
BRANCH  16  17
ATOM     17  C   UNL     1       6.066  -2.949  25.898  1.00  0.00     0.053 C 
BRANCH  17  18
ATOM     18  C   UNL     1       6.552  -3.697  27.100  1.00  0.00     0.041 C 
ATOM     19  O   UNL     1       6.349  -3.243  28.256  1.00  0.00    -0.550 OA
ATOM     20  O   UNL     1       7.219  -4.906  26.943  1.00  0.00    -0.550 OA
ENDBRANCH  17  18
ENDBRANCH  16  17
ENDBRANCH  15  16
ENDBRANCH  14  15
ENDBRANCH  13  14
ENDBRANCH  12  13
ENDBRANCH  11  12
ENDBRANCH   1  11
TORSDOF 15
ENDMDL
MODEL 6
REMARK VINA RESULT:    -3.084      1.448      2.360
REMARK INTER + INTRA:          -7.794
REMARK INTER:                  -5.997
REMARK INTRA:                  -1.798
REMARK UNBOUND:                -2.007
REMARK SMILES O=C([O-])CCCCCCCCCCCCCCC(=O)[O-]
REMARK SMILES IDX 10 1 9 2 8 3 7 4 6 5 5 6 4 7 2 8 1 9 3 10 11 11 12 12 13 13
REMARK SMILES IDX 14 14 15 15 16 16 17 17 18 18 19 19 20 20
REMARK H PARENT
REMARK Flexibility Score: inf
ROOT
ATOM      1  C   UNL     1      10.935  -3.391  21.154  1.00  0.00     0.000 C 
ENDROOT
BRANCH   1   2
ATOM      2  C   UNL     1      10.756  -4.340  19.961  1.00  0.00     0.000 C 
BRANCH   2   3
ATOM      3  C   UNL     1      10.318  -5.733  20.429  1.00  0.00     0.000 C 
BRANCH   3   4
ATOM      4  C   UNL     1       9.665  -6.519  19.286  1.00  0.00     0.000 C 
BRANCH   4   5
ATOM      5  C   UNL     1      10.062  -5.941  17.923  1.00  0.00     0.000 C 
BRANCH   5   6
ATOM      6  C   UNL     1       9.013  -6.280  16.853  1.00  0.00     0.006 C 
BRANCH   6   7
ATOM      7  C   UNL     1       7.869  -7.137  17.412  1.00  0.00     0.053 C 
BRANCH   7   8
ATOM      8  C   UNL     1       7.823  -8.489  16.768  1.00  0.00     0.041 C 
ATOM      9  O   UNL     1       7.909  -9.530  17.472  1.00  0.00    -0.550 OA
ATOM     10  O   UNL     1       7.651  -8.601  15.394  1.00  0.00    -0.550 OA
ENDBRANCH   7   8
ENDBRANCH   6   7
ENDBRANCH   5   6
ENDBRANCH   4   5
ENDBRANCH   3   4
ENDBRANCH   2   3
ENDBRANCH   1   2
BRANCH   1  11
ATOM     11  C   UNL     1      10.588  -1.930  20.812  1.00  0.00     0.000 C 
BRANCH  11  12
ATOM     12  C   UNL     1       9.330  -1.747  19.941  1.00  0.00     0.000 C 
BRANCH  12  13
ATOM     13  C   UNL     1       8.021  -2.284  20.555  1.00  0.00     0.000 C 
BRANCH  13  14
ATOM     14  C   UNL     1       6.881  -2.515  19.547  1.00  0.00     0.000 C 
BRANCH  14  15
ATOM     15  C   UNL     1       7.246  -3.542  18.460  1.00  0.00     0.000 C 
BRANCH  15  16
ATOM     16  C   UNL     1       7.314  -2.925  17.051  1.00  0.00     0.006 C 
BRANCH  16  17
ATOM     17  C   UNL     1       6.159  -1.958  16.739  1.00  0.00     0.053 C 
BRANCH  17  18
ATOM     18  C   UNL     1       6.621  -0.707  16.059  1.00  0.00     0.041 C 
ATOM     19  O   UNL     1       6.462   0.412  16.612  1.00  0.00    -0.550 OA
ATOM     20  O   UNL     1       7.239  -0.779  14.816  1.00  0.00    -0.550 OA
ENDBRANCH  17  18
ENDBRANCH  16  17
ENDBRANCH  15  16
ENDBRANCH  14  15
ENDBRANCH  13  14
ENDBRANCH  12  13
ENDBRANCH  11  12
ENDBRANCH   1  11
TORSDOF 15
ENDMDL
MODEL 7
REMARK VINA RESULT:    -3.015      5.185      7.095
REMARK INTER + INTRA:          -7.665
REMARK INTER:                  -6.403
REMARK INTRA:                  -1.263
REMARK UNBOUND:                -2.007
REMARK SMILES O=C([O-])CCCCCCCCCCCCCCC(=O)[O-]
REMARK SMILES IDX 10 1 9 2 8 3 7 4 6 5 5 6 4 7 2 8 1 9 3 10 11 11 12 12 13 13
REMARK SMILES IDX 14 14 15 15 16 16 17 17 18 18 19 19 20 20
REMARK H PARENT
REMARK Flexibility Score: inf
ROOT
ATOM      1  C   UNL     1      10.166  -1.850  21.181  1.00  0.00     0.000 C 
ENDROOT
BRANCH   1   2
ATOM      2  C   UNL     1       9.502  -2.987  20.391  1.00  0.00     0.000 C 
BRANCH   2   3
ATOM      3  C   UNL     1      10.517  -4.085  20.051  1.00  0.00     0.000 C 
BRANCH   3   4
ATOM      4  C   UNL     1       9.912  -5.479  20.254  1.00  0.00     0.000 C 
BRANCH   4   5
ATOM      5  C   UNL     1       9.748  -6.208  18.915  1.00  0.00     0.000 C 
BRANCH   5   6
ATOM      6  C   UNL     1       8.458  -5.771  18.204  1.00  0.00     0.006 C 
BRANCH   6   7
ATOM      7  C   UNL     1       8.741  -4.991  16.913  1.00  0.00     0.053 C 
BRANCH   7   8
ATOM      8  C   UNL     1       7.952  -3.720  16.847  1.00  0.00     0.041 C 
ATOM      9  O   UNL     1       7.259  -3.351  17.831  1.00  0.00    -0.550 OA
ATOM     10  O   UNL     1       8.008  -2.925  15.709  1.00  0.00    -0.550 OA
ENDBRANCH   7   8
ENDBRANCH   6   7
ENDBRANCH   5   6
ENDBRANCH   4   5
ENDBRANCH   3   4
ENDBRANCH   2   3
ENDBRANCH   1   2
BRANCH   1  11
ATOM     11  C   UNL     1      11.120  -2.362  22.276  1.00  0.00     0.000 C 
BRANCH  11  12
ATOM     12  C   UNL     1      10.592  -2.221  23.717  1.00  0.00     0.000 C 
BRANCH  12  13
ATOM     13  C   UNL     1      10.609  -0.788  24.286  1.00  0.00     0.000 C 
BRANCH  13  14
ATOM     14  C   UNL     1       9.249  -0.066  24.262  1.00  0.00     0.000 C 
BRANCH  14  15
ATOM     15  C   UNL     1       8.064  -1.025  24.469  1.00  0.00     0.000 C 
BRANCH  15  16
ATOM     16  C   UNL     1       7.613  -1.111  25.939  1.00  0.00     0.006 C 
BRANCH  16  17
ATOM     17  C   UNL     1       8.002  -2.428  26.633  1.00  0.00     0.053 C 
BRANCH  17  18
ATOM     18  C   UNL     1       6.970  -3.499  26.459  1.00  0.00     0.041 C 
ATOM     19  O   UNL     1       7.230  -4.688  26.778  1.00  0.00    -0.550 OA
ATOM     20  O   UNL     1       5.715  -3.179  25.956  1.00  0.00    -0.550 OA
ENDBRANCH  17  18
ENDBRANCH  16  17
ENDBRANCH  15  16
ENDBRANCH  14  15
ENDBRANCH  13  14
ENDBRANCH  12  13
ENDBRANCH  11  12
ENDBRANCH   1  11
TORSDOF 15
ENDMDL
MODEL 8
REMARK VINA RESULT:    -3.013      2.565      4.620
REMARK INTER + INTRA:          -7.662
REMARK INTER:                  -5.610
REMARK INTRA:                  -2.052
REMARK UNBOUND:                -2.007
REMARK SMILES O=C([O-])CCCCCCCCCCCCCCC(=O)[O-]
REMARK SMILES IDX 10 1 9 2 8 3 7 4 6 5 5 6 4 7 2 8 1 9 3 10 11 11 12 12 13 13
REMARK SMILES IDX 14 14 15 15 16 16 17 17 18 18 19 19 20 20
REMARK H PARENT
REMARK Flexibility Score: inf
ROOT
ATOM      1  C   UNL     1       8.627  -6.321  18.025  1.00  0.00     0.000 C 
ENDROOT
BRANCH   1   2
ATOM      2  C   UNL     1       8.949  -5.942  16.573  1.00  0.00     0.000 C 
BRANCH   2   3
ATOM      3  C   UNL     1       9.904  -6.960  15.938  1.00  0.00     0.000 C 
BRANCH   3   4
ATOM      4  C   UNL     1       9.150  -8.211  15.475  1.00  0.00     0.000 C 
BRANCH   4   5
ATOM      5  C   UNL     1       9.716  -9.472  16.139  1.00  0.00     0.000 C 
BRANCH   5   6
ATOM      6  C   UNL     1       8.743 -10.024  17.192  1.00  0.00     0.006 C 
BRANCH   6   7
ATOM      7  C   UNL     1       7.283  -9.675  16.876  1.00  0.00     0.053 C 
BRANCH   7   8
ATOM      8  C   UNL     1       6.391 -10.874  16.974  1.00  0.00     0.041 C 
ATOM      9  O   UNL     1       6.299 -11.510  18.057  1.00  0.00    -0.550 OA
ATOM     10  O   UNL     1       5.634 -11.270  15.879  1.00  0.00    -0.550 OA
ENDBRANCH   7   8
ENDBRANCH   6   7
ENDBRANCH   5   6
ENDBRANCH   4   5
ENDBRANCH   3   4
ENDBRANCH   2   3
ENDBRANCH   1   2
BRANCH   1  11
ATOM     11  C   UNL     1       9.868  -6.786  18.809  1.00  0.00     0.000 C 
BRANCH  11  12
ATOM     12  C   UNL     1       9.965  -6.251  20.252  1.00  0.00     0.000 C 
BRANCH  12  13
ATOM     13  C   UNL     1      11.062  -5.193  20.488  1.00  0.00     0.000 C 
BRANCH  13  14
ATOM     14  C   UNL     1      10.551  -3.744  20.591  1.00  0.00     0.000 C 
BRANCH  14  15
ATOM     15  C   UNL     1      10.786  -2.937  19.303  1.00  0.00     0.000 C 
BRANCH  15  16
ATOM     16  C   UNL     1       9.503  -2.742  18.475  1.00  0.00     0.006 C 
BRANCH  16  17
ATOM     17  C   UNL     1       8.207  -2.916  19.285  1.00  0.00     0.053 C 
BRANCH  17  18
ATOM     18  C   UNL     1       6.982  -2.903  18.425  1.00  0.00     0.041 C 
ATOM     19  O   UNL     1       5.839  -2.838  18.949  1.00  0.00    -0.550 OA
ATOM     20  O   UNL     1       7.103  -2.951  17.041  1.00  0.00    -0.550 OA
ENDBRANCH  17  18
ENDBRANCH  16  17
ENDBRANCH  15  16
ENDBRANCH  14  15
ENDBRANCH  13  14
ENDBRANCH  12  13
ENDBRANCH  11  12
ENDBRANCH   1  11
TORSDOF 15
ENDMDL
MODEL 9
REMARK VINA RESULT:    -2.996      4.930      7.514
REMARK INTER + INTRA:          -7.630
REMARK INTER:                  -6.036
REMARK INTRA:                  -1.594
REMARK UNBOUND:                -2.007
REMARK SMILES O=C([O-])CCCCCCCCCCCCCCC(=O)[O-]
REMARK SMILES IDX 10 1 9 2 8 3 7 4 6 5 5 6 4 7 2 8 1 9 3 10 11 11 12 12 13 13
REMARK SMILES IDX 14 14 15 15 16 16 17 17 18 18 19 19 20 20
REMARK H PARENT
REMARK Flexibility Score: inf
ROOT
ATOM      1  C   UNL     1      10.262  -2.322  20.594  1.00  0.00     0.000 C 
ENDROOT
BRANCH   1   2
ATOM      2  C   UNL     1       9.217  -3.429  20.403  1.00  0.00     0.000 C 
BRANCH   2   3
ATOM      3  C   UNL     1       7.950  -2.880  19.738  1.00  0.00     0.000 C 
BRANCH   3   4
ATOM      4  C   UNL     1       8.079  -1.378  19.459  1.00  0.00     0.000 C 
BRANCH   4   5
ATOM      5  C   UNL     1       6.761  -0.649  19.745  1.00  0.00     0.000 C 
BRANCH   5   6
ATOM      6  C   UNL     1       5.772  -0.822  18.583  1.00  0.00     0.006 C 
BRANCH   6   7
ATOM      7  C   UNL     1       6.434  -0.595  17.217  1.00  0.00     0.053 C 
BRANCH   7   8
ATOM      8  C   UNL     1       6.186  -1.739  16.282  1.00  0.00     0.041 C 
ATOM      9  O   UNL     1       7.013  -2.685  16.204  1.00  0.00    -0.550 OA
ATOM     10  O   UNL     1       5.024  -1.776  15.521  1.00  0.00    -0.550 OA
ENDBRANCH   7   8
ENDBRANCH   6   7
ENDBRANCH   5   6
ENDBRANCH   4   5
ENDBRANCH   3   4
ENDBRANCH   2   3
ENDBRANCH   1   2
BRANCH   1  11
ATOM     11  C   UNL     1      10.756  -2.211  22.049  1.00  0.00     0.000 C 
BRANCH  11  12
ATOM     12  C   UNL     1      10.946  -0.771  22.564  1.00  0.00     0.000 C 
BRANCH  12  13
ATOM     13  C   UNL     1       9.680   0.111  22.533  1.00  0.00     0.000 C 
BRANCH  13  14
ATOM     14  C   UNL     1       8.412  -0.560  23.091  1.00  0.00     0.000 C 
BRANCH  14  15
ATOM     15  C   UNL     1       8.388  -0.600  24.629  1.00  0.00     0.000 C 
BRANCH  15  16
ATOM     16  C   UNL     1       8.366  -2.034  25.191  1.00  0.00     0.006 C 
BRANCH  16  17
ATOM     17  C   UNL     1       7.454  -2.207  26.418  1.00  0.00     0.053 C 
BRANCH  17  18
ATOM     18  C   UNL     1       6.660  -3.475  26.374  1.00  0.00     0.041 C 
ATOM     19  O   UNL     1       7.044  -4.488  27.015  1.00  0.00    -0.550 OA
ATOM     20  O   UNL     1       5.487  -3.534  25.631  1.00  0.00    -0.550 OA
ENDBRANCH  17  18
ENDBRANCH  16  17
ENDBRANCH  15  16
ENDBRANCH  14  15
ENDBRANCH  13  14
ENDBRANCH  12  13
ENDBRANCH  11  12
ENDBRANCH   1  11
TORSDOF 15
ENDMDL
