MODEL 1
REMARK VINA RESULT:    -3.355      0.000      0.000
REMARK INTER + INTRA:          -3.384
REMARK INTER:                  -4.140
REMARK INTRA:                   0.756
REMARK UNBOUND:                 0.756
REMARK SMILES CC1=CC=CC(C)(C)CC1=O
REMARK SMILES IDX 1 1 2 2 3 3 10 4 11 5 9 6 4 8 5 9 6 10 7 11 8 12
REMARK H PARENT
REMARK Flexibility Score: 80.00
ROOT
ATOM      1  C   UNL     1       1.582  11.284  10.496  1.00  0.00     0.048 C 
ATOM      2  C   UNL     1       2.337  10.374  11.436  1.00  0.00    -0.008 C 
ATOM      3  C   UNL     1       1.940   9.086  11.512  1.00  0.00     0.007 C 
ENDROOT
BRANCH   2   4
ATOM      4  C   UNL     1       3.409  10.989  12.258  1.00  0.00     0.159 C 
ATOM      5  O   UNL     1       3.497  12.248  12.299  1.00  0.00    -0.295 OA
BRANCH   4   6
ATOM      6  C   UNL     1       4.410  10.196  13.039  1.00  0.00     0.091 CG0
ATOM      7  G   UNL     1       3.766   9.285  14.109  1.00  0.00     0.000 G0
ENDBRANCH   4   6
ENDBRANCH   2   4
BRANCH   3   8
ATOM      8  C   UNL     1       2.459   7.978  12.349  1.00  0.00    -0.003 C 
ATOM      9  C   UNL     1       3.217   8.037  13.452  1.00  0.00    -0.020 C 
BRANCH   9  10
ATOM     10  C   UNL     1       3.759   9.287  14.103  1.00  0.00    -0.010 CG0
ATOM     11  C   UNL     1       2.637  10.001  14.890  1.00  0.00     0.016 C 
ATOM     12  C   UNL     1       4.858   8.872  15.108  1.00  0.00     0.016 C 
ATOM     13  G   UNL     1       4.404  10.194  13.032  1.00  0.00     0.000 G0
ENDBRANCH   9  10
ENDBRANCH   3   8
TORSDOF 0
ENDMDL
MODEL 2
REMARK VINA RESULT:    -3.118     13.784     14.940
REMARK INTER + INTRA:          -3.091
REMARK INTER:                  -3.851
REMARK INTRA:                   0.759
REMARK UNBOUND:                 0.756
REMARK SMILES CC1=CC=CC(C)(C)CC1=O
REMARK SMILES IDX 1 1 2 2 3 3 10 4 11 5 9 6 4 8 5 9 6 10 7 11 8 12
REMARK H PARENT
REMARK Flexibility Score: 80.00
ROOT
ATOM      1  C   UNL     1       5.000  20.087   0.925  1.00  0.00     0.048 C 
ATOM      2  C   UNL     1       4.854  20.705   2.295  1.00  0.00    -0.008 C 
ATOM      3  C   UNL     1       5.748  20.347   3.241  1.00  0.00     0.007 C 
ENDROOT
BRANCH   2   4
ATOM      4  C   UNL     1       3.692  21.602   2.512  1.00  0.00     0.159 C 
ATOM      5  O   UNL     1       2.789  21.653   1.631  1.00  0.00    -0.295 OA
BRANCH   4   6
ATOM      6  C   UNL     1       3.532  22.471   3.722  1.00  0.00     0.091 CG0
ATOM      7  G   UNL     1       3.504  21.674   5.045  1.00  0.00     0.000 G0
ENDBRANCH   4   6
ENDBRANCH   2   4
BRANCH   3   8
ATOM      8  C   UNL     1       5.846  20.757   4.662  1.00  0.00    -0.003 C 
ATOM      9  C   UNL     1       4.912  21.309   5.448  1.00  0.00    -0.020 C 
BRANCH   9  10
ATOM     10  C   UNL     1       3.505  21.678   5.045  1.00  0.00    -0.010 CG0
ATOM     11  C   UNL     1       2.628  20.408   4.964  1.00  0.00     0.016 C 
ATOM     12  C   UNL     1       2.913  22.597   6.138  1.00  0.00     0.016 C 
ATOM     13  G   UNL     1       3.533  22.468   3.717  1.00  0.00     0.000 G0
ENDBRANCH   9  10
ENDBRANCH   3   8
TORSDOF 0
ENDMDL
MODEL 3
REMARK VINA RESULT:    -3.059     14.075     15.231
REMARK INTER + INTRA:          -3.018
REMARK INTER:                  -3.776
REMARK INTRA:                   0.757
REMARK UNBOUND:                 0.756
REMARK SMILES CC1=CC=CC(C)(C)CC1=O
REMARK SMILES IDX 1 1 2 2 3 3 10 4 11 5 9 6 4 8 5 9 6 10 7 11 8 12
REMARK H PARENT
REMARK Flexibility Score: 80.00
ROOT
ATOM      1  C   UNL     1       6.866  20.597   4.370  1.00  0.00     0.048 C 
ATOM      2  C   UNL     1       5.499  20.668   3.731  1.00  0.00    -0.008 C 
ATOM      3  C   UNL     1       5.427  20.521   2.391  1.00  0.00     0.007 C 
ENDROOT
BRANCH   2   4
ATOM      4  C   UNL     1       4.351  20.971   4.622  1.00  0.00     0.159 C 
ATOM      5  O   UNL     1       4.582  21.352   5.803  1.00  0.00    -0.295 OA
BRANCH   4   6
ATOM      6  C   UNL     1       2.920  20.835   4.202  1.00  0.00     0.091 CG0
ATOM      7  G   UNL     1       2.552  21.729   2.996  1.00  0.00     0.000 G0
ENDBRANCH   4   6
ENDBRANCH   2   4
BRANCH   3   8
ATOM      8  C   UNL     1       4.250  20.568   1.491  1.00  0.00    -0.003 C 
ATOM      9  C   UNL     1       3.034  21.082   1.717  1.00  0.00    -0.020 C 
BRANCH   9  10
ATOM     10  C   UNL     1       2.557  21.730   2.995  1.00  0.00    -0.010 CG0
ATOM     11  C   UNL     1       3.137  23.157   3.112  1.00  0.00     0.016 C 
ATOM     12  C   UNL     1       1.016  21.844   2.935  1.00  0.00     0.016 C 
ATOM     13  G   UNL     1       2.926  20.836   4.200  1.00  0.00     0.000 G0
ENDBRANCH   9  10
ENDBRANCH   3   8
TORSDOF 0
ENDMDL
MODEL 4
REMARK VINA RESULT:    -2.906     11.715     13.890
REMARK INTER + INTRA:          -2.830
REMARK INTER:                  -3.591
REMARK INTRA:                   0.761
REMARK UNBOUND:                 0.756
REMARK SMILES CC1=CC=CC(C)(C)CC1=O
REMARK SMILES IDX 1 1 2 2 3 3 10 4 11 5 9 6 4 8 5 9 6 10 7 11 8 12
REMARK H PARENT
REMARK Flexibility Score: 80.00
ROOT
ATOM      1  C   UNL     1       4.217  18.148   6.560  1.00  0.00     0.048 C 
ATOM      2  C   UNL     1       3.807  19.601   6.516  1.00  0.00    -0.008 C 
ATOM      3  C   UNL     1       2.716  19.965   7.224  1.00  0.00     0.007 C 
ENDROOT
BRANCH   2   4
ATOM      4  C   UNL     1       4.594  20.499   5.635  1.00  0.00     0.159 C 
ATOM      5  O   UNL     1       5.418  19.989   4.826  1.00  0.00    -0.295 OA
BRANCH   4   6
ATOM      6  C   UNL     1       4.477  21.992   5.660  1.00  0.00     0.091 CG0
ATOM      7  G   UNL     1       3.053  22.497   5.339  1.00  0.00     0.000 G0
ENDBRANCH   4   6
ENDBRANCH   2   4
BRANCH   3   8
ATOM      8  C   UNL     1       2.064  21.289   7.353  1.00  0.00    -0.003 C 
ATOM      9  C   UNL     1       2.178  22.367   6.566  1.00  0.00    -0.020 C 
BRANCH   9  10
ATOM     10  C   UNL     1       3.048  22.494   5.339  1.00  0.00    -0.010 CG0
ATOM     11  C   UNL     1       2.400  21.746   4.151  1.00  0.00     0.016 C 
ATOM     12  C   UNL     1       3.145  23.991   4.965  1.00  0.00     0.016 C 
ATOM     13  G   UNL     1       4.473  21.985   5.656  1.00  0.00     0.000 G0
ENDBRANCH   9  10
ENDBRANCH   3   8
TORSDOF 0
ENDMDL
MODEL 5
REMARK VINA RESULT:    -2.812     14.311     15.456
REMARK INTER + INTRA:          -2.714
REMARK INTER:                  -3.479
REMARK INTRA:                   0.765
REMARK UNBOUND:                 0.756
REMARK SMILES CC1=CC=CC(C)(C)CC1=O
REMARK SMILES IDX 1 1 2 2 3 3 10 4 11 5 9 6 4 8 5 9 6 10 7 11 8 12
REMARK H PARENT
REMARK Flexibility Score: 80.00
ROOT
ATOM      1  C   UNL     1       6.498  19.676   3.988  1.00  0.00     0.048 C 
ATOM      2  C   UNL     1       5.367  20.677   3.958  1.00  0.00    -0.008 C 
ATOM      3  C   UNL     1       4.936  21.168   5.139  1.00  0.00     0.007 C 
ENDROOT
BRANCH   2   4
ATOM      4  C   UNL     1       4.769  20.982   2.635  1.00  0.00     0.159 C 
ATOM      5  O   UNL     1       5.067  20.250   1.650  1.00  0.00    -0.295 OA
BRANCH   4   6
ATOM      6  C   UNL     1       3.835  22.127   2.394  1.00  0.00     0.091 CG0
ATOM      7  G   UNL     1       2.547  22.052   3.243  1.00  0.00     0.000 G0
ENDBRANCH   4   6
ENDBRANCH   2   4
BRANCH   3   8
ATOM      8  C   UNL     1       3.844  22.128   5.428  1.00  0.00    -0.003 C 
ATOM      9  C   UNL     1       2.819  22.502   4.651  1.00  0.00    -0.020 C 
BRANCH   9  10
ATOM     10  C   UNL     1       2.546  22.033   3.241  1.00  0.00    -0.010 CG0
ATOM     11  C   UNL     1       1.952  20.607   3.264  1.00  0.00     0.016 C 
ATOM     12  C   UNL     1       1.497  22.978   2.612  1.00  0.00     0.016 C 
ATOM     13  G   UNL     1       3.841  22.125   2.402  1.00  0.00     0.000 G0
ENDBRANCH   9  10
ENDBRANCH   3   8
TORSDOF 0
ENDMDL
MODEL 6
REMARK VINA RESULT:    -2.646     11.464     12.871
REMARK INTER + INTRA:          -2.509
REMARK INTER:                  -3.249
REMARK INTRA:                   0.740
REMARK UNBOUND:                 0.756
REMARK SMILES CC1=CC=CC(C)(C)CC1=O
REMARK SMILES IDX 1 1 2 2 3 3 10 4 11 5 9 6 4 8 5 9 6 10 7 11 8 12
REMARK H PARENT
REMARK Flexibility Score: 80.00
ROOT
ATOM      1  C   UNL     1       6.235  20.332   3.966  1.00  0.00     0.048 C 
ATOM      2  C   UNL     1       5.158  20.119   5.004  1.00  0.00    -0.008 C 
ATOM      3  C   UNL     1       5.052  18.889   5.550  1.00  0.00     0.007 C 
ENDROOT
BRANCH   2   4
ATOM      4  C   UNL     1       4.254  21.262   5.285  1.00  0.00     0.159 C 
ATOM      5  O   UNL     1       4.283  22.263   4.516  1.00  0.00    -0.295 OA
BRANCH   4   6
ATOM      6  C   UNL     1       3.310  21.303   6.446  1.00  0.00     0.091 CG0
ATOM      7  G   UNL     1       2.269  20.161   6.426  1.00  0.00     0.000 G0
ENDBRANCH   4   6
ENDBRANCH   2   4
BRANCH   3   8
ATOM      8  C   UNL     1       4.093  18.376   6.558  1.00  0.00    -0.003 C 
ATOM      9  C   UNL     1       2.914  18.885   6.939  1.00  0.00    -0.020 C 
BRANCH   9  10
ATOM     10  C   UNL     1       2.281  20.159   6.431  1.00  0.00    -0.010 CG0
ATOM     11  C   UNL     1       1.661  19.920   5.035  1.00  0.00     0.016 C 
ATOM     12  C   UNL     1       1.142  20.553   7.399  1.00  0.00     0.016 C 
ATOM     13  G   UNL     1       3.327  21.296   6.431  1.00  0.00     0.000 G0
ENDBRANCH   9  10
ENDBRANCH   3   8
TORSDOF 0
ENDMDL
MODEL 7
REMARK VINA RESULT:    -2.639     12.364     14.567
REMARK INTER + INTRA:          -2.500
REMARK INTER:                  -3.256
REMARK INTRA:                   0.756
REMARK UNBOUND:                 0.756
REMARK SMILES CC1=CC=CC(C)(C)CC1=O
REMARK SMILES IDX 1 1 2 2 3 3 10 4 11 5 9 6 4 8 5 9 6 10 7 11 8 12
REMARK H PARENT
REMARK Flexibility Score: 80.00
ROOT
ATOM      1  C   UNL     1       3.491  20.618   8.166  1.00  0.00     0.048 C 
ATOM      2  C   UNL     1       3.676  21.268   6.814  1.00  0.00    -0.008 C 
ATOM      3  C   UNL     1       3.299  22.557   6.683  1.00  0.00     0.007 C 
ENDROOT
BRANCH   2   4
ATOM      4  C   UNL     1       4.189  20.410   5.717  1.00  0.00     0.159 C 
ATOM      5  O   UNL     1       4.273  19.165   5.907  1.00  0.00    -0.295 OA
BRANCH   4   6
ATOM      6  C   UNL     1       4.631  20.943   4.389  1.00  0.00     0.091 CG0
ATOM      7  G   UNL     1       3.520  21.716   3.643  1.00  0.00     0.000 G0
ENDBRANCH   4   6
ENDBRANCH   2   4
BRANCH   3   8
ATOM      8  C   UNL     1       3.333  23.442   5.495  1.00  0.00    -0.003 C 
ATOM      9  C   UNL     1       3.419  23.114   4.199  1.00  0.00    -0.020 C 
BRANCH   9  10
ATOM     10  C   UNL     1       3.534  21.718   3.634  1.00  0.00    -0.010 CG0
ATOM     11  C   UNL     1       2.157  21.018   3.673  1.00  0.00     0.016 C 
ATOM     12  C   UNL     1       3.971  21.829   2.155  1.00  0.00     0.016 C 
ATOM     13  G   UNL     1       4.623  20.934   4.399  1.00  0.00     0.000 G0
ENDBRANCH   9  10
ENDBRANCH   3   8
TORSDOF 0
ENDMDL
MODEL 8
REMARK VINA RESULT:    -2.594     13.086     14.141
REMARK INTER + INTRA:          -2.445
REMARK INTER:                  -3.192
REMARK INTRA:                   0.747
REMARK UNBOUND:                 0.756
REMARK SMILES CC1=CC=CC(C)(C)CC1=O
REMARK SMILES IDX 1 1 2 2 3 3 10 4 11 5 9 6 4 8 5 9 6 10 7 11 8 12
REMARK H PARENT
REMARK Flexibility Score: 80.00
ROOT
ATOM      1  C   UNL     1       5.375  20.682   1.754  1.00  0.00     0.048 C 
ATOM      2  C   UNL     1       4.462  20.704   2.958  1.00  0.00    -0.008 C 
ATOM      3  C   UNL     1       3.146  20.913   2.742  1.00  0.00     0.007 C 
ENDROOT
BRANCH   2   4
ATOM      4  C   UNL     1       5.099  20.567   4.291  1.00  0.00     0.159 C 
ATOM      5  O   UNL     1       6.359  20.613   4.372  1.00  0.00    -0.295 OA
BRANCH   4   6
ATOM      6  C   UNL     1       4.328  20.362   5.559  1.00  0.00     0.091 CG0
ATOM      7  G   UNL     1       3.319  21.496   5.848  1.00  0.00     0.000 G0
ENDBRANCH   4   6
ENDBRANCH   2   4
BRANCH   3   8
ATOM      8  C   UNL     1       2.027  21.011   3.708  1.00  0.00    -0.003 C 
ATOM      9  C   UNL     1       2.066  21.262   5.024  1.00  0.00    -0.020 C 
BRANCH   9  10
ATOM     10  C   UNL     1       3.306  21.484   5.857  1.00  0.00    -0.010 CG0
ATOM     11  C   UNL     1       3.860  22.906   5.613  1.00  0.00     0.016 C 
ATOM     12  C   UNL     1       2.912  21.375   7.349  1.00  0.00     0.016 C 
ATOM     13  G   UNL     1       4.343  20.380   5.552  1.00  0.00     0.000 G0
ENDBRANCH   9  10
ENDBRANCH   3   8
TORSDOF 0
ENDMDL
MODEL 9
REMARK VINA RESULT:    -2.582     12.428     14.480
REMARK INTER + INTRA:          -2.430
REMARK INTER:                  -3.176
REMARK INTRA:                   0.747
REMARK UNBOUND:                 0.756
REMARK SMILES CC1=CC=CC(C)(C)CC1=O
REMARK SMILES IDX 1 1 2 2 3 3 10 4 11 5 9 6 4 8 5 9 6 10 7 11 8 12
REMARK H PARENT
REMARK Flexibility Score: 80.00
ROOT
ATOM      1  C   UNL     1       3.313  20.328   7.732  1.00  0.00     0.048 C 
ATOM      2  C   UNL     1       3.541  20.453   6.244  1.00  0.00    -0.008 C 
ATOM      3  C   UNL     1       4.814  20.384   5.799  1.00  0.00     0.007 C 
ENDROOT
BRANCH   2   4
ATOM      4  C   UNL     1       2.351  20.717   5.397  1.00  0.00     0.159 C 
ATOM      5  O   UNL     1       1.263  21.026   5.957  1.00  0.00    -0.295 OA
BRANCH   4   6
ATOM      6  C   UNL     1       2.363  20.624   3.902  1.00  0.00     0.091 CG0
ATOM      7  G   UNL     1       3.367  21.595   3.240  1.00  0.00     0.000 G0
ENDBRANCH   4   6
ENDBRANCH   2   4
BRANCH   3   8
ATOM      8  C   UNL     1       5.347  20.497   4.421  1.00  0.00    -0.003 C 
ATOM      9  C   UNL     1       4.763  21.006   3.328  1.00  0.00    -0.020 C 
BRANCH   9  10
ATOM     10  C   UNL     1       3.368  21.578   3.241  1.00  0.00    -0.010 CG0
ATOM     11  C   UNL     1       3.339  22.998   3.849  1.00  0.00     0.016 C 
ATOM     12  C   UNL     1       2.982  21.689   1.748  1.00  0.00     0.016 C 
ATOM     13  G   UNL     1       2.368  20.618   3.924  1.00  0.00     0.000 G0
ENDBRANCH   9  10
ENDBRANCH   3   8
TORSDOF 0
ENDMDL
