MODEL 1
REMARK VINA RESULT:    -4.754      0.000      0.000
REMARK INTER + INTRA:          -8.014
REMARK INTER:                  -7.255
REMARK INTRA:                  -0.758
REMARK UNBOUND:                -0.758
REMARK SMILES OC[C@H]1O[C@](CO)(O[C@@H]2O[C@H](CO)[C@@H](O)[C@H](O)[C@H]2O)[C@@H](O)[C@@H]1O
REMARK SMILES IDX 8 1 9 2 11 3 14 4 10 5 16 6 18 7 12 8 13 9 15 11 17 13 19 15
REMARK SMILES IDX 5 17 20 18 4 19 22 20 3 21 6 22 7 23 21 25 23 27 2 29 1 30
REMARK H PARENT 13 10 15 12 17 14 19 16 7 24 21 26 23 28 1 31
REMARK Flexibility Score: inf
ROOT
ATOM      1  O   UNL     1       8.329  -5.356  -2.751  1.00  0.00    -0.313 OA
ENDROOT
BRANCH   1   2
ATOM      2  C   UNL     1       9.542  -5.666  -2.080  1.00  0.00     0.285 C 
ATOM      3  C   UNL     1      11.858  -5.380  -2.080  1.00  0.00     0.178 C 
ATOM      4  C   UNL     1      12.143  -6.893  -1.901  1.00  0.00     0.177 C 
ATOM      5  O   UNL     1      10.658  -5.193  -2.811  1.00  0.00    -0.341 OA
ATOM      6  C   UNL     1      10.935  -7.582  -1.235  1.00  0.00     0.179 C 
ATOM      7  C   UNL     1       9.633  -7.196  -1.958  1.00  0.00     0.202 C 
BRANCH   3   8
ATOM      8  C   UNL     1      12.989  -4.685  -2.852  1.00  0.00     0.191 C 
BRANCH   8   9
ATOM      9  O   UNL     1      13.928  -4.140  -1.966  1.00  0.00    -0.394 OA
ATOM     10  H   UNL     1      13.604  -4.355  -1.055  1.00  0.00     0.210 HD
ENDBRANCH   8   9
ENDBRANCH   3   8
BRANCH   4  11
ATOM     11  O   UNL     1      13.281  -7.067  -1.095  1.00  0.00    -0.387 OA
ATOM     12  H   UNL     1      13.860  -6.274  -1.240  1.00  0.00     0.211 HD
ENDBRANCH   4  11
BRANCH   6  13
ATOM     13  O   UNL     1      11.094  -8.977  -1.283  1.00  0.00    -0.387 OA
ATOM     14  H   UNL     1      10.235  -9.375  -0.982  1.00  0.00     0.211 HD
ENDBRANCH   6  13
BRANCH   7  15
ATOM     15  O   UNL     1       8.523  -7.669  -1.240  1.00  0.00    -0.385 OA
ATOM     16  H   UNL     1       8.417  -7.078  -0.448  1.00  0.00     0.211 HD
ENDBRANCH   7  15
ENDBRANCH   1   2
BRANCH   1  17
ATOM     17  C   UNL     1       7.649  -4.146  -2.386  1.00  0.00     0.224 C 
ATOM     18  C   UNL     1       7.291  -3.971  -0.877  1.00  0.00     0.208 C 
ATOM     19  O   UNL     1       6.412  -4.165  -3.080  1.00  0.00    -0.337 OA
ATOM     20  C   UNL     1       6.005  -3.180  -0.931  1.00  0.00     0.180 C 
ATOM     21  C   UNL     1       5.383  -3.690  -2.232  1.00  0.00     0.179 C 
BRANCH  17  22
ATOM     22  C   UNL     1       8.435  -2.943  -2.973  1.00  0.00     0.225 C 
BRANCH  22  23
ATOM     23  O   UNL     1       9.632  -2.706  -2.281  1.00  0.00    -0.391 OA
ATOM     24  H   UNL     1      10.223  -2.173  -2.874  1.00  0.00     0.210 HD
ENDBRANCH  22  23
ENDBRANCH  17  22
BRANCH  18  25
ATOM     25  O   UNL     1       8.292  -3.352  -0.103  1.00  0.00    -0.385 OA
ATOM     26  H   UNL     1       7.867  -2.871   0.653  1.00  0.00     0.211 HD
ENDBRANCH  18  25
BRANCH  20  27
ATOM     27  O   UNL     1       5.187  -3.400   0.194  1.00  0.00    -0.387 OA
ATOM     28  H   UNL     1       5.737  -3.280   1.012  1.00  0.00     0.211 HD
ENDBRANCH  20  27
BRANCH  21  29
ATOM     29  C   UNL     1       4.580  -2.606  -2.962  1.00  0.00     0.191 C 
BRANCH  29  30
ATOM     30  O   UNL     1       3.665  -2.000  -2.089  1.00  0.00    -0.394 OA
ATOM     31  H   UNL     1       3.447  -2.666  -1.391  1.00  0.00     0.210 HD
ENDBRANCH  29  30
ENDBRANCH  21  29
ENDBRANCH   1  17
TORSDOF 13
ENDMDL
MODEL 2
REMARK VINA RESULT:    -3.172      1.924      6.067
REMARK INTER + INTRA:          -5.600
REMARK INTER:                  -5.442
REMARK INTRA:                  -0.158
REMARK UNBOUND:                -0.758
REMARK SMILES OC[C@H]1O[C@](CO)(O[C@@H]2O[C@H](CO)[C@@H](O)[C@H](O)[C@H]2O)[C@@H](O)[C@@H]1O
REMARK SMILES IDX 8 1 9 2 11 3 14 4 10 5 16 6 18 7 12 8 13 9 15 11 17 13 19 15
REMARK SMILES IDX 5 17 20 18 4 19 22 20 3 21 6 22 7 23 21 25 23 27 2 29 1 30
REMARK H PARENT 13 10 15 12 17 14 19 16 7 24 21 26 23 28 1 31
REMARK Flexibility Score: inf
ROOT
ATOM      1  O   UNL     1       9.334  -7.238  -2.877  1.00  0.00    -0.313 OA
ENDROOT
BRANCH   1   2
ATOM      2  C   UNL     1       8.941  -5.872  -2.898  1.00  0.00     0.285 C 
ATOM      3  C   UNL     1       9.694  -3.666  -3.007  1.00  0.00     0.178 C 
ATOM      4  C   UNL     1       8.830  -3.210  -1.804  1.00  0.00     0.177 C 
ATOM      5  O   UNL     1      10.073  -5.022  -2.849  1.00  0.00    -0.341 OA
ATOM      6  C   UNL     1       7.615  -4.145  -1.641  1.00  0.00     0.179 C 
ATOM      7  C   UNL     1       8.065  -5.616  -1.662  1.00  0.00     0.202 C 
BRANCH   3   8
ATOM      8  C   UNL     1      10.978  -2.832  -3.124  1.00  0.00     0.191 C 
BRANCH   8   9
ATOM      9  O   UNL     1      12.108  -3.638  -2.927  1.00  0.00    -0.394 OA
ATOM     10  H   UNL     1      11.774  -4.499  -2.570  1.00  0.00     0.210 HD
ENDBRANCH   8   9
ENDBRANCH   3   8
BRANCH   4  11
ATOM     11  O   UNL     1       8.381  -1.895  -2.016  1.00  0.00    -0.387 OA
ATOM     12  H   UNL     1       9.180  -1.307  -1.970  1.00  0.00     0.211 HD
ENDBRANCH   4  11
BRANCH   6  13
ATOM     13  O   UNL     1       6.965  -3.877  -0.424  1.00  0.00    -0.387 OA
ATOM     14  H   UNL     1       6.612  -4.744  -0.091  1.00  0.00     0.211 HD
ENDBRANCH   6  13
BRANCH   7  15
ATOM     15  O   UNL     1       6.947  -6.463  -1.704  1.00  0.00    -0.385 OA
ATOM     16  H   UNL     1       7.260  -7.339  -2.054  1.00  0.00     0.211 HD
ENDBRANCH   7  15
ENDBRANCH   1   2
BRANCH   1  17
ATOM     17  C   UNL     1      10.525  -7.584  -2.157  1.00  0.00     0.224 C 
ATOM     18  C   UNL     1      11.260  -6.423  -1.417  1.00  0.00     0.208 C 
ATOM     19  O   UNL     1      11.442  -8.070  -3.125  1.00  0.00    -0.337 OA
ATOM     20  C   UNL     1      12.709  -6.839  -1.501  1.00  0.00     0.180 C 
ATOM     21  C   UNL     1      12.740  -7.582  -2.838  1.00  0.00     0.179 C 
BRANCH  17  22
ATOM     22  C   UNL     1      10.212  -8.796  -1.239  1.00  0.00     0.225 C 
BRANCH  22  23
ATOM     23  O   UNL     1       9.073  -8.579  -0.450  1.00  0.00    -0.391 OA
ATOM     24  H   UNL     1       9.239  -7.771   0.103  1.00  0.00     0.210 HD
ENDBRANCH  22  23
ENDBRANCH  17  22
BRANCH  18  25
ATOM     25  O   UNL     1      10.822  -6.197  -0.097  1.00  0.00    -0.385 OA
ATOM     26  H   UNL     1      10.361  -5.320  -0.053  1.00  0.00     0.211 HD
ENDBRANCH  18  25
BRANCH  20  27
ATOM     27  O   UNL     1      13.591  -5.742  -1.460  1.00  0.00    -0.387 OA
ATOM     28  H   UNL     1      13.433  -5.180  -2.263  1.00  0.00     0.211 HD
ENDBRANCH  20  27
BRANCH  21  29
ATOM     29  C   UNL     1      13.735  -8.748  -2.839  1.00  0.00     0.191 C 
BRANCH  29  30
ATOM     30  O   UNL     1      14.529  -8.719  -1.682  1.00  0.00    -0.394 OA
ATOM     31  H   UNL     1      14.762  -9.656  -1.468  1.00  0.00     0.210 HD
ENDBRANCH  29  30
ENDBRANCH  21  29
ENDBRANCH   1  17
TORSDOF 13
ENDMDL
MODEL 3
REMARK VINA RESULT:    -3.074      1.210      1.682
REMARK INTER + INTRA:          -5.449
REMARK INTER:                  -4.896
REMARK INTRA:                  -0.553
REMARK UNBOUND:                -0.758
REMARK SMILES OC[C@H]1O[C@](CO)(O[C@@H]2O[C@H](CO)[C@@H](O)[C@H](O)[C@H]2O)[C@@H](O)[C@@H]1O
REMARK SMILES IDX 8 1 9 2 11 3 14 4 10 5 16 6 18 7 12 8 13 9 15 11 17 13 19 15
REMARK SMILES IDX 5 17 20 18 4 19 22 20 3 21 6 22 7 23 21 25 23 27 2 29 1 30
REMARK H PARENT 13 10 15 12 17 14 19 16 7 24 21 26 23 28 1 31
REMARK Flexibility Score: inf
ROOT
ATOM      1  O   UNL     1       9.247  -4.985  -3.125  1.00  0.00    -0.313 OA
ENDROOT
BRANCH   1   2
ATOM      2  C   UNL     1      10.327  -5.574  -2.414  1.00  0.00     0.285 C 
ATOM      3  C   UNL     1      12.635  -5.543  -2.067  1.00  0.00     0.178 C 
ATOM      4  C   UNL     1      12.780  -7.076  -2.243  1.00  0.00     0.177 C 
ATOM      5  O   UNL     1      11.567  -5.059  -2.864  1.00  0.00    -0.341 OA
ATOM      6  C   UNL     1      11.443  -7.773  -1.921  1.00  0.00     0.179 C 
ATOM      7  C   UNL     1      10.288  -7.089  -2.673  1.00  0.00     0.202 C 
BRANCH   3   8
ATOM      8  C   UNL     1      13.911  -4.805  -2.498  1.00  0.00     0.191 C 
BRANCH   8   9
ATOM      9  O   UNL     1      14.085  -3.639  -1.741  1.00  0.00    -0.394 OA
ATOM     10  H   UNL     1      14.597  -3.013  -2.313  1.00  0.00     0.210 HD
ENDBRANCH   8   9
ENDBRANCH   3   8
BRANCH   4  11
ATOM     11  O   UNL     1      13.777  -7.558  -1.378  1.00  0.00    -0.387 OA
ATOM     12  H   UNL     1      14.640  -7.182  -1.696  1.00  0.00     0.211 HD
ENDBRANCH   4  11
BRANCH   6  13
ATOM     13  O   UNL     1      11.506  -9.125  -2.301  1.00  0.00    -0.387 OA
ATOM     14  H   UNL     1      12.135  -9.570  -1.675  1.00  0.00     0.211 HD
ENDBRANCH   6  13
BRANCH   7  15
ATOM     15  O   UNL     1       9.056  -7.601  -2.235  1.00  0.00    -0.385 OA
ATOM     16  H   UNL     1       8.671  -6.932  -1.608  1.00  0.00     0.211 HD
ENDBRANCH   7  15
ENDBRANCH   1   2
BRANCH   1  17
ATOM     17  C   UNL     1       8.083  -4.601  -2.380  1.00  0.00     0.224 C 
ATOM     18  C   UNL     1       6.831  -5.524  -2.508  1.00  0.00     0.208 C 
ATOM     19  O   UNL     1       7.688  -3.337  -2.890  1.00  0.00    -0.337 OA
ATOM     20  C   UNL     1       5.684  -4.550  -2.372  1.00  0.00     0.180 C 
ATOM     21  C   UNL     1       6.277  -3.285  -2.995  1.00  0.00     0.179 C 
BRANCH  17  22
ATOM     22  C   UNL     1       8.503  -4.339  -0.908  1.00  0.00     0.225 C 
BRANCH  22  23
ATOM     23  O   UNL     1       8.878  -3.004  -0.697  1.00  0.00    -0.391 OA
ATOM     24  H   UNL     1       9.023  -2.588  -1.587  1.00  0.00     0.210 HD
ENDBRANCH  22  23
ENDBRANCH  17  22
BRANCH  18  25
ATOM     25  O   UNL     1       6.780  -6.579  -1.575  1.00  0.00    -0.385 OA
ATOM     26  H   UNL     1       5.852  -6.668  -1.237  1.00  0.00     0.211 HD
ENDBRANCH  18  25
BRANCH  20  27
ATOM     27  O   UNL     1       4.518  -4.993  -3.025  1.00  0.00    -0.387 OA
ATOM     28  H   UNL     1       3.799  -5.100  -2.349  1.00  0.00     0.211 HD
ENDBRANCH  20  27
BRANCH  21  29
ATOM     29  C   UNL     1       5.762  -2.005  -2.326  1.00  0.00     0.191 C 
BRANCH  29  30
ATOM     30  O   UNL     1       4.741  -2.304  -1.412  1.00  0.00    -0.394 OA
ATOM     31  H   UNL     1       4.710  -3.290  -1.326  1.00  0.00     0.210 HD
ENDBRANCH  29  30
ENDBRANCH  21  29
ENDBRANCH   1  17
TORSDOF 13
ENDMDL
MODEL 4
REMARK VINA RESULT:    -3.052      1.897      7.219
REMARK INTER + INTRA:          -5.416
REMARK INTER:                  -4.551
REMARK INTRA:                  -0.865
REMARK UNBOUND:                -0.758
REMARK SMILES OC[C@H]1O[C@](CO)(O[C@@H]2O[C@H](CO)[C@@H](O)[C@H](O)[C@H]2O)[C@@H](O)[C@@H]1O
REMARK SMILES IDX 8 1 9 2 11 3 14 4 10 5 16 6 18 7 12 8 13 9 15 11 17 13 19 15
REMARK SMILES IDX 5 17 20 18 4 19 22 20 3 21 6 22 7 23 21 25 23 27 2 29 1 30
REMARK H PARENT 13 10 15 12 17 14 19 16 7 24 21 26 23 28 1 31
REMARK Flexibility Score: inf
ROOT
ATOM      1  O   UNL     1      10.995  -6.293  -3.118  1.00  0.00    -0.313 OA
ENDROOT
BRANCH   1   2
ATOM      2  C   UNL     1       9.832  -5.742  -2.516  1.00  0.00     0.285 C 
ATOM      3  C   UNL     1       7.539  -6.014  -2.176  1.00  0.00     0.178 C 
ATOM      4  C   UNL     1       7.205  -4.561  -2.598  1.00  0.00     0.177 C 
ATOM      5  O   UNL     1       8.678  -6.478  -2.881  1.00  0.00    -0.341 OA
ATOM      6  C   UNL     1       8.435  -3.655  -2.389  1.00  0.00     0.179 C 
ATOM      7  C   UNL     1       9.685  -4.295  -3.016  1.00  0.00     0.202 C 
BRANCH   3   8
ATOM      8  C   UNL     1       6.378  -6.969  -2.486  1.00  0.00     0.191 C 
BRANCH   8   9
ATOM      9  O   UNL     1       6.757  -8.299  -2.253  1.00  0.00    -0.394 OA
ATOM     10  H   UNL     1       7.674  -8.391  -2.617  1.00  0.00     0.210 HD
ENDBRANCH   8   9
ENDBRANCH   3   8
BRANCH   4  11
ATOM     11  O   UNL     1       6.134  -4.079  -1.826  1.00  0.00    -0.387 OA
ATOM     12  H   UNL     1       5.667  -4.872  -1.455  1.00  0.00     0.211 HD
ENDBRANCH   4  11
BRANCH   6  13
ATOM     13  O   UNL     1       8.211  -2.401  -2.983  1.00  0.00    -0.387 OA
ATOM     14  H   UNL     1       8.317  -2.525  -3.964  1.00  0.00     0.211 HD
ENDBRANCH   6  13
BRANCH   7  15
ATOM     15  O   UNL     1      10.831  -3.566  -2.663  1.00  0.00    -0.385 OA
ATOM     16  H   UNL     1      10.618  -2.605  -2.806  1.00  0.00     0.211 HD
ENDBRANCH   7  15
ENDBRANCH   1   2
BRANCH   1  17
ATOM     17  C   UNL     1      11.939  -6.960  -2.269  1.00  0.00     0.224 C 
ATOM     18  C   UNL     1      12.922  -6.054  -1.464  1.00  0.00     0.208 C 
ATOM     19  O   UNL     1      12.750  -7.749  -3.125  1.00  0.00    -0.337 OA
ATOM     20  C   UNL     1      14.169  -6.903  -1.386  1.00  0.00     0.180 C 
ATOM     21  C   UNL     1      14.099  -7.677  -2.704  1.00  0.00     0.179 C 
BRANCH  17  22
ATOM     22  C   UNL     1      11.171  -7.973  -1.377  1.00  0.00     0.225 C 
BRANCH  22  23
ATOM     23  O   UNL     1      10.432  -8.890  -2.139  1.00  0.00    -0.391 OA
ATOM     24  H   UNL     1       9.470  -8.672  -2.023  1.00  0.00     0.210 HD
ENDBRANCH  22  23
ENDBRANCH  17  22
BRANCH  18  25
ATOM     25  O   UNL     1      12.447  -5.645  -0.202  1.00  0.00    -0.385 OA
ATOM     26  H   UNL     1      11.461  -5.546  -0.243  1.00  0.00     0.211 HD
ENDBRANCH  18  25
BRANCH  20  27
ATOM     27  O   UNL     1      15.341  -6.133  -1.260  1.00  0.00    -0.387 OA
ATOM     28  H   UNL     1      15.239  -5.311  -1.807  1.00  0.00     0.211 HD
ENDBRANCH  20  27
BRANCH  21  29
ATOM     29  C   UNL     1      14.673  -9.093  -2.583  1.00  0.00     0.191 C 
BRANCH  29  30
ATOM     30  O   UNL     1      16.069  -9.049  -2.449  1.00  0.00    -0.394 OA
ATOM     31  H   UNL     1      16.443  -8.923  -3.357  1.00  0.00     0.210 HD
ENDBRANCH  29  30
ENDBRANCH  21  29
ENDBRANCH   1  17
TORSDOF 13
ENDMDL
MODEL 5
REMARK VINA RESULT:    -3.045      1.597      3.175
REMARK INTER + INTRA:          -5.405
REMARK INTER:                  -4.554
REMARK INTRA:                  -0.852
REMARK UNBOUND:                -0.758
REMARK SMILES OC[C@H]1O[C@](CO)(O[C@@H]2O[C@H](CO)[C@@H](O)[C@H](O)[C@H]2O)[C@@H](O)[C@@H]1O
REMARK SMILES IDX 8 1 9 2 11 3 14 4 10 5 16 6 18 7 12 8 13 9 15 11 17 13 19 15
REMARK SMILES IDX 5 17 20 18 4 19 22 20 3 21 6 22 7 23 21 25 23 27 2 29 1 30
REMARK H PARENT 13 10 15 12 17 14 19 16 7 24 21 26 23 28 1 31
REMARK Flexibility Score: inf
ROOT
ATOM      1  O   UNL     1       9.789  -4.231  -1.717  1.00  0.00    -0.313 OA
ENDROOT
BRANCH   1   2
ATOM      2  C   UNL     1      10.308  -5.458  -2.212  1.00  0.00     0.285 C 
ATOM      3  C   UNL     1      10.369  -7.772  -1.912  1.00  0.00     0.178 C 
ATOM      4  C   UNL     1      11.913  -7.842  -2.011  1.00  0.00     0.177 C 
ATOM      5  O   UNL     1       9.971  -6.532  -1.353  1.00  0.00    -0.341 OA
ATOM      6  C   UNL     1      12.447  -6.637  -2.812  1.00  0.00     0.179 C 
ATOM      7  C   UNL     1      11.838  -5.329  -2.279  1.00  0.00     0.202 C 
BRANCH   3   8
ATOM      8  C   UNL     1       9.812  -8.888  -1.017  1.00  0.00     0.191 C 
BRANCH   8   9
ATOM      9  O   UNL     1       8.421  -8.772  -0.891  1.00  0.00    -0.394 OA
ATOM     10  H   UNL     1       8.174  -7.924  -1.338  1.00  0.00     0.210 HD
ENDBRANCH   8   9
ENDBRANCH   3   8
BRANCH   4  11
ATOM     11  O   UNL     1      12.292  -9.033  -2.652  1.00  0.00    -0.387 OA
ATOM     12  H   UNL     1      12.043  -8.937  -3.609  1.00  0.00     0.211 HD
ENDBRANCH   4  11
BRANCH   6  13
ATOM     13  O   UNL     1      13.846  -6.574  -2.704  1.00  0.00    -0.387 OA
ATOM     14  H   UNL     1      14.132  -5.743  -3.168  1.00  0.00     0.211 HD
ENDBRANCH   6  13
BRANCH   7  15
ATOM     15  O   UNL     1      12.175  -4.260  -3.125  1.00  0.00    -0.385 OA
ATOM     16  H   UNL     1      11.478  -3.562  -3.001  1.00  0.00     0.211 HD
ENDBRANCH   7  15
ENDBRANCH   1   2
BRANCH   1  17
ATOM     17  C   UNL     1       8.371  -4.129  -1.528  1.00  0.00     0.224 C 
ATOM     18  C   UNL     1       7.535  -5.425  -1.768  1.00  0.00     0.208 C 
ATOM     19  O   UNL     1       7.914  -3.188  -2.487  1.00  0.00    -0.337 OA
ATOM     20  C   UNL     1       6.228  -4.884  -2.297  1.00  0.00     0.180 C 
ATOM     21  C   UNL     1       6.690  -3.632  -3.044  1.00  0.00     0.179 C 
BRANCH  17  22
ATOM     22  C   UNL     1       8.104  -3.474  -0.146  1.00  0.00     0.225 C 
BRANCH  22  23
ATOM     23  O   UNL     1       9.062  -3.848   0.808  1.00  0.00    -0.391 OA
ATOM     24  H   UNL     1       8.964  -4.824   0.967  1.00  0.00     0.210 HD
ENDBRANCH  22  23
ENDBRANCH  17  22
BRANCH  18  25
ATOM     25  O   UNL     1       7.380  -6.244  -0.632  1.00  0.00    -0.385 OA
ATOM     26  H   UNL     1       7.336  -7.192  -0.919  1.00  0.00     0.211 HD
ENDBRANCH  18  25
BRANCH  20  27
ATOM     27  O   UNL     1       5.557  -5.804  -3.125  1.00  0.00    -0.387 OA
ATOM     28  H   UNL     1       5.123  -5.304  -3.866  1.00  0.00     0.211 HD
ENDBRANCH  20  27
BRANCH  21  29
ATOM     29  C   UNL     1       5.660  -2.498  -2.983  1.00  0.00     0.191 C 
BRANCH  29  30
ATOM     30  O   UNL     1       4.371  -3.015  -2.782  1.00  0.00    -0.394 OA
ATOM     31  H   UNL     1       4.478  -3.963  -2.520  1.00  0.00     0.210 HD
ENDBRANCH  29  30
ENDBRANCH  21  29
ENDBRANCH   1  17
TORSDOF 13
ENDMDL
MODEL 6
REMARK VINA RESULT:    -2.573      1.198      2.823
REMARK INTER + INTRA:          -4.684
REMARK INTER:                  -4.850
REMARK INTRA:                   0.166
REMARK UNBOUND:                -0.758
REMARK SMILES OC[C@H]1O[C@](CO)(O[C@@H]2O[C@H](CO)[C@@H](O)[C@H](O)[C@H]2O)[C@@H](O)[C@@H]1O
REMARK SMILES IDX 8 1 9 2 11 3 14 4 10 5 16 6 18 7 12 8 13 9 15 11 17 13 19 15
REMARK SMILES IDX 5 17 20 18 4 19 22 20 3 21 6 22 7 23 21 25 23 27 2 29 1 30
REMARK H PARENT 13 10 15 12 17 14 19 16 7 24 21 26 23 28 1 31
REMARK Flexibility Score: inf
ROOT
ATOM      1  O   UNL     1       9.383  -3.765  -3.125  1.00  0.00    -0.313 OA
ENDROOT
BRANCH   1   2
ATOM      2  C   UNL     1       9.857  -5.090  -2.926  1.00  0.00     0.285 C 
ATOM      3  C   UNL     1       9.319  -7.218  -2.134  1.00  0.00     0.178 C 
ATOM      4  C   UNL     1      10.608  -7.334  -1.283  1.00  0.00     0.177 C 
ATOM      5  O   UNL     1       8.907  -5.864  -2.216  1.00  0.00    -0.341 OA
ATOM      6  C   UNL     1      11.707  -6.420  -1.861  1.00  0.00     0.179 C 
ATOM      7  C   UNL     1      11.154  -5.005  -2.103  1.00  0.00     0.202 C 
BRANCH   3   8
ATOM      8  C   UNL     1       8.164  -8.020  -1.517  1.00  0.00     0.191 C 
BRANCH   8   9
ATOM      9  O   UNL     1       8.550  -8.574  -0.288  1.00  0.00    -0.394 OA
ATOM     10  H   UNL     1       7.798  -8.412   0.336  1.00  0.00     0.210 HD
ENDBRANCH   8   9
ENDBRANCH   3   8
BRANCH   4  11
ATOM     11  O   UNL     1      11.059  -8.665  -1.287  1.00  0.00    -0.387 OA
ATOM     12  H   UNL     1      10.313  -9.221  -1.636  1.00  0.00     0.211 HD
ENDBRANCH   4  11
BRANCH   6  13
ATOM     13  O   UNL     1      12.787  -6.347  -0.965  1.00  0.00    -0.387 OA
ATOM     14  H   UNL     1      12.563  -6.935  -0.196  1.00  0.00     0.211 HD
ENDBRANCH   6  13
BRANCH   7  15
ATOM     15  O   UNL     1      12.094  -4.231  -2.801  1.00  0.00    -0.385 OA
ATOM     16  H   UNL     1      12.834  -4.034  -2.167  1.00  0.00     0.211 HD
ENDBRANCH   7  15
ENDBRANCH   1   2
BRANCH   1  17
ATOM     17  C   UNL     1       8.357  -3.280  -2.247  1.00  0.00     0.224 C 
ATOM     18  C   UNL     1       8.134  -4.073  -0.922  1.00  0.00     0.208 C 
ATOM     19  O   UNL     1       7.141  -3.379  -2.970  1.00  0.00    -0.337 OA
ATOM     20  C   UNL     1       6.651  -3.909  -0.683  1.00  0.00     0.180 C 
ATOM     21  C   UNL     1       6.113  -3.839  -2.113  1.00  0.00     0.179 C 
BRANCH  17  22
ATOM     22  C   UNL     1       8.581  -1.760  -2.020  1.00  0.00     0.225 C 
BRANCH  22  23
ATOM     23  O   UNL     1       7.878  -0.980  -2.951  1.00  0.00    -0.391 OA
ATOM     24  H   UNL     1       8.435  -0.184  -3.158  1.00  0.00     0.210 HD
ENDBRANCH  22  23
ENDBRANCH  17  22
BRANCH  18  25
ATOM     25  O   UNL     1       8.924  -3.644   0.162  1.00  0.00    -0.385 OA
ATOM     26  H   UNL     1       9.830  -4.039   0.080  1.00  0.00     0.211 HD
ENDBRANCH  18  25
BRANCH  20  27
ATOM     27  O   UNL     1       6.102  -4.971   0.062  1.00  0.00    -0.387 OA
ATOM     28  H   UNL     1       6.623  -5.071   0.901  1.00  0.00     0.211 HD
ENDBRANCH  20  27
BRANCH  21  29
ATOM     29  C   UNL     1       4.895  -2.916  -2.236  1.00  0.00     0.191 C 
BRANCH  29  30
ATOM     30  O   UNL     1       4.297  -2.720  -0.982  1.00  0.00    -0.394 OA
ATOM     31  H   UNL     1       3.485  -2.172  -1.131  1.00  0.00     0.210 HD
ENDBRANCH  29  30
ENDBRANCH  21  29
ENDBRANCH   1  17
TORSDOF 13
ENDMDL
MODEL 7
REMARK VINA RESULT:    -2.548      1.808      6.829
REMARK INTER + INTRA:          -4.647
REMARK INTER:                  -3.592
REMARK INTRA:                  -1.056
REMARK UNBOUND:                -0.758
REMARK SMILES OC[C@H]1O[C@](CO)(O[C@@H]2O[C@H](CO)[C@@H](O)[C@H](O)[C@H]2O)[C@@H](O)[C@@H]1O
REMARK SMILES IDX 8 1 9 2 11 3 14 4 10 5 16 6 18 7 12 8 13 9 15 11 17 13 19 15
REMARK SMILES IDX 5 17 20 18 4 19 22 20 3 21 6 22 7 23 21 25 23 27 2 29 1 30
REMARK H PARENT 13 10 15 12 17 14 19 16 7 24 21 26 23 28 1 31
REMARK Flexibility Score: inf
ROOT
ATOM      1  O   UNL     1      10.598  -6.424  -1.038  1.00  0.00    -0.313 OA
ENDROOT
BRANCH   1   2
ATOM      2  C   UNL     1       9.408  -6.118  -1.752  1.00  0.00     0.285 C 
ATOM      3  C   UNL     1       7.653  -4.598  -1.987  1.00  0.00     0.178 C 
ATOM      4  C   UNL     1       6.565  -5.701  -1.958  1.00  0.00     0.177 C 
ATOM      5  O   UNL     1       8.763  -4.987  -1.196  1.00  0.00    -0.341 OA
ATOM      6  C   UNL     1       7.166  -7.047  -2.410  1.00  0.00     0.179 C 
ATOM      7  C   UNL     1       8.472  -7.333  -1.649  1.00  0.00     0.202 C 
BRANCH   3   8
ATOM      8  C   UNL     1       7.121  -3.272  -1.425  1.00  0.00     0.191 C 
BRANCH   8   9
ATOM      9  O   UNL     1       6.264  -3.504  -0.340  1.00  0.00    -0.394 OA
ATOM     10  H   UNL     1       5.343  -3.426  -0.695  1.00  0.00     0.210 HD
ENDBRANCH   8   9
ENDBRANCH   3   8
BRANCH   4  11
ATOM     11  O   UNL     1       5.512  -5.349  -2.819  1.00  0.00    -0.387 OA
ATOM     12  H   UNL     1       5.890  -5.311  -3.736  1.00  0.00     0.211 HD
ENDBRANCH   4  11
BRANCH   6  13
ATOM     13  O   UNL     1       6.252  -8.086  -2.165  1.00  0.00    -0.387 OA
ATOM     14  H   UNL     1       6.340  -8.730  -2.916  1.00  0.00     0.211 HD
ENDBRANCH   6  13
BRANCH   7  15
ATOM     15  O   UNL     1       9.113  -8.458  -2.193  1.00  0.00    -0.385 OA
ATOM     16  H   UNL     1       8.439  -8.935  -2.746  1.00  0.00     0.211 HD
ENDBRANCH   7  15
ENDBRANCH   1   2
BRANCH   1  17
ATOM     17  C   UNL     1      11.802  -6.620  -1.791  1.00  0.00     0.224 C 
ATOM     18  C   UNL     1      12.277  -8.093  -1.986  1.00  0.00     0.208 C 
ATOM     19  O   UNL     1      12.833  -5.972  -1.061  1.00  0.00    -0.337 OA
ATOM     20  C   UNL     1      13.781  -7.957  -2.019  1.00  0.00     0.180 C 
ATOM     21  C   UNL     1      14.004  -6.767  -1.084  1.00  0.00     0.179 C 
BRANCH  17  22
ATOM     22  C   UNL     1      11.683  -5.833  -3.125  1.00  0.00     0.225 C 
BRANCH  22  23
ATOM     23  O   UNL     1      12.118  -4.506  -2.994  1.00  0.00    -0.391 OA
ATOM     24  H   UNL     1      12.073  -4.268  -2.030  1.00  0.00     0.210 HD
ENDBRANCH  22  23
ENDBRANCH  17  22
BRANCH  18  25
ATOM     25  O   UNL     1      11.752  -8.736  -3.124  1.00  0.00    -0.385 OA
ATOM     26  H   UNL     1      12.499  -9.014  -3.714  1.00  0.00     0.211 HD
ENDBRANCH  18  25
BRANCH  20  27
ATOM     27  O   UNL     1      14.441  -9.125  -1.591  1.00  0.00    -0.387 OA
ATOM     28  H   UNL     1      13.873  -9.908  -1.816  1.00  0.00     0.211 HD
ENDBRANCH  20  27
BRANCH  21  29
ATOM     29  C   UNL     1      15.198  -5.903  -1.508  1.00  0.00     0.191 C 
BRANCH  29  30
ATOM     30  O   UNL     1      16.398  -6.614  -1.356  1.00  0.00    -0.394 OA
ATOM     31  H   UNL     1      16.914  -6.491  -2.191  1.00  0.00     0.210 HD
ENDBRANCH  29  30
ENDBRANCH  21  29
ENDBRANCH   1  17
TORSDOF 13
ENDMDL
