MODEL 1
REMARK VINA RESULT:    -3.709      0.000      0.000
REMARK INTER + INTRA:          -5.954
REMARK INTER:                  -5.661
REMARK INTRA:                  -0.293
REMARK UNBOUND:                -0.293
REMARK SMILES CC1=CCC[C@@H](C)C(=O)C[C@H](C(C)C)C(=O)C1
REMARK SMILES IDX 8 1 9 2 6 3 7 4 5 5 4 6 3 7 2 8 1 9 10 11 11 12 15 13 16 14
REMARK SMILES IDX 17 15 12 17 13 18 14 19
REMARK H PARENT
REMARK Flexibility Score: 70.00
ROOT
ATOM      1  C   UNL     1       8.361 -18.746  20.870  1.00  0.00     0.136 C 
ATOM      2  O   UNL     1       7.957 -19.083  19.766  1.00  0.00    -0.299 OA
ENDROOT
BRANCH   1   3
ATOM      3  C   UNL     1       8.665 -19.797  21.918  1.00  0.00     0.053 C 
ATOM      4  C   UNL     1       9.831 -20.666  21.436  1.00  0.00     0.016 C 
BRANCH   3   5
ATOM      5  C   UNL     1       7.441 -20.681  22.254  1.00  0.00     0.015 C 
BRANCH   5   6
ATOM      6  C   UNL     1       6.414 -19.997  23.173  1.00  0.00     0.028 C 
BRANCH   6   7
ATOM      7  C   UNL     1       7.083 -19.337  24.356  1.00  0.00    -0.028 C 
ATOM      8  C   UNL     1       7.043 -18.016  24.645  1.00  0.00    -0.070 CG0
ATOM      9  C   UNL     1       7.779 -17.538  25.872  1.00  0.00     0.039 C 
ATOM     10  G   UNL     1       6.293 -17.006  23.798  1.00  0.00     0.000 G0
ENDBRANCH   6   7
ENDBRANCH   5   6
ENDBRANCH   3   5
ENDBRANCH   1   3
BRANCH   1  11
ATOM     11  C   UNL     1       8.618 -17.284  21.146  1.00  0.00     0.087 C 
BRANCH  11  12
ATOM     12  C   UNL     1       7.307 -16.509  21.413  1.00  0.00     0.066 C 
BRANCH  12  13
ATOM     13  C   UNL     1       7.170 -16.177  22.892  1.00  0.00     0.140 C 
ATOM     14  O   UNL     1       7.781 -15.227  23.360  1.00  0.00    -0.299 OA
BRANCH  13  15
ATOM     15  C   UNL     1       6.277 -16.985  23.801  1.00  0.00     0.106 CG0
ATOM     16  G   UNL     1       7.052 -17.999  24.620  1.00  0.00     0.000 G0
ENDBRANCH  13  15
ENDBRANCH  12  13
BRANCH  12  17
ATOM     17  C   UNL     1       7.166 -15.258  20.494  1.00  0.00    -0.006 C 
ATOM     18  C   UNL     1       5.793 -14.567  20.570  1.00  0.00     0.008 C 
ATOM     19  C   UNL     1       7.501 -15.598  19.033  1.00  0.00     0.008 C 
ENDBRANCH  12  17
ENDBRANCH  11  12
ENDBRANCH   1  11
TORSDOF 1
ENDMDL
MODEL 2
REMARK VINA RESULT:    -3.517      2.832      3.973
REMARK INTER + INTRA:          -5.661
REMARK INTER:                  -5.413
REMARK INTRA:                  -0.248
REMARK UNBOUND:                -0.293
REMARK SMILES CC1=CCC[C@@H](C)C(=O)C[C@H](C(C)C)C(=O)C1
REMARK SMILES IDX 8 1 9 2 6 3 7 4 5 5 4 6 3 7 2 8 1 9 10 11 11 12 15 13 16 14
REMARK SMILES IDX 17 15 12 17 13 18 14 19
REMARK H PARENT
REMARK Flexibility Score: 70.00
ROOT
ATOM      1  C   UNL     1       9.455 -17.754  20.899  1.00  0.00     0.136 C 
ATOM      2  O   UNL     1       9.568 -17.992  19.705  1.00  0.00    -0.299 OA
ENDROOT
BRANCH   1   3
ATOM      3  C   UNL     1       8.079 -17.661  21.525  1.00  0.00     0.053 C 
ATOM      4  C   UNL     1       7.287 -18.929  21.189  1.00  0.00     0.016 C 
BRANCH   3   5
ATOM      5  C   UNL     1       7.296 -16.405  21.072  1.00  0.00     0.015 C 
BRANCH   5   6
ATOM      6  C   UNL     1       7.424 -15.213  22.037  1.00  0.00     0.028 C 
BRANCH   6   7
ATOM      7  C   UNL     1       7.419 -15.664  23.479  1.00  0.00    -0.028 C 
ATOM      8  C   UNL     1       8.445 -15.525  24.349  1.00  0.00    -0.070 CG0
ATOM      9  C   UNL     1       8.258 -16.043  25.753  1.00  0.00     0.039 C 
ATOM     10  G   UNL     1       9.763 -14.873  23.976  1.00  0.00     0.000 G0
ENDBRANCH   6   7
ENDBRANCH   5   6
ENDBRANCH   3   5
ENDBRANCH   1   3
BRANCH   1  11
ATOM     11  C   UNL     1      10.698 -17.625  21.746  1.00  0.00     0.087 C 
BRANCH  11  12
ATOM     12  C   UNL     1      11.037 -16.149  22.052  1.00  0.00     0.066 C 
BRANCH  12  13
ATOM     13  C   UNL     1      10.825 -15.842  23.528  1.00  0.00     0.140 C 
ATOM     14  O   UNL     1      11.526 -16.389  24.367  1.00  0.00    -0.299 OA
BRANCH  13  15
ATOM     15  C   UNL     1       9.777 -14.859  23.986  1.00  0.00     0.106 CG0
ATOM     16  G   UNL     1       8.469 -15.537  24.350  1.00  0.00     0.000 G0
ENDBRANCH  13  15
ENDBRANCH  12  13
BRANCH  12  17
ATOM     17  C   UNL     1      12.458 -15.754  21.548  1.00  0.00    -0.006 C 
ATOM     18  C   UNL     1      12.482 -15.133  20.140  1.00  0.00     0.008 C 
ATOM     19  C   UNL     1      13.424 -16.949  21.610  1.00  0.00     0.008 C 
ENDBRANCH  12  17
ENDBRANCH  11  12
ENDBRANCH   1  11
TORSDOF 1
ENDMDL
MODEL 3
REMARK VINA RESULT:    -3.493     12.024     14.408
REMARK INTER + INTRA:          -5.623
REMARK INTER:                  -5.430
REMARK INTRA:                  -0.194
REMARK UNBOUND:                -0.293
REMARK SMILES CC1=CCC[C@@H](C)C(=O)C[C@H](C(C)C)C(=O)C1
REMARK SMILES IDX 8 1 9 2 6 3 7 4 5 5 4 6 3 7 2 8 1 9 10 11 11 12 15 13 16 14
REMARK SMILES IDX 17 15 12 17 13 18 14 19
REMARK H PARENT
REMARK Flexibility Score: 70.00
ROOT
ATOM      1  C   UNL     1      18.018 -25.656  24.165  1.00  0.00     0.136 C 
ATOM      2  O   UNL     1      17.048 -25.513  24.896  1.00  0.00    -0.299 OA
ENDROOT
BRANCH   1   3
ATOM      3  C   UNL     1      18.541 -27.045  23.863  1.00  0.00     0.053 C 
ATOM      4  C   UNL     1      17.396 -28.054  24.002  1.00  0.00     0.016 C 
BRANCH   3   5
ATOM      5  C   UNL     1      19.726 -27.452  24.771  1.00  0.00     0.015 C 
BRANCH   5   6
ATOM      6  C   UNL     1      21.077 -26.862  24.330  1.00  0.00     0.028 C 
BRANCH   6   7
ATOM      7  C   UNL     1      21.698 -26.022  25.421  1.00  0.00    -0.028 C 
ATOM      8  C   UNL     1      21.862 -24.680  25.384  1.00  0.00    -0.070 CG0
ATOM      9  C   UNL     1      22.510 -24.013  26.571  1.00  0.00     0.039 C 
ATOM     10  G   UNL     1      21.420 -23.826  24.211  1.00  0.00     0.000 G0
ENDBRANCH   6   7
ENDBRANCH   5   6
ENDBRANCH   3   5
ENDBRANCH   1   3
BRANCH   1  11
ATOM     11  C   UNL     1      18.637 -24.441  23.517  1.00  0.00     0.087 C 
BRANCH  11  12
ATOM     12  C   UNL     1      18.854 -23.294  24.530  1.00  0.00     0.066 C 
BRANCH  12  13
ATOM     13  C   UNL     1      20.313 -22.860  24.548  1.00  0.00     0.140 C 
ATOM     14  O   UNL     1      20.600 -21.712  24.856  1.00  0.00    -0.299 OA
BRANCH  13  15
ATOM     15  C   UNL     1      21.425 -23.821  24.210  1.00  0.00     0.106 CG0
ATOM     16  G   UNL     1      21.850 -24.655  25.404  1.00  0.00     0.000 G0
ENDBRANCH  13  15
ENDBRANCH  12  13
BRANCH  12  17
ATOM     17  C   UNL     1      17.870 -22.108  24.296  1.00  0.00    -0.006 C 
ATOM     18  C   UNL     1      16.933 -21.818  25.482  1.00  0.00     0.008 C 
ATOM     19  C   UNL     1      17.045 -22.311  23.015  1.00  0.00     0.008 C 
ENDBRANCH  12  17
ENDBRANCH  11  12
ENDBRANCH   1  11
TORSDOF 1
ENDMDL
MODEL 4
REMARK VINA RESULT:    -3.479      4.829      7.007
REMARK INTER + INTRA:          -5.602
REMARK INTER:                  -5.323
REMARK INTRA:                  -0.279
REMARK UNBOUND:                -0.293
REMARK SMILES CC1=CCC[C@@H](C)C(=O)C[C@H](C(C)C)C(=O)C1
REMARK SMILES IDX 8 1 9 2 6 3 7 4 5 5 4 6 3 7 2 8 1 9 10 11 11 12 15 13 16 14
REMARK SMILES IDX 17 15 12 17 13 18 14 19
REMARK H PARENT
REMARK Flexibility Score: 70.00
ROOT
ATOM      1  C   UNL     1      13.387 -16.521  22.414  1.00  0.00     0.136 C 
ATOM      2  O   UNL     1      14.197 -15.662  22.737  1.00  0.00    -0.299 OA
ENDROOT
BRANCH   1   3
ATOM      3  C   UNL     1      12.013 -16.543  23.050  1.00  0.00     0.053 C 
ATOM      4  C   UNL     1      11.434 -15.124  23.047  1.00  0.00     0.016 C 
BRANCH   3   5
ATOM      5  C   UNL     1      12.025 -17.113  24.489  1.00  0.00     0.015 C 
BRANCH   5   6
ATOM      6  C   UNL     1      11.420 -18.523  24.603  1.00  0.00     0.028 C 
BRANCH   6   7
ATOM      7  C   UNL     1      10.608 -18.878  23.380  1.00  0.00    -0.028 C 
ATOM      8  C   UNL     1      10.972 -19.764  22.425  1.00  0.00    -0.070 CG0
ATOM      9  C   UNL     1      10.029 -19.986  21.269  1.00  0.00     0.039 C 
ATOM     10  G   UNL     1      12.274 -20.541  22.471  1.00  0.00     0.000 G0
ENDBRANCH   6   7
ENDBRANCH   5   6
ENDBRANCH   3   5
ENDBRANCH   1   3
BRANCH   1  11
ATOM     11  C   UNL     1      13.753 -17.507  21.331  1.00  0.00     0.087 C 
BRANCH  11  12
ATOM     12  C   UNL     1      14.239 -18.853  21.916  1.00  0.00     0.066 C 
BRANCH  12  13
ATOM     13  C   UNL     1      13.311 -19.986  21.501  1.00  0.00     0.140 C 
ATOM     14  O   UNL     1      13.402 -20.464  20.379  1.00  0.00    -0.299 OA
BRANCH  13  15
ATOM     15  C   UNL     1      12.286 -20.554  22.451  1.00  0.00     0.106 CG0
ATOM     16  G   UNL     1      10.990 -19.766  22.440  1.00  0.00     0.000 G0
ENDBRANCH  13  15
ENDBRANCH  12  13
BRANCH  12  17
ATOM     17  C   UNL     1      15.733 -19.136  21.577  1.00  0.00    -0.006 C 
ATOM     18  C   UNL     1      16.688 -19.030  22.779  1.00  0.00     0.008 C 
ATOM     19  C   UNL     1      16.228 -18.233  20.435  1.00  0.00     0.008 C 
ENDBRANCH  12  17
ENDBRANCH  11  12
ENDBRANCH   1  11
TORSDOF 1
ENDMDL
MODEL 5
REMARK VINA RESULT:    -3.401      3.118      5.354
REMARK INTER + INTRA:          -5.484
REMARK INTER:                  -5.566
REMARK INTRA:                   0.081
REMARK UNBOUND:                -0.293
REMARK SMILES CC1=CCC[C@@H](C)C(=O)C[C@H](C(C)C)C(=O)C1
REMARK SMILES IDX 8 1 9 2 6 3 7 4 5 5 4 6 3 7 2 8 1 9 10 11 11 12 15 13 16 14
REMARK SMILES IDX 17 15 12 17 13 18 14 19
REMARK H PARENT
REMARK Flexibility Score: 70.00
ROOT
ATOM      1  C   UNL     1       8.330 -17.244  25.089  1.00  0.00     0.136 C 
ATOM      2  O   UNL     1       7.220 -17.237  25.602  1.00  0.00    -0.299 OA
ENDROOT
BRANCH   1   3
ATOM      3  C   UNL     1       9.275 -16.081  25.314  1.00  0.00     0.053 C 
ATOM      4  C   UNL     1       8.810 -14.886  24.476  1.00  0.00     0.016 C 
BRANCH   3   5
ATOM      5  C   UNL     1      10.746 -16.429  24.981  1.00  0.00     0.015 C 
BRANCH   5   6
ATOM      6  C   UNL     1      11.286 -15.710  23.732  1.00  0.00     0.028 C 
BRANCH   6   7
ATOM      7  C   UNL     1      12.335 -16.537  23.027  1.00  0.00    -0.028 C 
ATOM      8  C   UNL     1      12.114 -17.355  21.973  1.00  0.00    -0.070 CG0
ATOM      9  C   UNL     1      13.290 -18.108  21.402  1.00  0.00     0.039 C 
ATOM     10  G   UNL     1      10.747 -17.540  21.343  1.00  0.00     0.000 G0
ENDBRANCH   6   7
ENDBRANCH   5   6
ENDBRANCH   3   5
ENDBRANCH   1   3
BRANCH   1  11
ATOM     11  C   UNL     1       8.767 -18.450  24.294  1.00  0.00     0.087 C 
BRANCH  11  12
ATOM     12  C   UNL     1       8.620 -18.222  22.772  1.00  0.00     0.066 C 
BRANCH  12  13
ATOM     13  C   UNL     1       9.905 -18.593  22.046  1.00  0.00     0.140 C 
ATOM     14  O   UNL     1      10.272 -19.759  22.020  1.00  0.00    -0.299 OA
BRANCH  13  15
ATOM     15  C   UNL     1      10.736 -17.555  21.334  1.00  0.00     0.106 CG0
ATOM     16  G   UNL     1      12.102 -17.373  21.970  1.00  0.00     0.000 G0
ENDBRANCH  13  15
ENDBRANCH  12  13
BRANCH  12  17
ATOM     17  C   UNL     1       7.364 -18.937  22.189  1.00  0.00    -0.006 C 
ATOM     18  C   UNL     1       6.952 -20.214  22.942  1.00  0.00     0.008 C 
ATOM     19  C   UNL     1       7.541 -19.245  20.693  1.00  0.00     0.008 C 
ENDBRANCH  12  17
ENDBRANCH  11  12
ENDBRANCH   1  11
TORSDOF 1
ENDMDL
MODEL 6
REMARK VINA RESULT:    -3.323      2.346      4.243
REMARK INTER + INTRA:          -5.364
REMARK INTER:                  -5.420
REMARK INTRA:                   0.056
REMARK UNBOUND:                -0.293
REMARK SMILES CC1=CCC[C@@H](C)C(=O)C[C@H](C(C)C)C(=O)C1
REMARK SMILES IDX 8 1 9 2 6 3 7 4 5 5 4 6 3 7 2 8 1 9 10 11 11 12 15 13 16 14
REMARK SMILES IDX 17 15 12 17 13 18 14 19
REMARK H PARENT
REMARK Flexibility Score: 70.00
ROOT
ATOM      1  C   UNL     1       7.241 -18.471  24.561  1.00  0.00     0.136 C 
ATOM      2  O   UNL     1       7.611 -18.267  25.709  1.00  0.00    -0.299 OA
ENDROOT
BRANCH   1   3
ATOM      3  C   UNL     1       6.578 -19.785  24.201  1.00  0.00     0.053 C 
ATOM      4  C   UNL     1       6.549 -20.689  25.438  1.00  0.00     0.016 C 
BRANCH   3   5
ATOM      5  C   UNL     1       7.278 -20.508  23.026  1.00  0.00     0.015 C 
BRANCH   5   6
ATOM      6  C   UNL     1       6.560 -20.335  21.675  1.00  0.00     0.028 C 
BRANCH   6   7
ATOM      7  C   UNL     1       7.544 -20.247  20.532  1.00  0.00    -0.028 C 
ATOM      8  C   UNL     1       8.159 -19.119  20.110  1.00  0.00    -0.070 CG0
ATOM      9  C   UNL     1       9.111 -19.226  18.944  1.00  0.00     0.039 C 
ATOM     10  G   UNL     1       7.938 -17.765  20.756  1.00  0.00     0.000 G0
ENDBRANCH   6   7
ENDBRANCH   5   6
ENDBRANCH   3   5
ENDBRANCH   1   3
BRANCH   1  11
ATOM     11  C   UNL     1       7.389 -17.374  23.534  1.00  0.00     0.087 C 
BRANCH  11  12
ATOM     12  C   UNL     1       8.867 -17.143  23.147  1.00  0.00     0.066 C 
BRANCH  12  13
ATOM     13  C   UNL     1       9.070 -17.348  21.652  1.00  0.00     0.140 C 
ATOM     14  O   UNL     1      10.181 -17.194  21.164  1.00  0.00    -0.299 OA
BRANCH  13  15
ATOM     15  C   UNL     1       7.932 -17.756  20.750  1.00  0.00     0.106 CG0
ATOM     16  G   UNL     1       8.163 -19.109  20.105  1.00  0.00     0.000 G0
ENDBRANCH  13  15
ENDBRANCH  12  13
BRANCH  12  17
ATOM     17  C   UNL     1       9.400 -15.768  23.650  1.00  0.00    -0.006 C 
ATOM     18  C   UNL     1      10.111 -15.822  25.013  1.00  0.00     0.008 C 
ATOM     19  C   UNL     1       8.280 -14.715  23.685  1.00  0.00     0.008 C 
ENDBRANCH  12  17
ENDBRANCH  11  12
ENDBRANCH   1  11
TORSDOF 1
ENDMDL
MODEL 7
REMARK VINA RESULT:    -3.316      2.429      3.523
REMARK INTER + INTRA:          -5.353
REMARK INTER:                  -5.050
REMARK INTRA:                  -0.304
REMARK UNBOUND:                -0.293
REMARK SMILES CC1=CCC[C@@H](C)C(=O)C[C@H](C(C)C)C(=O)C1
REMARK SMILES IDX 8 1 9 2 6 3 7 4 5 5 4 6 3 7 2 8 1 9 10 11 11 12 15 13 16 14
REMARK SMILES IDX 17 15 12 17 13 18 14 19
REMARK H PARENT
REMARK Flexibility Score: 70.00
ROOT
ATOM      1  C   UNL     1      10.448 -18.935  22.439  1.00  0.00     0.136 C 
ATOM      2  O   UNL     1      10.644 -20.100  22.123  1.00  0.00    -0.299 OA
ENDROOT
BRANCH   1   3
ATOM      3  C   UNL     1      11.465 -18.199  23.287  1.00  0.00     0.053 C 
ATOM      4  C   UNL     1      12.831 -18.253  22.594  1.00  0.00     0.016 C 
BRANCH   3   5
ATOM      5  C   UNL     1      11.571 -18.764  24.724  1.00  0.00     0.015 C 
BRANCH   5   6
ATOM      6  C   UNL     1      10.401 -18.360  25.638  1.00  0.00     0.028 C 
BRANCH   6   7
ATOM      7  C   UNL     1      10.111 -16.880  25.545  1.00  0.00    -0.028 C 
ATOM      8  C   UNL     1       8.916 -16.331  25.232  1.00  0.00    -0.070 CG0
ATOM      9  C   UNL     1       8.818 -14.826  25.182  1.00  0.00     0.039 C 
ATOM     10  G   UNL     1       7.678 -17.157  24.936  1.00  0.00     0.000 G0
ENDBRANCH   6   7
ENDBRANCH   5   6
ENDBRANCH   3   5
ENDBRANCH   1   3
BRANCH   1  11
ATOM     11  C   UNL     1       9.221 -18.227  21.917  1.00  0.00     0.087 C 
BRANCH  11  12
ATOM     12  C   UNL     1       7.958 -18.584  22.733  1.00  0.00     0.066 C 
BRANCH  12  13
ATOM     13  C   UNL     1       7.424 -17.360  23.463  1.00  0.00     0.140 C 
ATOM     14  O   UNL     1       6.774 -16.524  22.852  1.00  0.00    -0.299 OA
BRANCH  13  15
ATOM     15  C   UNL     1       7.663 -17.157  24.939  1.00  0.00     0.106 CG0
ATOM     16  G   UNL     1       8.901 -16.325  25.216  1.00  0.00     0.000 G0
ENDBRANCH  13  15
ENDBRANCH  12  13
BRANCH  12  17
ATOM     17  C   UNL     1       6.876 -19.292  21.862  1.00  0.00    -0.006 C 
ATOM     18  C   UNL     1       6.094 -20.395  22.595  1.00  0.00     0.008 C 
ATOM     19  C   UNL     1       7.482 -19.852  20.565  1.00  0.00     0.008 C 
ENDBRANCH  12  17
ENDBRANCH  11  12
ENDBRANCH   1  11
TORSDOF 1
ENDMDL
MODEL 8
REMARK VINA RESULT:    -3.315      2.945      4.147
REMARK INTER + INTRA:          -5.353
REMARK INTER:                  -5.289
REMARK INTRA:                  -0.065
REMARK UNBOUND:                -0.293
REMARK SMILES CC1=CCC[C@@H](C)C(=O)C[C@H](C(C)C)C(=O)C1
REMARK SMILES IDX 8 1 9 2 6 3 7 4 5 5 4 6 3 7 2 8 1 9 10 11 11 12 15 13 16 14
REMARK SMILES IDX 17 15 12 17 13 18 14 19
REMARK H PARENT
REMARK Flexibility Score: 70.00
ROOT
ATOM      1  C   UNL     1       9.719 -19.451  22.643  1.00  0.00     0.136 C 
ATOM      2  O   UNL     1       9.785 -20.401  21.875  1.00  0.00    -0.299 OA
ENDROOT
BRANCH   1   3
ATOM      3  C   UNL     1       8.375 -18.827  22.962  1.00  0.00     0.053 C 
ATOM      4  C   UNL     1       7.344 -19.938  23.180  1.00  0.00     0.016 C 
BRANCH   3   5
ATOM      5  C   UNL     1       7.889 -17.854  21.861  1.00  0.00     0.015 C 
BRANCH   5   6
ATOM      6  C   UNL     1       7.840 -16.383  22.311  1.00  0.00     0.028 C 
BRANCH   6   7
ATOM      7  C   UNL     1       7.560 -16.265  23.791  1.00  0.00    -0.028 C 
ATOM      8  C   UNL     1       8.451 -15.874  24.730  1.00  0.00    -0.070 CG0
ATOM      9  C   UNL     1       7.990 -15.822  26.165  1.00  0.00     0.039 C 
ATOM     10  G   UNL     1       9.881 -15.485  24.403  1.00  0.00     0.000 G0
ENDBRANCH   6   7
ENDBRANCH   5   6
ENDBRANCH   3   5
ENDBRANCH   1   3
BRANCH   1  11
ATOM     11  C   UNL     1      10.977 -18.960  23.318  1.00  0.00     0.087 C 
BRANCH  11  12
ATOM     12  C   UNL     1      11.168 -17.436  23.143  1.00  0.00     0.066 C 
BRANCH  12  13
ATOM     13  C   UNL     1      10.814 -16.699  24.426  1.00  0.00     0.140 C 
ATOM     14  O   UNL     1      11.291 -17.068  25.490  1.00  0.00    -0.299 OA
BRANCH  13  15
ATOM     15  C   UNL     1       9.896 -15.501  24.419  1.00  0.00     0.106 CG0
ATOM     16  G   UNL     1       8.459 -15.872  24.733  1.00  0.00     0.000 G0
ENDBRANCH  13  15
ENDBRANCH  12  13
BRANCH  12  17
ATOM     17  C   UNL     1      12.588 -17.079  22.608  1.00  0.00    -0.006 C 
ATOM     18  C   UNL     1      12.664 -16.899  21.082  1.00  0.00     0.008 C 
ATOM     19  C   UNL     1      13.633 -18.108  23.067  1.00  0.00     0.008 C 
ENDBRANCH  12  17
ENDBRANCH  11  12
ENDBRANCH   1  11
TORSDOF 1
ENDMDL
MODEL 9
REMARK VINA RESULT:    -3.253      1.830      4.275
REMARK INTER + INTRA:          -5.258
REMARK INTER:                  -4.998
REMARK INTRA:                  -0.260
REMARK UNBOUND:                -0.293
REMARK SMILES CC1=CCC[C@@H](C)C(=O)C[C@H](C(C)C)C(=O)C1
REMARK SMILES IDX 8 1 9 2 6 3 7 4 5 5 4 6 3 7 2 8 1 9 10 11 11 12 15 13 16 14
REMARK SMILES IDX 17 15 12 17 13 18 14 19
REMARK H PARENT
REMARK Flexibility Score: 70.00
ROOT
ATOM      1  C   UNL     1       7.641 -17.592  19.481  1.00  0.00     0.136 C 
ATOM      2  O   UNL     1       7.909 -17.359  18.311  1.00  0.00    -0.299 OA
ENDROOT
BRANCH   1   3
ATOM      3  C   UNL     1       7.742 -16.489  20.515  1.00  0.00     0.053 C 
ATOM      4  C   UNL     1       7.053 -15.231  19.977  1.00  0.00     0.016 C 
BRANCH   3   5
ATOM      5  C   UNL     1       9.203 -16.171  20.914  1.00  0.00     0.015 C 
BRANCH   5   6
ATOM      6  C   UNL     1       9.589 -16.680  22.314  1.00  0.00     0.028 C 
BRANCH   6   7
ATOM      7  C   UNL     1       8.378 -16.820  23.206  1.00  0.00    -0.028 C 
ATOM      8  C   UNL     1       7.851 -17.988  23.638  1.00  0.00    -0.070 CG0
ATOM      9  C   UNL     1       6.630 -17.929  24.523  1.00  0.00     0.039 C 
ATOM     10  G   UNL     1       8.434 -19.341  23.279  1.00  0.00     0.000 G0
ENDBRANCH   6   7
ENDBRANCH   5   6
ENDBRANCH   3   5
ENDBRANCH   1   3
BRANCH   1  11
ATOM     11  C   UNL     1       7.146 -18.966  19.864  1.00  0.00     0.087 C 
BRANCH  11  12
ATOM     12  C   UNL     1       8.200 -19.754  20.673  1.00  0.00     0.066 C 
BRANCH  12  13
ATOM     13  C   UNL     1       7.723 -19.982  22.101  1.00  0.00     0.140 C 
ATOM     14  O   UNL     1       6.757 -20.701  22.310  1.00  0.00    -0.299 OA
BRANCH  13  15
ATOM     15  C   UNL     1       8.429 -19.353  23.277  1.00  0.00     0.106 CG0
ATOM     16  G   UNL     1       7.861 -17.992  23.632  1.00  0.00     0.000 G0
ENDBRANCH  13  15
ENDBRANCH  12  13
BRANCH  12  17
ATOM     17  C   UNL     1       8.627 -21.071  19.958  1.00  0.00    -0.006 C 
ATOM     18  C   UNL     1       9.585 -21.956  20.776  1.00  0.00     0.008 C 
ATOM     19  C   UNL     1       9.231 -20.785  18.574  1.00  0.00     0.008 C 
ENDBRANCH  12  17
ENDBRANCH  11  12
ENDBRANCH   1  11
TORSDOF 1
ENDMDL
