MODEL 1
REMARK VINA RESULT:    -3.738      0.000      0.000
REMARK INTER + INTRA:          -5.329
REMARK INTER:                  -5.050
REMARK INTRA:                  -0.280
REMARK UNBOUND:                -0.280
REMARK SMILES CCCCCCCC(=O)[O-]
REMARK SMILES IDX 5 1 6 2 7 3 8 4 9 5 10 6 4 7 3 8 2 9 1 10
REMARK H PARENT
REMARK Flexibility Score: inf
ROOT
ATOM      1  C   UNL     1       5.841  -8.825 -12.176  1.00  0.00     0.000 C 
ENDROOT
BRANCH   1   2
ATOM      2  C   UNL     1       5.051  -9.069 -10.881  1.00  0.00     0.006 C 
BRANCH   2   3
ATOM      3  C   UNL     1       4.984  -7.796 -10.033  1.00  0.00     0.053 C 
BRANCH   3   4
ATOM      4  C   UNL     1       5.900  -7.902  -8.855  1.00  0.00     0.041 C 
ATOM      5  O   UNL     1       5.793  -7.094  -7.896  1.00  0.00    -0.550 OA
ATOM      6  O   UNL     1       6.840  -8.922  -8.794  1.00  0.00    -0.550 OA
ENDBRANCH   3   4
ENDBRANCH   2   3
ENDBRANCH   1   2
BRANCH   1   7
ATOM      7  C   UNL     1       4.934  -8.489 -13.371  1.00  0.00     0.000 C 
BRANCH   7   8
ATOM      8  C   UNL     1       5.677  -7.720 -14.478  1.00  0.00    -0.000 C 
BRANCH   8   9
ATOM      9  C   UNL     1       4.930  -6.449 -14.912  1.00  0.00    -0.003 C 
ATOM     10  C   UNL     1       4.875  -5.388 -13.812  1.00  0.00     0.004 C 
ENDBRANCH   8   9
ENDBRANCH   7   8
ENDBRANCH   1   7
TORSDOF 6
ENDMDL
MODEL 2
REMARK VINA RESULT:    -3.559      1.423      2.221
REMARK INTER + INTRA:          -5.087
REMARK INTER:                  -4.920
REMARK INTRA:                  -0.167
REMARK UNBOUND:                -0.280
REMARK SMILES CCCCCCCC(=O)[O-]
REMARK SMILES IDX 5 1 6 2 7 3 8 4 9 5 10 6 4 7 3 8 2 9 1 10
REMARK H PARENT
REMARK Flexibility Score: inf
ROOT
ATOM      1  C   UNL     1       5.971  -8.716 -10.315  1.00  0.00     0.000 C 
ENDROOT
BRANCH   1   2
ATOM      2  C   UNL     1       5.236  -7.516  -9.696  1.00  0.00     0.006 C 
BRANCH   2   3
ATOM      3  C   UNL     1       5.333  -7.545  -8.169  1.00  0.00     0.053 C 
BRANCH   3   4
ATOM      4  C   UNL     1       6.014  -6.311  -7.663  1.00  0.00     0.041 C 
ATOM      5  O   UNL     1       7.037  -6.407  -6.936  1.00  0.00    -0.550 OA
ATOM      6  O   UNL     1       5.548  -5.058  -8.035  1.00  0.00    -0.550 OA
ENDBRANCH   3   4
ENDBRANCH   2   3
ENDBRANCH   1   2
BRANCH   1   7
ATOM      7  C   UNL     1       5.455  -9.068 -11.720  1.00  0.00     0.000 C 
BRANCH   7   8
ATOM      8  C   UNL     1       5.173  -7.821 -12.576  1.00  0.00    -0.000 C 
BRANCH   8   9
ATOM      9  C   UNL     1       5.610  -8.001 -14.038  1.00  0.00    -0.003 C 
ATOM     10  C   UNL     1       5.219  -6.819 -14.925  1.00  0.00     0.004 C 
ENDBRANCH   8   9
ENDBRANCH   7   8
ENDBRANCH   1   7
TORSDOF 6
ENDMDL
MODEL 3
REMARK VINA RESULT:    -3.524     12.940     14.646
REMARK INTER + INTRA:          -5.040
REMARK INTER:                  -4.831
REMARK INTRA:                  -0.209
REMARK UNBOUND:                -0.280
REMARK SMILES CCCCCCCC(=O)[O-]
REMARK SMILES IDX 5 1 6 2 7 3 8 4 9 5 10 6 4 7 3 8 2 9 1 10
REMARK H PARENT
REMARK Flexibility Score: inf
ROOT
ATOM      1  C   UNL     1       5.668 -22.674 -12.104  1.00  0.00     0.000 C 
ENDROOT
BRANCH   1   2
ATOM      2  C   UNL     1       5.334 -21.301 -12.707  1.00  0.00     0.006 C 
BRANCH   2   3
ATOM      3  C   UNL     1       6.279 -20.967 -13.864  1.00  0.00     0.053 C 
BRANCH   3   4
ATOM      4  C   UNL     1       5.968 -19.613 -14.421  1.00  0.00     0.041 C 
ATOM      5  O   UNL     1       5.364 -18.763 -13.716  1.00  0.00    -0.550 OA
ATOM      6  O   UNL     1       6.387 -19.273 -15.700  1.00  0.00    -0.550 OA
ENDBRANCH   3   4
ENDBRANCH   2   3
ENDBRANCH   1   2
BRANCH   1   7
ATOM      7  C   UNL     1       5.089 -22.861 -10.693  1.00  0.00     0.000 C 
BRANCH   7   8
ATOM      8  C   UNL     1       5.954 -23.784  -9.817  1.00  0.00    -0.000 C 
BRANCH   8   9
ATOM      9  C   UNL     1       6.167 -23.220  -8.403  1.00  0.00    -0.003 C 
ATOM     10  C   UNL     1       6.422 -21.712  -8.397  1.00  0.00     0.004 C 
ENDBRANCH   8   9
ENDBRANCH   7   8
ENDBRANCH   1   7
TORSDOF 6
ENDMDL
MODEL 4
REMARK VINA RESULT:    -3.479     16.828     17.962
REMARK INTER + INTRA:          -4.979
REMARK INTER:                  -4.773
REMARK INTRA:                  -0.207
REMARK UNBOUND:                -0.280
REMARK SMILES CCCCCCCC(=O)[O-]
REMARK SMILES IDX 5 1 6 2 7 3 8 4 9 5 10 6 4 7 3 8 2 9 1 10
REMARK H PARENT
REMARK Flexibility Score: inf
ROOT
ATOM      1  C   UNL     1      20.198 -17.175 -16.528  1.00  0.00     0.000 C 
ENDROOT
BRANCH   1   2
ATOM      2  C   UNL     1      19.530 -15.843 -16.156  1.00  0.00     0.006 C 
BRANCH   2   3
ATOM      3  C   UNL     1      18.271 -16.079 -15.317  1.00  0.00     0.053 C 
BRANCH   3   4
ATOM      4  C   UNL     1      17.198 -15.107 -15.696  1.00  0.00     0.041 C 
ATOM      5  O   UNL     1      16.916 -14.146 -14.933  1.00  0.00    -0.550 OA
ATOM      6  O   UNL     1      16.544 -15.233 -16.914  1.00  0.00    -0.550 OA
ENDBRANCH   3   4
ENDBRANCH   2   3
ENDBRANCH   1   2
BRANCH   1   7
ATOM      7  C   UNL     1      21.667 -17.006 -16.950  1.00  0.00     0.000 C 
BRANCH   7   8
ATOM      8  C   UNL     1      22.248 -18.278 -17.591  1.00  0.00    -0.000 C 
BRANCH   8   9
ATOM      9  C   UNL     1      21.591 -19.559 -17.052  1.00  0.00    -0.003 C 
ATOM     10  C   UNL     1      21.108 -20.491 -18.164  1.00  0.00     0.004 C 
ENDBRANCH   8   9
ENDBRANCH   7   8
ENDBRANCH   1   7
TORSDOF 6
ENDMDL
MODEL 5
REMARK VINA RESULT:    -3.422      3.152      4.907
REMARK INTER + INTRA:          -4.902
REMARK INTER:                  -4.537
REMARK INTRA:                  -0.365
REMARK UNBOUND:                -0.280
REMARK SMILES CCCCCCCC(=O)[O-]
REMARK SMILES IDX 5 1 6 2 7 3 8 4 9 5 10 6 4 7 3 8 2 9 1 10
REMARK H PARENT
REMARK Flexibility Score: inf
ROOT
ATOM      1  C   UNL     1       6.241  -9.266 -12.138  1.00  0.00     0.000 C 
ENDROOT
BRANCH   1   2
ATOM      2  C   UNL     1       5.011  -8.733 -12.887  1.00  0.00     0.006 C 
BRANCH   2   3
ATOM      3  C   UNL     1       4.923  -7.208 -12.780  1.00  0.00     0.053 C 
BRANCH   3   4
ATOM      4  C   UNL     1       5.050  -6.578 -14.131  1.00  0.00     0.041 C 
ATOM      5  O   UNL     1       4.875  -5.340 -14.271  1.00  0.00    -0.550 OA
ATOM      6  O   UNL     1       5.408  -7.351 -15.228  1.00  0.00    -0.550 OA
ENDBRANCH   3   4
ENDBRANCH   2   3
ENDBRANCH   1   2
BRANCH   1   7
ATOM      7  C   UNL     1       5.874  -9.988 -10.831  1.00  0.00     0.000 C 
BRANCH   7   8
ATOM      8  C   UNL     1       6.290  -9.194  -9.580  1.00  0.00    -0.000 C 
BRANCH   8   9
ATOM      9  C   UNL     1       5.222  -8.177  -9.148  1.00  0.00    -0.003 C 
ATOM     10  C   UNL     1       5.768  -7.108  -8.201  1.00  0.00     0.004 C 
ENDBRANCH   8   9
ENDBRANCH   7   8
ENDBRANCH   1   7
TORSDOF 6
ENDMDL
MODEL 6
REMARK VINA RESULT:    -3.383     16.810     17.823
REMARK INTER + INTRA:          -4.849
REMARK INTER:                  -4.606
REMARK INTRA:                  -0.244
REMARK UNBOUND:                -0.280
REMARK SMILES CCCCCCCC(=O)[O-]
REMARK SMILES IDX 5 1 6 2 7 3 8 4 9 5 10 6 4 7 3 8 2 9 1 10
REMARK H PARENT
REMARK Flexibility Score: inf
ROOT
ATOM      1  C   UNL     1      20.218 -17.257 -16.609  1.00  0.00     0.000 C 
ENDROOT
BRANCH   1   2
ATOM      2  C   UNL     1      19.657 -15.915 -16.116  1.00  0.00     0.006 C 
BRANCH   2   3
ATOM      3  C   UNL     1      18.380 -16.123 -15.298  1.00  0.00     0.053 C 
BRANCH   3   4
ATOM      4  C   UNL     1      17.338 -15.121 -15.687  1.00  0.00     0.041 C 
ATOM      5  O   UNL     1      17.117 -14.122 -14.955  1.00  0.00    -0.550 OA
ATOM      6  O   UNL     1      16.646 -15.265 -16.882  1.00  0.00    -0.550 OA
ENDBRANCH   3   4
ENDBRANCH   2   3
ENDBRANCH   1   2
BRANCH   1   7
ATOM      7  C   UNL     1      21.692 -17.165 -17.034  1.00  0.00     0.000 C 
BRANCH   7   8
ATOM      8  C   UNL     1      22.257 -15.740 -16.902  1.00  0.00    -0.000 C 
BRANCH   8   9
ATOM      9  C   UNL     1      23.610 -15.577 -17.613  1.00  0.00    -0.003 C 
ATOM     10  C   UNL     1      23.708 -16.400 -18.899  1.00  0.00     0.004 C 
ENDBRANCH   8   9
ENDBRANCH   7   8
ENDBRANCH   1   7
TORSDOF 6
ENDMDL
MODEL 7
REMARK VINA RESULT:    -3.383      1.509      2.372
REMARK INTER + INTRA:          -4.849
REMARK INTER:                  -4.738
REMARK INTRA:                  -0.111
REMARK UNBOUND:                -0.280
REMARK SMILES CCCCCCCC(=O)[O-]
REMARK SMILES IDX 5 1 6 2 7 3 8 4 9 5 10 6 4 7 3 8 2 9 1 10
REMARK H PARENT
REMARK Flexibility Score: inf
ROOT
ATOM      1  C   UNL     1       5.149  -8.533 -13.487  1.00  0.00     0.000 C 
ENDROOT
BRANCH   1   2
ATOM      2  C   UNL     1       6.021  -8.975 -12.302  1.00  0.00     0.006 C 
BRANCH   2   3
ATOM      3  C   UNL     1       5.157  -9.319 -11.085  1.00  0.00     0.053 C 
BRANCH   3   4
ATOM      4  C   UNL     1       5.806  -8.836  -9.827  1.00  0.00     0.041 C 
ATOM      5  O   UNL     1       6.878  -9.362  -9.426  1.00  0.00    -0.550 OA
ATOM      6  O   UNL     1       5.256  -7.774  -9.123  1.00  0.00    -0.550 OA
ENDBRANCH   3   4
ENDBRANCH   2   3
ENDBRANCH   1   2
BRANCH   1   7
ATOM      7  C   UNL     1       5.917  -7.667 -14.499  1.00  0.00     0.000 C 
BRANCH   7   8
ATOM      8  C   UNL     1       5.001  -7.078 -15.586  1.00  0.00    -0.000 C 
BRANCH   8   9
ATOM      9  C   UNL     1       4.875  -8.000 -16.810  1.00  0.00    -0.003 C 
ATOM     10  C   UNL     1       4.933  -7.239 -18.135  1.00  0.00     0.004 C 
ENDBRANCH   8   9
ENDBRANCH   7   8
ENDBRANCH   1   7
TORSDOF 6
ENDMDL
MODEL 8
REMARK VINA RESULT:    -3.337      2.215      3.742
REMARK INTER + INTRA:          -4.787
REMARK INTER:                  -4.561
REMARK INTRA:                  -0.225
REMARK UNBOUND:                -0.280
REMARK SMILES CCCCCCCC(=O)[O-]
REMARK SMILES IDX 5 1 6 2 7 3 8 4 9 5 10 6 4 7 3 8 2 9 1 10
REMARK H PARENT
REMARK Flexibility Score: inf
ROOT
ATOM      1  C   UNL     1       4.926  -6.315  -9.213  1.00  0.00     0.000 C 
ENDROOT
BRANCH   1   2
ATOM      2  C   UNL     1       5.759  -6.832  -8.031  1.00  0.00     0.006 C 
BRANCH   2   3
ATOM      3  C   UNL     1       6.201  -5.678  -7.127  1.00  0.00     0.053 C 
BRANCH   3   4
ATOM      4  C   UNL     1       7.351  -6.097  -6.266  1.00  0.00     0.041 C 
ATOM      5  O   UNL     1       7.295  -5.945  -5.017  1.00  0.00    -0.550 OA
ATOM      6  O   UNL     1       8.464  -6.700  -6.836  1.00  0.00    -0.550 OA
ENDBRANCH   3   4
ENDBRANCH   2   3
ENDBRANCH   1   2
BRANCH   1   7
ATOM      7  C   UNL     1       5.181  -7.101 -10.510  1.00  0.00     0.000 C 
BRANCH   7   8
ATOM      8  C   UNL     1       5.747  -8.507 -10.246  1.00  0.00    -0.000 C 
BRANCH   8   9
ATOM      9  C   UNL     1       5.968  -9.303 -11.542  1.00  0.00    -0.003 C 
ATOM     10  C   UNL     1       5.513  -8.544 -12.790  1.00  0.00     0.004 C 
ENDBRANCH   8   9
ENDBRANCH   7   8
ENDBRANCH   1   7
TORSDOF 6
ENDMDL
MODEL 9
REMARK VINA RESULT:    -3.327     17.403     18.473
REMARK INTER + INTRA:          -4.774
REMARK INTER:                  -4.564
REMARK INTRA:                  -0.210
REMARK UNBOUND:                -0.280
REMARK SMILES CCCCCCCC(=O)[O-]
REMARK SMILES IDX 5 1 6 2 7 3 8 4 9 5 10 6 4 7 3 8 2 9 1 10
REMARK H PARENT
REMARK Flexibility Score: inf
ROOT
ATOM      1  C   UNL     1      20.283 -17.292 -16.553  1.00  0.00     0.000 C 
ENDROOT
BRANCH   1   2
ATOM      2  C   UNL     1      21.707 -17.089 -17.094  1.00  0.00     0.006 C 
BRANCH   2   3
ATOM      3  C   UNL     1      22.193 -15.661 -16.831  1.00  0.00     0.053 C 
BRANCH   3   4
ATOM      4  C   UNL     1      23.688 -15.620 -16.766  1.00  0.00     0.041 C 
ATOM      5  O   UNL     1      24.331 -14.828 -17.504  1.00  0.00    -0.550 OA
ATOM      6  O   UNL     1      24.367 -16.420 -15.857  1.00  0.00    -0.550 OA
ENDBRANCH   3   4
ENDBRANCH   2   3
ENDBRANCH   1   2
BRANCH   1   7
ATOM      7  C   UNL     1      19.628 -15.979 -16.096  1.00  0.00     0.000 C 
BRANCH   7   8
ATOM      8  C   UNL     1      18.375 -16.213 -15.234  1.00  0.00    -0.000 C 
BRANCH   8   9
ATOM      9  C   UNL     1      17.380 -15.044 -15.316  1.00  0.00    -0.003 C 
ATOM     10  C   UNL     1      16.614 -15.008 -16.639  1.00  0.00     0.004 C 
ENDBRANCH   8   9
ENDBRANCH   7   8
ENDBRANCH   1   7
TORSDOF 6
ENDMDL
