MODEL 1
REMARK VINA RESULT:    -3.844      0.000      0.000
REMARK INTER + INTRA:          -5.416
REMARK INTER:                  -5.192
REMARK INTRA:                  -0.225
REMARK UNBOUND:                -0.225
REMARK SMILES CCCCCCC=CC(=O)[O-]
REMARK SMILES IDX 5 1 6 2 7 3 8 4 9 5 10 6 11 7 4 8 3 9 2 10 1 11
REMARK H PARENT
REMARK Flexibility Score: inf
ROOT
ATOM      1  C   UNL     1      -8.041  15.495 -12.529  1.00  0.00     0.004 C 
ENDROOT
BRANCH   1   2
ATOM      2  C   UNL     1      -9.175  16.535 -12.480  1.00  0.00     0.027 C 
BRANCH   2   3
ATOM      3  C   UNL     1      -8.663  17.947 -12.437  1.00  0.00    -0.025 C 
ATOM      4  C   UNL     1      -7.982  18.477 -13.458  1.00  0.00     0.020 C 
BRANCH   4   5
ATOM      5  C   UNL     1      -7.467  19.854 -13.434  1.00  0.00     0.064 C 
ATOM      6  O   UNL     1      -6.811  20.288 -12.449  1.00  0.00    -0.545 OA
ATOM      7  O   UNL     1      -7.709  20.693 -14.515  1.00  0.00    -0.545 OA
ENDBRANCH   4   5
ENDBRANCH   2   3
ENDBRANCH   1   2
BRANCH   1   8
ATOM      8  C   UNL     1      -8.013  14.641 -13.813  1.00  0.00     0.000 C 
BRANCH   8   9
ATOM      9  C   UNL     1      -7.503  13.201 -13.625  1.00  0.00    -0.000 C 
BRANCH   9  10
ATOM     10  C   UNL     1      -6.267  12.889 -14.481  1.00  0.00    -0.003 C 
ATOM     11  C   UNL     1      -5.092  12.454 -13.611  1.00  0.00     0.004 C 
ENDBRANCH   9  10
ENDBRANCH   8   9
ENDBRANCH   1   8
TORSDOF 6
ENDMDL
MODEL 2
REMARK VINA RESULT:    -3.662      3.283      5.791
REMARK INTER + INTRA:          -5.171
REMARK INTER:                  -4.856
REMARK INTRA:                  -0.314
REMARK UNBOUND:                -0.225
REMARK SMILES CCCCCCC=CC(=O)[O-]
REMARK SMILES IDX 5 1 6 2 7 3 8 4 9 5 10 6 11 7 4 8 3 9 2 10 1 11
REMARK H PARENT
REMARK Flexibility Score: inf
ROOT
ATOM      1  C   UNL     1      -8.633  18.020 -12.568  1.00  0.00     0.004 C 
ENDROOT
BRANCH   1   2
ATOM      2  C   UNL     1      -9.079  16.586 -12.230  1.00  0.00     0.027 C 
BRANCH   2   3
ATOM      3  C   UNL     1      -8.365  15.549 -13.050  1.00  0.00    -0.025 C 
ATOM      4  C   UNL     1      -7.624  14.594 -12.480  1.00  0.00     0.020 C 
BRANCH   4   5
ATOM      5  C   UNL     1      -6.913  13.573 -13.265  1.00  0.00     0.064 C 
ATOM      6  O   UNL     1      -5.667  13.417 -13.156  1.00  0.00    -0.545 OA
ATOM      7  O   UNL     1      -7.626  12.767 -14.143  1.00  0.00    -0.545 OA
ENDBRANCH   4   5
ENDBRANCH   2   3
ENDBRANCH   1   2
BRANCH   1   8
ATOM      8  C   UNL     1      -7.838  18.149 -13.884  1.00  0.00     0.000 C 
BRANCH   8   9
ATOM      9  C   UNL     1      -7.389  19.578 -14.235  1.00  0.00    -0.000 C 
BRANCH   9  10
ATOM     10  C   UNL     1      -7.204  20.467 -12.997  1.00  0.00    -0.003 C 
ATOM     11  C   UNL     1      -5.778  21.003 -12.912  1.00  0.00     0.004 C 
ENDBRANCH   9  10
ENDBRANCH   8   9
ENDBRANCH   1   8
TORSDOF 6
ENDMDL
MODEL 3
REMARK VINA RESULT:    -3.653      3.515      4.983
REMARK INTER + INTRA:          -5.159
REMARK INTER:                  -4.437
REMARK INTRA:                  -0.722
REMARK UNBOUND:                -0.225
REMARK SMILES CCCCCCC=CC(=O)[O-]
REMARK SMILES IDX 5 1 6 2 7 3 8 4 9 5 10 6 11 7 4 8 3 9 2 10 1 11
REMARK H PARENT
REMARK Flexibility Score: inf
ROOT
ATOM      1  C   UNL     1      -8.333  18.085 -12.993  1.00  0.00     0.004 C 
ENDROOT
BRANCH   1   2
ATOM      2  C   UNL     1      -9.091  16.806 -12.595  1.00  0.00     0.027 C 
BRANCH   2   3
ATOM      3  C   UNL     1      -8.495  15.567 -13.202  1.00  0.00    -0.025 C 
ATOM      4  C   UNL     1      -7.610  14.818 -12.536  1.00  0.00     0.020 C 
BRANCH   4   5
ATOM      5  C   UNL     1      -7.011  13.605 -13.114  1.00  0.00     0.064 C 
ATOM      6  O   UNL     1      -7.676  12.846 -13.870  1.00  0.00    -0.545 OA
ATOM      7  O   UNL     1      -5.690  13.290 -12.822  1.00  0.00    -0.545 OA
ENDBRANCH   4   5
ENDBRANCH   2   3
ENDBRANCH   1   2
BRANCH   1   8
ATOM      8  C   UNL     1      -7.865  18.119 -14.462  1.00  0.00     0.000 C 
BRANCH   8   9
ATOM      9  C   UNL     1      -6.435  18.646 -14.677  1.00  0.00    -0.000 C 
BRANCH   9  10
ATOM     10  C   UNL     1      -5.361  17.701 -14.120  1.00  0.00    -0.003 C 
ATOM     11  C   UNL     1      -5.273  16.421 -14.945  1.00  0.00     0.004 C 
ENDBRANCH   9  10
ENDBRANCH   8   9
ENDBRANCH   1   8
TORSDOF 6
ENDMDL
MODEL 4
REMARK VINA RESULT:    -3.210      1.201      1.629
REMARK INTER + INTRA:          -4.560
REMARK INTER:                  -4.250
REMARK INTRA:                  -0.310
REMARK UNBOUND:                -0.225
REMARK SMILES CCCCCCC=CC(=O)[O-]
REMARK SMILES IDX 5 1 6 2 7 3 8 4 9 5 10 6 11 7 4 8 3 9 2 10 1 11
REMARK H PARENT
REMARK Flexibility Score: inf
ROOT
ATOM      1  C   UNL     1      -7.974  16.475 -14.885  1.00  0.00     0.004 C 
ENDROOT
BRANCH   1   2
ATOM      2  C   UNL     1      -8.672  17.095 -13.661  1.00  0.00     0.027 C 
BRANCH   2   3
ATOM      3  C   UNL     1      -8.008  18.360 -13.195  1.00  0.00    -0.025 C 
ATOM      4  C   UNL     1      -7.087  18.982 -13.939  1.00  0.00     0.020 C 
BRANCH   4   5
ATOM      5  C   UNL     1      -6.422  20.218 -13.500  1.00  0.00     0.064 C 
ATOM      6  O   UNL     1      -5.767  20.929 -14.309  1.00  0.00    -0.545 OA
ATOM      7  O   UNL     1      -6.516  20.609 -12.170  1.00  0.00    -0.545 OA
ENDBRANCH   4   5
ENDBRANCH   2   3
ENDBRANCH   1   2
BRANCH   1   8
ATOM      8  C   UNL     1      -7.109  15.237 -14.569  1.00  0.00     0.000 C 
BRANCH   8   9
ATOM      9  C   UNL     1      -7.688  14.297 -13.496  1.00  0.00    -0.000 C 
BRANCH   9  10
ATOM     10  C   UNL     1      -7.283  12.831 -13.705  1.00  0.00    -0.003 C 
ATOM     11  C   UNL     1      -5.765  12.678 -13.724  1.00  0.00     0.004 C 
ENDBRANCH   9  10
ENDBRANCH   8   9
ENDBRANCH   1   8
TORSDOF 6
ENDMDL
MODEL 5
REMARK VINA RESULT:    -3.138      2.353      3.116
REMARK INTER + INTRA:          -4.463
REMARK INTER:                  -4.169
REMARK INTRA:                  -0.294
REMARK UNBOUND:                -0.225
REMARK SMILES CCCCCCC=CC(=O)[O-]
REMARK SMILES IDX 5 1 6 2 7 3 8 4 9 5 10 6 11 7 4 8 3 9 2 10 1 11
REMARK H PARENT
REMARK Flexibility Score: inf
ROOT
ATOM      1  C   UNL     1      -4.928  15.462 -14.539  1.00  0.00     0.004 C 
ENDROOT
BRANCH   1   2
ATOM      2  C   UNL     1      -5.329  16.853 -15.062  1.00  0.00     0.027 C 
BRANCH   2   3
ATOM      3  C   UNL     1      -6.408  17.493 -14.236  1.00  0.00    -0.025 C 
ATOM      4  C   UNL     1      -7.487  16.808 -13.841  1.00  0.00     0.020 C 
BRANCH   4   5
ATOM      5  C   UNL     1      -8.557  17.417 -13.036  1.00  0.00     0.064 C 
ATOM      6  O   UNL     1      -8.421  18.565 -12.532  1.00  0.00    -0.545 OA
ATOM      7  O   UNL     1      -9.738  16.717 -12.828  1.00  0.00    -0.545 OA
ENDBRANCH   4   5
ENDBRANCH   2   3
ENDBRANCH   1   2
BRANCH   1   8
ATOM      8  C   UNL     1      -5.752  14.297 -15.125  1.00  0.00     0.000 C 
BRANCH   8   9
ATOM      9  C   UNL     1      -5.873  13.063 -14.212  1.00  0.00    -0.000 C 
BRANCH   9  10
ATOM     10  C   UNL     1      -7.328  12.703 -13.884  1.00  0.00    -0.003 C 
ATOM     11  C   UNL     1      -8.298  13.444 -14.800  1.00  0.00     0.004 C 
ENDBRANCH   9  10
ENDBRANCH   8   9
ENDBRANCH   1   8
TORSDOF 6
ENDMDL
MODEL 6
REMARK VINA RESULT:    -3.135      3.706      6.187
REMARK INTER + INTRA:          -4.460
REMARK INTER:                  -4.130
REMARK INTRA:                  -0.330
REMARK UNBOUND:                -0.225
REMARK SMILES CCCCCCC=CC(=O)[O-]
REMARK SMILES IDX 5 1 6 2 7 3 8 4 9 5 10 6 11 7 4 8 3 9 2 10 1 11
REMARK H PARENT
REMARK Flexibility Score: inf
ROOT
ATOM      1  C   UNL     1      -7.967  18.055 -13.837  1.00  0.00     0.004 C 
ENDROOT
BRANCH   1   2
ATOM      2  C   UNL     1      -6.893  16.970 -13.644  1.00  0.00     0.027 C 
BRANCH   2   3
ATOM      3  C   UNL     1      -7.478  15.591 -13.526  1.00  0.00    -0.025 C 
ATOM      4  C   UNL     1      -7.713  14.836 -14.604  1.00  0.00     0.020 C 
BRANCH   4   5
ATOM      5  C   UNL     1      -8.290  13.486 -14.511  1.00  0.00     0.064 C 
ATOM      6  O   UNL     1      -9.381  13.203 -15.075  1.00  0.00    -0.545 OA
ATOM      7  O   UNL     1      -7.622  12.506 -13.789  1.00  0.00    -0.545 OA
ENDBRANCH   4   5
ENDBRANCH   2   3
ENDBRANCH   1   2
BRANCH   1   8
ATOM      8  C   UNL     1      -7.651  19.077 -14.948  1.00  0.00     0.000 C 
BRANCH   8   9
ATOM      9  C   UNL     1      -7.668  20.550 -14.500  1.00  0.00    -0.000 C 
BRANCH   9  10
ATOM     10  C   UNL     1      -7.041  20.761 -13.115  1.00  0.00    -0.003 C 
ATOM     11  C   UNL     1      -5.517  20.759 -13.196  1.00  0.00     0.004 C 
ENDBRANCH   9  10
ENDBRANCH   8   9
ENDBRANCH   1   8
TORSDOF 6
ENDMDL
MODEL 7
REMARK VINA RESULT:    -3.114      3.533      5.584
REMARK INTER + INTRA:          -4.431
REMARK INTER:                  -3.872
REMARK INTRA:                  -0.559
REMARK UNBOUND:                -0.225
REMARK SMILES CCCCCCC=CC(=O)[O-]
REMARK SMILES IDX 5 1 6 2 7 3 8 4 9 5 10 6 11 7 4 8 3 9 2 10 1 11
REMARK H PARENT
REMARK Flexibility Score: inf
ROOT
ATOM      1  C   UNL     1      -5.801  18.031 -14.680  1.00  0.00     0.004 C 
ENDROOT
BRANCH   1   2
ATOM      2  C   UNL     1      -5.269  16.589 -14.776  1.00  0.00     0.027 C 
BRANCH   2   3
ATOM      3  C   UNL     1      -6.368  15.577 -14.936  1.00  0.00    -0.025 C 
ATOM      4  C   UNL     1      -6.640  14.682 -13.979  1.00  0.00     0.020 C 
BRANCH   4   5
ATOM      5  C   UNL     1      -7.707  13.680 -14.118  1.00  0.00     0.064 C 
ATOM      6  O   UNL     1      -7.563  12.509 -13.674  1.00  0.00    -0.545 OA
ATOM      7  O   UNL     1      -8.894  14.028 -14.749  1.00  0.00    -0.545 OA
ENDBRANCH   4   5
ENDBRANCH   2   3
ENDBRANCH   1   2
BRANCH   1   8
ATOM      8  C   UNL     1      -7.338  18.143 -14.630  1.00  0.00     0.000 C 
BRANCH   8   9
ATOM      9  C   UNL     1      -7.885  19.101 -13.556  1.00  0.00    -0.000 C 
BRANCH   9  10
ATOM     10  C   UNL     1      -8.622  18.371 -12.424  1.00  0.00    -0.003 C 
ATOM     11  C   UNL     1      -9.123  17.006 -12.884  1.00  0.00     0.004 C 
ENDBRANCH   9  10
ENDBRANCH   8   9
ENDBRANCH   1   8
TORSDOF 6
ENDMDL
