MODEL 1
REMARK VINA RESULT:    -3.927      0.000      0.000
REMARK INTER + INTRA:          -8.800
REMARK INTER:                  -7.141
REMARK INTRA:                  -1.659
REMARK UNBOUND:                -1.659
REMARK SMILES CCCCCCCCCCCCCCCC(=O)[O-]
REMARK SMILES IDX 9 1 10 2 11 3 12 4 13 5 14 6 15 7 16 8 17 9 18 10 8 11 7 12
REMARK SMILES IDX 6 13 5 14 4 15 3 16 2 17 1 18
REMARK H PARENT
REMARK Flexibility Score: inf
ROOT
ATOM      1  C   UNL     1    -116.787  11.659  20.785  1.00  0.00     0.000 C 
ENDROOT
BRANCH   1   2
ATOM      2  C   UNL     1    -115.596  10.698  20.933  1.00  0.00     0.000 C 
BRANCH   2   3
ATOM      3  C   UNL     1    -115.275  10.363  22.398  1.00  0.00     0.000 C 
BRANCH   3   4
ATOM      4  C   UNL     1    -116.393  10.815  23.361  1.00  0.00     0.000 C 
BRANCH   4   5
ATOM      5  C   UNL     1    -115.868  11.376  24.697  1.00  0.00     0.000 C 
BRANCH   5   6
ATOM      6  C   UNL     1    -114.545  12.160  24.596  1.00  0.00     0.006 C 
BRANCH   6   7
ATOM      7  C   UNL     1    -113.479  11.735  25.620  1.00  0.00     0.053 C 
BRANCH   7   8
ATOM      8  C   UNL     1    -112.476  10.795  25.025  1.00  0.00     0.041 C 
ATOM      9  O   UNL     1    -112.218   9.701  25.592  1.00  0.00    -0.550 OA
ATOM     10  O   UNL     1    -111.850  11.113  23.825  1.00  0.00    -0.550 OA
ENDBRANCH   7   8
ENDBRANCH   6   7
ENDBRANCH   5   6
ENDBRANCH   4   5
ENDBRANCH   3   4
ENDBRANCH   2   3
ENDBRANCH   1   2
BRANCH   1  11
ATOM     11  C   UNL     1    -117.237  11.866  19.323  1.00  0.00     0.000 C 
BRANCH  11  12
ATOM     12  C   UNL     1    -118.492  12.749  19.221  1.00  0.00    -0.000 C 
BRANCH  12  13
ATOM     13  C   UNL     1    -118.163  14.246  19.080  1.00  0.00    -0.000 C 
BRANCH  13  14
ATOM     14  C   UNL     1    -118.387  15.084  20.352  1.00  0.00    -0.000 C 
BRANCH  14  15
ATOM     15  C   UNL     1    -119.626  14.640  21.151  1.00  0.00    -0.000 C 
BRANCH  15  16
ATOM     16  C   UNL     1    -119.407  14.741  22.676  1.00  0.00    -0.000 C 
BRANCH  16  17
ATOM     17  C   UNL     1    -118.056  14.177  23.146  1.00  0.00    -0.003 C 
ATOM     18  C   UNL     1    -117.442  14.973  24.295  1.00  0.00     0.004 C 
ENDBRANCH  16  17
ENDBRANCH  15  16
ENDBRANCH  14  15
ENDBRANCH  13  14
ENDBRANCH  12  13
ENDBRANCH  11  12
ENDBRANCH   1  11
TORSDOF 14
ENDMDL
MODEL 2
REMARK VINA RESULT:    -3.835      3.397      6.821
REMARK INTER + INTRA:          -8.632
REMARK INTER:                  -6.841
REMARK INTRA:                  -1.791
REMARK UNBOUND:                -1.659
REMARK SMILES CCCCCCCCCCCCCCCC(=O)[O-]
REMARK SMILES IDX 9 1 10 2 11 3 12 4 13 5 14 6 15 7 16 8 17 9 18 10 8 11 7 12
REMARK SMILES IDX 6 13 5 14 4 15 3 16 2 17 1 18
REMARK H PARENT
REMARK Flexibility Score: inf
ROOT
ATOM      1  C   UNL     1    -116.770  13.765  23.767  1.00  0.00     0.000 C 
ENDROOT
BRANCH   1   2
ATOM      2  C   UNL     1    -117.877  14.791  24.062  1.00  0.00     0.000 C 
BRANCH   2   3
ATOM      3  C   UNL     1    -119.235  14.396  23.461  1.00  0.00     0.000 C 
BRANCH   3   4
ATOM      4  C   UNL     1    -119.598  15.245  22.224  1.00  0.00     0.000 C 
BRANCH   4   5
ATOM      5  C   UNL     1    -119.527  14.465  20.896  1.00  0.00     0.000 C 
BRANCH   5   6
ATOM      6  C   UNL     1    -118.186  14.579  20.148  1.00  0.00     0.006 C 
BRANCH   6   7
ATOM      7  C   UNL     1    -117.932  13.455  19.129  1.00  0.00     0.053 C 
BRANCH   7   8
ATOM      8  C   UNL     1    -117.678  13.993  17.755  1.00  0.00     0.041 C 
ATOM      9  O   UNL     1    -117.012  13.321  16.924  1.00  0.00    -0.550 OA
ATOM     10  O   UNL     1    -118.205  15.223  17.380  1.00  0.00    -0.550 OA
ENDBRANCH   7   8
ENDBRANCH   6   7
ENDBRANCH   5   6
ENDBRANCH   4   5
ENDBRANCH   3   4
ENDBRANCH   2   3
ENDBRANCH   1   2
BRANCH   1  11
ATOM     11  C   UNL     1    -117.301  12.425  23.215  1.00  0.00     0.000 C 
BRANCH  11  12
ATOM     12  C   UNL     1    -116.411  11.866  22.091  1.00  0.00    -0.000 C 
BRANCH  12  13
ATOM     13  C   UNL     1    -115.563  10.662  22.539  1.00  0.00    -0.000 C 
BRANCH  13  14
ATOM     14  C   UNL     1    -115.804  10.201  23.988  1.00  0.00    -0.000 C 
BRANCH  14  15
ATOM     15  C   UNL     1    -114.528  10.241  24.850  1.00  0.00    -0.000 C 
BRANCH  15  16
ATOM     16  C   UNL     1    -114.175  11.672  25.308  1.00  0.00    -0.000 C 
BRANCH  16  17
ATOM     17  C   UNL     1    -112.773  12.132  24.873  1.00  0.00    -0.003 C 
ATOM     18  C   UNL     1    -112.013  11.071  24.080  1.00  0.00     0.004 C 
ENDBRANCH  16  17
ENDBRANCH  15  16
ENDBRANCH  14  15
ENDBRANCH  13  14
ENDBRANCH  12  13
ENDBRANCH  11  12
ENDBRANCH   1  11
TORSDOF 14
ENDMDL
MODEL 3
REMARK VINA RESULT:    -3.800      2.831      6.744
REMARK INTER + INTRA:          -8.569
REMARK INTER:                  -7.013
REMARK INTRA:                  -1.555
REMARK UNBOUND:                -1.659
REMARK SMILES CCCCCCCCCCCCCCCC(=O)[O-]
REMARK SMILES IDX 9 1 10 2 11 3 12 4 13 5 14 6 15 7 16 8 17 9 18 10 8 11 7 12
REMARK SMILES IDX 6 13 5 14 4 15 3 16 2 17 1 18
REMARK H PARENT
REMARK Flexibility Score: inf
ROOT
ATOM      1  C   UNL     1    -116.575  11.512  23.290  1.00  0.00     0.000 C 
ENDROOT
BRANCH   1   2
ATOM      2  C   UNL     1    -116.210  10.923  21.917  1.00  0.00     0.000 C 
BRANCH   2   3
ATOM      3  C   UNL     1    -116.581  11.852  20.750  1.00  0.00     0.000 C 
BRANCH   3   4
ATOM      4  C   UNL     1    -117.990  12.461  20.910  1.00  0.00     0.000 C 
BRANCH   4   5
ATOM      5  C   UNL     1    -118.038  13.981  20.657  1.00  0.00     0.000 C 
BRANCH   5   6
ATOM      6  C   UNL     1    -118.843  14.785  21.695  1.00  0.00     0.006 C 
BRANCH   6   7
ATOM      7  C   UNL     1    -119.337  13.957  22.893  1.00  0.00     0.053 C 
BRANCH   7   8
ATOM      8  C   UNL     1    -118.694  14.389  24.175  1.00  0.00     0.041 C 
ATOM      9  O   UNL     1    -119.302  14.247  25.268  1.00  0.00    -0.550 OA
ATOM     10  O   UNL     1    -117.409  14.918  24.165  1.00  0.00    -0.550 OA
ENDBRANCH   7   8
ENDBRANCH   6   7
ENDBRANCH   5   6
ENDBRANCH   4   5
ENDBRANCH   3   4
ENDBRANCH   2   3
ENDBRANCH   1   2
BRANCH   1  11
ATOM     11  C   UNL     1    -115.516  11.241  24.379  1.00  0.00     0.000 C 
BRANCH  11  12
ATOM     12  C   UNL     1    -114.565  12.435  24.574  1.00  0.00    -0.000 C 
BRANCH  12  13
ATOM     13  C   UNL     1    -113.193  12.023  25.137  1.00  0.00    -0.000 C 
BRANCH  13  14
ATOM     14  C   UNL     1    -113.104  10.569  25.636  1.00  0.00    -0.000 C 
BRANCH  14  15
ATOM     15  C   UNL     1    -112.041   9.744  24.888  1.00  0.00    -0.000 C 
BRANCH  15  16
ATOM     16  C   UNL     1    -111.591  10.418  23.575  1.00  0.00    -0.000 C 
BRANCH  16  17
ATOM     17  C   UNL     1    -111.564   9.466  22.368  1.00  0.00    -0.003 C 
ATOM     18  C   UNL     1    -112.938   9.259  21.736  1.00  0.00     0.004 C 
ENDBRANCH  16  17
ENDBRANCH  15  16
ENDBRANCH  14  15
ENDBRANCH  13  14
ENDBRANCH  12  13
ENDBRANCH  11  12
ENDBRANCH   1  11
TORSDOF 14
ENDMDL
MODEL 4
REMARK VINA RESULT:    -3.795      1.708      3.848
REMARK INTER + INTRA:          -8.560
REMARK INTER:                  -6.213
REMARK INTRA:                  -2.347
REMARK UNBOUND:                -1.659
REMARK SMILES CCCCCCCCCCCCCCCC(=O)[O-]
REMARK SMILES IDX 9 1 10 2 11 3 12 4 13 5 14 6 15 7 16 8 17 9 18 10 8 11 7 12
REMARK SMILES IDX 6 13 5 14 4 15 3 16 2 17 1 18
REMARK H PARENT
REMARK Flexibility Score: inf
ROOT
ATOM      1  C   UNL     1    -119.928  13.256  24.604  1.00  0.00     0.000 C 
ENDROOT
BRANCH   1   2
ATOM      2  C   UNL     1    -119.531  11.844  25.063  1.00  0.00     0.000 C 
BRANCH   2   3
ATOM      3  C   UNL     1    -119.575  10.810  23.927  1.00  0.00     0.000 C 
BRANCH   3   4
ATOM      4  C   UNL     1    -118.164  10.410  23.444  1.00  0.00     0.000 C 
BRANCH   4   5
ATOM      5  C   UNL     1    -117.037  10.842  24.402  1.00  0.00     0.000 C 
BRANCH   5   6
ATOM      6  C   UNL     1    -115.728  11.269  23.712  1.00  0.00     0.006 C 
BRANCH   6   7
ATOM      7  C   UNL     1    -114.961  12.383  24.445  1.00  0.00     0.053 C 
BRANCH   7   8
ATOM      8  C   UNL     1    -113.722  11.864  25.108  1.00  0.00     0.041 C 
ATOM      9  O   UNL     1    -113.788  10.885  25.897  1.00  0.00    -0.550 OA
ATOM     10  O   UNL     1    -112.490  12.443  24.831  1.00  0.00    -0.550 OA
ENDBRANCH   7   8
ENDBRANCH   6   7
ENDBRANCH   5   6
ENDBRANCH   4   5
ENDBRANCH   3   4
ENDBRANCH   2   3
ENDBRANCH   1   2
BRANCH   1  11
ATOM     11  C   UNL     1    -118.825  14.312  24.829  1.00  0.00     0.000 C 
BRANCH  11  12
ATOM     12  C   UNL     1    -118.086  14.665  23.526  1.00  0.00    -0.000 C 
BRANCH  12  13
ATOM     13  C   UNL     1    -119.037  14.882  22.336  1.00  0.00    -0.000 C 
BRANCH  13  14
ATOM     14  C   UNL     1    -118.550  14.294  20.999  1.00  0.00    -0.000 C 
BRANCH  14  15
ATOM     15  C   UNL     1    -117.527  13.158  21.182  1.00  0.00    -0.000 C 
BRANCH  15  16
ATOM     16  C   UNL     1    -117.738  12.011  20.171  1.00  0.00    -0.000 C 
BRANCH  16  17
ATOM     17  C   UNL     1    -116.442  11.277  19.788  1.00  0.00    -0.003 C 
ATOM     18  C   UNL     1    -116.391   9.841  20.303  1.00  0.00     0.004 C 
ENDBRANCH  16  17
ENDBRANCH  15  16
ENDBRANCH  14  15
ENDBRANCH  13  14
ENDBRANCH  12  13
ENDBRANCH  11  12
ENDBRANCH   1  11
TORSDOF 14
ENDMDL
MODEL 5
REMARK VINA RESULT:    -3.772      1.340      3.589
REMARK INTER + INTRA:          -8.519
REMARK INTER:                  -6.669
REMARK INTRA:                  -1.850
REMARK UNBOUND:                -1.659
REMARK SMILES CCCCCCCCCCCCCCCC(=O)[O-]
REMARK SMILES IDX 9 1 10 2 11 3 12 4 13 5 14 6 15 7 16 8 17 9 18 10 8 11 7 12
REMARK SMILES IDX 6 13 5 14 4 15 3 16 2 17 1 18
REMARK H PARENT
REMARK Flexibility Score: inf
ROOT
ATOM      1  C   UNL     1    -116.479  13.177  23.837  1.00  0.00     0.000 C 
ENDROOT
BRANCH   1   2
ATOM      2  C   UNL     1    -117.456  11.995  23.951  1.00  0.00     0.000 C 
BRANCH   2   3
ATOM      3  C   UNL     1    -117.167  10.878  22.936  1.00  0.00     0.000 C 
BRANCH   3   4
ATOM      4  C   UNL     1    -115.969  11.212  22.022  1.00  0.00     0.000 C 
BRANCH   4   5
ATOM      5  C   UNL     1    -114.884  10.118  21.999  1.00  0.00     0.000 C 
BRANCH   5   6
ATOM      6  C   UNL     1    -114.313   9.742  23.380  1.00  0.00     0.006 C 
BRANCH   6   7
ATOM      7  C   UNL     1    -113.018  10.483  23.751  1.00  0.00     0.053 C 
BRANCH   7   8
ATOM      8  C   UNL     1    -113.233  11.461  24.865  1.00  0.00     0.041 C 
ATOM      9  O   UNL     1    -112.486  12.468  24.977  1.00  0.00    -0.550 OA
ATOM     10  O   UNL     1    -114.280  11.276  25.761  1.00  0.00    -0.550 OA
ENDBRANCH   7   8
ENDBRANCH   6   7
ENDBRANCH   5   6
ENDBRANCH   4   5
ENDBRANCH   3   4
ENDBRANCH   2   3
ENDBRANCH   1   2
BRANCH   1  11
ATOM     11  C   UNL     1    -117.153  14.555  24.004  1.00  0.00     0.000 C 
BRANCH  11  12
ATOM     12  C   UNL     1    -118.688  14.460  23.959  1.00  0.00    -0.000 C 
BRANCH  12  13
ATOM     13  C   UNL     1    -119.288  15.051  22.671  1.00  0.00    -0.000 C 
BRANCH  13  14
ATOM     14  C   UNL     1    -119.328  14.087  21.471  1.00  0.00    -0.000 C 
BRANCH  14  15
ATOM     15  C   UNL     1    -118.278  14.425  20.397  1.00  0.00    -0.000 C 
BRANCH  15  16
ATOM     16  C   UNL     1    -117.881  13.192  19.557  1.00  0.00    -0.000 C 
BRANCH  16  17
ATOM     17  C   UNL     1    -117.608  13.513  18.077  1.00  0.00    -0.003 C 
ATOM     18  C   UNL     1    -117.628  15.009  17.775  1.00  0.00     0.004 C 
ENDBRANCH  16  17
ENDBRANCH  15  16
ENDBRANCH  14  15
ENDBRANCH  13  14
ENDBRANCH  12  13
ENDBRANCH  11  12
ENDBRANCH   1  11
TORSDOF 14
ENDMDL
MODEL 6
REMARK VINA RESULT:    -3.698      1.286      3.814
REMARK INTER + INTRA:          -8.383
REMARK INTER:                  -6.945
REMARK INTRA:                  -1.438
REMARK UNBOUND:                -1.659
REMARK SMILES CCCCCCCCCCCCCCCC(=O)[O-]
REMARK SMILES IDX 9 1 10 2 11 3 12 4 13 5 14 6 15 7 16 8 17 9 18 10 8 11 7 12
REMARK SMILES IDX 6 13 5 14 4 15 3 16 2 17 1 18
REMARK H PARENT
REMARK Flexibility Score: inf
ROOT
ATOM      1  C   UNL     1    -118.328  14.877  23.339  1.00  0.00     0.000 C 
ENDROOT
BRANCH   1   2
ATOM      2  C   UNL     1    -118.716  13.745  24.305  1.00  0.00     0.000 C 
BRANCH   2   3
ATOM      3  C   UNL     1    -117.850  12.487  24.132  1.00  0.00     0.000 C 
BRANCH   3   4
ATOM      4  C   UNL     1    -116.403  12.825  23.713  1.00  0.00     0.000 C 
BRANCH   4   5
ATOM      5  C   UNL     1    -115.520  11.583  23.485  1.00  0.00     0.000 C 
BRANCH   5   6
ATOM      6  C   UNL     1    -115.143  10.811  24.764  1.00  0.00     0.006 C 
BRANCH   6   7
ATOM      7  C   UNL     1    -114.072  11.500  25.625  1.00  0.00     0.053 C 
BRANCH   7   8
ATOM      8  C   UNL     1    -112.732  11.500  24.956  1.00  0.00     0.041 C 
ATOM      9  O   UNL     1    -112.250  12.570  24.502  1.00  0.00    -0.550 OA
ATOM     10  O   UNL     1    -112.001  10.321  24.862  1.00  0.00    -0.550 OA
ENDBRANCH   7   8
ENDBRANCH   6   7
ENDBRANCH   5   6
ENDBRANCH   4   5
ENDBRANCH   3   4
ENDBRANCH   2   3
ENDBRANCH   1   2
BRANCH   1  11
ATOM     11  C   UNL     1    -119.407  15.181  22.279  1.00  0.00     0.000 C 
BRANCH  11  12
ATOM     12  C   UNL     1    -118.863  15.055  20.845  1.00  0.00    -0.000 C 
BRANCH  12  13
ATOM     13  C   UNL     1    -118.241  13.676  20.558  1.00  0.00    -0.000 C 
BRANCH  13  14
ATOM     14  C   UNL     1    -117.873  13.423  19.085  1.00  0.00    -0.000 C 
BRANCH  14  15
ATOM     15  C   UNL     1    -117.384  11.986  18.829  1.00  0.00    -0.000 C 
BRANCH  15  16
ATOM     16  C   UNL     1    -116.796  11.331  20.097  1.00  0.00    -0.000 C 
BRANCH  16  17
ATOM     17  C   UNL     1    -115.626  10.374  19.815  1.00  0.00    -0.003 C 
ATOM     18  C   UNL     1    -115.551   9.934  18.355  1.00  0.00     0.004 C 
ENDBRANCH  16  17
ENDBRANCH  15  16
ENDBRANCH  14  15
ENDBRANCH  13  14
ENDBRANCH  12  13
ENDBRANCH  11  12
ENDBRANCH   1  11
TORSDOF 14
ENDMDL
MODEL 7
REMARK VINA RESULT:    -3.654      3.039      6.389
REMARK INTER + INTRA:          -8.303
REMARK INTER:                  -6.374
REMARK INTRA:                  -1.929
REMARK UNBOUND:                -1.659
REMARK SMILES CCCCCCCCCCCCCCCC(=O)[O-]
REMARK SMILES IDX 9 1 10 2 11 3 12 4 13 5 14 6 15 7 16 8 17 9 18 10 8 11 7 12
REMARK SMILES IDX 6 13 5 14 4 15 3 16 2 17 1 18
REMARK H PARENT
REMARK Flexibility Score: inf
ROOT
ATOM      1  C   UNL     1    -114.885  12.616  24.521  1.00  0.00     0.000 C 
ENDROOT
BRANCH   1   2
ATOM      2  C   UNL     1    -115.964  12.078  23.567  1.00  0.00     0.000 C 
BRANCH   2   3
ATOM      3  C   UNL     1    -117.003  11.195  24.275  1.00  0.00     0.000 C 
BRANCH   3   4
ATOM      4  C   UNL     1    -118.222  10.891  23.379  1.00  0.00     0.000 C 
BRANCH   4   5
ATOM      5  C   UNL     1    -119.512  11.606  23.826  1.00  0.00     0.000 C 
BRANCH   5   6
ATOM      6  C   UNL     1    -119.312  12.692  24.899  1.00  0.00     0.006 C 
BRANCH   6   7
ATOM      7  C   UNL     1    -119.571  14.125  24.404  1.00  0.00     0.053 C 
BRANCH   7   8
ATOM      8  C   UNL     1    -118.389  14.688  23.677  1.00  0.00     0.041 C 
ATOM      9  O   UNL     1    -117.442  15.213  24.319  1.00  0.00    -0.550 OA
ATOM     10  O   UNL     1    -118.319  14.603  22.292  1.00  0.00    -0.550 OA
ENDBRANCH   7   8
ENDBRANCH   6   7
ENDBRANCH   5   6
ENDBRANCH   4   5
ENDBRANCH   3   4
ENDBRANCH   2   3
ENDBRANCH   1   2
BRANCH   1  11
ATOM     11  C   UNL     1    -114.124  11.509  25.281  1.00  0.00     0.000 C 
BRANCH  11  12
ATOM     12  C   UNL     1    -112.619  11.514  24.960  1.00  0.00    -0.000 C 
BRANCH  12  13
ATOM     13  C   UNL     1    -112.162  10.251  24.208  1.00  0.00    -0.000 C 
BRANCH  13  14
ATOM     14  C   UNL     1    -113.301   9.382  23.644  1.00  0.00    -0.000 C 
BRANCH  14  15
ATOM     15  C   UNL     1    -113.438   9.491  22.115  1.00  0.00    -0.000 C 
BRANCH  15  16
ATOM     16  C   UNL     1    -114.905   9.387  21.648  1.00  0.00    -0.000 C 
BRANCH  16  17
ATOM     17  C   UNL     1    -115.138   9.904  20.219  1.00  0.00    -0.003 C 
ATOM     18  C   UNL     1    -116.241  10.957  20.134  1.00  0.00     0.004 C 
ENDBRANCH  16  17
ENDBRANCH  15  16
ENDBRANCH  14  15
ENDBRANCH  13  14
ENDBRANCH  12  13
ENDBRANCH  11  12
ENDBRANCH   1  11
TORSDOF 14
ENDMDL
MODEL 8
REMARK VINA RESULT:    -3.650      1.109      3.142
REMARK INTER + INTRA:          -8.296
REMARK INTER:                  -6.709
REMARK INTRA:                  -1.587
REMARK UNBOUND:                -1.659
REMARK SMILES CCCCCCCCCCCCCCCC(=O)[O-]
REMARK SMILES IDX 9 1 10 2 11 3 12 4 13 5 14 6 15 7 16 8 17 9 18 10 8 11 7 12
REMARK SMILES IDX 6 13 5 14 4 15 3 16 2 17 1 18
REMARK H PARENT
REMARK Flexibility Score: inf
ROOT
ATOM      1  C   UNL     1    -117.105  13.734  23.768  1.00  0.00     0.000 C 
ENDROOT
BRANCH   1   2
ATOM      2  C   UNL     1    -117.051  12.700  22.631  1.00  0.00     0.000 C 
BRANCH   2   3
ATOM      3  C   UNL     1    -116.077  11.547  22.917  1.00  0.00     0.000 C 
BRANCH   3   4
ATOM      4  C   UNL     1    -116.271  10.951  24.327  1.00  0.00     0.000 C 
BRANCH   4   5
ATOM      5  C   UNL     1    -115.006  11.015  25.205  1.00  0.00     0.000 C 
BRANCH   5   6
ATOM      6  C   UNL     1    -113.973  12.074  24.778  1.00  0.00     0.006 C 
BRANCH   6   7
ATOM      7  C   UNL     1    -112.510  11.662  25.011  1.00  0.00     0.053 C 
BRANCH   7   8
ATOM      8  C   UNL     1    -112.182  10.365  24.338  1.00  0.00     0.041 C 
ATOM      9  O   UNL     1    -112.490  10.181  23.131  1.00  0.00    -0.550 OA
ATOM     10  O   UNL     1    -111.505   9.370  25.035  1.00  0.00    -0.550 OA
ENDBRANCH   7   8
ENDBRANCH   6   7
ENDBRANCH   5   6
ENDBRANCH   4   5
ENDBRANCH   3   4
ENDBRANCH   2   3
ENDBRANCH   1   2
BRANCH   1  11
ATOM     11  C   UNL     1    -118.486  14.403  23.929  1.00  0.00     0.000 C 
BRANCH  11  12
ATOM     12  C   UNL     1    -119.454  14.018  22.797  1.00  0.00    -0.000 C 
BRANCH  12  13
ATOM     13  C   UNL     1    -119.776  15.194  21.857  1.00  0.00    -0.000 C 
BRANCH  13  14
ATOM     14  C   UNL     1    -118.937  15.245  20.568  1.00  0.00    -0.000 C 
BRANCH  14  15
ATOM     15  C   UNL     1    -119.209  14.056  19.628  1.00  0.00    -0.000 C 
BRANCH  15  16
ATOM     16  C   UNL     1    -117.910  13.355  19.177  1.00  0.00    -0.000 C 
BRANCH  16  17
ATOM     17  C   UNL     1    -117.965  11.822  19.285  1.00  0.00    -0.003 C 
ATOM     18  C   UNL     1    -116.595  11.162  19.144  1.00  0.00     0.004 C 
ENDBRANCH  16  17
ENDBRANCH  15  16
ENDBRANCH  14  15
ENDBRANCH  13  14
ENDBRANCH  12  13
ENDBRANCH  11  12
ENDBRANCH   1  11
TORSDOF 14
ENDMDL
MODEL 9
REMARK VINA RESULT:    -3.580      2.804      6.322
REMARK INTER + INTRA:          -8.168
REMARK INTER:                  -6.264
REMARK INTRA:                  -1.904
REMARK UNBOUND:                -1.659
REMARK SMILES CCCCCCCCCCCCCCCC(=O)[O-]
REMARK SMILES IDX 9 1 10 2 11 3 12 4 13 5 14 6 15 7 16 8 17 9 18 10 8 11 7 12
REMARK SMILES IDX 6 13 5 14 4 15 3 16 2 17 1 18
REMARK H PARENT
REMARK Flexibility Score: inf
ROOT
ATOM      1  C   UNL     1    -116.728  12.582  23.115  1.00  0.00     0.000 C 
ENDROOT
BRANCH   1   2
ATOM      2  C   UNL     1    -116.469  13.696  24.143  1.00  0.00     0.000 C 
BRANCH   2   3
ATOM      3  C   UNL     1    -117.507  14.827  24.074  1.00  0.00     0.000 C 
BRANCH   3   4
ATOM      4  C   UNL     1    -118.818  14.379  23.393  1.00  0.00     0.000 C 
BRANCH   4   5
ATOM      5  C   UNL     1    -119.109  15.113  22.070  1.00  0.00     0.000 C 
BRANCH   5   6
ATOM      6  C   UNL     1    -119.332  14.194  20.854  1.00  0.00     0.006 C 
BRANCH   6   7
ATOM      7  C   UNL     1    -118.073  13.952  20.005  1.00  0.00     0.053 C 
BRANCH   7   8
ATOM      8  C   UNL     1    -117.889  12.502  19.679  1.00  0.00     0.041 C 
ATOM      9  O   UNL     1    -117.008  12.144  18.854  1.00  0.00    -0.550 OA
ATOM     10  O   UNL     1    -118.669  11.541  20.313  1.00  0.00    -0.550 OA
ENDBRANCH   7   8
ENDBRANCH   6   7
ENDBRANCH   5   6
ENDBRANCH   4   5
ENDBRANCH   3   4
ENDBRANCH   2   3
ENDBRANCH   1   2
BRANCH   1  11
ATOM     11  C   UNL     1    -117.044  11.213  23.755  1.00  0.00     0.000 C 
BRANCH  11  12
ATOM     12  C   UNL     1    -116.555  10.040  22.888  1.00  0.00    -0.000 C 
BRANCH  12  13
ATOM     13  C   UNL     1    -115.442  10.443  21.905  1.00  0.00    -0.000 C 
BRANCH  13  14
ATOM     14  C   UNL     1    -114.106   9.701  22.095  1.00  0.00    -0.000 C 
BRANCH  14  15
ATOM     15  C   UNL     1    -113.617   9.712  23.555  1.00  0.00    -0.000 C 
BRANCH  15  16
ATOM     16  C   UNL     1    -112.401  10.640  23.759  1.00  0.00    -0.000 C 
BRANCH  16  17
ATOM     17  C   UNL     1    -112.617  11.717  24.835  1.00  0.00    -0.003 C 
ATOM     18  C   UNL     1    -113.904  11.519  25.631  1.00  0.00     0.004 C 
ENDBRANCH  16  17
ENDBRANCH  15  16
ENDBRANCH  14  15
ENDBRANCH  13  14
ENDBRANCH  12  13
ENDBRANCH  11  12
ENDBRANCH   1  11
TORSDOF 14
ENDMDL
