MODEL 1
REMARK VINA RESULT:    -4.052      0.000      0.000
REMARK INTER + INTRA:          -4.366
REMARK INTER:                  -4.289
REMARK INTRA:                  -0.077
REMARK UNBOUND:                -0.077
REMARK SMILES CC(=O)c1cccc(C)c1
REMARK SMILES IDX 9 1 8 2 10 3 4 4 5 5 6 6 7 7 2 8 3 9 1 10
REMARK H PARENT
REMARK Flexibility Score: inf
ROOT
ATOM      1  C   UNL     1      30.967 175.055 154.099  1.00  0.00     0.044 C 
ATOM      2  C   UNL     1      30.430 173.655 154.119  1.00  0.00    -0.050 A 
ATOM      3  C   UNL     1      31.308 172.561 154.070  1.00  0.00     0.015 A 
ATOM      4  C   UNL     1      30.818 171.240 154.124  1.00  0.00     0.017 A 
ATOM      5  C   UNL     1      29.429 171.040 154.244  1.00  0.00     0.012 A 
ATOM      6  C   UNL     1      28.557 172.129 154.312  1.00  0.00     0.001 A 
ATOM      7  C   UNL     1      29.053 173.431 154.256  1.00  0.00     0.003 A 
ENDROOT
BRANCH   4   8
ATOM      8  C   UNL     1      31.735 170.069 154.063  1.00  0.00     0.159 C 
ATOM      9  O   UNL     1      31.260 168.910 153.922  1.00  0.00    -0.295 OA
ATOM     10  C   UNL     1      33.224 170.222 154.165  1.00  0.00     0.093 C 
ENDBRANCH   4   8
TORSDOF 1
ENDMDL
MODEL 2
REMARK VINA RESULT:    -4.019      3.818      5.500
REMARK INTER + INTRA:          -4.331
REMARK INTER:                  -4.258
REMARK INTRA:                  -0.073
REMARK UNBOUND:                -0.077
REMARK SMILES CC(=O)c1cccc(C)c1
REMARK SMILES IDX 9 1 8 2 10 3 4 4 5 5 6 6 7 7 2 8 3 9 1 10
REMARK H PARENT
REMARK Flexibility Score: inf
ROOT
ATOM      1  C   UNL     1      32.045 171.215 154.612  1.00  0.00     0.044 C 
ATOM      2  C   UNL     1      32.971 170.582 155.609  1.00  0.00    -0.050 A 
ATOM      3  C   UNL     1      32.475 170.119 156.838  1.00  0.00     0.015 A 
ATOM      4  C   UNL     1      33.327 169.489 157.768  1.00  0.00     0.017 A 
ATOM      5  C   UNL     1      34.684 169.320 157.433  1.00  0.00     0.012 A 
ATOM      6  C   UNL     1      35.174 169.764 156.202  1.00  0.00     0.001 A 
ATOM      7  C   UNL     1      34.321 170.386 155.290  1.00  0.00     0.003 A 
ENDROOT
BRANCH   4   8
ATOM      8  C   UNL     1      32.819 169.002 159.079  1.00  0.00     0.159 C 
ATOM      9  O   UNL     1      33.240 167.909 159.546  1.00  0.00    -0.295 OA
ATOM     10  C   UNL     1      31.811 169.776 159.876  1.00  0.00     0.093 C 
ENDBRANCH   4   8
TORSDOF 1
ENDMDL
MODEL 3
REMARK VINA RESULT:    -3.966      2.836      5.285
REMARK INTER + INTRA:          -4.275
REMARK INTER:                  -4.198
REMARK INTRA:                  -0.077
REMARK UNBOUND:                -0.077
REMARK SMILES CC(=O)c1cccc(C)c1
REMARK SMILES IDX 9 1 8 2 10 3 4 4 5 5 6 6 7 7 2 8 3 9 1 10
REMARK H PARENT
REMARK Flexibility Score: inf
ROOT
ATOM      1  C   UNL     1      33.293 168.676 159.124  1.00  0.00     0.044 C 
ATOM      2  C   UNL     1      33.529 169.277 157.770  1.00  0.00    -0.050 A 
ATOM      3  C   UNL     1      32.448 169.747 157.008  1.00  0.00     0.015 A 
ATOM      4  C   UNL     1      32.659 170.347 155.750  1.00  0.00     0.017 A 
ATOM      5  C   UNL     1      33.979 170.477 155.278  1.00  0.00     0.012 A 
ATOM      6  C   UNL     1      35.057 170.026 156.044  1.00  0.00     0.001 A 
ATOM      7  C   UNL     1      34.835 169.434 157.287  1.00  0.00     0.003 A 
ENDROOT
BRANCH   4   8
ATOM      8  C   UNL     1      31.523 170.842 154.926  1.00  0.00     0.159 C 
ATOM      9  O   UNL     1      30.380 170.327 155.062  1.00  0.00    -0.295 OA
ATOM     10  C   UNL     1      31.692 171.948 153.926  1.00  0.00     0.093 C 
ENDBRANCH   4   8
TORSDOF 1
ENDMDL
MODEL 4
REMARK VINA RESULT:    -3.937      0.981      2.150
REMARK INTER + INTRA:          -4.244
REMARK INTER:                  -4.165
REMARK INTRA:                  -0.079
REMARK UNBOUND:                -0.077
REMARK SMILES CC(=O)c1cccc(C)c1
REMARK SMILES IDX 9 1 8 2 10 3 4 4 5 5 6 6 7 7 2 8 3 9 1 10
REMARK H PARENT
REMARK Flexibility Score: inf
ROOT
ATOM      1  C   UNL     1      27.351 173.838 154.184  1.00  0.00     0.044 C 
ATOM      2  C   UNL     1      28.793 173.424 154.173  1.00  0.00    -0.050 A 
ATOM      3  C   UNL     1      29.142 172.075 154.346  1.00  0.00     0.015 A 
ATOM      4  C   UNL     1      30.491 171.668 154.301  1.00  0.00     0.017 A 
ATOM      5  C   UNL     1      31.482 172.640 154.065  1.00  0.00     0.012 A 
ATOM      6  C   UNL     1      31.134 173.980 153.875  1.00  0.00     0.001 A 
ATOM      7  C   UNL     1      29.795 174.371 153.922  1.00  0.00     0.003 A 
ENDROOT
BRANCH   4   8
ATOM      8  C   UNL     1      30.878 170.244 154.491  1.00  0.00     0.159 C 
ATOM      9  O   UNL     1      30.043 169.427 154.966  1.00  0.00    -0.295 OA
ATOM     10  C   UNL     1      32.245 169.739 154.134  1.00  0.00     0.093 C 
ENDBRANCH   4   8
TORSDOF 1
ENDMDL
MODEL 5
REMARK VINA RESULT:    -3.813     23.225     24.624
REMARK INTER + INTRA:          -4.113
REMARK INTER:                  -4.045
REMARK INTRA:                  -0.069
REMARK UNBOUND:                -0.077
REMARK SMILES CC(=O)c1cccc(C)c1
REMARK SMILES IDX 9 1 8 2 10 3 4 4 5 5 6 6 7 7 2 8 3 9 1 10
REMARK H PARENT
REMARK Flexibility Score: inf
ROOT
ATOM      1  C   UNL     1      43.449 181.513 173.400  1.00  0.00     0.044 C 
ATOM      2  C   UNL     1      42.739 182.814 173.164  1.00  0.00    -0.050 A 
ATOM      3  C   UNL     1      41.690 182.886 172.234  1.00  0.00     0.015 A 
ATOM      4  C   UNL     1      40.991 184.093 172.029  1.00  0.00     0.017 A 
ATOM      5  C   UNL     1      41.356 185.222 172.787  1.00  0.00     0.012 A 
ATOM      6  C   UNL     1      42.387 185.145 173.726  1.00  0.00     0.001 A 
ATOM      7  C   UNL     1      43.073 183.945 173.920  1.00  0.00     0.003 A 
ENDROOT
BRANCH   4   8
ATOM      8  C   UNL     1      39.883 184.190 171.040  1.00  0.00     0.159 C 
ATOM      9  O   UNL     1      40.134 184.091 169.808  1.00  0.00    -0.295 OA
ATOM     10  C   UNL     1      38.459 184.402 171.462  1.00  0.00     0.093 C 
ENDBRANCH   4   8
TORSDOF 1
ENDMDL
MODEL 6
REMARK VINA RESULT:    -3.807      2.543      3.984
REMARK INTER + INTRA:          -4.106
REMARK INTER:                  -4.027
REMARK INTRA:                  -0.079
REMARK UNBOUND:                -0.077
REMARK SMILES CC(=O)c1cccc(C)c1
REMARK SMILES IDX 9 1 8 2 10 3 4 4 5 5 6 6 7 7 2 8 3 9 1 10
REMARK H PARENT
REMARK Flexibility Score: inf
ROOT
ATOM      1  C   UNL     1      29.460 170.959 155.270  1.00  0.00     0.044 C 
ATOM      2  C   UNL     1      30.939 170.726 155.173  1.00  0.00    -0.050 A 
ATOM      3  C   UNL     1      31.634 170.147 156.246  1.00  0.00     0.015 A 
ATOM      4  C   UNL     1      33.017 169.889 156.154  1.00  0.00     0.017 A 
ATOM      5  C   UNL     1      33.685 170.211 154.957  1.00  0.00     0.012 A 
ATOM      6  C   UNL     1      32.990 170.770 153.882  1.00  0.00     0.001 A 
ATOM      7  C   UNL     1      31.622 171.021 153.985  1.00  0.00     0.003 A 
ENDROOT
BRANCH   4   8
ATOM      8  C   UNL     1      33.771 169.285 157.286  1.00  0.00     0.159 C 
ATOM      9  O   UNL     1      33.183 169.056 158.378  1.00  0.00    -0.295 OA
ATOM     10  C   UNL     1      35.225 168.933 157.172  1.00  0.00     0.093 C 
ENDBRANCH   4   8
TORSDOF 1
ENDMDL
MODEL 7
REMARK VINA RESULT:    -3.693     23.520     24.695
REMARK INTER + INTRA:          -3.986
REMARK INTER:                  -3.915
REMARK INTRA:                  -0.071
REMARK UNBOUND:                -0.077
REMARK SMILES CC(=O)c1cccc(C)c1
REMARK SMILES IDX 9 1 8 2 10 3 4 4 5 5 6 6 7 7 2 8 3 9 1 10
REMARK H PARENT
REMARK Flexibility Score: inf
ROOT
ATOM      1  C   UNL     1      40.003 184.346 170.574  1.00  0.00     0.044 C 
ATOM      2  C   UNL     1      40.954 184.171 171.721  1.00  0.00    -0.050 A 
ATOM      3  C   UNL     1      41.327 182.883 172.139  1.00  0.00     0.015 A 
ATOM      4  C   UNL     1      42.247 182.706 173.192  1.00  0.00     0.017 A 
ATOM      5  C   UNL     1      42.798 183.846 173.807  1.00  0.00     0.012 A 
ATOM      6  C   UNL     1      42.441 185.127 173.379  1.00  0.00     0.001 A 
ATOM      7  C   UNL     1      41.529 185.291 172.336  1.00  0.00     0.003 A 
ENDROOT
BRANCH   4   8
ATOM      8  C   UNL     1      42.645 181.348 173.653  1.00  0.00     0.159 C 
ATOM      9  O   UNL     1      43.861 181.090 173.864  1.00  0.00    -0.295 OA
ATOM     10  C   UNL     1      41.637 180.260 173.879  1.00  0.00     0.093 C 
ENDBRANCH   4   8
TORSDOF 1
ENDMDL
MODEL 8
REMARK VINA RESULT:    -3.623      2.273      3.952
REMARK INTER + INTRA:          -3.912
REMARK INTER:                  -3.840
REMARK INTRA:                  -0.072
REMARK UNBOUND:                -0.077
REMARK SMILES CC(=O)c1cccc(C)c1
REMARK SMILES IDX 9 1 8 2 10 3 4 4 5 5 6 6 7 7 2 8 3 9 1 10
REMARK H PARENT
REMARK Flexibility Score: inf
ROOT
ATOM      1  C   UNL     1      32.096 171.276 154.684  1.00  0.00     0.044 C 
ATOM      2  C   UNL     1      30.877 172.125 154.468  1.00  0.00    -0.050 A 
ATOM      3  C   UNL     1      29.602 171.615 154.757  1.00  0.00     0.015 A 
ATOM      4  C   UNL     1      28.452 172.415 154.593  1.00  0.00     0.017 A 
ATOM      5  C   UNL     1      28.610 173.741 154.145  1.00  0.00     0.012 A 
ATOM      6  C   UNL     1      29.881 174.253 153.875  1.00  0.00     0.001 A 
ATOM      7  C   UNL     1      31.012 173.453 154.041  1.00  0.00     0.003 A 
ENDROOT
BRANCH   4   8
ATOM      8  C   UNL     1      27.092 171.887 154.886  1.00  0.00     0.159 C 
ATOM      9  O   UNL     1      26.129 172.182 154.128  1.00  0.00    -0.295 OA
ATOM     10  C   UNL     1      26.822 171.003 156.068  1.00  0.00     0.093 C 
ENDBRANCH   4   8
TORSDOF 1
ENDMDL
MODEL 9
REMARK VINA RESULT:    -3.547     22.223     23.492
REMARK INTER + INTRA:          -3.832
REMARK INTER:                  -3.765
REMARK INTRA:                  -0.067
REMARK UNBOUND:                -0.077
REMARK SMILES CC(=O)c1cccc(C)c1
REMARK SMILES IDX 9 1 8 2 10 3 4 4 5 5 6 6 7 7 2 8 3 9 1 10
REMARK H PARENT
REMARK Flexibility Score: inf
ROOT
ATOM      1  C   UNL     1      37.906 185.131 169.563  1.00  0.00     0.044 C 
ATOM      2  C   UNL     1      38.404 184.471 170.815  1.00  0.00    -0.050 A 
ATOM      3  C   UNL     1      39.783 184.385 171.067  1.00  0.00     0.015 A 
ATOM      4  C   UNL     1      40.262 183.799 172.257  1.00  0.00     0.017 A 
ATOM      5  C   UNL     1      39.330 183.314 173.194  1.00  0.00     0.012 A 
ATOM      6  C   UNL     1      37.958 183.416 172.951  1.00  0.00     0.001 A 
ATOM      7  C   UNL     1      37.495 183.997 171.770  1.00  0.00     0.003 A 
ENDROOT
BRANCH   4   8
ATOM      8  C   UNL     1      41.720 183.692 172.535  1.00  0.00     0.159 C 
ATOM      9  O   UNL     1      42.371 182.706 172.093  1.00  0.00    -0.295 OA
ATOM     10  C   UNL     1      42.454 184.729 173.333  1.00  0.00     0.093 C 
ENDBRANCH   4   8
TORSDOF 1
ENDMDL
