MODEL 1
REMARK VINA RESULT:    -3.966      0.000      0.000
REMARK INTER + INTRA:          -4.782
REMARK INTER:                  -4.661
REMARK INTRA:                  -0.121
REMARK UNBOUND:                -0.121
REMARK SMILES O=C([O-])CCC(=O)[O-]
REMARK SMILES IDX 4 1 2 2 1 3 3 4 5 5 6 6 7 7 8 8
REMARK H PARENT
REMARK Flexibility Score: inf
ROOT
ATOM      1  C   UNL     1      10.132  14.914  20.716  1.00  0.00     0.059 C 
ENDROOT
BRANCH   1   2
ATOM      2  C   UNL     1      10.761  14.598  19.394  1.00  0.00     0.042 C 
ATOM      3  O   UNL     1      10.864  13.403  19.011  1.00  0.00    -0.550 OA
ATOM      4  O   UNL     1      11.269  15.621  18.603  1.00  0.00    -0.550 OA
ENDBRANCH   1   2
BRANCH   1   5
ATOM      5  C   UNL     1      11.090  14.633  21.879  1.00  0.00     0.059 C 
BRANCH   5   6
ATOM      6  C   UNL     1      10.616  13.486  22.719  1.00  0.00     0.042 C 
ATOM      7  O   UNL     1      10.302  13.669  23.924  1.00  0.00    -0.550 OA
ATOM      8  O   UNL     1      10.482  12.223  22.157  1.00  0.00    -0.550 OA
ENDBRANCH   5   6
ENDBRANCH   1   5
TORSDOF 3
ENDMDL
MODEL 2
REMARK VINA RESULT:    -3.917      0.143      3.909
REMARK INTER + INTRA:          -4.725
REMARK INTER:                  -4.605
REMARK INTRA:                  -0.120
REMARK UNBOUND:                -0.121
REMARK SMILES O=C([O-])CCC(=O)[O-]
REMARK SMILES IDX 4 1 2 2 1 3 3 4 5 5 6 6 7 7 8 8
REMARK H PARENT
REMARK Flexibility Score: inf
ROOT
ATOM      1  C   UNL     1      11.234  14.561  21.850  1.00  0.00     0.059 C 
ENDROOT
BRANCH   1   2
ATOM      2  C   UNL     1      10.576  13.475  22.645  1.00  0.00     0.042 C 
ATOM      3  O   UNL     1      10.264  13.672  23.849  1.00  0.00    -0.550 OA
ATOM      4  O   UNL     1      10.342  12.234  22.067  1.00  0.00    -0.550 OA
ENDBRANCH   1   2
BRANCH   1   5
ATOM      5  C   UNL     1      10.313  15.090  20.745  1.00  0.00     0.059 C 
BRANCH   5   6
ATOM      6  C   UNL     1      10.832  14.746  19.382  1.00  0.00     0.042 C 
ATOM      7  O   UNL     1      11.270  15.649  18.623  1.00  0.00    -0.550 OA
ATOM      8  O   UNL     1      10.870  13.421  18.968  1.00  0.00    -0.550 OA
ENDBRANCH   5   6
ENDBRANCH   1   5
TORSDOF 3
ENDMDL
MODEL 3
REMARK VINA RESULT:    -3.908      2.296      3.961
REMARK INTER + INTRA:          -4.715
REMARK INTER:                  -4.632
REMARK INTRA:                  -0.083
REMARK UNBOUND:                -0.121
REMARK SMILES O=C([O-])CCC(=O)[O-]
REMARK SMILES IDX 4 1 2 2 1 3 3 4 5 5 6 6 7 7 8 8
REMARK H PARENT
REMARK Flexibility Score: inf
ROOT
ATOM      1  C   UNL     1      10.512  15.614  21.637  1.00  0.00     0.059 C 
ENDROOT
BRANCH   1   2
ATOM      2  C   UNL     1      10.364  17.098  21.787  1.00  0.00     0.042 C 
ATOM      3  O   UNL     1       9.255  17.649  21.562  1.00  0.00    -0.550 OA
ATOM      4  O   UNL     1      11.462  17.874  22.135  1.00  0.00    -0.550 OA
ENDBRANCH   1   2
BRANCH   1   5
ATOM      5  C   UNL     1       9.746  15.090  20.418  1.00  0.00     0.059 C 
BRANCH   5   6
ATOM      6  C   UNL     1      10.676  14.702  19.309  1.00  0.00     0.042 C 
ATOM      7  O   UNL     1      10.848  13.489  19.020  1.00  0.00    -0.550 OA
ATOM      8  O   UNL     1      11.321  15.683  18.567  1.00  0.00    -0.550 OA
ENDBRANCH   5   6
ENDBRANCH   1   5
TORSDOF 3
ENDMDL
MODEL 4
REMARK VINA RESULT:    -3.888      0.582      1.303
REMARK INTER + INTRA:          -4.692
REMARK INTER:                  -4.584
REMARK INTRA:                  -0.107
REMARK UNBOUND:                -0.121
REMARK SMILES O=C([O-])CCC(=O)[O-]
REMARK SMILES IDX 4 1 2 2 1 3 3 4 5 5 6 6 7 7 8 8
REMARK H PARENT
REMARK Flexibility Score: inf
ROOT
ATOM      1  C   UNL     1      10.894  15.257  20.845  1.00  0.00     0.059 C 
ENDROOT
BRANCH   1   2
ATOM      2  C   UNL     1      11.021  14.851  19.409  1.00  0.00     0.042 C 
ATOM      3  O   UNL     1      11.296  15.710  18.530  1.00  0.00    -0.550 OA
ATOM      4  O   UNL     1      10.797  13.532  19.036  1.00  0.00    -0.550 OA
ENDBRANCH   1   2
BRANCH   1   5
ATOM      5  C   UNL     1       9.765  14.498  21.549  1.00  0.00     0.059 C 
BRANCH   5   6
ATOM      6  C   UNL     1      10.300  13.478  22.508  1.00  0.00     0.042 C 
ATOM      7  O   UNL     1      10.616  13.812  23.680  1.00  0.00    -0.550 OA
ATOM      8  O   UNL     1      10.412  12.149  22.118  1.00  0.00    -0.550 OA
ENDBRANCH   5   6
ENDBRANCH   1   5
TORSDOF 3
ENDMDL
MODEL 5
REMARK VINA RESULT:    -3.805      2.219      2.980
REMARK INTER + INTRA:          -4.593
REMARK INTER:                  -4.522
REMARK INTRA:                  -0.071
REMARK UNBOUND:                -0.121
REMARK SMILES O=C([O-])CCC(=O)[O-]
REMARK SMILES IDX 4 1 2 2 1 3 3 4 5 5 6 6 7 7 8 8
REMARK H PARENT
REMARK Flexibility Score: inf
ROOT
ATOM      1  C   UNL     1       9.865  15.171  20.483  1.00  0.00     0.059 C 
ENDROOT
BRANCH   1   2
ATOM      2  C   UNL     1      10.718  14.778  19.316  1.00  0.00     0.042 C 
ATOM      3  O   UNL     1      11.286  15.661  18.620  1.00  0.00    -0.550 OA
ATOM      4  O   UNL     1      10.853  13.439  18.973  1.00  0.00    -0.550 OA
ENDBRANCH   1   2
BRANCH   1   5
ATOM      5  C   UNL     1      10.709  15.443  21.733  1.00  0.00     0.059 C 
BRANCH   5   6
ATOM      6  C   UNL     1      10.506  16.838  22.242  1.00  0.00     0.042 C 
ATOM      7  O   UNL     1       9.503  17.506  21.879  1.00  0.00    -0.550 OA
ATOM      8  O   UNL     1      11.405  17.383  23.150  1.00  0.00    -0.550 OA
ENDBRANCH   5   6
ENDBRANCH   1   5
TORSDOF 3
ENDMDL
MODEL 6
REMARK VINA RESULT:    -3.790      1.540      3.931
REMARK INTER + INTRA:          -4.576
REMARK INTER:                  -4.486
REMARK INTRA:                  -0.090
REMARK UNBOUND:                -0.121
REMARK SMILES O=C([O-])CCC(=O)[O-]
REMARK SMILES IDX 4 1 2 2 1 3 3 4 5 5 6 6 7 7 8 8
REMARK H PARENT
REMARK Flexibility Score: inf
ROOT
ATOM      1  C   UNL     1      10.368  16.306  21.294  1.00  0.00     0.059 C 
ENDROOT
BRANCH   1   2
ATOM      2  C   UNL     1      11.075  15.904  22.552  1.00  0.00     0.042 C 
ATOM      3  O   UNL     1      11.653  16.771  23.258  1.00  0.00    -0.550 OA
ATOM      4  O   UNL     1      11.129  14.566  22.922  1.00  0.00    -0.550 OA
ENDBRANCH   1   2
BRANCH   1   5
ATOM      5  C   UNL     1       9.828  15.089  20.535  1.00  0.00     0.059 C 
BRANCH   5   6
ATOM      6  C   UNL     1      10.700  14.735  19.369  1.00  0.00     0.042 C 
ATOM      7  O   UNL     1      11.286  15.639  18.717  1.00  0.00    -0.550 OA
ATOM      8  O   UNL     1      10.898  13.403  19.029  1.00  0.00    -0.550 OA
ENDBRANCH   5   6
ENDBRANCH   1   5
TORSDOF 3
ENDMDL
MODEL 7
REMARK VINA RESULT:    -3.630      2.363      2.985
REMARK INTER + INTRA:          -4.388
REMARK INTER:                  -4.304
REMARK INTRA:                  -0.084
REMARK UNBOUND:                -0.121
REMARK SMILES O=C([O-])CCC(=O)[O-]
REMARK SMILES IDX 4 1 2 2 1 3 3 4 5 5 6 6 7 7 8 8
REMARK H PARENT
REMARK Flexibility Score: inf
ROOT
ATOM      1  C   UNL     1       9.786  15.091  20.649  1.00  0.00     0.059 C 
ENDROOT
BRANCH   1   2
ATOM      2  C   UNL     1      10.578  14.597  19.477  1.00  0.00     0.042 C 
ATOM      3  O   UNL     1      10.668  13.362  19.248  1.00  0.00    -0.550 OA
ATOM      4  O   UNL     1      11.250  15.500  18.662  1.00  0.00    -0.550 OA
ENDBRANCH   1   2
BRANCH   1   5
ATOM      5  C   UNL     1      10.691  15.672  21.739  1.00  0.00     0.059 C 
BRANCH   5   6
ATOM      6  C   UNL     1      10.423  17.130  21.959  1.00  0.00     0.042 C 
ATOM      7  O   UNL     1       9.374  17.658  21.507  1.00  0.00    -0.550 OA
ATOM      8  O   UNL     1      11.314  17.896  22.700  1.00  0.00    -0.550 OA
ENDBRANCH   5   6
ENDBRANCH   1   5
TORSDOF 3
ENDMDL
MODEL 8
REMARK VINA RESULT:    -3.335      2.230      3.842
REMARK INTER + INTRA:          -4.041
REMARK INTER:                  -3.891
REMARK INTRA:                  -0.150
REMARK UNBOUND:                -0.121
REMARK SMILES O=C([O-])CCC(=O)[O-]
REMARK SMILES IDX 4 1 2 2 1 3 3 4 5 5 6 6 7 7 8 8
REMARK H PARENT
REMARK Flexibility Score: inf
ROOT
ATOM      1  C   UNL     1      10.253  13.681  23.550  1.00  0.00     0.059 C 
ENDROOT
BRANCH   1   2
ATOM      2  C   UNL     1       9.846  12.477  22.757  1.00  0.00     0.042 C 
ATOM      3  O   UNL     1      10.460  12.178  21.699  1.00  0.00    -0.550 OA
ATOM      4  O   UNL     1       8.763  11.709  23.166  1.00  0.00    -0.550 OA
ENDBRANCH   1   2
BRANCH   1   5
ATOM      5  C   UNL     1      10.575  14.873  22.642  1.00  0.00     0.059 C 
BRANCH   5   6
ATOM      6  C   UNL     1       9.331  15.475  22.062  1.00  0.00     0.042 C 
ATOM      7  O   UNL     1       9.144  15.468  20.817  1.00  0.00    -0.550 OA
ATOM      8  O   UNL     1       8.360  16.007  22.901  1.00  0.00    -0.550 OA
ENDBRANCH   5   6
ENDBRANCH   1   5
TORSDOF 3
ENDMDL
MODEL 9
REMARK VINA RESULT:    -3.299      2.617      3.925
REMARK INTER + INTRA:          -3.999
REMARK INTER:                  -3.901
REMARK INTRA:                  -0.098
REMARK UNBOUND:                -0.121
REMARK SMILES O=C([O-])CCC(=O)[O-]
REMARK SMILES IDX 4 1 2 2 1 3 3 4 5 5 6 6 7 7 8 8
REMARK H PARENT
REMARK Flexibility Score: inf
ROOT
ATOM      1  C   UNL     1       9.924  12.800  23.986  1.00  0.00     0.059 C 
ENDROOT
BRANCH   1   2
ATOM      2  C   UNL     1      10.579  13.083  22.669  1.00  0.00     0.042 C 
ATOM      3  O   UNL     1      10.321  12.365  21.667  1.00  0.00    -0.550 OA
ATOM      4  O   UNL     1      11.503  14.114  22.559  1.00  0.00    -0.550 OA
ENDBRANCH   1   2
BRANCH   1   5
ATOM      5  C   UNL     1       8.966  11.608  23.897  1.00  0.00     0.059 C 
BRANCH   5   6
ATOM      6  C   UNL     1       9.535  10.391  24.562  1.00  0.00     0.042 C 
ATOM      7  O   UNL     1       9.821   9.371  23.883  1.00  0.00    -0.550 OA
ATOM      8  O   UNL     1       9.786  10.401  25.929  1.00  0.00    -0.550 OA
ENDBRANCH   5   6
ENDBRANCH   1   5
TORSDOF 3
ENDMDL
