MODEL 1
REMARK VINA RESULT:    -5.262      0.000      0.000
REMARK INTER + INTRA:          -7.859
REMARK INTER:                  -7.262
REMARK INTRA:                  -0.597
REMARK UNBOUND:                -0.597
REMARK SMILES CC[C@H](CC[C@@H](C)[C@@H]1CC[C@H]2[C@@H]3CC=C4C[C@H](O)CC[C@]4(C)[C@H]3CC[C@]21C)C(C)C
REMARK SMILES IDX 5 1 4 2 3 3 2 4 1 5 28 6 29 7 30 8 6 9 7 10 8 11 9 12 26 13
REMARK SMILES IDX 10 14 11 15 25 16 27 17 12 18 24 19 23 20 13 21 21 22 14 23
REMARK SMILES IDX 15 24 20 25 22 26 16 27 19 28 17 29 18 30
REMARK H PARENT 18 31
REMARK Flexibility Score: inf
ROOT
ATOM      1  C   UNL     1     -28.354  -2.101   9.980  1.00  0.00     0.004 C 
ENDROOT
BRANCH   1   2
ATOM      2  C   UNL     1     -28.842  -0.979   9.028  1.00  0.00     0.004 C 
BRANCH   2   3
ATOM      3  C   UNL     1     -28.354   0.456   9.408  1.00  0.00    -0.009 C 
BRANCH   3   4
ATOM      4  C   UNL     1     -27.165   0.865   8.492  1.00  0.00     0.000 C 
ATOM      5  C   UNL     1     -27.045   0.056   7.201  1.00  0.00     0.004 C 
ENDBRANCH   3   4
BRANCH   3   6
ATOM      6  C   UNL     1     -29.561   1.462   9.397  1.00  0.00    -0.014 C 
ATOM      7  C   UNL     1     -30.130   1.723   7.993  1.00  0.00     0.007 C 
ATOM      8  C   UNL     1     -29.268   2.787  10.122  1.00  0.00     0.007 C 
ENDBRANCH   3   6
ENDBRANCH   2   3
ENDBRANCH   1   2
BRANCH   1   9
ATOM      9  C   UNL     1     -27.414  -3.161   9.321  1.00  0.00    -0.011 C 
ATOM     10  C   UNL     1     -27.540  -3.166   7.782  1.00  0.00     0.008 C 
BRANCH   9  11
ATOM     11  C   UNL     1     -25.914  -3.143   9.811  1.00  0.00    -0.002 C 
ATOM     12  C   UNL     1     -25.388  -1.696   9.932  1.00  0.00     0.005 C 
ATOM     13  C   UNL     1     -24.777  -3.954   9.059  1.00  0.00    -0.026 C 
ATOM     14  C   UNL     1     -24.044  -1.633   9.222  1.00  0.00     0.005 C 
ATOM     15  C   UNL     1     -23.980  -2.854   8.305  1.00  0.00    -0.001 C 
ATOM     16  C   UNL     1     -23.874  -4.706  10.125  1.00  0.00     0.007 C 
ATOM     17  C   UNL     1     -25.319  -4.990   8.041  1.00  0.00     0.012 C 
ATOM     18  C   UNL     1     -22.509  -3.194   7.875  1.00  0.00     0.000 C 
ATOM     19  C   UNL     1     -22.352  -4.539   9.967  1.00  0.00     0.005 C 
ATOM     20  C   UNL     1     -21.953  -4.502   8.487  1.00  0.00     0.003 C 
ATOM     21  C   UNL     1     -22.361  -3.254   6.349  1.00  0.00     0.031 C 
ATOM     22  C   UNL     1     -20.412  -4.657   8.199  1.00  0.00    -0.008 C 
ATOM     23  C   UNL     1     -20.974  -3.653   5.924  1.00  0.00    -0.027 C 
ATOM     24  C   UNL     1     -20.115  -4.330   6.723  1.00  0.00    -0.065 C 
ATOM     25  C   UNL     1     -19.944  -6.133   8.482  1.00  0.00     0.014 C 
ATOM     26  C   UNL     1     -19.568  -3.704   9.082  1.00  0.00     0.016 C 
ATOM     27  C   UNL     1     -18.913  -5.003   6.101  1.00  0.00     0.063 C 
ATOM     28  C   UNL     1     -20.040  -7.038   7.241  1.00  0.00     0.033 C 
ATOM     29  C   UNL     1     -19.112  -6.537   6.100  1.00  0.00     0.118 C 
BRANCH  29  30
ATOM     30  O   UNL     1     -19.590  -6.974   4.854  1.00  0.00    -0.393 OA
ATOM     31  H   UNL     1     -19.322  -6.294   4.179  1.00  0.00     0.210 HD
ENDBRANCH  29  30
ENDBRANCH   9  11
ENDBRANCH   1   9
TORSDOF 7
ENDMDL
MODEL 2
REMARK VINA RESULT:    -4.989      5.249     12.331
REMARK INTER + INTRA:          -7.482
REMARK INTER:                  -6.700
REMARK INTRA:                  -0.782
REMARK UNBOUND:                -0.597
REMARK SMILES CC[C@H](CC[C@@H](C)[C@@H]1CC[C@H]2[C@@H]3CC=C4C[C@H](O)CC[C@]4(C)[C@H]3CC[C@]21C)C(C)C
REMARK SMILES IDX 5 1 4 2 3 3 2 4 1 5 28 6 29 7 30 8 6 9 7 10 8 11 9 12 26 13
REMARK SMILES IDX 10 14 11 15 25 16 27 17 12 18 24 19 23 20 13 21 21 22 14 23
REMARK SMILES IDX 15 24 20 25 22 26 16 27 19 28 17 29 18 30
REMARK H PARENT 18 31
REMARK Flexibility Score: inf
ROOT
ATOM      1  C   UNL     1     -27.022   2.726   8.795  1.00  0.00     0.004 C 
ENDROOT
BRANCH   1   2
ATOM      2  C   UNL     1     -25.955   1.701   9.258  1.00  0.00     0.004 C 
BRANCH   2   3
ATOM      3  C   UNL     1     -26.127   0.268   8.658  1.00  0.00    -0.009 C 
BRANCH   3   4
ATOM      4  C   UNL     1     -25.118  -0.707   9.330  1.00  0.00     0.000 C 
ATOM      5  C   UNL     1     -24.472  -1.713   8.378  1.00  0.00     0.004 C 
ENDBRANCH   3   4
BRANCH   3   6
ATOM      6  C   UNL     1     -27.629  -0.185   8.751  1.00  0.00    -0.014 C 
ATOM      7  C   UNL     1     -27.858  -1.361   9.715  1.00  0.00     0.007 C 
ATOM      8  C   UNL     1     -28.276  -0.466   7.384  1.00  0.00     0.007 C 
ENDBRANCH   3   6
ENDBRANCH   2   3
ENDBRANCH   1   2
BRANCH   1   9
ATOM      9  C   UNL     1     -27.655   3.579   9.941  1.00  0.00    -0.011 C 
ATOM     10  C   UNL     1     -27.202   5.054   9.880  1.00  0.00     0.008 C 
BRANCH   9  11
ATOM     11  C   UNL     1     -29.215   3.426  10.125  1.00  0.00    -0.002 C 
ATOM     12  C   UNL     1     -29.629   1.939  10.125  1.00  0.00     0.005 C 
ATOM     13  C   UNL     1     -30.247   4.162   9.172  1.00  0.00    -0.026 C 
ATOM     14  C   UNL     1     -30.798   1.785   9.163  1.00  0.00     0.005 C 
ATOM     15  C   UNL     1     -30.785   3.022   8.264  1.00  0.00    -0.001 C 
ATOM     16  C   UNL     1     -31.402   4.809  10.047  1.00  0.00     0.007 C 
ATOM     17  C   UNL     1     -29.606   5.266   8.292  1.00  0.00     0.012 C 
ATOM     18  C   UNL     1     -32.167   3.253   7.555  1.00  0.00     0.000 C 
ATOM     19  C   UNL     1     -32.843   4.524   9.590  1.00  0.00     0.005 C 
ATOM     20  C   UNL     1     -32.941   4.494   8.060  1.00  0.00     0.003 C 
ATOM     21  C   UNL     1     -32.018   3.342   6.032  1.00  0.00     0.031 C 
ATOM     22  C   UNL     1     -34.403   4.531   7.475  1.00  0.00    -0.008 C 
ATOM     23  C   UNL     1     -33.324   3.638   5.346  1.00  0.00    -0.027 C 
ATOM     24  C   UNL     1     -34.377   4.221   5.966  1.00  0.00    -0.065 C 
ATOM     25  C   UNL     1     -35.041   5.955   7.676  1.00  0.00     0.014 C 
ATOM     26  C   UNL     1     -35.319   3.489   8.164  1.00  0.00     0.016 C 
ATOM     27  C   UNL     1     -35.486   4.810   5.127  1.00  0.00     0.063 C 
ATOM     28  C   UNL     1     -34.782   6.899   6.488  1.00  0.00     0.033 C 
ATOM     29  C   UNL     1     -35.422   6.355   5.181  1.00  0.00     0.118 C 
BRANCH  29  30
ATOM     30  O   UNL     1     -34.749   6.863   4.058  1.00  0.00    -0.393 OA
ATOM     31  H   UNL     1     -34.403   7.762   4.301  1.00  0.00     0.210 HD
ENDBRANCH  29  30
ENDBRANCH   9  11
ENDBRANCH   1   9
TORSDOF 7
ENDMDL
MODEL 3
REMARK VINA RESULT:    -4.908      5.010     12.008
REMARK INTER + INTRA:          -7.370
REMARK INTER:                  -6.939
REMARK INTRA:                  -0.432
REMARK UNBOUND:                -0.597
REMARK SMILES CC[C@H](CC[C@@H](C)[C@@H]1CC[C@H]2[C@@H]3CC=C4C[C@H](O)CC[C@]4(C)[C@H]3CC[C@]21C)C(C)C
REMARK SMILES IDX 5 1 4 2 3 3 2 4 1 5 28 6 29 7 30 8 6 9 7 10 8 11 9 12 26 13
REMARK SMILES IDX 10 14 11 15 25 16 27 17 12 18 24 19 23 20 13 21 21 22 14 23
REMARK SMILES IDX 15 24 20 25 22 26 16 27 19 28 17 29 18 30
REMARK H PARENT 18 31
REMARK Flexibility Score: inf
ROOT
ATOM      1  C   UNL     1     -25.876   1.704   9.793  1.00  0.00     0.004 C 
ENDROOT
BRANCH   1   2
ATOM      2  C   UNL     1     -25.780   0.562   8.749  1.00  0.00     0.004 C 
BRANCH   2   3
ATOM      3  C   UNL     1     -26.326  -0.817   9.242  1.00  0.00    -0.009 C 
BRANCH   3   4
ATOM      4  C   UNL     1     -27.369  -1.363   8.223  1.00  0.00     0.000 C 
ATOM      5  C   UNL     1     -28.068  -0.291   7.390  1.00  0.00     0.004 C 
ENDBRANCH   3   4
BRANCH   3   6
ATOM      6  C   UNL     1     -25.136  -1.797   9.543  1.00  0.00    -0.014 C 
ATOM      7  C   UNL     1     -24.107  -1.883   8.404  1.00  0.00     0.007 C 
ATOM      8  C   UNL     1     -25.587  -3.202   9.978  1.00  0.00     0.007 C 
ENDBRANCH   3   6
ENDBRANCH   2   3
ENDBRANCH   1   2
BRANCH   1   9
ATOM      9  C   UNL     1     -26.670   2.964   9.318  1.00  0.00    -0.011 C 
ATOM     10  C   UNL     1     -26.575   3.165   7.790  1.00  0.00     0.008 C 
BRANCH   9  11
ATOM     11  C   UNL     1     -28.148   3.084   9.859  1.00  0.00    -0.002 C 
ATOM     12  C   UNL     1     -28.758   1.689  10.117  1.00  0.00     0.005 C 
ATOM     13  C   UNL     1     -29.260   3.905   9.082  1.00  0.00    -0.026 C 
ATOM     14  C   UNL     1     -30.130   1.657   9.461  1.00  0.00     0.005 C 
ATOM     15  C   UNL     1     -30.154   2.803   8.449  1.00  0.00    -0.001 C 
ATOM     16  C   UNL     1     -30.072   4.797  10.112  1.00  0.00     0.007 C 
ATOM     17  C   UNL     1     -28.695   4.818   7.963  1.00  0.00     0.012 C 
ATOM     18  C   UNL     1     -31.617   3.203   8.042  1.00  0.00     0.000 C 
ATOM     19  C   UNL     1     -31.606   4.719  10.021  1.00  0.00     0.005 C 
ATOM     20  C   UNL     1     -32.065   4.589   8.564  1.00  0.00     0.003 C 
ATOM     21  C   UNL     1     -31.820   3.150   6.523  1.00  0.00     0.031 C 
ATOM     22  C   UNL     1     -33.603   4.821   8.316  1.00  0.00    -0.008 C 
ATOM     23  C   UNL     1     -33.195   3.604   6.114  1.00  0.00    -0.027 C 
ATOM     24  C   UNL     1     -33.978   4.397   6.883  1.00  0.00    -0.065 C 
ATOM     25  C   UNL     1     -33.967   6.343   8.492  1.00  0.00     0.014 C 
ATOM     26  C   UNL     1     -34.470   4.000   9.303  1.00  0.00     0.016 C 
ATOM     27  C   UNL     1     -35.159   5.095   6.249  1.00  0.00     0.063 C 
ATOM     28  C   UNL     1     -33.863   7.137   7.178  1.00  0.00     0.033 C 
ATOM     29  C   UNL     1     -34.864   6.608   6.115  1.00  0.00     0.118 C 
BRANCH  29  30
ATOM     30  O   UNL     1     -34.410   6.911   4.821  1.00  0.00    -0.393 OA
ATOM     31  H   UNL     1     -34.023   6.079   4.440  1.00  0.00     0.210 HD
ENDBRANCH  29  30
ENDBRANCH   9  11
ENDBRANCH   1   9
TORSDOF 7
ENDMDL
MODEL 4
REMARK VINA RESULT:    -4.754      1.536      2.778
REMARK INTER + INTRA:          -7.158
REMARK INTER:                  -6.444
REMARK INTRA:                  -0.715
REMARK UNBOUND:                -0.597
REMARK SMILES CC[C@H](CC[C@@H](C)[C@@H]1CC[C@H]2[C@@H]3CC=C4C[C@H](O)CC[C@]4(C)[C@H]3CC[C@]21C)C(C)C
REMARK SMILES IDX 5 1 4 2 3 3 2 4 1 5 28 6 29 7 30 8 6 9 7 10 8 11 9 12 26 13
REMARK SMILES IDX 10 14 11 15 25 16 27 17 12 18 24 19 23 20 13 21 21 22 14 23
REMARK SMILES IDX 15 24 20 25 22 26 16 27 19 28 17 29 18 30
REMARK H PARENT 18 31
REMARK Flexibility Score: inf
ROOT
ATOM      1  C   UNL     1     -25.704  -2.370  10.071  1.00  0.00     0.004 C 
ENDROOT
BRANCH   1   2
ATOM      2  C   UNL     1     -26.866  -1.773   9.236  1.00  0.00     0.004 C 
BRANCH   2   3
ATOM      3  C   UNL     1     -27.572  -0.542   9.891  1.00  0.00    -0.009 C 
BRANCH   3   4
ATOM      4  C   UNL     1     -26.535   0.595  10.124  1.00  0.00     0.000 C 
ATOM      5  C   UNL     1     -25.855   1.109   8.856  1.00  0.00     0.004 C 
ENDBRANCH   3   4
BRANCH   3   6
ATOM      6  C   UNL     1     -28.823  -0.116   9.040  1.00  0.00    -0.014 C 
ATOM      7  C   UNL     1     -28.621  -0.281   7.525  1.00  0.00     0.007 C 
ATOM      8  C   UNL     1     -29.345   1.293   9.371  1.00  0.00     0.007 C 
ENDBRANCH   3   6
ENDBRANCH   2   3
ENDBRANCH   1   2
BRANCH   1   9
ATOM      9  C   UNL     1     -24.767  -3.346   9.290  1.00  0.00    -0.011 C 
ATOM     10  C   UNL     1     -25.543  -4.186   8.253  1.00  0.00     0.008 C 
BRANCH   9  11
ATOM     11  C   UNL     1     -23.453  -2.704   8.696  1.00  0.00    -0.002 C 
ATOM     12  C   UNL     1     -23.787  -1.713   7.560  1.00  0.00     0.005 C 
ATOM     13  C   UNL     1     -22.256  -3.593   8.157  1.00  0.00    -0.026 C 
ATOM     14  C   UNL     1     -22.888  -2.045   6.379  1.00  0.00     0.005 C 
ATOM     15  C   UNL     1     -22.372  -3.465   6.613  1.00  0.00    -0.001 C 
ATOM     16  C   UNL     1     -20.882  -3.005   8.691  1.00  0.00     0.007 C 
ATOM     17  C   UNL     1     -22.355  -5.086   8.563  1.00  0.00     0.012 C 
ATOM     18  C   UNL     1     -21.089  -3.777   5.763  1.00  0.00     0.000 C 
ATOM     19  C   UNL     1     -19.774  -2.803   7.643  1.00  0.00     0.005 C 
ATOM     20  C   UNL     1     -19.794  -3.924   6.597  1.00  0.00     0.003 C 
ATOM     21  C   UNL     1     -21.270  -5.028   4.896  1.00  0.00     0.031 C 
ATOM     22  C   UNL     1     -18.524  -4.005   5.669  1.00  0.00    -0.008 C 
ATOM     23  C   UNL     1     -20.022  -5.381   4.133  1.00  0.00    -0.027 C 
ATOM     24  C   UNL     1     -18.784  -4.977   4.501  1.00  0.00    -0.065 C 
ATOM     25  C   UNL     1     -17.281  -4.528   6.480  1.00  0.00     0.014 C 
ATOM     26  C   UNL     1     -18.165  -2.621   5.072  1.00  0.00     0.016 C 
ATOM     27  C   UNL     1     -17.580  -5.672   3.909  1.00  0.00     0.063 C 
ATOM     28  C   UNL     1     -17.138  -6.060   6.432  1.00  0.00     0.033 C 
ATOM     29  C   UNL     1     -16.908  -6.563   4.980  1.00  0.00     0.118 C 
BRANCH  29  30
ATOM     30  O   UNL     1     -17.330  -7.896   4.851  1.00  0.00    -0.393 OA
ATOM     31  H   UNL     1     -17.265  -8.316   5.750  1.00  0.00     0.210 HD
ENDBRANCH  29  30
ENDBRANCH   9  11
ENDBRANCH   1   9
TORSDOF 7
ENDMDL
MODEL 5
REMARK VINA RESULT:    -4.588      1.712      2.905
REMARK INTER + INTRA:          -6.929
REMARK INTER:                  -6.526
REMARK INTRA:                  -0.402
REMARK UNBOUND:                -0.597
REMARK SMILES CC[C@H](CC[C@@H](C)[C@@H]1CC[C@H]2[C@@H]3CC=C4C[C@H](O)CC[C@]4(C)[C@H]3CC[C@]21C)C(C)C
REMARK SMILES IDX 5 1 4 2 3 3 2 4 1 5 28 6 29 7 30 8 6 9 7 10 8 11 9 12 26 13
REMARK SMILES IDX 10 14 11 15 25 16 27 17 12 18 24 19 23 20 13 21 21 22 14 23
REMARK SMILES IDX 15 24 20 25 22 26 16 27 19 28 17 29 18 30
REMARK H PARENT 18 31
REMARK Flexibility Score: inf
ROOT
ATOM      1  C   UNL     1     -26.652  -0.550  10.125  1.00  0.00     0.004 C 
ENDROOT
BRANCH   1   2
ATOM      2  C   UNL     1     -27.972   0.229   9.892  1.00  0.00     0.004 C 
BRANCH   2   3
ATOM      3  C   UNL     1     -27.808   1.783   9.833  1.00  0.00    -0.009 C 
BRANCH   3   4
ATOM      4  C   UNL     1     -26.504   2.145   9.066  1.00  0.00     0.000 C 
ATOM      5  C   UNL     1     -26.269   1.336   7.791  1.00  0.00     0.004 C 
ENDBRANCH   3   4
BRANCH   3   6
ATOM      6  C   UNL     1     -29.110   2.445   9.253  1.00  0.00    -0.014 C 
ATOM      7  C   UNL     1     -29.857   1.554   8.247  1.00  0.00     0.007 C 
ATOM      8  C   UNL     1     -28.882   3.851   8.673  1.00  0.00     0.007 C 
ENDBRANCH   3   6
ENDBRANCH   2   3
ENDBRANCH   1   2
BRANCH   1   9
ATOM      9  C   UNL     1     -26.743  -2.089   9.871  1.00  0.00    -0.011 C 
ATOM     10  C   UNL     1     -28.207  -2.570   9.757  1.00  0.00     0.008 C 
BRANCH   9  11
ATOM     11  C   UNL     1     -25.825  -2.647   8.715  1.00  0.00    -0.002 C 
ATOM     12  C   UNL     1     -26.262  -4.069   8.300  1.00  0.00     0.005 C 
ATOM     13  C   UNL     1     -24.246  -2.702   8.852  1.00  0.00    -0.026 C 
ATOM     14  C   UNL     1     -25.016  -4.942   8.266  1.00  0.00     0.005 C 
ATOM     15  C   UNL     1     -23.951  -4.210   9.082  1.00  0.00    -0.001 C 
ATOM     16  C   UNL     1     -23.583  -2.173   7.511  1.00  0.00     0.007 C 
ATOM     17  C   UNL     1     -23.694  -1.878  10.044  1.00  0.00     0.012 C 
ATOM     18  C   UNL     1     -22.502  -4.720   8.758  1.00  0.00     0.000 C 
ATOM     19  C   UNL     1     -22.477  -3.054   6.904  1.00  0.00     0.005 C 
ATOM     20  C   UNL     1     -21.621  -3.697   8.002  1.00  0.00     0.003 C 
ATOM     21  C   UNL     1     -21.764  -5.180  10.021  1.00  0.00     0.031 C 
ATOM     22  C   UNL     1     -20.276  -4.354   7.513  1.00  0.00    -0.008 C 
ATOM     23  C   UNL     1     -20.348  -5.601   9.735  1.00  0.00    -0.027 C 
ATOM     24  C   UNL     1     -19.654  -5.193   8.646  1.00  0.00    -0.065 C 
ATOM     25  C   UNL     1     -19.241  -3.245   7.094  1.00  0.00     0.014 C 
ATOM     26  C   UNL     1     -20.506  -5.285   6.296  1.00  0.00     0.016 C 
ATOM     27  C   UNL     1     -18.152  -5.356   8.632  1.00  0.00     0.063 C 
ATOM     28  C   UNL     1     -18.339  -2.800   8.259  1.00  0.00     0.033 C 
ATOM     29  C   UNL     1     -17.472  -3.975   8.787  1.00  0.00     0.118 C 
BRANCH  29  30
ATOM     30  O   UNL     1     -17.106  -3.751  10.124  1.00  0.00    -0.393 OA
ATOM     31  H   UNL     1     -17.429  -4.527  10.654  1.00  0.00     0.210 HD
ENDBRANCH  29  30
ENDBRANCH   9  11
ENDBRANCH   1   9
TORSDOF 7
ENDMDL
MODEL 6
REMARK VINA RESULT:    -4.347      2.410      3.824
REMARK INTER + INTRA:          -6.597
REMARK INTER:                  -6.504
REMARK INTRA:                  -0.093
REMARK UNBOUND:                -0.597
REMARK SMILES CC[C@H](CC[C@@H](C)[C@@H]1CC[C@H]2[C@@H]3CC=C4C[C@H](O)CC[C@]4(C)[C@H]3CC[C@]21C)C(C)C
REMARK SMILES IDX 5 1 4 2 3 3 2 4 1 5 28 6 29 7 30 8 6 9 7 10 8 11 9 12 26 13
REMARK SMILES IDX 10 14 11 15 25 16 27 17 12 18 24 19 23 20 13 21 21 22 14 23
REMARK SMILES IDX 15 24 20 25 22 26 16 27 19 28 17 29 18 30
REMARK H PARENT 18 31
REMARK Flexibility Score: inf
ROOT
ATOM      1  C   UNL     1     -25.429  -2.538   9.873  1.00  0.00     0.004 C 
ENDROOT
BRANCH   1   2
ATOM      2  C   UNL     1     -26.829  -1.921  10.123  1.00  0.00     0.004 C 
BRANCH   2   3
ATOM      3  C   UNL     1     -26.920  -0.384   9.855  1.00  0.00    -0.009 C 
BRANCH   3   4
ATOM      4  C   UNL     1     -25.506   0.255   9.977  1.00  0.00     0.000 C 
ATOM      5  C   UNL     1     -25.503   1.777  10.109  1.00  0.00     0.004 C 
ENDBRANCH   3   4
BRANCH   3   6
ATOM      6  C   UNL     1     -27.640  -0.112   8.485  1.00  0.00    -0.014 C 
ATOM      7  C   UNL     1     -28.779   0.916   8.583  1.00  0.00     0.007 C 
ATOM      8  C   UNL     1     -28.119  -1.390   7.775  1.00  0.00     0.007 C 
ENDBRANCH   3   6
ENDBRANCH   2   3
ENDBRANCH   1   2
BRANCH   1   9
ATOM      9  C   UNL     1     -25.425  -4.082   9.630  1.00  0.00    -0.011 C 
ATOM     10  C   UNL     1     -26.803  -4.596   9.161  1.00  0.00     0.008 C 
BRANCH   9  11
ATOM     11  C   UNL     1     -24.236  -4.632   8.750  1.00  0.00    -0.002 C 
ATOM     12  C   UNL     1     -23.478  -5.758   9.486  1.00  0.00     0.005 C 
ATOM     13  C   UNL     1     -23.119  -3.674   8.157  1.00  0.00    -0.026 C 
ATOM     14  C   UNL     1     -21.992  -5.445   9.400  1.00  0.00     0.005 C 
ATOM     15  C   UNL     1     -21.880  -3.961   9.049  1.00  0.00    -0.001 C 
ATOM     16  C   UNL     1     -22.851  -4.055   6.640  1.00  0.00     0.007 C 
ATOM     17  C   UNL     1     -23.480  -2.169   8.241  1.00  0.00     0.012 C 
ATOM     18  C   UNL     1     -20.469  -3.596   8.465  1.00  0.00     0.000 C 
ATOM     19  C   UNL     1     -21.378  -4.235   6.234  1.00  0.00     0.005 C 
ATOM     20  C   UNL     1     -20.478  -3.230   6.962  1.00  0.00     0.003 C 
ATOM     21  C   UNL     1     -19.803  -2.461   9.253  1.00  0.00     0.031 C 
ATOM     22  C   UNL     1     -19.013  -3.100   6.397  1.00  0.00    -0.008 C 
ATOM     23  C   UNL     1     -18.483  -2.049   8.658  1.00  0.00    -0.027 C 
ATOM     24  C   UNL     1     -18.143  -2.280   7.369  1.00  0.00    -0.065 C 
ATOM     25  C   UNL     1     -19.022  -2.370   5.003  1.00  0.00     0.014 C 
ATOM     26  C   UNL     1     -18.350  -4.488   6.212  1.00  0.00     0.016 C 
ATOM     27  C   UNL     1     -16.983  -1.518   6.771  1.00  0.00     0.063 C 
ATOM     28  C   UNL     1     -18.869  -0.843   5.129  1.00  0.00     0.033 C 
ATOM     29  C   UNL     1     -17.507  -0.460   5.771  1.00  0.00     0.118 C 
BRANCH  29  30
ATOM     30  O   UNL     1     -17.593   0.800   6.384  1.00  0.00    -0.393 OA
ATOM     31  H   UNL     1     -18.554   0.978   6.565  1.00  0.00     0.210 HD
ENDBRANCH  29  30
ENDBRANCH   9  11
ENDBRANCH   1   9
TORSDOF 7
ENDMDL
MODEL 7
REMARK VINA RESULT:    -4.179      2.008      3.539
REMARK INTER + INTRA:          -6.364
REMARK INTER:                  -5.367
REMARK INTRA:                  -0.997
REMARK UNBOUND:                -0.597
REMARK SMILES CC[C@H](CC[C@@H](C)[C@@H]1CC[C@H]2[C@@H]3CC=C4C[C@H](O)CC[C@]4(C)[C@H]3CC[C@]21C)C(C)C
REMARK SMILES IDX 5 1 4 2 3 3 2 4 1 5 28 6 29 7 30 8 6 9 7 10 8 11 9 12 26 13
REMARK SMILES IDX 10 14 11 15 25 16 27 17 12 18 24 19 23 20 13 21 21 22 14 23
REMARK SMILES IDX 15 24 20 25 22 26 16 27 19 28 17 29 18 30
REMARK H PARENT 18 31
REMARK Flexibility Score: inf
ROOT
ATOM      1  C   UNL     1     -24.975  -1.169   9.460  1.00  0.00     0.004 C 
ENDROOT
BRANCH   1   2
ATOM      2  C   UNL     1     -25.832  -0.528   8.338  1.00  0.00     0.004 C 
BRANCH   2   3
ATOM      3  C   UNL     1     -26.859   0.540   8.834  1.00  0.00    -0.009 C 
BRANCH   3   4
ATOM      4  C   UNL     1     -26.619   1.885   8.089  1.00  0.00     0.000 C 
ATOM      5  C   UNL     1     -26.600   3.119   8.990  1.00  0.00     0.004 C 
ENDBRANCH   3   4
BRANCH   3   6
ATOM      6  C   UNL     1     -28.324  -0.016   8.715  1.00  0.00    -0.014 C 
ATOM      7  C   UNL     1     -28.493  -1.430   9.295  1.00  0.00     0.007 C 
ATOM      8  C   UNL     1     -28.901   0.061   7.290  1.00  0.00     0.007 C 
ENDBRANCH   3   6
ENDBRANCH   2   3
ENDBRANCH   1   2
BRANCH   1   9
ATOM      9  C   UNL     1     -24.379  -2.571   9.114  1.00  0.00    -0.011 C 
ATOM     10  C   UNL     1     -25.357  -3.421   8.272  1.00  0.00     0.008 C 
BRANCH   9  11
ATOM     11  C   UNL     1     -22.914  -2.566   8.528  1.00  0.00    -0.002 C 
ATOM     12  C   UNL     1     -22.936  -2.504   6.985  1.00  0.00     0.005 C 
ATOM     13  C   UNL     1     -21.859  -3.689   8.901  1.00  0.00    -0.026 C 
ATOM     14  C   UNL     1     -21.999  -3.585   6.467  1.00  0.00     0.005 C 
ATOM     15  C   UNL     1     -21.790  -4.567   7.620  1.00  0.00    -0.001 C 
ATOM     16  C   UNL     1     -20.461  -3.012   9.222  1.00  0.00     0.007 C 
ATOM     17  C   UNL     1     -22.281  -4.566  10.107  1.00  0.00     0.012 C 
ATOM     18  C   UNL     1     -20.509  -5.452   7.419  1.00  0.00     0.000 C 
ATOM     19  C   UNL     1     -19.233  -3.616   8.519  1.00  0.00     0.005 C 
ATOM     20  C   UNL     1     -19.359  -5.140   8.404  1.00  0.00     0.003 C 
ATOM     21  C   UNL     1     -20.835  -6.949   7.489  1.00  0.00     0.031 C 
ATOM     22  C   UNL     1     -18.039  -5.898   7.999  1.00  0.00    -0.008 C 
ATOM     23  C   UNL     1     -19.606  -7.809   7.372  1.00  0.00    -0.027 C 
ATOM     24  C   UNL     1     -18.357  -7.366   7.652  1.00  0.00    -0.065 C 
ATOM     25  C   UNL     1     -17.007  -5.884   9.187  1.00  0.00     0.014 C 
ATOM     26  C   UNL     1     -17.364  -5.248   6.765  1.00  0.00     0.016 C 
ATOM     27  C   UNL     1     -17.253  -8.375   7.867  1.00  0.00     0.063 C 
ATOM     28  C   UNL     1     -17.154  -7.100  10.120  1.00  0.00     0.033 C 
ATOM     29  C   UNL     1     -16.876  -8.430   9.366  1.00  0.00     0.118 C 
BRANCH  29  30
ATOM     30  O   UNL     1     -17.529  -9.498  10.002  1.00  0.00    -0.393 OA
ATOM     31  H   UNL     1     -18.473  -9.495   9.693  1.00  0.00     0.210 HD
ENDBRANCH  29  30
ENDBRANCH   9  11
ENDBRANCH   1   9
TORSDOF 7
ENDMDL
MODEL 8
REMARK VINA RESULT:    -3.897      9.863     12.824
REMARK INTER + INTRA:          -5.975
REMARK INTER:                  -5.578
REMARK INTRA:                  -0.396
REMARK UNBOUND:                -0.597
REMARK SMILES CC[C@H](CC[C@@H](C)[C@@H]1CC[C@H]2[C@@H]3CC=C4C[C@H](O)CC[C@]4(C)[C@H]3CC[C@]21C)C(C)C
REMARK SMILES IDX 5 1 4 2 3 3 2 4 1 5 28 6 29 7 30 8 6 9 7 10 8 11 9 12 26 13
REMARK SMILES IDX 10 14 11 15 25 16 27 17 12 18 24 19 23 20 13 21 21 22 14 23
REMARK SMILES IDX 15 24 20 25 22 26 16 27 19 28 17 29 18 30
REMARK H PARENT 18 31
REMARK Flexibility Score: inf
ROOT
ATOM      1  C   UNL     1     -35.843   4.141   3.747  1.00  0.00     0.004 C 
ENDROOT
BRANCH   1   2
ATOM      2  C   UNL     1     -37.123   5.008   3.856  1.00  0.00     0.004 C 
BRANCH   2   3
ATOM      3  C   UNL     1     -37.100   6.060   5.012  1.00  0.00    -0.009 C 
BRANCH   3   4
ATOM      4  C   UNL     1     -37.121   5.330   6.386  1.00  0.00     0.000 C 
ATOM      5  C   UNL     1     -36.915   6.241   7.595  1.00  0.00     0.004 C 
ENDBRANCH   3   4
BRANCH   3   6
ATOM      6  C   UNL     1     -35.896   7.052   4.821  1.00  0.00    -0.014 C 
ATOM      7  C   UNL     1     -36.102   8.409   5.513  1.00  0.00     0.007 C 
ATOM      8  C   UNL     1     -35.483   7.246   3.352  1.00  0.00     0.007 C 
ENDBRANCH   3   6
ENDBRANCH   2   3
ENDBRANCH   1   2
BRANCH   1   9
ATOM      9  C   UNL     1     -36.012   2.657   4.208  1.00  0.00    -0.011 C 
ATOM     10  C   UNL     1     -36.065   1.683   3.011  1.00  0.00     0.008 C 
BRANCH   9  11
ATOM     11  C   UNL     1     -35.025   2.178   5.343  1.00  0.00    -0.002 C 
ATOM     12  C   UNL     1     -35.799   1.796   6.623  1.00  0.00     0.005 C 
ATOM     13  C   UNL     1     -33.806   3.070   5.825  1.00  0.00    -0.026 C 
ATOM     14  C   UNL     1     -35.119   2.487   7.796  1.00  0.00     0.005 C 
ATOM     15  C   UNL     1     -34.271   3.612   7.204  1.00  0.00    -0.001 C 
ATOM     16  C   UNL     1     -32.511   2.162   5.958  1.00  0.00     0.007 C 
ATOM     17  C   UNL     1     -33.490   4.259   4.880  1.00  0.00     0.012 C 
ATOM     18  C   UNL     1     -33.160   4.103   8.200  1.00  0.00     0.000 C 
ATOM     19  C   UNL     1     -31.720   2.292   7.272  1.00  0.00     0.005 C 
ATOM     20  C   UNL     1     -31.718   3.741   7.772  1.00  0.00     0.003 C 
ATOM     21  C   UNL     1     -33.245   5.614   8.448  1.00  0.00     0.031 C 
ATOM     22  C   UNL     1     -30.687   4.059   8.919  1.00  0.00    -0.008 C 
ATOM     23  C   UNL     1     -32.140   6.109   9.342  1.00  0.00    -0.027 C 
ATOM     24  C   UNL     1     -30.970   5.451   9.515  1.00  0.00    -0.065 C 
ATOM     25  C   UNL     1     -29.216   4.052   8.357  1.00  0.00     0.014 C 
ATOM     26  C   UNL     1     -30.771   3.019  10.065  1.00  0.00     0.016 C 
ATOM     27  C   UNL     1     -29.798   6.190  10.118  1.00  0.00     0.063 C 
ATOM     28  C   UNL     1     -28.758   5.438   7.868  1.00  0.00     0.033 C 
ATOM     29  C   UNL     1     -28.737   6.471   9.027  1.00  0.00     0.118 C 
BRANCH  29  30
ATOM     30  O   UNL     1     -28.878   7.774   8.524  1.00  0.00    -0.393 OA
ATOM     31  H   UNL     1     -27.971   8.095   8.274  1.00  0.00     0.210 HD
ENDBRANCH  29  30
ENDBRANCH   9  11
ENDBRANCH   1   9
TORSDOF 7
ENDMDL
