MODEL 1
REMARK VINA RESULT:    -3.424      0.000      0.000
REMARK INTER + INTRA:          -3.635
REMARK INTER:                  -3.624
REMARK INTRA:                  -0.011
REMARK UNBOUND:                -0.011
REMARK SMILES O=Cc1ccccc1
REMARK SMILES IDX 6 1 5 2 4 3 3 4 8 5 7 6 2 7 1 8
REMARK H PARENT
REMARK Flexibility Score: inf
ROOT
ATOM      1  C   UNL     1       4.489  12.326   7.739  1.00  0.00     0.000 A 
ATOM      2  C   UNL     1       5.323  13.447   7.757  1.00  0.00     0.001 A 
ATOM      3  C   UNL     1       6.712  13.288   7.743  1.00  0.00     0.011 A 
ATOM      4  C   UNL     1       7.278  12.000   7.713  1.00  0.00     0.014 A 
ATOM      5  C   UNL     1       6.432  10.880   7.696  1.00  0.00     0.011 A 
ATOM      6  C   UNL     1       5.043  11.044   7.709  1.00  0.00     0.001 A 
ENDROOT
BRANCH   4   7
ATOM      7  C   UNL     1       8.740  11.810   7.698  1.00  0.00     0.260 C 
ATOM      8  O   UNL     1       9.489  12.571   7.030  1.00  0.00    -0.298 OA
ENDBRANCH   4   7
TORSDOF 1
ENDMDL
MODEL 2
REMARK VINA RESULT:    -3.408      0.068      1.713
REMARK INTER + INTRA:          -3.618
REMARK INTER:                  -3.607
REMARK INTRA:                  -0.012
REMARK UNBOUND:                -0.011
REMARK SMILES O=Cc1ccccc1
REMARK SMILES IDX 6 1 5 2 4 3 3 4 8 5 7 6 2 7 1 8
REMARK H PARENT
REMARK Flexibility Score: inf
ROOT
ATOM      1  C   UNL     1       4.488  12.391   7.730  1.00  0.00     0.000 A 
ATOM      2  C   UNL     1       4.989  11.087   7.692  1.00  0.00     0.001 A 
ATOM      3  C   UNL     1       6.369  10.866   7.695  1.00  0.00     0.011 A 
ATOM      4  C   UNL     1       7.261  11.953   7.734  1.00  0.00     0.014 A 
ATOM      5  C   UNL     1       6.749  13.260   7.771  1.00  0.00     0.011 A 
ATOM      6  C   UNL     1       5.367  13.476   7.769  1.00  0.00     0.001 A 
ENDROOT
BRANCH   4   7
ATOM      7  C   UNL     1       8.721  11.742   7.737  1.00  0.00     0.260 C 
ATOM      8  O   UNL     1       9.489  12.498   7.083  1.00  0.00    -0.298 OA
ENDBRANCH   4   7
TORSDOF 1
ENDMDL
MODEL 3
REMARK VINA RESULT:    -3.356      1.045      2.080
REMARK INTER + INTRA:          -3.564
REMARK INTER:                  -3.553
REMARK INTRA:                  -0.011
REMARK UNBOUND:                -0.011
REMARK SMILES O=Cc1ccccc1
REMARK SMILES IDX 6 1 5 2 4 3 3 4 8 5 7 6 2 7 1 8
REMARK H PARENT
REMARK Flexibility Score: inf
ROOT
ATOM      1  C   UNL     1       4.991  10.211   7.689  1.00  0.00     0.000 A 
ATOM      2  C   UNL     1       6.378  10.048   7.689  1.00  0.00     0.001 A 
ATOM      3  C   UNL     1       7.216  11.167   7.719  1.00  0.00     0.011 A 
ATOM      4  C   UNL     1       6.667  12.462   7.747  1.00  0.00     0.014 A 
ATOM      5  C   UNL     1       5.272  12.616   7.747  1.00  0.00     0.011 A 
ATOM      6  C   UNL     1       4.438  11.494   7.718  1.00  0.00     0.001 A 
ENDROOT
BRANCH   4   7
ATOM      7  C   UNL     1       7.532  13.656   7.778  1.00  0.00     0.260 C 
ATOM      8  O   UNL     1       8.600  13.704   7.111  1.00  0.00    -0.298 OA
ENDBRANCH   4   7
TORSDOF 1
ENDMDL
MODEL 4
REMARK VINA RESULT:    -3.181      2.223      3.290
REMARK INTER + INTRA:          -3.378
REMARK INTER:                  -3.370
REMARK INTRA:                  -0.009
REMARK UNBOUND:                -0.011
REMARK SMILES O=Cc1ccccc1
REMARK SMILES IDX 6 1 5 2 4 3 3 4 8 5 7 6 2 7 1 8
REMARK H PARENT
REMARK Flexibility Score: inf
ROOT
ATOM      1  C   UNL     1       7.010  11.277   7.855  1.00  0.00     0.000 A 
ATOM      2  C   UNL     1       7.573  12.555   7.824  1.00  0.00     0.001 A 
ATOM      3  C   UNL     1       6.753  13.680   7.691  1.00  0.00     0.011 A 
ATOM      4  C   UNL     1       5.358  13.531   7.585  1.00  0.00     0.014 A 
ATOM      5  C   UNL     1       4.802  12.242   7.616  1.00  0.00     0.011 A 
ATOM      6  C   UNL     1       5.626  11.120   7.750  1.00  0.00     0.001 A 
ENDROOT
BRANCH   4   7
ATOM      7  C   UNL     1       4.475  14.703   7.443  1.00  0.00     0.260 C 
ATOM      8  O   UNL     1       4.160  15.147   6.306  1.00  0.00    -0.298 OA
ENDBRANCH   4   7
TORSDOF 1
ENDMDL
MODEL 5
REMARK VINA RESULT:    -3.144     10.652     11.823
REMARK INTER + INTRA:          -3.339
REMARK INTER:                  -3.330
REMARK INTRA:                  -0.009
REMARK UNBOUND:                -0.011
REMARK SMILES O=Cc1ccccc1
REMARK SMILES IDX 6 1 5 2 4 3 3 4 8 5 7 6 2 7 1 8
REMARK H PARENT
REMARK Flexibility Score: inf
ROOT
ATOM      1  C   UNL     1      15.579   6.085  10.362  1.00  0.00     0.000 A 
ATOM      2  C   UNL     1      14.979   7.300  10.705  1.00  0.00     0.001 A 
ATOM      3  C   UNL     1      15.037   7.763  12.022  1.00  0.00     0.011 A 
ATOM      4  C   UNL     1      15.697   7.010  13.010  1.00  0.00     0.014 A 
ATOM      5  C   UNL     1      16.296   5.791  12.656  1.00  0.00     0.011 A 
ATOM      6  C   UNL     1      16.237   5.332  11.337  1.00  0.00     0.001 A 
ENDROOT
BRANCH   4   7
ATOM      7  C   UNL     1      15.769   7.480  14.406  1.00  0.00     0.260 C 
ATOM      8  O   UNL     1      16.815   8.018  14.859  1.00  0.00    -0.298 OA
ENDBRANCH   4   7
TORSDOF 1
ENDMDL
MODEL 6
REMARK VINA RESULT:    -3.141     10.384     11.491
REMARK INTER + INTRA:          -3.336
REMARK INTER:                  -3.323
REMARK INTRA:                  -0.013
REMARK UNBOUND:                -0.011
REMARK SMILES O=Cc1ccccc1
REMARK SMILES IDX 6 1 5 2 4 3 3 4 8 5 7 6 2 7 1 8
REMARK H PARENT
REMARK Flexibility Score: inf
ROOT
ATOM      1  C   UNL     1      15.568   7.414  13.186  1.00  0.00     0.000 A 
ATOM      2  C   UNL     1      16.202   6.174  13.079  1.00  0.00     0.001 A 
ATOM      3  C   UNL     1      16.250   5.513  11.848  1.00  0.00     0.011 A 
ATOM      4  C   UNL     1      15.657   6.091  10.711  1.00  0.00     0.014 A 
ATOM      5  C   UNL     1      15.022   7.338  10.827  1.00  0.00     0.011 A 
ATOM      6  C   UNL     1      14.978   7.996  12.060  1.00  0.00     0.001 A 
ENDROOT
BRANCH   4   7
ATOM      7  C   UNL     1      15.695   5.411   9.403  1.00  0.00     0.260 C 
ATOM      8  O   UNL     1      15.699   6.068   8.327  1.00  0.00    -0.298 OA
ENDBRANCH   4   7
TORSDOF 1
ENDMDL
MODEL 7
REMARK VINA RESULT:    -3.140     10.640     11.912
REMARK INTER + INTRA:          -3.334
REMARK INTER:                  -3.326
REMARK INTRA:                  -0.009
REMARK UNBOUND:                -0.011
REMARK SMILES O=Cc1ccccc1
REMARK SMILES IDX 6 1 5 2 4 3 3 4 8 5 7 6 2 7 1 8
REMARK H PARENT
REMARK Flexibility Score: inf
ROOT
ATOM      1  C   UNL     1      15.581   6.107  10.343  1.00  0.00     0.000 A 
ATOM      2  C   UNL     1      16.242   5.326  11.294  1.00  0.00     0.001 A 
ATOM      3  C   UNL     1      16.298   5.742  12.628  1.00  0.00     0.011 A 
ATOM      4  C   UNL     1      15.691   6.949  13.019  1.00  0.00     0.014 A 
ATOM      5  C   UNL     1      15.029   7.728  12.057  1.00  0.00     0.011 A 
ATOM      6  C   UNL     1      14.975   7.307  10.724  1.00  0.00     0.001 A 
ENDROOT
BRANCH   4   7
ATOM      7  C   UNL     1      15.738   7.407  14.420  1.00  0.00     0.260 C 
ATOM      8  O   UNL     1      16.719   8.067  14.857  1.00  0.00    -0.298 OA
ENDBRANCH   4   7
TORSDOF 1
ENDMDL
MODEL 8
REMARK VINA RESULT:    -3.062      2.813      4.818
REMARK INTER + INTRA:          -3.253
REMARK INTER:                  -3.241
REMARK INTRA:                  -0.011
REMARK UNBOUND:                -0.011
REMARK SMILES O=Cc1ccccc1
REMARK SMILES IDX 6 1 5 2 4 3 3 4 8 5 7 6 2 7 1 8
REMARK H PARENT
REMARK Flexibility Score: inf
ROOT
ATOM      1  C   UNL     1      10.502   8.046   6.527  1.00  0.00     0.000 A 
ATOM      2  C   UNL     1       9.979   8.197   7.813  1.00  0.00     0.001 A 
ATOM      3  C   UNL     1       9.346   9.389   8.178  1.00  0.00     0.011 A 
ATOM      4  C   UNL     1       9.236  10.444   7.254  1.00  0.00     0.014 A 
ATOM      5  C   UNL     1       9.766  10.284   5.964  1.00  0.00     0.011 A 
ATOM      6  C   UNL     1      10.396   9.089   5.603  1.00  0.00     0.001 A 
ENDROOT
BRANCH   4   7
ATOM      7  C   UNL     1       8.574  11.711   7.617  1.00  0.00     0.260 C 
ATOM      8  O   UNL     1       9.077  12.822   7.302  1.00  0.00    -0.298 OA
ENDBRANCH   4   7
TORSDOF 1
ENDMDL
MODEL 9
REMARK VINA RESULT:    -2.972      1.636      2.285
REMARK INTER + INTRA:          -3.157
REMARK INTER:                  -3.149
REMARK INTRA:                  -0.009
REMARK UNBOUND:                -0.011
REMARK SMILES O=Cc1ccccc1
REMARK SMILES IDX 6 1 5 2 4 3 3 4 8 5 7 6 2 7 1 8
REMARK H PARENT
REMARK Flexibility Score: inf
ROOT
ATOM      1  C   UNL     1       6.246  13.663   7.783  1.00  0.00     0.000 A 
ATOM      2  C   UNL     1       7.590  13.281   7.798  1.00  0.00     0.001 A 
ATOM      3  C   UNL     1       7.935  11.927   7.763  1.00  0.00     0.011 A 
ATOM      4  C   UNL     1       6.932  10.942   7.715  1.00  0.00     0.014 A 
ATOM      5  C   UNL     1       5.585  11.335   7.702  1.00  0.00     0.011 A 
ATOM      6  C   UNL     1       5.244  12.690   7.736  1.00  0.00     0.001 A 
ENDROOT
BRANCH   4   7
ATOM      7  C   UNL     1       7.274   9.508   7.679  1.00  0.00     0.260 C 
ATOM      8  O   UNL     1       7.762   8.981   6.644  1.00  0.00    -0.298 OA
ENDBRANCH   4   7
TORSDOF 1
ENDMDL
