MODEL 1
REMARK VINA RESULT:    -2.468      0.000      0.000
REMARK INTER + INTRA:          -2.468
REMARK INTER:                  -2.468
REMARK INTRA:                   0.000
REMARK UNBOUND:                 0.000
REMARK SMILES CC(=O)[O-]
REMARK SMILES IDX 1 1 2 2 3 3 4 4
REMARK H PARENT
REMARK Flexibility Score: inf
ROOT
ATOM      1  C   UNL     1      -1.768  53.225  59.398  1.00  0.00     0.063 C 
ATOM      2  C   UNL     1      -2.195  54.470  60.098  1.00  0.00     0.038 C 
ATOM      3  O   UNL     1      -3.102  55.192  59.608  1.00  0.00    -0.550 OA
ATOM      4  O   UNL     1      -1.630  54.809  61.321  1.00  0.00    -0.550 OA
ENDROOT
TORSDOF 0
ENDMDL
MODEL 2
REMARK VINA RESULT:    -2.375     12.322     12.648
REMARK INTER + INTRA:          -2.375
REMARK INTER:                  -2.375
REMARK INTRA:                   0.000
REMARK UNBOUND:                 0.000
REMARK SMILES CC(=O)[O-]
REMARK SMILES IDX 1 1 2 2 3 3 4 4
REMARK H PARENT
REMARK Flexibility Score: inf
ROOT
ATOM      1  C   UNL     1      -2.408  56.869  49.186  1.00  0.00     0.063 C 
ATOM      2  C   UNL     1      -2.432  56.556  47.729  1.00  0.00     0.038 C 
ATOM      3  O   UNL     1      -3.518  56.589  47.093  1.00  0.00    -0.550 OA
ATOM      4  O   UNL     1      -1.248  56.279  47.057  1.00  0.00    -0.550 OA
ENDROOT
TORSDOF 0
ENDMDL
MODEL 3
REMARK VINA RESULT:    -2.375     11.325     11.863
REMARK INTER + INTRA:          -2.375
REMARK INTER:                  -2.375
REMARK INTRA:                   0.000
REMARK UNBOUND:                 0.000
REMARK SMILES CC(=O)[O-]
REMARK SMILES IDX 1 1 2 2 3 3 4 4
REMARK H PARENT
REMARK Flexibility Score: inf
ROOT
ATOM      1  C   UNL     1      -1.891  56.576  47.406  1.00  0.00     0.063 C 
ATOM      2  C   UNL     1      -2.381  57.142  48.695  1.00  0.00     0.038 C 
ATOM      3  O   UNL     1      -2.619  56.381  49.670  1.00  0.00    -0.550 OA
ATOM      4  O   UNL     1      -2.525  58.515  48.842  1.00  0.00    -0.550 OA
ENDROOT
TORSDOF 0
ENDMDL
MODEL 4
REMARK VINA RESULT:    -2.293     12.196     12.705
REMARK INTER + INTRA:          -2.293
REMARK INTER:                  -2.293
REMARK INTRA:                   0.000
REMARK UNBOUND:                 0.000
REMARK SMILES CC(=O)[O-]
REMARK SMILES IDX 1 1 2 2 3 3 4 4
REMARK H PARENT
REMARK Flexibility Score: inf
ROOT
ATOM      1  C   UNL     1      -3.691  56.816  46.853  1.00  0.00     0.063 C 
ATOM      2  C   UNL     1      -2.495  56.511  47.689  1.00  0.00     0.038 C 
ATOM      3  O   UNL     1      -1.379  56.303  47.143  1.00  0.00    -0.550 OA
ATOM      4  O   UNL     1      -2.595  56.510  49.073  1.00  0.00    -0.550 OA
ENDROOT
TORSDOF 0
ENDMDL
MODEL 5
REMARK VINA RESULT:    -2.252      1.878      2.372
REMARK INTER + INTRA:          -2.252
REMARK INTER:                  -2.252
REMARK INTRA:                   0.000
REMARK UNBOUND:                 0.000
REMARK SMILES CC(=O)[O-]
REMARK SMILES IDX 1 1 2 2 3 3 4 4
REMARK H PARENT
REMARK Flexibility Score: inf
ROOT
ATOM      1  C   UNL     1      -3.315  54.900  60.034  1.00  0.00     0.063 C 
ATOM      2  C   UNL     1      -2.531  53.658  59.781  1.00  0.00     0.038 C 
ATOM      3  O   UNL     1      -1.281  53.716  59.649  1.00  0.00    -0.550 OA
ATOM      4  O   UNL     1      -3.171  52.426  59.745  1.00  0.00    -0.550 OA
ENDROOT
TORSDOF 0
ENDMDL
MODEL 6
REMARK VINA RESULT:    -2.178     11.675     12.251
REMARK INTER + INTRA:          -2.178
REMARK INTER:                  -2.178
REMARK INTRA:                   0.000
REMARK UNBOUND:                 0.000
REMARK SMILES CC(=O)[O-]
REMARK SMILES IDX 1 1 2 2 3 3 4 4
REMARK H PARENT
REMARK Flexibility Score: inf
ROOT
ATOM      1  C   UNL     1      -2.326  56.742  49.147  1.00  0.00     0.063 C 
ATOM      2  C   UNL     1      -2.717  58.046  48.541  1.00  0.00     0.038 C 
ATOM      3  O   UNL     1      -2.243  59.121  48.993  1.00  0.00    -0.550 OA
ATOM      4  O   UNL     1      -3.565  58.077  47.442  1.00  0.00    -0.550 OA
ENDROOT
TORSDOF 0
ENDMDL
MODEL 7
REMARK VINA RESULT:    -2.108     10.079     10.267
REMARK INTER + INTRA:          -2.108
REMARK INTER:                  -2.108
REMARK INTRA:                   0.000
REMARK UNBOUND:                 0.000
REMARK SMILES CC(=O)[O-]
REMARK SMILES IDX 1 1 2 2 3 3 4 4
REMARK H PARENT
REMARK Flexibility Score: inf
ROOT
ATOM      1  C   UNL     1       7.069  58.786  56.682  1.00  0.00     0.063 C 
ATOM      2  C   UNL     1       6.090  59.599  57.459  1.00  0.00     0.038 C 
ATOM      3  O   UNL     1       5.951  59.409  58.695  1.00  0.00    -0.550 OA
ATOM      4  O   UNL     1       5.369  60.606  56.831  1.00  0.00    -0.550 OA
ENDROOT
TORSDOF 0
ENDMDL
MODEL 8
REMARK VINA RESULT:    -2.084     12.209     12.358
REMARK INTER + INTRA:          -2.084
REMARK INTER:                  -2.084
REMARK INTRA:                   0.000
REMARK UNBOUND:                 0.000
REMARK SMILES CC(=O)[O-]
REMARK SMILES IDX 1 1 2 2 3 3 4 4
REMARK H PARENT
REMARK Flexibility Score: inf
ROOT
ATOM      1  C   UNL     1       8.216  60.761  54.661  1.00  0.00     0.063 C 
ATOM      2  C   UNL     1       7.825  60.071  55.924  1.00  0.00     0.038 C 
ATOM      3  O   UNL     1       7.666  60.734  56.983  1.00  0.00    -0.550 OA
ATOM      4  O   UNL     1       7.582  58.704  55.924  1.00  0.00    -0.550 OA
ENDROOT
TORSDOF 0
ENDMDL
MODEL 9
REMARK VINA RESULT:    -2.046     12.260     12.328
REMARK INTER + INTRA:          -2.046
REMARK INTER:                  -2.046
REMARK INTRA:                   0.000
REMARK UNBOUND:                 0.000
REMARK SMILES CC(=O)[O-]
REMARK SMILES IDX 1 1 2 2 3 3 4 4
REMARK H PARENT
REMARK Flexibility Score: inf
ROOT
ATOM      1  C   UNL     1       7.562  58.925  56.215  1.00  0.00     0.063 C 
ATOM      2  C   UNL     1       7.839  60.380  56.042  1.00  0.00     0.038 C 
ATOM      3  O   UNL     1       7.948  60.870  54.888  1.00  0.00    -0.550 OA
ATOM      4  O   UNL     1       7.923  61.209  57.153  1.00  0.00    -0.550 OA
ENDROOT
TORSDOF 0
ENDMDL
