MODEL 1
REMARK VINA RESULT:    -5.422      0.000      0.000
REMARK INTER + INTRA:          -9.479
REMARK INTER:                  -7.958
REMARK INTRA:                  -1.521
REMARK UNBOUND:                -1.521
REMARK SMILES O=c1c(O[C@@H]2O[C@@H](CO)[C@@H](O)[C@H](O)[C@H]2O)c(-c2ccc(O)c(O)c2)oc2cc(O)cc(O)c12
REMARK SMILES IDX 4 1 3 2 16 3 25 4 2 5 26 6 1 7 33 8 27 9 31 10 28 11 30 12
REMARK SMILES IDX 17 13 18 14 19 15 20 16 24 17 22 18 21 19 23 21 32 23 29 25
REMARK SMILES IDX 5 27 14 28 6 29 12 30 7 31 10 32 15 33 13 35 8 37 9 38 11 40
REMARK H PARENT 21 20 23 22 32 24 29 26 15 34 13 36 9 39 11 41
REMARK Flexibility Score: inf
ROOT
ATOM      1  O   UNL     1       0.421  10.628  41.903  1.00  0.00    -0.454 OA
ENDROOT
BRANCH   1   2
ATOM      2  C   UNL     1      -0.217  11.867  42.135  1.00  0.00     0.214 A 
ATOM      3  C   UNL     1      -1.585  11.852  42.468  1.00  0.00     0.180 A 
ATOM      4  O   UNL     1      -2.212  12.977  42.781  1.00  0.00    -0.452 OA
ATOM      5  C   UNL     1       0.443  13.118  42.090  1.00  0.00     0.239 A 
ATOM      6  C   UNL     1      -1.633  14.169  42.747  1.00  0.00     0.146 A 
ATOM      7  O   UNL     1       1.680  13.165  41.870  1.00  0.00    -0.285 OA
ATOM      8  C   UNL     1      -0.281  14.309  42.345  1.00  0.00     0.111 A 
ATOM      9  C   UNL     1      -2.383  15.287  43.122  1.00  0.00     0.094 A 
ATOM     10  C   UNL     1       0.272  15.623  42.268  1.00  0.00     0.134 A 
ATOM     11  C   UNL     1      -1.813  16.558  43.109  1.00  0.00     0.123 A 
ATOM     12  C   UNL     1      -0.492  16.720  42.685  1.00  0.00     0.093 A 
BRANCH   3  13
ATOM     13  C   UNL     1      -2.359  10.595  42.513  1.00  0.00     0.025 A 
ATOM     14  C   UNL     1      -2.918  10.050  41.347  1.00  0.00     0.016 A 
ATOM     15  C   UNL     1      -3.663   8.870  41.407  1.00  0.00     0.051 A 
ATOM     16  C   UNL     1      -3.872   8.228  42.631  1.00  0.00     0.157 A 
ATOM     17  C   UNL     1      -2.591   9.964  43.746  1.00  0.00     0.062 A 
ATOM     18  C   UNL     1      -3.338   8.779  43.808  1.00  0.00     0.158 A 
BRANCH  16  19
ATOM     19  O   UNL     1      -4.616   7.048  42.659  1.00  0.00    -0.504 OA
ATOM     20  H   UNL     1      -4.558   6.357  41.920  1.00  0.00     0.293 HD
ENDBRANCH  16  19
BRANCH  18  21
ATOM     21  O   UNL     1      -3.552   8.150  45.033  1.00  0.00    -0.504 OA
ATOM     22  H   UNL     1      -2.805   7.669  45.520  1.00  0.00     0.293 HD
ENDBRANCH  18  21
ENDBRANCH   3  13
BRANCH  10  23
ATOM     23  O   UNL     1       1.544  15.903  41.760  1.00  0.00    -0.507 OA
ATOM     24  H   UNL     1       1.720  16.401  40.901  1.00  0.00     0.293 HD
ENDBRANCH  10  23
BRANCH  11  25
ATOM     25  O   UNL     1      -2.572  17.655  43.508  1.00  0.00    -0.508 OA
ATOM     26  H   UNL     1      -2.190  18.594  43.500  1.00  0.00     0.293 HD
ENDBRANCH  11  25
ENDBRANCH   1   2
BRANCH   1  27
ATOM     27  C   UNL     1       1.018   9.764  42.878  1.00  0.00     0.339 C 
ATOM     28  C   UNL     1       0.799   8.284  42.500  1.00  0.00     0.214 C 
ATOM     29  O   UNL     1       2.395  10.059  43.063  1.00  0.00    -0.332 OA
ATOM     30  C   UNL     1       1.673   7.871  41.296  1.00  0.00     0.180 C 
ATOM     31  C   UNL     1       3.136   9.841  41.873  1.00  0.00     0.179 C 
ATOM     32  C   UNL     1       3.128   8.345  41.489  1.00  0.00     0.177 C 
BRANCH  28  33
ATOM     33  O   UNL     1       1.103   7.480  43.612  1.00  0.00    -0.384 OA
ATOM     34  H   UNL     1       1.728   6.776  43.296  1.00  0.00     0.211 HD
ENDBRANCH  28  33
BRANCH  30  35
ATOM     35  O   UNL     1       1.135   8.420  40.121  1.00  0.00    -0.387 OA
ATOM     36  H   UNL     1       0.534   9.161  40.397  1.00  0.00     0.211 HD
ENDBRANCH  30  35
BRANCH  31  37
ATOM     37  C   UNL     1       4.561  10.380  42.061  1.00  0.00     0.191 C 
BRANCH  37  38
ATOM     38  O   UNL     1       5.066  10.019  43.318  1.00  0.00    -0.394 OA
ATOM     39  H   UNL     1       4.717   9.108  43.503  1.00  0.00     0.210 HD
ENDBRANCH  37  38
ENDBRANCH  31  37
BRANCH  32  40
ATOM     40  O   UNL     1       3.749   7.585  42.495  1.00  0.00    -0.387 OA
ATOM     41  H   UNL     1       3.880   8.188  43.272  1.00  0.00     0.211 HD
ENDBRANCH  32  40
ENDBRANCH   1  27
TORSDOF 12
ENDMDL
MODEL 2
REMARK VINA RESULT:    -5.162      1.609      4.557
REMARK INTER + INTRA:          -9.098
REMARK INTER:                  -7.312
REMARK INTRA:                  -1.786
REMARK UNBOUND:                -1.521
REMARK SMILES O=c1c(O[C@@H]2O[C@@H](CO)[C@@H](O)[C@H](O)[C@H]2O)c(-c2ccc(O)c(O)c2)oc2cc(O)cc(O)c12
REMARK SMILES IDX 4 1 3 2 16 3 25 4 2 5 26 6 1 7 33 8 27 9 31 10 28 11 30 12
REMARK SMILES IDX 17 13 18 14 19 15 20 16 24 17 22 18 21 19 23 21 32 23 29 25
REMARK SMILES IDX 5 27 14 28 6 29 12 30 7 31 10 32 15 33 13 35 8 37 9 38 11 40
REMARK H PARENT 21 20 23 22 32 24 29 26 15 34 13 36 9 39 11 41
REMARK Flexibility Score: inf
ROOT
ATOM      1  O   UNL     1      -1.593  11.266  42.488  1.00  0.00    -0.454 OA
ENDROOT
BRANCH   1   2
ATOM      2  C   UNL     1      -1.341  12.655  42.557  1.00  0.00     0.214 A 
ATOM      3  C   UNL     1      -0.070  13.115  42.164  1.00  0.00     0.180 A 
ATOM      4  O   UNL     1       0.192  14.413  42.125  1.00  0.00    -0.452 OA
ATOM      5  C   UNL     1      -2.300  13.614  42.959  1.00  0.00     0.239 A 
ATOM      6  C   UNL     1      -0.674  15.344  42.498  1.00  0.00     0.146 A 
ATOM      7  O   UNL     1      -3.468  13.249  43.244  1.00  0.00    -0.285 OA
ATOM      8  C   UNL     1      -1.956  14.989  42.989  1.00  0.00     0.111 A 
ATOM      9  C   UNL     1      -0.301  16.686  42.392  1.00  0.00     0.094 A 
ATOM     10  C   UNL     1      -2.825  16.030  43.434  1.00  0.00     0.134 A 
ATOM     11  C   UNL     1      -1.183  17.697  42.764  1.00  0.00     0.123 A 
ATOM     12  C   UNL     1      -2.438  17.367  43.280  1.00  0.00     0.093 A 
BRANCH   3  13
ATOM     13  C   UNL     1       1.001  12.182  41.754  1.00  0.00     0.025 A 
ATOM     14  C   UNL     1       1.075  11.706  40.436  1.00  0.00     0.016 A 
ATOM     15  C   UNL     1       2.082  10.812  40.065  1.00  0.00     0.051 A 
ATOM     16  C   UNL     1       3.017  10.370  41.007  1.00  0.00     0.157 A 
ATOM     17  C   UNL     1       1.923  11.719  42.705  1.00  0.00     0.062 A 
ATOM     18  C   UNL     1       2.935  10.822  42.335  1.00  0.00     0.158 A 
BRANCH  16  19
ATOM     19  O   UNL     1       4.014   9.481  40.606  1.00  0.00    -0.504 OA
ATOM     20  H   UNL     1       4.025   8.513  40.909  1.00  0.00     0.293 HD
ENDBRANCH  16  19
BRANCH  18  21
ATOM     21  O   UNL     1       3.857  10.377  43.281  1.00  0.00    -0.504 OA
ATOM     22  H   UNL     1       4.493  11.016  43.743  1.00  0.00     0.293 HD
ENDBRANCH  18  21
ENDBRANCH   3  13
BRANCH  10  23
ATOM     23  O   UNL     1      -4.055  15.803  44.058  1.00  0.00    -0.507 OA
ATOM     24  H   UNL     1      -4.605  14.965  43.949  1.00  0.00     0.293 HD
ENDBRANCH  10  23
BRANCH  11  25
ATOM     25  O   UNL     1      -0.798  19.029  42.629  1.00  0.00    -0.508 OA
ATOM     26  H   UNL     1       0.171  19.289  42.488  1.00  0.00     0.293 HD
ENDBRANCH  11  25
ENDBRANCH   1   2
BRANCH   1  27
ATOM     27  C   UNL     1      -1.589  10.330  43.573  1.00  0.00     0.339 C 
ATOM     28  C   UNL     1      -2.931   9.571  43.641  1.00  0.00     0.214 C 
ATOM     29  O   UNL     1      -0.487   9.436  43.487  1.00  0.00    -0.332 OA
ATOM     30  C   UNL     1      -3.066   8.553  42.488  1.00  0.00     0.180 C 
ATOM     31  C   UNL     1      -0.553   8.643  42.313  1.00  0.00     0.179 C 
ATOM     32  C   UNL     1      -1.782   7.708  42.352  1.00  0.00     0.177 C 
BRANCH  28  33
ATOM     33  O   UNL     1      -3.018   8.911  44.879  1.00  0.00    -0.384 OA
ATOM     34  H   UNL     1      -3.110   7.942  44.681  1.00  0.00     0.211 HD
ENDBRANCH  28  33
BRANCH  30  35
ATOM     35  O   UNL     1      -3.327   9.237  41.291  1.00  0.00    -0.387 OA
ATOM     36  H   UNL     1      -2.607   9.912  41.181  1.00  0.00     0.211 HD
ENDBRANCH  30  35
BRANCH  31  37
ATOM     37  C   UNL     1       0.760   7.862  42.159  1.00  0.00     0.191 C 
BRANCH  37  38
ATOM     38  O   UNL     1       1.387   7.696  43.401  1.00  0.00    -0.394 OA
ATOM     39  H   UNL     1       1.262   8.551  43.888  1.00  0.00     0.210 HD
ENDBRANCH  37  38
ENDBRANCH  31  37
BRANCH  32  40
ATOM     40  O   UNL     1      -1.678   6.818  43.435  1.00  0.00    -0.387 OA
ATOM     41  H   UNL     1      -0.717   6.779  43.683  1.00  0.00     0.211 HD
ENDBRANCH  32  40
ENDBRANCH   1  27
TORSDOF 12
ENDMDL
MODEL 3
REMARK VINA RESULT:    -5.130      2.793      6.205
REMARK INTER + INTRA:          -9.051
REMARK INTER:                  -7.571
REMARK INTRA:                  -1.480
REMARK UNBOUND:                -1.521
REMARK SMILES O=c1c(O[C@@H]2O[C@@H](CO)[C@@H](O)[C@H](O)[C@H]2O)c(-c2ccc(O)c(O)c2)oc2cc(O)cc(O)c12
REMARK SMILES IDX 4 1 3 2 16 3 25 4 2 5 26 6 1 7 33 8 27 9 31 10 28 11 30 12
REMARK SMILES IDX 17 13 18 14 19 15 20 16 24 17 22 18 21 19 23 21 32 23 29 25
REMARK SMILES IDX 5 27 14 28 6 29 12 30 7 31 10 32 15 33 13 35 8 37 9 38 11 40
REMARK H PARENT 21 20 23 22 32 24 29 26 15 34 13 36 9 39 11 41
REMARK Flexibility Score: inf
ROOT
ATOM      1  O   UNL     1       1.597  11.060  41.848  1.00  0.00    -0.454 OA
ENDROOT
BRANCH   1   2
ATOM      2  C   UNL     1       2.456  11.911  41.117  1.00  0.00     0.214 A 
ATOM      3  C   UNL     1       3.739  11.432  40.793  1.00  0.00     0.180 A 
ATOM      4  O   UNL     1       4.554  12.152  40.035  1.00  0.00    -0.452 OA
ATOM      5  C   UNL     1       2.092  13.200  40.659  1.00  0.00     0.239 A 
ATOM      6  C   UNL     1       4.255  13.364  39.589  1.00  0.00     0.146 A 
ATOM      7  O   UNL     1       0.930  13.631  40.864  1.00  0.00    -0.285 OA
ATOM      8  C   UNL     1       3.022  13.977  39.925  1.00  0.00     0.111 A 
ATOM      9  C   UNL     1       5.179  14.024  38.776  1.00  0.00     0.094 A 
ATOM     10  C   UNL     1       2.779  15.309  39.469  1.00  0.00     0.134 A 
ATOM     11  C   UNL     1       4.903  15.295  38.279  1.00  0.00     0.123 A 
ATOM     12  C   UNL     1       3.708  15.930  38.624  1.00  0.00     0.093 A 
BRANCH   3  13
ATOM     13  C   UNL     1       4.213  10.109  41.251  1.00  0.00     0.025 A 
ATOM     14  C   UNL     1       3.950   8.951  40.504  1.00  0.00     0.016 A 
ATOM     15  C   UNL     1       4.389   7.705  40.956  1.00  0.00     0.051 A 
ATOM     16  C   UNL     1       5.080   7.596  42.166  1.00  0.00     0.157 A 
ATOM     17  C   UNL     1       4.885   9.997  42.478  1.00  0.00     0.062 A 
ATOM     18  C   UNL     1       5.326   8.747  42.935  1.00  0.00     0.158 A 
BRANCH  16  19
ATOM     19  O   UNL     1       5.510   6.339  42.591  1.00  0.00    -0.504 OA
ATOM     20  H   UNL     1       6.492   6.118  42.713  1.00  0.00     0.293 HD
ENDBRANCH  16  19
BRANCH  18  21
ATOM     21  O   UNL     1       6.006   8.644  44.148  1.00  0.00    -0.504 OA
ATOM     22  H   UNL     1       6.627   9.376  44.471  1.00  0.00     0.293 HD
ENDBRANCH  18  21
ENDBRANCH   3  13
BRANCH  10  23
ATOM     23  O   UNL     1       1.667  16.068  39.841  1.00  0.00    -0.507 OA
ATOM     24  H   UNL     1       1.269  16.082  40.768  1.00  0.00     0.293 HD
ENDBRANCH  10  23
BRANCH  11  25
ATOM     25  O   UNL     1       5.829  15.925  37.451  1.00  0.00    -0.508 OA
ATOM     26  H   UNL     1       5.578  16.735  36.895  1.00  0.00     0.293 HD
ENDBRANCH  11  25
ENDBRANCH   1   2
BRANCH   1  27
ATOM     27  C   UNL     1       0.419  10.399  41.370  1.00  0.00     0.339 C 
ATOM     28  C   UNL     1       0.525   8.875  41.587  1.00  0.00     0.214 C 
ATOM     29  O   UNL     1      -0.756  10.932  41.965  1.00  0.00    -0.332 OA
ATOM     30  C   UNL     1       0.380   8.503  43.078  1.00  0.00     0.180 C 
ATOM     31  C   UNL     1      -0.764  10.731  43.369  1.00  0.00     0.179 C 
ATOM     32  C   UNL     1      -0.830   9.226  43.706  1.00  0.00     0.177 C 
BRANCH  28  33
ATOM     33  O   UNL     1      -0.476   8.238  40.833  1.00  0.00    -0.384 OA
ATOM     34  H   UNL     1      -0.771   7.447  41.357  1.00  0.00     0.211 HD
ENDBRANCH  28  33
BRANCH  30  35
ATOM     35  O   UNL     1       1.557   8.846  43.760  1.00  0.00    -0.387 OA
ATOM     36  H   UNL     1       1.390   8.686  44.726  1.00  0.00     0.211 HD
ENDBRANCH  30  35
BRANCH  31  37
ATOM     37  C   UNL     1      -1.934  11.512  43.983  1.00  0.00     0.191 C 
BRANCH  37  38
ATOM     38  O   UNL     1      -2.264  10.999  45.245  1.00  0.00    -0.394 OA
ATOM     39  H   UNL     1      -2.442  10.032  45.110  1.00  0.00     0.210 HD
ENDBRANCH  37  38
ENDBRANCH  31  37
BRANCH  32  40
ATOM     40  O   UNL     1      -2.025   8.672  43.214  1.00  0.00    -0.387 OA
ATOM     41  H   UNL     1      -2.094   7.756  43.589  1.00  0.00     0.211 HD
ENDBRANCH  32  40
ENDBRANCH   1  27
TORSDOF 12
ENDMDL
MODEL 4
REMARK VINA RESULT:    -5.102      8.022      9.995
REMARK INTER + INTRA:          -9.010
REMARK INTER:                  -7.451
REMARK INTRA:                  -1.559
REMARK UNBOUND:                -1.521
REMARK SMILES O=c1c(O[C@@H]2O[C@@H](CO)[C@@H](O)[C@H](O)[C@H]2O)c(-c2ccc(O)c(O)c2)oc2cc(O)cc(O)c12
REMARK SMILES IDX 4 1 3 2 16 3 25 4 2 5 26 6 1 7 33 8 27 9 31 10 28 11 30 12
REMARK SMILES IDX 17 13 18 14 19 15 20 16 24 17 22 18 21 19 23 21 32 23 29 25
REMARK SMILES IDX 5 27 14 28 6 29 12 30 7 31 10 32 15 33 13 35 8 37 9 38 11 40
REMARK H PARENT 21 20 23 22 32 24 29 26 15 34 13 36 9 39 11 41
REMARK Flexibility Score: inf
ROOT
ATOM      1  O   UNL     1      -0.415  11.422  34.302  1.00  0.00    -0.454 OA
ENDROOT
BRANCH   1   2
ATOM      2  C   UNL     1       0.408  12.411  33.716  1.00  0.00     0.214 A 
ATOM      3  C   UNL     1       1.671  12.643  34.292  1.00  0.00     0.180 A 
ATOM      4  O   UNL     1       2.519  13.494  33.732  1.00  0.00    -0.452 OA
ATOM      5  C   UNL     1       0.056  13.153  32.564  1.00  0.00     0.239 A 
ATOM      6  C   UNL     1       2.227  14.213  32.657  1.00  0.00     0.146 A 
ATOM      7  O   UNL     1      -1.031  12.920  31.978  1.00  0.00    -0.285 OA
ATOM      8  C   UNL     1       0.953  14.119  32.044  1.00  0.00     0.111 A 
ATOM      9  C   UNL     1       3.206  15.063  32.136  1.00  0.00     0.094 A 
ATOM     10  C   UNL     1       0.673  14.962  30.926  1.00  0.00     0.134 A 
ATOM     11  C   UNL     1       2.946  15.830  31.003  1.00  0.00     0.123 A 
ATOM     12  C   UNL     1       1.686  15.776  30.404  1.00  0.00     0.093 A 
BRANCH   3  13
ATOM     13  C   UNL     1       2.112  11.932  35.510  1.00  0.00     0.025 A 
ATOM     14  C   UNL     1       2.788  10.705  35.423  1.00  0.00     0.016 A 
ATOM     15  C   UNL     1       3.185  10.035  36.583  1.00  0.00     0.051 A 
ATOM     16  C   UNL     1       2.898  10.571  37.842  1.00  0.00     0.157 A 
ATOM     17  C   UNL     1       1.802  12.457  36.774  1.00  0.00     0.062 A 
ATOM     18  C   UNL     1       2.199  11.786  37.939  1.00  0.00     0.158 A 
BRANCH  16  19
ATOM     19  O   UNL     1       3.310   9.882  38.983  1.00  0.00    -0.504 OA
ATOM     20  H   UNL     1       4.196  10.072  39.436  1.00  0.00     0.293 HD
ENDBRANCH  16  19
BRANCH  18  21
ATOM     21  O   UNL     1       1.900  12.321  39.192  1.00  0.00    -0.504 OA
ATOM     22  H   UNL     1       1.396  11.787  39.890  1.00  0.00     0.293 HD
ENDBRANCH  18  21
ENDBRANCH   3  13
BRANCH  10  23
ATOM     23  O   UNL     1      -0.583  15.060  30.321  1.00  0.00    -0.507 OA
ATOM     24  H   UNL     1      -0.814  14.674  29.418  1.00  0.00     0.293 HD
ENDBRANCH  10  23
BRANCH  11  25
ATOM     25  O   UNL     1       3.944  16.654  30.487  1.00  0.00    -0.508 OA
ATOM     26  H   UNL     1       3.793  17.211  29.655  1.00  0.00     0.293 HD
ENDBRANCH  11  25
ENDBRANCH   1   2
BRANCH   1  27
ATOM     27  C   UNL     1      -0.721  10.125  33.775  1.00  0.00     0.339 C 
ATOM     28  C   UNL     1      -0.255   9.020  34.747  1.00  0.00     0.214 C 
ATOM     29  O   UNL     1      -2.102  10.001  33.465  1.00  0.00    -0.332 OA
ATOM     30  C   UNL     1      -1.153   8.952  36.000  1.00  0.00     0.180 C 
ATOM     31  C   UNL     1      -2.908  10.129  34.624  1.00  0.00     0.179 C 
ATOM     32  C   UNL     1      -2.645   8.965  35.605  1.00  0.00     0.177 C 
BRANCH  28  33
ATOM     33  O   UNL     1      -0.274   7.786  34.074  1.00  0.00    -0.384 OA
ATOM     34  H   UNL     1       0.582   7.718  33.575  1.00  0.00     0.211 HD
ENDBRANCH  28  33
BRANCH  30  35
ATOM     35  O   UNL     1      -0.864  10.039  36.840  1.00  0.00    -0.387 OA
ATOM     36  H   UNL     1      -0.748   9.674  37.756  1.00  0.00     0.211 HD
ENDBRANCH  30  35
BRANCH  31  37
ATOM     37  C   UNL     1      -4.383  10.208  34.207  1.00  0.00     0.191 C 
BRANCH  37  38
ATOM     38  O   UNL     1      -4.623   9.412  33.079  1.00  0.00    -0.394 OA
ATOM     39  H   UNL     1      -4.761   8.490  33.419  1.00  0.00     0.210 HD
ENDBRANCH  37  38
ENDBRANCH  31  37
BRANCH  32  40
ATOM     40  O   UNL     1      -2.992   7.741  35.007  1.00  0.00    -0.387 OA
ATOM     41  H   UNL     1      -3.982   7.724  34.943  1.00  0.00     0.211 HD
ENDBRANCH  32  40
ENDBRANCH   1  27
TORSDOF 12
ENDMDL
MODEL 5
REMARK VINA RESULT:    -5.079      1.760      4.696
REMARK INTER + INTRA:          -8.976
REMARK INTER:                  -7.233
REMARK INTRA:                  -1.743
REMARK UNBOUND:                -1.521
REMARK SMILES O=c1c(O[C@@H]2O[C@@H](CO)[C@@H](O)[C@H](O)[C@H]2O)c(-c2ccc(O)c(O)c2)oc2cc(O)cc(O)c12
REMARK SMILES IDX 4 1 3 2 16 3 25 4 2 5 26 6 1 7 33 8 27 9 31 10 28 11 30 12
REMARK SMILES IDX 17 13 18 14 19 15 20 16 24 17 22 18 21 19 23 21 32 23 29 25
REMARK SMILES IDX 5 27 14 28 6 29 12 30 7 31 10 32 15 33 13 35 8 37 9 38 11 40
REMARK H PARENT 21 20 23 22 32 24 29 26 15 34 13 36 9 39 11 41
REMARK Flexibility Score: inf
ROOT
ATOM      1  O   UNL     1      -0.014   9.686  41.941  1.00  0.00    -0.454 OA
ENDROOT
BRANCH   1   2
ATOM      2  C   UNL     1       0.009  11.086  42.129  1.00  0.00     0.214 A 
ATOM      3  C   UNL     1       1.240  11.751  41.972  1.00  0.00     0.180 A 
ATOM      4  O   UNL     1       1.303  13.073  42.050  1.00  0.00    -0.452 OA
ATOM      5  C   UNL     1      -1.135  11.864  42.428  1.00  0.00     0.239 A 
ATOM      6  C   UNL     1       0.258  13.838  42.333  1.00  0.00     0.146 A 
ATOM      7  O   UNL     1      -2.263  11.315  42.501  1.00  0.00    -0.285 OA
ATOM      8  C   UNL     1      -1.012  13.266  42.591  1.00  0.00     0.111 A 
ATOM      9  C   UNL     1       0.435  15.224  42.365  1.00  0.00     0.094 A 
ATOM     10  C   UNL     1      -2.087  14.134  42.951  1.00  0.00     0.134 A 
ATOM     11  C   UNL     1      -0.637  16.066  42.650  1.00  0.00     0.123 A 
ATOM     12  C   UNL     1      -1.890  15.520  42.939  1.00  0.00     0.093 A 
BRANCH   3  13
ATOM     13  C   UNL     1       2.489  11.017  41.684  1.00  0.00     0.025 A 
ATOM     14  C   UNL     1       2.841  10.682  40.368  1.00  0.00     0.016 A 
ATOM     15  C   UNL     1       4.017   9.973  40.111  1.00  0.00     0.051 A 
ATOM     16  C   UNL     1       4.846   9.575  41.164  1.00  0.00     0.157 A 
ATOM     17  C   UNL     1       3.308  10.595  42.743  1.00  0.00     0.062 A 
ATOM     18  C   UNL     1       4.488   9.883  42.488  1.00  0.00     0.158 A 
BRANCH  16  19
ATOM     19  O   UNL     1       6.016   8.871  40.877  1.00  0.00    -0.504 OA
ATOM     20  H   UNL     1       6.592   9.090  40.073  1.00  0.00     0.293 HD
ENDBRANCH  16  19
BRANCH  18  21
ATOM     21  O   UNL     1       5.306   9.480  43.543  1.00  0.00    -0.504 OA
ATOM     22  H   UNL     1       5.303   8.524  43.881  1.00  0.00     0.293 HD
ENDBRANCH  18  21
ENDBRANCH   3  13
BRANCH  10  23
ATOM     23  O   UNL     1      -3.347  13.685  43.358  1.00  0.00    -0.507 OA
ATOM     24  H   UNL     1      -3.612  12.715  43.431  1.00  0.00     0.293 HD
ENDBRANCH  10  23
BRANCH  11  25
ATOM     25  O   UNL     1      -0.445  17.446  42.655  1.00  0.00    -0.508 OA
ATOM     26  H   UNL     1      -0.037  17.926  41.861  1.00  0.00     0.293 HD
ENDBRANCH  11  25
ENDBRANCH   1   2
BRANCH   1  27
ATOM     27  C   UNL     1      -0.172   8.678  42.948  1.00  0.00     0.339 C 
ATOM     28  C   UNL     1      -1.365   7.757  42.613  1.00  0.00     0.214 C 
ATOM     29  O   UNL     1       1.025   7.936  43.136  1.00  0.00    -0.332 OA
ATOM     30  C   UNL     1      -1.042   6.819  41.431  1.00  0.00     0.180 C 
ATOM     31  C   UNL     1       1.388   7.231  41.960  1.00  0.00     0.179 C 
ATOM     32  C   UNL     1       0.335   6.152  41.622  1.00  0.00     0.177 C 
BRANCH  28  33
ATOM     33  O   UNL     1      -1.689   7.000  43.753  1.00  0.00    -0.384 OA
ATOM     34  H   UNL     1      -2.232   6.230  43.441  1.00  0.00     0.211 HD
ENDBRANCH  28  33
BRANCH  30  35
ATOM     35  O   UNL     1      -1.064   7.554  40.235  1.00  0.00    -0.387 OA
ATOM     36  H   UNL     1      -0.440   8.317  40.353  1.00  0.00     0.211 HD
ENDBRANCH  30  35
BRANCH  31  37
ATOM     37  C   UNL     1       2.789   6.631  42.145  1.00  0.00     0.191 C 
BRANCH  37  38
ATOM     38  O   UNL     1       2.915   6.046  43.412  1.00  0.00    -0.394 OA
ATOM     39  H   UNL     1       3.383   5.182  43.269  1.00  0.00     0.210 HD
ENDBRANCH  37  38
ENDBRANCH  31  37
BRANCH  32  40
ATOM     40  O   UNL     1       0.267   5.202  42.657  1.00  0.00    -0.387 OA
ATOM     41  H   UNL     1      -0.672   5.198  42.980  1.00  0.00     0.211 HD
ENDBRANCH  32  40
ENDBRANCH   1  27
TORSDOF 12
ENDMDL
MODEL 6
REMARK VINA RESULT:    -5.075      1.501      1.839
REMARK INTER + INTRA:          -8.970
REMARK INTER:                  -7.428
REMARK INTRA:                  -1.542
REMARK UNBOUND:                -1.521
REMARK SMILES O=c1c(O[C@@H]2O[C@@H](CO)[C@@H](O)[C@H](O)[C@H]2O)c(-c2ccc(O)c(O)c2)oc2cc(O)cc(O)c12
REMARK SMILES IDX 4 1 3 2 16 3 25 4 2 5 26 6 1 7 33 8 27 9 31 10 28 11 30 12
REMARK SMILES IDX 17 13 18 14 19 15 20 16 24 17 22 18 21 19 23 21 32 23 29 25
REMARK SMILES IDX 5 27 14 28 6 29 12 30 7 31 10 32 15 33 13 35 8 37 9 38 11 40
REMARK H PARENT 21 20 23 22 32 24 29 26 15 34 13 36 9 39 11 41
REMARK Flexibility Score: inf
ROOT
ATOM      1  O   UNL     1       0.811  12.292  41.462  1.00  0.00    -0.454 OA
ENDROOT
BRANCH   1   2
ATOM      2  C   UNL     1       0.034  13.423  41.798  1.00  0.00     0.214 A 
ATOM      3  C   UNL     1      -1.214  13.207  42.411  1.00  0.00     0.180 A 
ATOM      4  O   UNL     1      -1.944  14.232  42.827  1.00  0.00    -0.452 OA
ATOM      5  C   UNL     1       0.451  14.760  41.590  1.00  0.00     0.239 A 
ATOM      6  C   UNL     1      -1.595  15.498  42.648  1.00  0.00     0.146 A 
ATOM      7  O   UNL     1       1.591  14.993  41.115  1.00  0.00    -0.285 OA
ATOM      8  C   UNL     1      -0.397  15.831  41.968  1.00  0.00     0.111 A 
ATOM      9  C   UNL     1      -2.430  16.499  43.149  1.00  0.00     0.094 A 
ATOM     10  C   UNL     1      -0.101  17.211  41.750  1.00  0.00     0.134 A 
ATOM     11  C   UNL     1      -2.097  17.842  42.991  1.00  0.00     0.123 A 
ATOM     12  C   UNL     1      -0.937  18.192  42.296  1.00  0.00     0.093 A 
BRANCH   3  13
ATOM     13  C   UNL     1      -1.740  11.846  42.644  1.00  0.00     0.025 A 
ATOM     14  C   UNL     1      -2.282  11.093  41.591  1.00  0.00     0.016 A 
ATOM     15  C   UNL     1      -2.791   9.814  41.828  1.00  0.00     0.051 A 
ATOM     16  C   UNL     1      -2.780   9.277  43.119  1.00  0.00     0.157 A 
ATOM     17  C   UNL     1      -1.752  11.317  43.944  1.00  0.00     0.062 A 
ATOM     18  C   UNL     1      -2.262  10.033  44.184  1.00  0.00     0.158 A 
BRANCH  16  19
ATOM     19  O   UNL     1      -3.291   7.995  43.324  1.00  0.00    -0.504 OA
ATOM     20  H   UNL     1      -3.161   7.250  42.651  1.00  0.00     0.293 HD
ENDBRANCH  16  19
BRANCH  18  21
ATOM     21  O   UNL     1      -2.258   9.508  45.475  1.00  0.00    -0.504 OA
ATOM     22  H   UNL     1      -2.778   9.944  46.227  1.00  0.00     0.293 HD
ENDBRANCH  18  21
ENDBRANCH   3  13
BRANCH  10  23
ATOM     23  O   UNL     1       0.975  17.663  40.981  1.00  0.00    -0.507 OA
ATOM     24  H   UNL     1       1.945  17.484  41.193  1.00  0.00     0.293 HD
ENDBRANCH  10  23
BRANCH  11  25
ATOM     25  O   UNL     1      -2.933  18.824  43.518  1.00  0.00    -0.508 OA
ATOM     26  H   UNL     1      -2.886  19.090  44.495  1.00  0.00     0.293 HD
ENDBRANCH  11  25
ENDBRANCH   1   2
BRANCH   1  27
ATOM     27  C   UNL     1       1.868  11.706  42.233  1.00  0.00     0.339 C 
ATOM     28  C   UNL     1       1.597  10.206  42.474  1.00  0.00     0.214 C 
ATOM     29  O   UNL     1       3.135  11.918  41.626  1.00  0.00    -0.332 OA
ATOM     30  C   UNL     1       1.798   9.379  41.186  1.00  0.00     0.180 C 
ATOM     31  C   UNL     1       3.214  11.293  40.356  1.00  0.00     0.179 C 
ATOM     32  C   UNL     1       3.125   9.758  40.495  1.00  0.00     0.177 C 
BRANCH  28  33
ATOM     33  O   UNL     1       2.463   9.744  43.481  1.00  0.00    -0.384 OA
ATOM     34  H   UNL     1       2.048   9.987  44.350  1.00  0.00     0.211 HD
ENDBRANCH  28  33
BRANCH  30  35
ATOM     35  O   UNL     1       0.718   9.601  40.318  1.00  0.00    -0.387 OA
ATOM     36  H   UNL     1       1.072   9.536  39.392  1.00  0.00     0.211 HD
ENDBRANCH  30  35
BRANCH  31  37
ATOM     37  C   UNL     1       4.507  11.734  39.656  1.00  0.00     0.191 C 
BRANCH  37  38
ATOM     38  O   UNL     1       5.574  11.774  40.564  1.00  0.00    -0.394 OA
ATOM     39  H   UNL     1       5.221  11.411  41.418  1.00  0.00     0.210 HD
ENDBRANCH  37  38
ENDBRANCH  31  37
BRANCH  32  40
ATOM     40  O   UNL     1       4.210   9.277  41.248  1.00  0.00    -0.387 OA
ATOM     41  H   UNL     1       4.817  10.047  41.401  1.00  0.00     0.211 HD
ENDBRANCH  32  40
ENDBRANCH   1  27
TORSDOF 12
ENDMDL
MODEL 7
REMARK VINA RESULT:    -5.071      1.662      5.167
REMARK INTER + INTRA:          -8.964
REMARK INTER:                  -7.636
REMARK INTRA:                  -1.328
REMARK UNBOUND:                -1.521
REMARK SMILES O=c1c(O[C@@H]2O[C@@H](CO)[C@@H](O)[C@H](O)[C@H]2O)c(-c2ccc(O)c(O)c2)oc2cc(O)cc(O)c12
REMARK SMILES IDX 4 1 3 2 16 3 25 4 2 5 26 6 1 7 33 8 27 9 31 10 28 11 30 12
REMARK SMILES IDX 17 13 18 14 19 15 20 16 24 17 22 18 21 19 23 21 32 23 29 25
REMARK SMILES IDX 5 27 14 28 6 29 12 30 7 31 10 32 15 33 13 35 8 37 9 38 11 40
REMARK H PARENT 21 20 23 22 32 24 29 26 15 34 13 36 9 39 11 41
REMARK Flexibility Score: inf
ROOT
ATOM      1  O   UNL     1       0.192  10.340  42.529  1.00  0.00    -0.454 OA
ENDROOT
BRANCH   1   2
ATOM      2  C   UNL     1       0.335  11.732  42.336  1.00  0.00     0.214 A 
ATOM      3  C   UNL     1       1.566  12.206  41.845  1.00  0.00     0.180 A 
ATOM      4  O   UNL     1       1.725  13.492  41.562  1.00  0.00    -0.452 OA
ATOM      5  C   UNL     1      -0.696  12.674  42.570  1.00  0.00     0.239 A 
ATOM      6  C   UNL     1       0.790  14.406  41.771  1.00  0.00     0.146 A 
ATOM      7  O   UNL     1      -1.831  12.280  42.936  1.00  0.00    -0.285 OA
ATOM      8  C   UNL     1      -0.459  14.052  42.340  1.00  0.00     0.111 A 
ATOM      9  C   UNL     1       1.058  15.730  41.413  1.00  0.00     0.094 A 
ATOM     10  C   UNL     1      -1.406  15.088  42.599  1.00  0.00     0.134 A 
ATOM     11  C   UNL     1       0.100  16.723  41.607  1.00  0.00     0.123 A 
ATOM     12  C   UNL     1      -1.124  16.399  42.195  1.00  0.00     0.093 A 
BRANCH   3  13
ATOM     13  C   UNL     1       2.704  11.299  41.596  1.00  0.00     0.025 A 
ATOM     14  C   UNL     1       3.013  10.869  40.297  1.00  0.00     0.016 A 
ATOM     15  C   UNL     1       4.082   9.998  40.077  1.00  0.00     0.051 A 
ATOM     16  C   UNL     1       4.846   9.531  41.151  1.00  0.00     0.157 A 
ATOM     17  C   UNL     1       3.455  10.811  42.677  1.00  0.00     0.062 A 
ATOM     18  C   UNL     1       4.528   9.935  42.460  1.00  0.00     0.158 A 
BRANCH  16  19
ATOM     19  O   UNL     1       5.910   8.665  40.901  1.00  0.00    -0.504 OA
ATOM     20  H   UNL     1       6.156   8.372  39.963  1.00  0.00     0.293 HD
ENDBRANCH  16  19
BRANCH  18  21
ATOM     21  O   UNL     1       5.279   9.465  43.536  1.00  0.00    -0.504 OA
ATOM     22  H   UNL     1       5.646   8.521  43.555  1.00  0.00     0.293 HD
ENDBRANCH  18  21
ENDBRANCH   3  13
BRANCH  10  23
ATOM     23  O   UNL     1      -2.613  14.888  43.275  1.00  0.00    -0.507 OA
ATOM     24  H   UNL     1      -3.092  15.595  43.812  1.00  0.00     0.293 HD
ENDBRANCH  10  23
BRANCH  11  25
ATOM     25  O   UNL     1       0.380  18.032  41.222  1.00  0.00    -0.508 OA
ATOM     26  H   UNL     1       0.185  18.817  41.832  1.00  0.00     0.293 HD
ENDBRANCH  11  25
ENDBRANCH   1   2
BRANCH   1  27
ATOM     27  C   UNL     1      -0.405   9.397  41.630  1.00  0.00     0.339 C 
ATOM     28  C   UNL     1       0.568   8.233  41.339  1.00  0.00     0.214 C 
ATOM     29  O   UNL     1      -1.652   8.925  42.120  1.00  0.00    -0.332 OA
ATOM     30  C   UNL     1       0.710   7.296  42.557  1.00  0.00     0.180 C 
ATOM     31  C   UNL     1      -1.498   8.224  43.342  1.00  0.00     0.179 C 
ATOM     32  C   UNL     1      -0.674   6.934  43.134  1.00  0.00     0.177 C 
BRANCH  28  33
ATOM     33  O   UNL     1       0.093   7.511  40.230  1.00  0.00    -0.384 OA
ATOM     34  H   UNL     1       0.443   6.586  40.318  1.00  0.00     0.211 HD
ENDBRANCH  28  33
BRANCH  30  35
ATOM     35  O   UNL     1       1.496   7.923  43.537  1.00  0.00    -0.387 OA
ATOM     36  H   UNL     1       1.865   8.749  43.127  1.00  0.00     0.211 HD
ENDBRANCH  30  35
BRANCH  31  37
ATOM     37  C   UNL     1      -2.884   7.933  43.935  1.00  0.00     0.191 C 
BRANCH  37  38
ATOM     38  O   UNL     1      -3.085   8.668  45.111  1.00  0.00    -0.394 OA
ATOM     39  H   UNL     1      -2.953   9.620  44.865  1.00  0.00     0.210 HD
ENDBRANCH  37  38
ENDBRANCH  31  37
BRANCH  32  40
ATOM     40  O   UNL     1      -1.347   6.068  42.255  1.00  0.00    -0.387 OA
ATOM     41  H   UNL     1      -2.299   6.057  42.535  1.00  0.00     0.211 HD
ENDBRANCH  32  40
ENDBRANCH   1  27
TORSDOF 12
ENDMDL
MODEL 8
REMARK VINA RESULT:    -5.062      1.719      6.471
REMARK INTER + INTRA:          -8.950
REMARK INTER:                  -7.364
REMARK INTRA:                  -1.586
REMARK UNBOUND:                -1.521
REMARK SMILES O=c1c(O[C@@H]2O[C@@H](CO)[C@@H](O)[C@H](O)[C@H]2O)c(-c2ccc(O)c(O)c2)oc2cc(O)cc(O)c12
REMARK SMILES IDX 4 1 3 2 16 3 25 4 2 5 26 6 1 7 33 8 27 9 31 10 28 11 30 12
REMARK SMILES IDX 17 13 18 14 19 15 20 16 24 17 22 18 21 19 23 21 32 23 29 25
REMARK SMILES IDX 5 27 14 28 6 29 12 30 7 31 10 32 15 33 13 35 8 37 9 38 11 40
REMARK H PARENT 21 20 23 22 32 24 29 26 15 34 13 36 9 39 11 41
REMARK Flexibility Score: inf
ROOT
ATOM      1  O   UNL     1       0.405  12.176  41.644  1.00  0.00    -0.454 OA
ENDROOT
BRANCH   1   2
ATOM      2  C   UNL     1       1.340  11.119  41.565  1.00  0.00     0.214 A 
ATOM      3  C   UNL     1       0.902   9.824  41.899  1.00  0.00     0.180 A 
ATOM      4  O   UNL     1       1.711   8.784  41.759  1.00  0.00    -0.452 OA
ATOM      5  C   UNL     1       2.679  11.278  41.134  1.00  0.00     0.239 A 
ATOM      6  C   UNL     1       2.972   8.889  41.364  1.00  0.00     0.146 A 
ATOM      7  O   UNL     1       3.084  12.405  40.755  1.00  0.00    -0.285 OA
ATOM      8  C   UNL     1       3.542  10.155  41.080  1.00  0.00     0.111 A 
ATOM      9  C   UNL     1       3.728   7.722  41.226  1.00  0.00     0.094 A 
ATOM     10  C   UNL     1       4.922  10.213  40.718  1.00  0.00     0.134 A 
ATOM     11  C   UNL     1       5.054   7.784  40.806  1.00  0.00     0.123 A 
ATOM     12  C   UNL     1       5.644   9.025  40.552  1.00  0.00     0.093 A 
BRANCH   3  13
ATOM     13  C   UNL     1      -0.471   9.570  42.383  1.00  0.00     0.025 A 
ATOM     14  C   UNL     1      -1.522   9.345  41.482  1.00  0.00     0.016 A 
ATOM     15  C   UNL     1      -2.819   9.122  41.952  1.00  0.00     0.051 A 
ATOM     16  C   UNL     1      -3.085   9.137  43.324  1.00  0.00     0.157 A 
ATOM     17  C   UNL     1      -0.743   9.610  43.759  1.00  0.00     0.062 A 
ATOM     18  C   UNL     1      -2.043   9.387  44.234  1.00  0.00     0.158 A 
BRANCH  16  19
ATOM     19  O   UNL     1      -4.389   8.907  43.765  1.00  0.00    -0.504 OA
ATOM     20  H   UNL     1      -5.178   9.431  43.406  1.00  0.00     0.293 HD
ENDBRANCH  16  19
BRANCH  18  21
ATOM     21  O   UNL     1      -2.304   9.413  45.603  1.00  0.00    -0.504 OA
ATOM     22  H   UNL     1      -3.094   9.921  45.982  1.00  0.00     0.293 HD
ENDBRANCH  18  21
ENDBRANCH   3  13
BRANCH  10  23
ATOM     23  O   UNL     1       5.631  11.405  40.545  1.00  0.00    -0.507 OA
ATOM     24  H   UNL     1       5.520  12.027  39.759  1.00  0.00     0.293 HD
ENDBRANCH  10  23
BRANCH  11  25
ATOM     25  O   UNL     1       5.783   6.607  40.654  1.00  0.00    -0.508 OA
ATOM     26  H   UNL     1       6.094   6.290  39.743  1.00  0.00     0.293 HD
ENDBRANCH  11  25
ENDBRANCH   1   2
BRANCH   1  27
ATOM     27  C   UNL     1       0.207  13.078  42.740  1.00  0.00     0.339 C 
ATOM     28  C   UNL     1       0.549  14.524  42.321  1.00  0.00     0.214 C 
ATOM     29  O   UNL     1      -1.110  12.982  43.264  1.00  0.00    -0.332 OA
ATOM     30  C   UNL     1      -0.523  15.108  41.376  1.00  0.00     0.180 C 
ATOM     31  C   UNL     1      -2.080  13.353  42.299  1.00  0.00     0.179 C 
ATOM     32  C   UNL     1      -1.940  14.846  41.927  1.00  0.00     0.177 C 
BRANCH  28  33
ATOM     33  O   UNL     1       0.655  15.319  43.476  1.00  0.00    -0.384 OA
ATOM     34  H   UNL     1       0.809  16.251  43.170  1.00  0.00     0.211 HD
ENDBRANCH  28  33
BRANCH  30  35
ATOM     35  O   UNL     1      -0.384  14.533  40.103  1.00  0.00    -0.387 OA
ATOM     36  H   UNL     1      -0.968  13.730  40.082  1.00  0.00     0.211 HD
ENDBRANCH  30  35
BRANCH  31  37
ATOM     37  C   UNL     1      -3.479  13.023  42.838  1.00  0.00     0.191 C 
BRANCH  37  38
ATOM     38  O   UNL     1      -3.400  12.503  44.137  1.00  0.00    -0.394 OA
ATOM     39  H   UNL     1      -4.336  12.436  44.462  1.00  0.00     0.210 HD
ENDBRANCH  37  38
ENDBRANCH  31  37
BRANCH  32  40
ATOM     40  O   UNL     1      -2.169  15.649  43.058  1.00  0.00    -0.387 OA
ATOM     41  H   UNL     1      -1.278  15.889  43.425  1.00  0.00     0.211 HD
ENDBRANCH  32  40
ENDBRANCH   1  27
TORSDOF 12
ENDMDL
MODEL 9
REMARK VINA RESULT:    -4.981      2.793      6.497
REMARK INTER + INTRA:          -8.832
REMARK INTER:                  -7.338
REMARK INTRA:                  -1.494
REMARK UNBOUND:                -1.521
REMARK SMILES O=c1c(O[C@@H]2O[C@@H](CO)[C@@H](O)[C@H](O)[C@H]2O)c(-c2ccc(O)c(O)c2)oc2cc(O)cc(O)c12
REMARK SMILES IDX 4 1 3 2 16 3 25 4 2 5 26 6 1 7 33 8 27 9 31 10 28 11 30 12
REMARK SMILES IDX 17 13 18 14 19 15 20 16 24 17 22 18 21 19 23 21 32 23 29 25
REMARK SMILES IDX 5 27 14 28 6 29 12 30 7 31 10 32 15 33 13 35 8 37 9 38 11 40
REMARK H PARENT 21 20 23 22 32 24 29 26 15 34 13 36 9 39 11 41
REMARK Flexibility Score: inf
ROOT
ATOM      1  O   UNL     1      -3.163  14.597  42.433  1.00  0.00    -0.454 OA
ENDROOT
BRANCH   1   2
ATOM      2  C   UNL     1      -2.605  15.884  42.598  1.00  0.00     0.214 A 
ATOM      3  C   UNL     1      -1.222  16.035  42.388  1.00  0.00     0.180 A 
ATOM      4  O   UNL     1      -0.661  17.235  42.442  1.00  0.00    -0.452 OA
ATOM      5  C   UNL     1      -3.358  17.038  42.924  1.00  0.00     0.239 A 
ATOM      6  C   UNL     1      -1.327  18.338  42.749  1.00  0.00     0.146 A 
ATOM      7  O   UNL     1      -4.606  16.956  43.045  1.00  0.00    -0.285 OA
ATOM      8  C   UNL     1      -2.709  18.290  43.061  1.00  0.00     0.111 A 
ATOM      9  C   UNL     1      -0.640  19.555  42.754  1.00  0.00     0.094 A 
ATOM     10  C   UNL     1      -3.362  19.500  43.444  1.00  0.00     0.134 A 
ATOM     11  C   UNL     1      -1.302  20.740  43.062  1.00  0.00     0.123 A 
ATOM     12  C   UNL     1      -2.656  20.709  43.403  1.00  0.00     0.093 A 
BRANCH   3  13
ATOM     13  C   UNL     1      -0.355  14.882  42.069  1.00  0.00     0.025 A 
ATOM     14  C   UNL     1       0.209  14.100  43.088  1.00  0.00     0.016 A 
ATOM     15  C   UNL     1       1.041  13.023  42.773  1.00  0.00     0.051 A 
ATOM     16  C   UNL     1       1.333  12.723  41.440  1.00  0.00     0.157 A 
ATOM     17  C   UNL     1      -0.041  14.596  40.731  1.00  0.00     0.062 A 
ATOM     18  C   UNL     1       0.794  13.516  40.412  1.00  0.00     0.158 A 
BRANCH  16  19
ATOM     19  O   UNL     1       2.163  11.638  41.155  1.00  0.00    -0.504 OA
ATOM     20  H   UNL     1       2.309  10.884  41.816  1.00  0.00     0.293 HD
ENDBRANCH  16  19
BRANCH  18  21
ATOM     21  O   UNL     1       1.090  13.228  39.080  1.00  0.00    -0.504 OA
ATOM     22  H   UNL     1       0.680  12.432  38.606  1.00  0.00     0.293 HD
ENDBRANCH  18  21
ENDBRANCH   3  13
BRANCH  10  23
ATOM     23  O   UNL     1      -4.681  19.562  43.901  1.00  0.00    -0.507 OA
ATOM     24  H   UNL     1      -5.173  20.416  44.116  1.00  0.00     0.293 HD
ENDBRANCH  10  23
BRANCH  11  25
ATOM     25  O   UNL     1      -0.603  21.945  43.038  1.00  0.00    -0.508 OA
ATOM     26  H   UNL     1      -1.072  22.827  42.872  1.00  0.00     0.293 HD
ENDBRANCH  11  25
ENDBRANCH   1   2
BRANCH   1  27
ATOM     27  C   UNL     1      -3.941  13.860  43.386  1.00  0.00     0.339 C 
ATOM     28  C   UNL     1      -5.275  13.401  42.759  1.00  0.00     0.214 C 
ATOM     29  O   UNL     1      -3.210  12.766  43.921  1.00  0.00    -0.332 OA
ATOM     30  C   UNL     1      -5.060  12.260  41.741  1.00  0.00     0.180 C 
ATOM     31  C   UNL     1      -2.871  11.826  42.914  1.00  0.00     0.179 C 
ATOM     32  C   UNL     1      -4.140  11.169  42.329  1.00  0.00     0.177 C 
BRANCH  28  33
ATOM     33  O   UNL     1      -6.135  12.973  43.786  1.00  0.00    -0.384 OA
ATOM     34  H   UNL     1      -5.651  12.270  44.292  1.00  0.00     0.211 HD
ENDBRANCH  28  33
BRANCH  30  35
ATOM     35  O   UNL     1      -4.501  12.785  40.566  1.00  0.00    -0.387 OA
ATOM     36  H   UNL     1      -4.946  13.657  40.398  1.00  0.00     0.211 HD
ENDBRANCH  30  35
BRANCH  31  37
ATOM     37  C   UNL     1      -1.903  10.788  43.499  1.00  0.00     0.191 C 
BRANCH  37  38
ATOM     38  O   UNL     1      -2.223  10.508  44.834  1.00  0.00    -0.394 OA
ATOM     39  H   UNL     1      -2.665  11.324  45.187  1.00  0.00     0.210 HD
ENDBRANCH  37  38
ENDBRANCH  31  37
BRANCH  32  40
ATOM     40  O   UNL     1      -4.822  10.458  43.330  1.00  0.00    -0.387 OA
ATOM     41  H   UNL     1      -4.132  10.086  43.939  1.00  0.00     0.211 HD
ENDBRANCH  32  40
ENDBRANCH   1  27
TORSDOF 12
ENDMDL
