MODEL 1
REMARK VINA RESULT:    -4.757      0.000      0.000
REMARK INTER + INTRA:          -8.662
REMARK INTER:                  -7.120
REMARK INTRA:                  -1.541
REMARK UNBOUND:                -1.541
REMARK SMILES COC(=O)C1=CO[C@H](O[C@@H]2O[C@@H](CO)[C@@H](O)[C@@H](O)[C@H]2O)[C@@H]2C(CO)=CC[C@H]12
REMARK SMILES IDX 9 1 8 2 5 3 6 4 27 5 7 6 21 7 26 8 22 9 25 10 3 11 4 12 2 13
REMARK SMILES IDX 1 14 23 15 24 16 10 18 19 19 11 20 17 21 12 22 15 23 20 24
REMARK SMILES IDX 18 26 13 28 14 29 16 31
REMARK H PARENT 24 17 20 25 18 27 14 30 16 32
REMARK Flexibility Score: inf
ROOT
ATOM      1  O   UNL     1     -58.246  24.497 -13.385  1.00  0.00    -0.310 OA
ENDROOT
BRANCH   1   2
ATOM      2  C   UNL     1     -58.398  25.115 -12.119  1.00  0.00     0.316 C 
ATOM      3  C   UNL     1     -60.039  24.871  -9.704  1.00  0.00     0.076 C 
ATOM      4  C   UNL     1     -60.531  25.383 -10.832  1.00  0.00     0.202 C 
ATOM      5  C   UNL     1     -58.560  24.509  -9.596  1.00  0.00     0.047 C 
ATOM      6  O   UNL     1     -59.761  25.509 -11.995  1.00  0.00    -0.471 OA
ATOM      7  C   UNL     1     -57.940  24.169 -10.972  1.00  0.00     0.094 C 
ATOM      8  C   UNL     1     -58.332  23.208  -8.813  1.00  0.00     0.037 C 
ATOM      9  C   UNL     1     -58.181  22.684 -11.087  1.00  0.00    -0.039 C 
ATOM     10  C   UNL     1     -58.339  22.163  -9.875  1.00  0.00    -0.024 C 
BRANCH   3  11
ATOM     11  C   UNL     1     -60.968  24.699  -8.576  1.00  0.00     0.337 C 
ATOM     12  O   UNL     1     -60.675  25.212  -7.461  1.00  0.00    -0.246 OA
BRANCH  11  13
ATOM     13  O   UNL     1     -62.063  23.813  -8.696  1.00  0.00    -0.466 OA
ATOM     14  C   UNL     1     -61.871  22.400  -8.636  1.00  0.00     0.282 C 
ENDBRANCH  11  13
ENDBRANCH   3  11
BRANCH   9  15
ATOM     15  C   UNL     1     -57.969  21.824 -12.308  1.00  0.00     0.187 C 
BRANCH  15  16
ATOM     16  O   UNL     1     -56.632  21.847 -12.710  1.00  0.00    -0.392 OA
ATOM     17  H   UNL     1     -56.620  22.229 -13.629  1.00  0.00     0.211 HD
ENDBRANCH  15  16
ENDBRANCH   9  15
ENDBRANCH   1   2
BRANCH   1  18
ATOM     18  C   UNL     1     -57.595  25.307 -14.352  1.00  0.00     0.286 C 
ATOM     19  C   UNL     1     -56.562  24.512 -15.207  1.00  0.00     0.202 C 
ATOM     20  O   UNL     1     -58.542  26.077 -15.096  1.00  0.00    -0.341 OA
ATOM     21  C   UNL     1     -55.770  25.492 -16.126  1.00  0.00     0.179 C 
ATOM     22  C   UNL     1     -58.159  26.372 -16.425  1.00  0.00     0.178 C 
ATOM     23  C   UNL     1     -56.648  26.699 -16.577  1.00  0.00     0.177 C 
BRANCH  19  24
ATOM     24  O   UNL     1     -55.696  23.796 -14.367  1.00  0.00    -0.385 OA
ATOM     25  H   UNL     1     -54.775  24.098 -14.602  1.00  0.00     0.211 HD
ENDBRANCH  19  24
BRANCH  21  26
ATOM     26  O   UNL     1     -54.570  25.925 -15.541  1.00  0.00    -0.387 OA
ATOM     27  H   UNL     1     -54.714  25.993 -14.560  1.00  0.00     0.211 HD
ENDBRANCH  21  26
BRANCH  22  28
ATOM     28  C   UNL     1     -59.040  27.524 -16.938  1.00  0.00     0.191 C 
BRANCH  28  29
ATOM     29  O   UNL     1     -58.359  28.261 -17.914  1.00  0.00    -0.394 OA
ATOM     30  H   UNL     1     -57.491  27.795 -18.042  1.00  0.00     0.210 HD
ENDBRANCH  28  29
ENDBRANCH  22  28
BRANCH  23  31
ATOM     31  O   UNL     1     -56.281  27.889 -15.905  1.00  0.00    -0.387 OA
ATOM     32  H   UNL     1     -56.626  27.850 -14.977  1.00  0.00     0.211 HD
ENDBRANCH  23  31
ENDBRANCH   1  18
TORSDOF 11
ENDMDL
MODEL 2
REMARK VINA RESULT:    -4.644      1.577      3.066
REMARK INTER + INTRA:          -8.493
REMARK INTER:                  -6.834
REMARK INTRA:                  -1.659
REMARK UNBOUND:                -1.541
REMARK SMILES COC(=O)C1=CO[C@H](O[C@@H]2O[C@@H](CO)[C@@H](O)[C@@H](O)[C@H]2O)[C@@H]2C(CO)=CC[C@H]12
REMARK SMILES IDX 9 1 8 2 5 3 6 4 27 5 7 6 21 7 26 8 22 9 25 10 3 11 4 12 2 13
REMARK SMILES IDX 1 14 23 15 24 16 10 18 19 19 11 20 17 21 12 22 15 23 20 24
REMARK SMILES IDX 18 26 13 28 14 29 16 31
REMARK H PARENT 24 17 20 25 18 27 14 30 16 32
REMARK Flexibility Score: inf
ROOT
ATOM      1  O   UNL     1     -57.615  26.666 -12.653  1.00  0.00    -0.310 OA
ENDROOT
BRANCH   1   2
ATOM      2  C   UNL     1     -58.560  25.679 -12.277  1.00  0.00     0.316 C 
ATOM      3  C   UNL     1     -60.188  24.922  -9.962  1.00  0.00     0.076 C 
ATOM      4  C   UNL     1     -58.874  24.703  -9.992  1.00  0.00     0.202 C 
ATOM      5  C   UNL     1     -60.913  25.463 -11.192  1.00  0.00     0.047 C 
ATOM      6  O   UNL     1     -58.081  25.056 -11.090  1.00  0.00    -0.471 OA
ATOM      7  C   UNL     1     -59.978  26.296 -12.101  1.00  0.00     0.094 C 
ATOM      8  C   UNL     1     -61.998  26.487 -10.827  1.00  0.00     0.037 C 
ATOM      9  C   UNL     1     -60.122  27.689 -11.539  1.00  0.00    -0.039 C 
ATOM     10  C   UNL     1     -61.275  27.789 -10.886  1.00  0.00    -0.024 C 
BRANCH   3  11
ATOM     11  C   UNL     1     -60.902  24.597  -8.717  1.00  0.00     0.337 C 
ATOM     12  O   UNL     1     -60.468  25.060  -7.627  1.00  0.00    -0.246 OA
BRANCH  11  13
ATOM     13  O   UNL     1     -61.932  23.629  -8.729  1.00  0.00    -0.466 OA
ATOM     14  C   UNL     1     -61.640  22.251  -8.962  1.00  0.00     0.282 C 
ENDBRANCH  11  13
ENDBRANCH   3  11
BRANCH   9  15
ATOM     15  C   UNL     1     -59.295  28.899 -11.895  1.00  0.00     0.187 C 
BRANCH  15  16
ATOM     16  O   UNL     1     -59.306  29.124 -13.272  1.00  0.00    -0.392 OA
ATOM     17  H   UNL     1     -58.765  29.945 -13.429  1.00  0.00     0.211 HD
ENDBRANCH  15  16
ENDBRANCH   9  15
ENDBRANCH   1   2
BRANCH   1  18
ATOM     18  C   UNL     1     -57.175  26.566 -13.999  1.00  0.00     0.286 C 
ATOM     19  C   UNL     1     -56.620  25.153 -14.349  1.00  0.00     0.202 C 
ATOM     20  O   UNL     1     -58.162  27.078 -14.898  1.00  0.00    -0.341 OA
ATOM     21  C   UNL     1     -56.006  25.166 -15.782  1.00  0.00     0.179 C 
ATOM     22  C   UNL     1     -58.176  26.471 -16.176  1.00  0.00     0.178 C 
ATOM     23  C   UNL     1     -56.759  26.151 -16.726  1.00  0.00     0.177 C 
BRANCH  19  24
ATOM     24  O   UNL     1     -55.670  24.761 -13.394  1.00  0.00    -0.385 OA
ATOM     25  H   UNL     1     -55.651  25.490 -12.713  1.00  0.00     0.211 HD
ENDBRANCH  19  24
BRANCH  21  26
ATOM     26  O   UNL     1     -54.626  25.425 -15.772  1.00  0.00    -0.387 OA
ATOM     27  H   UNL     1     -54.439  26.122 -16.454  1.00  0.00     0.211 HD
ENDBRANCH  21  26
BRANCH  22  28
ATOM     28  C   UNL     1     -58.961  27.382 -17.135  1.00  0.00     0.191 C 
BRANCH  28  29
ATOM     29  O   UNL     1     -58.519  28.705 -17.021  1.00  0.00    -0.394 OA
ATOM     30  H   UNL     1     -58.571  29.083 -17.938  1.00  0.00     0.210 HD
ENDBRANCH  28  29
ENDBRANCH  22  28
BRANCH  23  31
ATOM     31  O   UNL     1     -55.998  27.318 -16.974  1.00  0.00    -0.387 OA
ATOM     32  H   UNL     1     -55.815  27.769 -16.111  1.00  0.00     0.211 HD
ENDBRANCH  23  31
ENDBRANCH   1  18
TORSDOF 11
ENDMDL
MODEL 3
REMARK VINA RESULT:    -4.487      1.528      2.685
REMARK INTER + INTRA:          -8.258
REMARK INTER:                  -6.659
REMARK INTRA:                  -1.600
REMARK UNBOUND:                -1.541
REMARK SMILES COC(=O)C1=CO[C@H](O[C@@H]2O[C@@H](CO)[C@@H](O)[C@@H](O)[C@H]2O)[C@@H]2C(CO)=CC[C@H]12
REMARK SMILES IDX 9 1 8 2 5 3 6 4 27 5 7 6 21 7 26 8 22 9 25 10 3 11 4 12 2 13
REMARK SMILES IDX 1 14 23 15 24 16 10 18 19 19 11 20 17 21 12 22 15 23 20 24
REMARK SMILES IDX 18 26 13 28 14 29 16 31
REMARK H PARENT 24 17 20 25 18 27 14 30 16 32
REMARK Flexibility Score: inf
ROOT
ATOM      1  O   UNL     1     -57.131  25.838 -12.520  1.00  0.00    -0.310 OA
ENDROOT
BRANCH   1   2
ATOM      2  C   UNL     1     -58.178  24.916 -12.269  1.00  0.00     0.316 C 
ATOM      3  C   UNL     1     -59.433  23.532 -10.013  1.00  0.00     0.076 C 
ATOM      4  C   UNL     1     -58.235  23.172 -10.473  1.00  0.00     0.202 C 
ATOM      5  C   UNL     1     -60.251  24.602 -10.731  1.00  0.00     0.047 C 
ATOM      6  O   UNL     1     -57.622  23.820 -11.551  1.00  0.00    -0.471 OA
ATOM      7  C   UNL     1     -59.356  25.595 -11.511  1.00  0.00     0.094 C 
ATOM      8  C   UNL     1     -60.982  25.534  -9.753  1.00  0.00     0.037 C 
ATOM      9  C   UNL     1     -59.067  26.661 -10.484  1.00  0.00    -0.039 C 
ATOM     10  C   UNL     1     -60.012  26.647  -9.549  1.00  0.00    -0.024 C 
BRANCH   3  11
ATOM     11  C   UNL     1     -59.935  22.841  -8.814  1.00  0.00     0.337 C 
ATOM     12  O   UNL     1     -59.227  22.838  -7.770  1.00  0.00    -0.246 OA
BRANCH  11  13
ATOM     13  O   UNL     1     -61.094  22.036  -8.901  1.00  0.00    -0.466 OA
ATOM     14  C   UNL     1     -62.238  22.311  -8.092  1.00  0.00     0.282 C 
ENDBRANCH  11  13
ENDBRANCH   3  11
BRANCH   9  15
ATOM     15  C   UNL     1     -58.079  27.794 -10.607  1.00  0.00     0.187 C 
BRANCH  15  16
ATOM     16  O   UNL     1     -58.243  28.471 -11.816  1.00  0.00    -0.392 OA
ATOM     17  H   UNL     1     -59.194  28.764 -11.850  1.00  0.00     0.211 HD
ENDBRANCH  15  16
ENDBRANCH   9  15
ENDBRANCH   1   2
BRANCH   1  18
ATOM     18  C   UNL     1     -56.876  26.066 -13.898  1.00  0.00     0.286 C 
ATOM     19  C   UNL     1     -56.427  24.777 -14.650  1.00  0.00     0.202 C 
ATOM     20  O   UNL     1     -57.952  26.786 -14.505  1.00  0.00    -0.341 OA
ATOM     21  C   UNL     1     -56.005  25.135 -16.108  1.00  0.00     0.179 C 
ATOM     22  C   UNL     1     -58.157  26.508 -15.877  1.00  0.00     0.178 C 
ATOM     23  C   UNL     1     -56.838  26.324 -16.675  1.00  0.00     0.177 C 
BRANCH  19  24
ATOM     24  O   UNL     1     -55.374  24.160 -13.955  1.00  0.00    -0.385 OA
ATOM     25  H   UNL     1     -54.914  24.889 -13.454  1.00  0.00     0.211 HD
ENDBRANCH  19  24
BRANCH  21  26
ATOM     26  O   UNL     1     -54.627  25.376 -16.224  1.00  0.00    -0.387 OA
ATOM     27  H   UNL     1     -54.192  24.532 -16.516  1.00  0.00     0.211 HD
ENDBRANCH  21  26
BRANCH  22  28
ATOM     28  C   UNL     1     -59.026  27.628 -16.472  1.00  0.00     0.191 C 
BRANCH  28  29
ATOM     29  O   UNL     1     -58.535  28.011 -17.726  1.00  0.00    -0.394 OA
ATOM     30  H   UNL     1     -59.322  28.009 -18.332  1.00  0.00     0.210 HD
ENDBRANCH  28  29
ENDBRANCH  22  28
BRANCH  23  31
ATOM     31  O   UNL     1     -56.072  27.512 -16.738  1.00  0.00    -0.387 OA
ATOM     32  H   UNL     1     -56.215  27.937 -17.621  1.00  0.00     0.211 HD
ENDBRANCH  23  31
ENDBRANCH   1  18
TORSDOF 11
ENDMDL
MODEL 4
REMARK VINA RESULT:    -4.361      2.097      4.322
REMARK INTER + INTRA:          -8.070
REMARK INTER:                  -6.521
REMARK INTRA:                  -1.549
REMARK UNBOUND:                -1.541
REMARK SMILES COC(=O)C1=CO[C@H](O[C@@H]2O[C@@H](CO)[C@@H](O)[C@@H](O)[C@H]2O)[C@@H]2C(CO)=CC[C@H]12
REMARK SMILES IDX 9 1 8 2 5 3 6 4 27 5 7 6 21 7 26 8 22 9 25 10 3 11 4 12 2 13
REMARK SMILES IDX 1 14 23 15 24 16 10 18 19 19 11 20 17 21 12 22 15 23 20 24
REMARK SMILES IDX 18 26 13 28 14 29 16 31
REMARK H PARENT 24 17 20 25 18 27 14 30 16 32
REMARK Flexibility Score: inf
ROOT
ATOM      1  O   UNL     1     -57.454  24.980 -12.724  1.00  0.00    -0.310 OA
ENDROOT
BRANCH   1   2
ATOM      2  C   UNL     1     -57.235  23.585 -12.840  1.00  0.00     0.316 C 
ATOM      3  C   UNL     1     -56.306  21.334 -11.212  1.00  0.00     0.076 C 
ATOM      4  C   UNL     1     -55.460  22.248 -11.684  1.00  0.00     0.202 C 
ATOM      5  C   UNL     1     -57.779  21.359 -11.611  1.00  0.00     0.047 C 
ATOM      6  O   UNL     1     -55.886  23.329 -12.465  1.00  0.00    -0.471 OA
ATOM      7  C   UNL     1     -58.258  22.782 -11.984  1.00  0.00     0.094 C 
ATOM      8  C   UNL     1     -58.709  21.008 -10.440  1.00  0.00     0.037 C 
ATOM      9  C   UNL     1     -58.722  23.336 -10.660  1.00  0.00    -0.039 C 
ATOM     10  C   UNL     1     -59.020  22.335  -9.838  1.00  0.00    -0.024 C 
BRANCH   3  11
ATOM     11  C   UNL     1     -55.758  20.297 -10.323  1.00  0.00     0.337 C 
ATOM     12  O   UNL     1     -55.164  20.651  -9.268  1.00  0.00    -0.246 OA
BRANCH  11  13
ATOM     13  O   UNL     1     -55.729  18.949 -10.748  1.00  0.00    -0.466 OA
ATOM     14  C   UNL     1     -56.488  17.950 -10.067  1.00  0.00     0.282 C 
ENDBRANCH  11  13
ENDBRANCH   3  11
BRANCH   9  15
ATOM     15  C   UNL     1     -59.112  24.762 -10.361  1.00  0.00     0.187 C 
BRANCH  15  16
ATOM     16  O   UNL     1     -60.111  25.200 -11.231  1.00  0.00    -0.392 OA
ATOM     17  H   UNL     1     -60.946  25.268 -10.693  1.00  0.00     0.211 HD
ENDBRANCH  15  16
ENDBRANCH   9  15
ENDBRANCH   1   2
BRANCH   1  18
ATOM     18  C   UNL     1     -57.710  25.633 -13.959  1.00  0.00     0.286 C 
ATOM     19  C   UNL     1     -58.077  27.137 -13.782  1.00  0.00     0.202 C 
ATOM     20  O   UNL     1     -56.673  25.361 -14.905  1.00  0.00    -0.341 OA
ATOM     21  C   UNL     1     -58.506  27.742 -15.153  1.00  0.00     0.179 C 
ATOM     22  C   UNL     1     -56.441  26.392 -15.847  1.00  0.00     0.178 C 
ATOM     23  C   UNL     1     -57.740  27.084 -16.341  1.00  0.00     0.177 C 
BRANCH  19  24
ATOM     24  O   UNL     1     -59.097  27.272 -12.827  1.00  0.00    -0.385 OA
ATOM     25  H   UNL     1     -59.741  27.932 -13.207  1.00  0.00     0.211 HD
ENDBRANCH  19  24
BRANCH  21  26
ATOM     26  O   UNL     1     -59.895  27.690 -15.351  1.00  0.00    -0.387 OA
ATOM     27  H   UNL     1     -60.323  28.287 -14.681  1.00  0.00     0.211 HD
ENDBRANCH  21  26
BRANCH  22  28
ATOM     28  C   UNL     1     -55.635  25.804 -17.017  1.00  0.00     0.191 C 
BRANCH  28  29
ATOM     29  O   UNL     1     -55.646  26.682 -18.107  1.00  0.00    -0.394 OA
ATOM     30  H   UNL     1     -55.731  26.106 -18.912  1.00  0.00     0.210 HD
ENDBRANCH  28  29
ENDBRANCH  22  28
BRANCH  23  31
ATOM     31  O   UNL     1     -58.574  26.210 -17.077  1.00  0.00    -0.387 OA
ATOM     32  H   UNL     1     -58.961  26.707 -17.842  1.00  0.00     0.211 HD
ENDBRANCH  23  31
ENDBRANCH   1  18
TORSDOF 11
ENDMDL
MODEL 5
REMARK VINA RESULT:    -4.357      3.441      5.852
REMARK INTER + INTRA:          -8.063
REMARK INTER:                  -6.643
REMARK INTRA:                  -1.420
REMARK UNBOUND:                -1.541
REMARK SMILES COC(=O)C1=CO[C@H](O[C@@H]2O[C@@H](CO)[C@@H](O)[C@@H](O)[C@H]2O)[C@@H]2C(CO)=CC[C@H]12
REMARK SMILES IDX 9 1 8 2 5 3 6 4 27 5 7 6 21 7 26 8 22 9 25 10 3 11 4 12 2 13
REMARK SMILES IDX 1 14 23 15 24 16 10 18 19 19 11 20 17 21 12 22 15 23 20 24
REMARK SMILES IDX 18 26 13 28 14 29 16 31
REMARK H PARENT 24 17 20 25 18 27 14 30 16 32
REMARK Flexibility Score: inf
ROOT
ATOM      1  O   UNL     1     -55.739  26.451 -14.501  1.00  0.00    -0.310 OA
ENDROOT
BRANCH   1   2
ATOM      2  C   UNL     1     -55.794  25.120 -14.018  1.00  0.00     0.316 C 
ATOM      3  C   UNL     1     -53.981  22.951 -13.253  1.00  0.00     0.076 C 
ATOM      4  C   UNL     1     -54.180  23.275 -14.529  1.00  0.00     0.202 C 
ATOM      5  C   UNL     1     -54.791  23.620 -12.146  1.00  0.00     0.047 C 
ATOM      6  O   UNL     1     -55.045  24.307 -14.914  1.00  0.00    -0.471 OA
ATOM      7  C   UNL     1     -55.279  25.031 -12.552  1.00  0.00     0.094 C 
ATOM      8  C   UNL     1     -53.944  23.922 -10.901  1.00  0.00     0.037 C 
ATOM      9  C   UNL     1     -54.144  25.918 -12.104  1.00  0.00    -0.039 C 
ATOM     10  C   UNL     1     -53.452  25.306 -11.149  1.00  0.00    -0.024 C 
BRANCH   3  11
ATOM     11  C   UNL     1     -52.976  21.914 -12.964  1.00  0.00     0.337 C 
ATOM     12  O   UNL     1     -51.780  22.110 -13.314  1.00  0.00    -0.246 OA
BRANCH  11  13
ATOM     13  O   UNL     1     -53.389  20.650 -12.484  1.00  0.00    -0.466 OA
ATOM     14  C   UNL     1     -54.153  19.768 -13.306  1.00  0.00     0.282 C 
ENDBRANCH  11  13
ENDBRANCH   3  11
BRANCH   9  15
ATOM     15  C   UNL     1     -53.963  27.383 -12.413  1.00  0.00     0.187 C 
BRANCH  15  16
ATOM     16  O   UNL     1     -53.193  27.560 -13.564  1.00  0.00    -0.392 OA
ATOM     17  H   UNL     1     -53.764  27.284 -14.331  1.00  0.00     0.211 HD
ENDBRANCH  15  16
ENDBRANCH   9  15
ENDBRANCH   1   2
BRANCH   1  18
ATOM     18  C   UNL     1     -57.001  26.992 -14.859  1.00  0.00     0.286 C 
ATOM     19  C   UNL     1     -57.369  26.730 -16.351  1.00  0.00     0.202 C 
ATOM     20  O   UNL     1     -58.003  26.625 -13.907  1.00  0.00    -0.341 OA
ATOM     21  C   UNL     1     -58.681  27.492 -16.714  1.00  0.00     0.179 C 
ATOM     22  C   UNL     1     -59.311  26.505 -14.434  1.00  0.00     0.178 C 
ATOM     23  C   UNL     1     -59.652  27.583 -15.498  1.00  0.00     0.177 C 
BRANCH  19  24
ATOM     24  O   UNL     1     -56.309  27.124 -17.181  1.00  0.00    -0.385 OA
ATOM     25  H   UNL     1     -56.358  26.535 -17.985  1.00  0.00     0.211 HD
ENDBRANCH  19  24
BRANCH  21  26
ATOM     26  O   UNL     1     -58.430  28.759 -17.264  1.00  0.00    -0.387 OA
ATOM     27  H   UNL     1     -59.081  28.908 -18.000  1.00  0.00     0.211 HD
ENDBRANCH  21  26
BRANCH  22  28
ATOM     28  C   UNL     1     -60.308  26.532 -13.263  1.00  0.00     0.191 C 
BRANCH  28  29
ATOM     29  O   UNL     1     -61.583  26.890 -13.717  1.00  0.00    -0.394 OA
ATOM     30  H   UNL     1     -62.220  26.442 -13.101  1.00  0.00     0.210 HD
ENDBRANCH  28  29
ENDBRANCH  22  28
BRANCH  23  31
ATOM     31  O   UNL     1     -59.683  28.890 -14.955  1.00  0.00    -0.387 OA
ATOM     32  H   UNL     1     -59.018  29.449 -15.431  1.00  0.00     0.211 HD
ENDBRANCH  23  31
ENDBRANCH   1  18
TORSDOF 11
ENDMDL
MODEL 6
REMARK VINA RESULT:    -4.354      3.358      5.461
REMARK INTER + INTRA:          -8.058
REMARK INTER:                  -6.676
REMARK INTRA:                  -1.382
REMARK UNBOUND:                -1.541
REMARK SMILES COC(=O)C1=CO[C@H](O[C@@H]2O[C@@H](CO)[C@@H](O)[C@@H](O)[C@H]2O)[C@@H]2C(CO)=CC[C@H]12
REMARK SMILES IDX 9 1 8 2 5 3 6 4 27 5 7 6 21 7 26 8 22 9 25 10 3 11 4 12 2 13
REMARK SMILES IDX 1 14 23 15 24 16 10 18 19 19 11 20 17 21 12 22 15 23 20 24
REMARK SMILES IDX 18 26 13 28 14 29 16 31
REMARK H PARENT 24 17 20 25 18 27 14 30 16 32
REMARK Flexibility Score: inf
ROOT
ATOM      1  O   UNL     1     -55.956  25.756 -14.701  1.00  0.00    -0.310 OA
ENDROOT
BRANCH   1   2
ATOM      2  C   UNL     1     -56.229  24.558 -13.995  1.00  0.00     0.316 C 
ATOM      3  C   UNL     1     -54.896  22.060 -13.247  1.00  0.00     0.076 C 
ATOM      4  C   UNL     1     -55.307  22.284 -14.494  1.00  0.00     0.202 C 
ATOM      5  C   UNL     1     -55.219  23.051 -12.132  1.00  0.00     0.047 C 
ATOM      6  O   UNL     1     -55.948  23.471 -14.869  1.00  0.00    -0.471 OA
ATOM      7  C   UNL     1     -55.417  24.489 -12.669  1.00  0.00     0.094 C 
ATOM      8  C   UNL     1     -54.050  23.234 -11.154  1.00  0.00     0.037 C 
ATOM      9  C   UNL     1     -54.020  25.058 -12.618  1.00  0.00    -0.039 C 
ATOM     10  C   UNL     1     -53.297  24.384 -11.731  1.00  0.00    -0.024 C 
BRANCH   3  11
ATOM     11  C   UNL     1     -54.148  20.818 -12.992  1.00  0.00     0.337 C 
ATOM     12  O   UNL     1     -52.956  20.730 -13.395  1.00  0.00    -0.246 OA
BRANCH  11  13
ATOM     13  O   UNL     1     -54.822  19.685 -12.481  1.00  0.00    -0.466 OA
ATOM     14  C   UNL     1     -54.996  19.508 -11.076  1.00  0.00     0.282 C 
ENDBRANCH  11  13
ENDBRANCH   3  11
BRANCH   9  15
ATOM     15  C   UNL     1     -53.554  26.367 -13.206  1.00  0.00     0.187 C 
BRANCH  15  16
ATOM     16  O   UNL     1     -53.016  26.179 -14.479  1.00  0.00    -0.392 OA
ATOM     17  H   UNL     1     -52.249  26.809 -14.558  1.00  0.00     0.211 HD
ENDBRANCH  15  16
ENDBRANCH   9  15
ENDBRANCH   1   2
BRANCH   1  18
ATOM     18  C   UNL     1     -57.112  26.508 -15.038  1.00  0.00     0.286 C 
ATOM     19  C   UNL     1     -57.613  26.228 -16.487  1.00  0.00     0.202 C 
ATOM     20  O   UNL     1     -58.105  26.405 -14.015  1.00  0.00    -0.341 OA
ATOM     21  C   UNL     1     -58.775  27.205 -16.843  1.00  0.00     0.179 C 
ATOM     22  C   UNL     1     -59.441  26.508 -14.469  1.00  0.00     0.178 C 
ATOM     23  C   UNL     1     -59.635  27.561 -15.593  1.00  0.00     0.177 C 
BRANCH  19  24
ATOM     24  O   UNL     1     -56.550  26.354 -17.394  1.00  0.00    -0.385 OA
ATOM     25  H   UNL     1     -56.122  27.232 -17.193  1.00  0.00     0.211 HD
ENDBRANCH  19  24
BRANCH  21  26
ATOM     26  O   UNL     1     -58.322  28.362 -17.497  1.00  0.00    -0.387 OA
ATOM     27  H   UNL     1     -58.391  28.207 -18.476  1.00  0.00     0.211 HD
ENDBRANCH  21  26
BRANCH  22  28
ATOM     28  C   UNL     1     -60.341  26.804 -13.257  1.00  0.00     0.191 C 
BRANCH  28  29
ATOM     29  O   UNL     1     -61.616  27.195 -13.681  1.00  0.00    -0.394 OA
ATOM     30  H   UNL     1     -61.602  28.188 -13.687  1.00  0.00     0.210 HD
ENDBRANCH  28  29
ENDBRANCH  22  28
BRANCH  23  31
ATOM     31  O   UNL     1     -59.384  28.881 -15.148  1.00  0.00    -0.387 OA
ATOM     32  H   UNL     1     -59.795  29.517 -15.787  1.00  0.00     0.211 HD
ENDBRANCH  23  31
ENDBRANCH   1  18
TORSDOF 11
ENDMDL
MODEL 7
REMARK VINA RESULT:    -4.176      2.192      3.493
REMARK INTER + INTRA:          -7.792
REMARK INTER:                  -6.554
REMARK INTRA:                  -1.238
REMARK UNBOUND:                -1.541
REMARK SMILES COC(=O)C1=CO[C@H](O[C@@H]2O[C@@H](CO)[C@@H](O)[C@@H](O)[C@H]2O)[C@@H]2C(CO)=CC[C@H]12
REMARK SMILES IDX 9 1 8 2 5 3 6 4 27 5 7 6 21 7 26 8 22 9 25 10 3 11 4 12 2 13
REMARK SMILES IDX 1 14 23 15 24 16 10 18 19 19 11 20 17 21 12 22 15 23 20 24
REMARK SMILES IDX 18 26 13 28 14 29 16 31
REMARK H PARENT 24 17 20 25 18 27 14 30 16 32
REMARK Flexibility Score: inf
ROOT
ATOM      1  O   UNL     1     -56.813  25.382 -13.205  1.00  0.00    -0.310 OA
ENDROOT
BRANCH   1   2
ATOM      2  C   UNL     1     -57.838  24.477 -12.833  1.00  0.00     0.316 C 
ATOM      3  C   UNL     1     -58.180  22.013 -11.286  1.00  0.00     0.076 C 
ATOM      4  C   UNL     1     -57.600  22.008 -12.485  1.00  0.00     0.202 C 
ATOM      5  C   UNL     1     -58.803  23.291 -10.730  1.00  0.00     0.047 C 
ATOM      6  O   UNL     1     -57.430  23.176 -13.239  1.00  0.00    -0.471 OA
ATOM      7  C   UNL     1     -58.139  24.563 -11.308  1.00  0.00     0.094 C 
ATOM      8  C   UNL     1     -58.552  23.457  -9.224  1.00  0.00     0.037 C 
ATOM      9  C   UNL     1     -57.013  24.822 -10.338  1.00  0.00    -0.039 C 
ATOM     10  C   UNL     1     -57.290  24.247  -9.172  1.00  0.00    -0.024 C 
BRANCH   3  11
ATOM     11  C   UNL     1     -58.217  20.742 -10.545  1.00  0.00     0.337 C 
ATOM     12  O   UNL     1     -59.332  20.191 -10.333  1.00  0.00    -0.246 OA
BRANCH  11  13
ATOM     13  O   UNL     1     -57.044  20.259  -9.920  1.00  0.00    -0.466 OA
ATOM     14  C   UNL     1     -56.713  18.871  -9.957  1.00  0.00     0.282 C 
ENDBRANCH  11  13
ENDBRANCH   3  11
BRANCH   9  15
ATOM     15  C   UNL     1     -55.894  25.821 -10.495  1.00  0.00     0.187 C 
BRANCH  15  16
ATOM     16  O   UNL     1     -56.391  27.079 -10.837  1.00  0.00    -0.392 OA
ATOM     17  H   UNL     1     -56.543  27.065 -11.820  1.00  0.00     0.211 HD
ENDBRANCH  15  16
ENDBRANCH   9  15
ENDBRANCH   1   2
BRANCH   1  18
ATOM     18  C   UNL     1     -57.179  26.280 -14.241  1.00  0.00     0.286 C 
ATOM     19  C   UNL     1     -57.167  25.614 -15.650  1.00  0.00     0.202 C 
ATOM     20  O   UNL     1     -58.378  26.985 -13.907  1.00  0.00    -0.341 OA
ATOM     21  C   UNL     1     -57.413  26.693 -16.748  1.00  0.00     0.179 C 
ATOM     22  C   UNL     1     -59.177  27.359 -15.013  1.00  0.00     0.178 C 
ATOM     23  C   UNL     1     -58.354  27.828 -16.243  1.00  0.00     0.177 C 
BRANCH  19  24
ATOM     24  O   UNL     1     -55.946  24.952 -15.855  1.00  0.00    -0.385 OA
ATOM     25  H   UNL     1     -55.236  25.601 -15.591  1.00  0.00     0.211 HD
ENDBRANCH  19  24
BRANCH  21  26
ATOM     26  O   UNL     1     -56.216  27.215 -17.266  1.00  0.00    -0.387 OA
ATOM     27  H   UNL     1     -56.098  28.131 -16.899  1.00  0.00     0.211 HD
ENDBRANCH  21  26
BRANCH  22  28
ATOM     28  C   UNL     1     -60.166  28.442 -14.549  1.00  0.00     0.191 C 
BRANCH  28  29
ATOM     29  O   UNL     1     -61.377  27.859 -14.156  1.00  0.00    -0.394 OA
ATOM     30  H   UNL     1     -61.323  27.772 -13.168  1.00  0.00     0.210 HD
ENDBRANCH  28  29
ENDBRANCH  22  28
BRANCH  23  31
ATOM     31  O   UNL     1     -57.639  29.024 -15.993  1.00  0.00    -0.387 OA
ATOM     32  H   UNL     1     -57.083  29.234 -16.785  1.00  0.00     0.211 HD
ENDBRANCH  23  31
ENDBRANCH   1  18
TORSDOF 11
ENDMDL
MODEL 8
REMARK VINA RESULT:    -4.117      3.331      5.761
REMARK INTER + INTRA:          -7.705
REMARK INTER:                  -6.197
REMARK INTRA:                  -1.508
REMARK UNBOUND:                -1.541
REMARK SMILES COC(=O)C1=CO[C@H](O[C@@H]2O[C@@H](CO)[C@@H](O)[C@@H](O)[C@H]2O)[C@@H]2C(CO)=CC[C@H]12
REMARK SMILES IDX 9 1 8 2 5 3 6 4 27 5 7 6 21 7 26 8 22 9 25 10 3 11 4 12 2 13
REMARK SMILES IDX 1 14 23 15 24 16 10 18 19 19 11 20 17 21 12 22 15 23 20 24
REMARK SMILES IDX 18 26 13 28 14 29 16 31
REMARK H PARENT 24 17 20 25 18 27 14 30 16 32
REMARK Flexibility Score: inf
ROOT
ATOM      1  O   UNL     1     -56.362  25.170 -15.458  1.00  0.00    -0.310 OA
ENDROOT
BRANCH   1   2
ATOM      2  C   UNL     1     -55.046  25.576 -15.125  1.00  0.00     0.316 C 
ATOM      3  C   UNL     1     -53.230  25.573 -12.826  1.00  0.00     0.076 C 
ATOM      4  C   UNL     1     -54.258  26.416 -12.900  1.00  0.00     0.202 C 
ATOM      5  C   UNL     1     -52.887  24.660 -14.000  1.00  0.00     0.047 C 
ATOM      6  O   UNL     1     -55.135  26.433 -13.992  1.00  0.00    -0.471 OA
ATOM      7  C   UNL     1     -54.124  24.346 -14.876  1.00  0.00     0.094 C 
ATOM      8  C   UNL     1     -52.456  23.258 -13.545  1.00  0.00     0.037 C 
ATOM      9  C   UNL     1     -54.689  23.109 -14.223  1.00  0.00    -0.039 C 
ATOM     10  C   UNL     1     -53.733  22.491 -13.537  1.00  0.00    -0.024 C 
BRANCH   3  11
ATOM     11  C   UNL     1     -52.435  25.580 -11.587  1.00  0.00     0.337 C 
ATOM     12  O   UNL     1     -51.259  26.036 -11.621  1.00  0.00    -0.246 OA
BRANCH  11  13
ATOM     13  O   UNL     1     -52.916  24.911 -10.439  1.00  0.00    -0.466 OA
ATOM     14  C   UNL     1     -52.130  23.910  -9.792  1.00  0.00     0.282 C 
ENDBRANCH  11  13
ENDBRANCH   3  11
BRANCH   9  15
ATOM     15  C   UNL     1     -56.015  22.454 -14.519  1.00  0.00     0.187 C 
BRANCH  15  16
ATOM     16  O   UNL     1     -57.035  23.020 -13.752  1.00  0.00    -0.392 OA
ATOM     17  H   UNL     1     -57.041  23.992 -13.964  1.00  0.00     0.211 HD
ENDBRANCH  15  16
ENDBRANCH   9  15
ENDBRANCH   1   2
BRANCH   1  18
ATOM     18  C   UNL     1     -57.346  26.175 -15.264  1.00  0.00     0.286 C 
ATOM     19  C   UNL     1     -57.964  26.681 -16.603  1.00  0.00     0.202 C 
ATOM     20  O   UNL     1     -58.288  25.781 -14.264  1.00  0.00    -0.341 OA
ATOM     21  C   UNL     1     -58.907  27.891 -16.326  1.00  0.00     0.179 C 
ATOM     22  C   UNL     1     -59.592  26.304 -14.434  1.00  0.00     0.178 C 
ATOM     23  C   UNL     1     -59.611  27.771 -14.940  1.00  0.00     0.177 C 
BRANCH  19  24
ATOM     24  O   UNL     1     -56.943  27.029 -17.500  1.00  0.00    -0.385 OA
ATOM     25  H   UNL     1     -56.423  27.754 -17.054  1.00  0.00     0.211 HD
ENDBRANCH  19  24
BRANCH  21  26
ATOM     26  O   UNL     1     -58.250  29.125 -16.460  1.00  0.00    -0.387 OA
ATOM     27  H   UNL     1     -58.235  29.361 -17.425  1.00  0.00     0.211 HD
ENDBRANCH  21  26
BRANCH  22  28
ATOM     28  C   UNL     1     -60.349  26.155 -13.104  1.00  0.00     0.191 C 
BRANCH  28  29
ATOM     29  O   UNL     1     -61.575  26.828 -13.163  1.00  0.00    -0.394 OA
ATOM     30  H   UNL     1     -61.530  27.527 -12.459  1.00  0.00     0.210 HD
ENDBRANCH  28  29
ENDBRANCH  22  28
BRANCH  23  31
ATOM     31  O   UNL     1     -59.063  28.676 -13.999  1.00  0.00    -0.387 OA
ATOM     32  H   UNL     1     -58.444  29.289 -14.470  1.00  0.00     0.211 HD
ENDBRANCH  23  31
ENDBRANCH   1  18
TORSDOF 11
ENDMDL
MODEL 9
REMARK VINA RESULT:    -4.058      4.503      8.430
REMARK INTER + INTRA:          -7.616
REMARK INTER:                  -5.955
REMARK INTRA:                  -1.661
REMARK UNBOUND:                -1.541
REMARK SMILES COC(=O)C1=CO[C@H](O[C@@H]2O[C@@H](CO)[C@@H](O)[C@@H](O)[C@H]2O)[C@@H]2C(CO)=CC[C@H]12
REMARK SMILES IDX 9 1 8 2 5 3 6 4 27 5 7 6 21 7 26 8 22 9 25 10 3 11 4 12 2 13
REMARK SMILES IDX 1 14 23 15 24 16 10 18 19 19 11 20 17 21 12 22 15 23 20 24
REMARK SMILES IDX 18 26 13 28 14 29 16 31
REMARK H PARENT 24 17 20 25 18 27 14 30 16 32
REMARK Flexibility Score: inf
ROOT
ATOM      1  O   UNL     1     -53.599  25.093 -13.475  1.00  0.00    -0.310 OA
ENDROOT
BRANCH   1   2
ATOM      2  C   UNL     1     -52.784  25.746 -14.433  1.00  0.00     0.316 C 
ATOM      3  C   UNL     1     -49.958  26.355 -14.907  1.00  0.00     0.076 C 
ATOM      4  C   UNL     1     -50.665  27.004 -13.983  1.00  0.00     0.202 C 
ATOM      5  C   UNL     1     -50.634  25.354 -15.841  1.00  0.00     0.047 C 
ATOM      6  O   UNL     1     -52.017  26.728 -13.744  1.00  0.00    -0.471 OA
ATOM      7  C   UNL     1     -51.899  24.727 -15.208  1.00  0.00     0.094 C 
ATOM      8  C   UNL     1     -49.762  24.117 -16.102  1.00  0.00     0.037 C 
ATOM      9  C   UNL     1     -51.349  23.519 -14.491  1.00  0.00    -0.039 C 
ATOM     10  C   UNL     1     -50.192  23.164 -15.040  1.00  0.00    -0.024 C 
BRANCH   3  11
ATOM     11  C   UNL     1     -48.522  26.663 -15.002  1.00  0.00     0.337 C 
ATOM     12  O   UNL     1     -48.107  27.335 -15.986  1.00  0.00    -0.246 OA
BRANCH  11  13
ATOM     13  O   UNL     1     -47.611  26.049 -14.113  1.00  0.00    -0.466 OA
ATOM     14  C   UNL     1     -46.513  25.281 -14.604  1.00  0.00     0.282 C 
ENDBRANCH  11  13
ENDBRANCH   3  11
BRANCH   9  15
ATOM     15  C   UNL     1     -52.086  22.625 -13.526  1.00  0.00     0.187 C 
BRANCH  15  16
ATOM     16  O   UNL     1     -53.281  22.168 -14.082  1.00  0.00    -0.392 OA
ATOM     17  H   UNL     1     -54.016  22.635 -13.600  1.00  0.00     0.211 HD
ENDBRANCH  15  16
ENDBRANCH   9  15
ENDBRANCH   1   2
BRANCH   1  18
ATOM     18  C   UNL     1     -54.991  25.181 -13.741  1.00  0.00     0.286 C 
ATOM     19  C   UNL     1     -55.863  24.594 -12.590  1.00  0.00     0.202 C 
ATOM     20  O   UNL     1     -55.348  26.498 -14.169  1.00  0.00    -0.341 OA
ATOM     21  C   UNL     1     -57.362  24.572 -13.020  1.00  0.00     0.179 C 
ATOM     22  C   UNL     1     -56.661  26.899 -13.832  1.00  0.00     0.178 C 
ATOM     23  C   UNL     1     -57.710  25.762 -13.964  1.00  0.00     0.177 C 
BRANCH  19  24
ATOM     24  O   UNL     1     -55.413  23.307 -12.257  1.00  0.00    -0.385 OA
ATOM     25  H   UNL     1     -54.598  23.439 -11.697  1.00  0.00     0.211 HD
ENDBRANCH  19  24
BRANCH  21  26
ATOM     26  O   UNL     1     -57.739  23.344 -13.589  1.00  0.00    -0.387 OA
ATOM     27  H   UNL     1     -58.726  23.260 -13.509  1.00  0.00     0.211 HD
ENDBRANCH  21  26
BRANCH  22  28
ATOM     28  C   UNL     1     -57.032  28.114 -14.699  1.00  0.00     0.191 C 
BRANCH  28  29
ATOM     29  O   UNL     1     -56.506  27.971 -15.988  1.00  0.00    -0.394 OA
ATOM     30  H   UNL     1     -55.548  27.740 -15.861  1.00  0.00     0.210 HD
ENDBRANCH  28  29
ENDBRANCH  22  28
BRANCH  23  31
ATOM     31  O   UNL     1     -57.880  25.334 -15.302  1.00  0.00    -0.387 OA
ATOM     32  H   UNL     1     -56.987  25.190 -15.706  1.00  0.00     0.211 HD
ENDBRANCH  23  31
ENDBRANCH   1  18
TORSDOF 11
ENDMDL
