MODEL 1
REMARK VINA RESULT:    -3.576      0.000      0.000
REMARK INTER + INTRA:          -4.157
REMARK INTER:                  -5.039
REMARK INTRA:                   0.882
REMARK UNBOUND:                 0.882
REMARK SMILES CC1=CCCC(C)=CCC(C)(C)C=CC1
REMARK SMILES IDX 2 1 3 2 1 3 4 4 5 5 6 6 7 7 8 8 15 10 14 11 13 12 10 13
REMARK SMILES IDX 11 14 12 15 9 16
REMARK H PARENT
REMARK Flexibility Score: 60.00
ROOT
ATOM      1  C   UNL     1      70.252  -0.962  -4.107  1.00  0.00    -0.074 C 
ATOM      2  C   UNL     1      69.508   0.117  -4.444  1.00  0.00    -0.027 C 
ATOM      3  C   UNL     1      69.746  -2.327  -4.500  1.00  0.00     0.039 C 
ENDROOT
BRANCH   2   4
ATOM      4  C   UNL     1      69.873   1.569  -4.201  1.00  0.00     0.032 C 
BRANCH   4   5
ATOM      5  C   UNL     1      69.615   2.121  -2.778  1.00  0.00     0.034 C 
BRANCH   5   6
ATOM      6  C   UNL     1      70.751   2.933  -2.160  1.00  0.00    -0.077 C 
ATOM      7  C   UNL     1      71.589   3.836  -3.033  1.00  0.00     0.039 C 
ATOM      8  C   UNL     1      71.142   2.780  -0.868  1.00  0.00    -0.027 CG0
ATOM      9  G   UNL     1      70.579   1.776   0.123  1.00  0.00     0.000 G0
ENDBRANCH   5   6
ENDBRANCH   4   5
ENDBRANCH   2   4
BRANCH   1  10
ATOM     10  C   UNL     1      71.503  -0.869  -3.262  1.00  0.00     0.057 C 
BRANCH  10  11
ATOM     11  C   UNL     1      71.107  -0.671  -1.828  1.00  0.00    -0.026 C 
ATOM     12  C   UNL     1      71.932  -0.072  -0.955  1.00  0.00    -0.024 C 
BRANCH  12  13
ATOM     13  C   UNL     1      71.452   0.497   0.373  1.00  0.00    -0.014 C 
ATOM     14  C   UNL     1      70.678  -0.557   1.198  1.00  0.00     0.016 C 
ATOM     15  C   UNL     1      72.697   0.909   1.189  1.00  0.00     0.016 C 
BRANCH  13  16
ATOM     16  C   UNL     1      70.588   1.775   0.137  1.00  0.00     0.038 CG0
ATOM     17  G   UNL     1      71.154   2.757  -0.875  1.00  0.00     0.000 G0
ENDBRANCH  13  16
ENDBRANCH  12  13
ENDBRANCH  10  11
ENDBRANCH   1  10
TORSDOF 0
ENDMDL
MODEL 2
REMARK VINA RESULT:    -3.367     15.238     17.437
REMARK INTER + INTRA:          -3.862
REMARK INTER:                  -4.797
REMARK INTRA:                   0.935
REMARK UNBOUND:                 0.882
REMARK SMILES CC1=CCCC(C)=CCC(C)(C)C=CC1
REMARK SMILES IDX 2 1 3 2 1 3 4 4 5 5 6 6 7 7 8 8 15 10 14 11 13 12 10 13
REMARK SMILES IDX 11 14 12 15 9 16
REMARK H PARENT
REMARK Flexibility Score: 60.00
ROOT
ATOM      1  C   UNL     1      82.026   4.117   8.906  1.00  0.00    -0.074 C 
ATOM      2  C   UNL     1      82.360   5.106   8.044  1.00  0.00    -0.027 C 
ATOM      3  C   UNL     1      80.684   3.449   8.740  1.00  0.00     0.039 C 
ENDROOT
BRANCH   2   4
ATOM      4  C   UNL     1      83.681   5.851   8.001  1.00  0.00     0.032 C 
BRANCH   4   5
ATOM      5  C   UNL     1      84.599   5.567   6.788  1.00  0.00     0.034 C 
BRANCH   5   6
ATOM      6  C   UNL     1      86.072   5.324   7.107  1.00  0.00    -0.077 C 
ATOM      7  C   UNL     1      86.991   6.499   7.345  1.00  0.00     0.039 C 
ATOM      8  C   UNL     1      86.640   4.091   7.053  1.00  0.00    -0.027 CG0
ATOM      9  G   UNL     1      85.948   2.808   6.627  1.00  0.00     0.000 G0
ENDBRANCH   5   6
ENDBRANCH   4   5
ENDBRANCH   2   4
BRANCH   1  10
ATOM     10  C   UNL     1      82.885   3.732  10.090  1.00  0.00     0.057 C 
BRANCH  10  11
ATOM     11  C   UNL     1      83.971   2.807   9.623  1.00  0.00    -0.026 C 
ATOM     12  C   UNL     1      84.108   2.493   8.325  1.00  0.00    -0.024 C 
BRANCH  12  13
ATOM     13  C   UNL     1      85.388   1.897   7.754  1.00  0.00    -0.014 C 
ATOM     14  C   UNL     1      86.453   1.674   8.852  1.00  0.00     0.016 C 
ATOM     15  C   UNL     1      85.039   0.518   7.152  1.00  0.00     0.016 C 
BRANCH  13  16
ATOM     16  C   UNL     1      85.941   2.796   6.606  1.00  0.00     0.038 CG0
ATOM     17  G   UNL     1      86.623   4.075   7.062  1.00  0.00     0.000 G0
ENDBRANCH  13  16
ENDBRANCH  12  13
ENDBRANCH  10  11
ENDBRANCH   1  10
TORSDOF 0
ENDMDL
MODEL 3
REMARK VINA RESULT:    -3.257     12.884     14.615
REMARK INTER + INTRA:          -3.707
REMARK INTER:                  -4.461
REMARK INTRA:                   0.754
REMARK UNBOUND:                 0.882
REMARK SMILES CC1=CCCC(C)=CCC(C)(C)C=CC1
REMARK SMILES IDX 2 1 3 2 1 3 4 4 5 5 6 6 7 7 8 8 15 10 14 11 13 12 10 13
REMARK SMILES IDX 11 14 12 15 9 16
REMARK H PARENT
REMARK Flexibility Score: 60.00
ROOT
ATOM      1  C   UNL     1      81.894   2.319  -0.105  1.00  0.00    -0.074 C 
ATOM      2  C   UNL     1      82.571   2.899  -1.124  1.00  0.00    -0.027 C 
ATOM      3  C   UNL     1      80.610   2.963   0.355  1.00  0.00     0.039 C 
ENDROOT
BRANCH   2   4
ATOM      4  C   UNL     1      83.838   2.373  -1.772  1.00  0.00     0.032 C 
BRANCH   4   5
ATOM      5  C   UNL     1      85.112   3.235  -1.604  1.00  0.00     0.034 C 
BRANCH   5   6
ATOM      6  C   UNL     1      86.435   2.474  -1.573  1.00  0.00    -0.077 C 
ATOM      7  C   UNL     1      87.028   1.946  -2.858  1.00  0.00     0.039 C 
ATOM      8  C   UNL     1      87.050   2.120  -0.414  1.00  0.00    -0.027 CG0
ATOM      9  G   UNL     1      86.519   2.361   0.989  1.00  0.00     0.000 G0
ENDBRANCH   5   6
ENDBRANCH   4   5
ENDBRANCH   2   4
BRANCH   1  10
ATOM     10  C   UNL     1      82.421   1.127   0.662  1.00  0.00     0.057 C 
BRANCH  10  11
ATOM     11  C   UNL     1      83.689   1.521   1.362  1.00  0.00    -0.026 C 
ATOM     12  C   UNL     1      84.714   0.663   1.479  1.00  0.00    -0.024 C 
BRANCH  12  13
ATOM     13  C   UNL     1      86.129   1.114   1.817  1.00  0.00    -0.014 C 
ATOM     14  C   UNL     1      86.298   1.374   3.332  1.00  0.00     0.016 C 
ATOM     15  C   UNL     1      87.095  -0.027   1.427  1.00  0.00     0.016 C 
BRANCH  13  16
ATOM     16  C   UNL     1      86.512   2.375   0.982  1.00  0.00     0.038 CG0
ATOM     17  G   UNL     1      87.044   2.087  -0.411  1.00  0.00     0.000 G0
ENDBRANCH  13  16
ENDBRANCH  12  13
ENDBRANCH  10  11
ENDBRANCH   1  10
TORSDOF 0
ENDMDL
MODEL 4
REMARK VINA RESULT:    -3.172     13.132     15.148
REMARK INTER + INTRA:          -3.588
REMARK INTER:                  -4.354
REMARK INTRA:                   0.766
REMARK UNBOUND:                 0.882
REMARK SMILES CC1=CCCC(C)=CCC(C)(C)C=CC1
REMARK SMILES IDX 2 1 3 2 1 3 4 4 5 5 6 6 7 7 8 8 15 10 14 11 13 12 10 13
REMARK SMILES IDX 11 14 12 15 9 16
REMARK H PARENT
REMARK Flexibility Score: 60.00
ROOT
ATOM      1  C   UNL     1      82.658   0.798   0.680  1.00  0.00    -0.074 C 
ATOM      2  C   UNL     1      83.685   0.696   1.556  1.00  0.00    -0.027 C 
ATOM      3  C   UNL     1      81.681  -0.347   0.590  1.00  0.00     0.039 C 
ENDROOT
BRANCH   2   4
ATOM      4  C   UNL     1      84.729   1.758   1.842  1.00  0.00     0.032 C 
BRANCH   4   5
ATOM      5  C   UNL     1      86.197   1.279   1.946  1.00  0.00     0.034 C 
BRANCH   5   6
ATOM      6  C   UNL     1      86.738   0.517   0.739  1.00  0.00    -0.077 C 
ATOM      7  C   UNL     1      87.125  -0.936   0.881  1.00  0.00     0.039 C 
ATOM      8  C   UNL     1      87.025   1.123  -0.443  1.00  0.00    -0.027 CG0
ATOM      9  G   UNL     1      86.914   2.611  -0.732  1.00  0.00     0.000 G0
ENDBRANCH   5   6
ENDBRANCH   4   5
ENDBRANCH   2   4
BRANCH   1  10
ATOM     10  C   UNL     1      82.512   1.951  -0.287  1.00  0.00     0.057 C 
BRANCH  10  11
ATOM     11  C   UNL     1      83.711   1.984  -1.190  1.00  0.00    -0.026 C 
ATOM     12  C   UNL     1      84.493   3.072  -1.269  1.00  0.00    -0.024 C 
BRANCH  12  13
ATOM     13  C   UNL     1      85.902   3.032  -1.847  1.00  0.00    -0.014 C 
ATOM     14  C   UNL     1      85.991   2.085  -3.066  1.00  0.00     0.016 C 
ATOM     15  C   UNL     1      86.255   4.455  -2.331  1.00  0.00     0.016 C 
BRANCH  13  16
ATOM     16  C   UNL     1      86.930   2.630  -0.744  1.00  0.00     0.038 CG0
ATOM     17  G   UNL     1      87.008   1.142  -0.449  1.00  0.00     0.000 G0
ENDBRANCH  13  16
ENDBRANCH  12  13
ENDBRANCH  10  11
ENDBRANCH   1  10
TORSDOF 0
ENDMDL
MODEL 5
REMARK VINA RESULT:    -2.746      1.757      2.974
REMARK INTER + INTRA:          -2.987
REMARK INTER:                  -3.755
REMARK INTRA:                   0.768
REMARK UNBOUND:                 0.882
REMARK SMILES CC1=CCCC(C)=CCC(C)(C)C=CC1
REMARK SMILES IDX 2 1 3 2 1 3 4 4 5 5 6 6 7 7 8 8 15 10 14 11 13 12 10 13
REMARK SMILES IDX 11 14 12 15 9 16
REMARK H PARENT
REMARK Flexibility Score: 60.00
ROOT
ATOM      1  C   UNL     1      70.719   1.141  -3.072  1.00  0.00    -0.074 C 
ATOM      2  C   UNL     1      71.566   2.195  -3.014  1.00  0.00    -0.027 C 
ATOM      3  C   UNL     1      69.482   1.266  -3.926  1.00  0.00     0.039 C 
ENDROOT
BRANCH   2   4
ATOM      4  C   UNL     1      72.887   2.245  -2.271  1.00  0.00     0.032 C 
BRANCH   4   5
ATOM      5  C   UNL     1      72.825   2.606  -0.767  1.00  0.00     0.034 C 
BRANCH   5   6
ATOM      6  C   UNL     1      73.677   1.746   0.163  1.00  0.00    -0.077 C 
ATOM      7  C   UNL     1      75.045   1.287  -0.284  1.00  0.00     0.039 C 
ATOM      8  C   UNL     1      73.207   1.248   1.337  1.00  0.00    -0.027 CG0
ATOM      9  G   UNL     1      71.794   1.409   1.872  1.00  0.00     0.000 G0
ENDBRANCH   5   6
ENDBRANCH   4   5
ENDBRANCH   2   4
BRANCH   1  10
ATOM     10  C   UNL     1      70.897  -0.106  -2.235  1.00  0.00     0.057 C 
BRANCH  10  11
ATOM     11  C   UNL     1      70.419   0.172  -0.839  1.00  0.00    -0.026 C 
ATOM     12  C   UNL     1      71.030  -0.369   0.226  1.00  0.00    -0.024 C 
BRANCH  12  13
ATOM     13  C   UNL     1      70.848   0.168   1.639  1.00  0.00    -0.014 C 
ATOM     14  C   UNL     1      69.371   0.522   1.929  1.00  0.00     0.016 C 
ATOM     15  C   UNL     1      71.266  -0.944   2.625  1.00  0.00     0.016 C 
BRANCH  13  16
ATOM     16  C   UNL     1      71.779   1.397   1.878  1.00  0.00     0.038 CG0
ATOM     17  G   UNL     1      73.192   1.248   1.337  1.00  0.00     0.000 G0
ENDBRANCH  13  16
ENDBRANCH  12  13
ENDBRANCH  10  11
ENDBRANCH   1  10
TORSDOF 0
ENDMDL
MODEL 6
REMARK VINA RESULT:    -2.449     12.570     14.651
REMARK INTER + INTRA:          -2.569
REMARK INTER:                  -3.141
REMARK INTRA:                   0.572
REMARK UNBOUND:                 0.882
REMARK SMILES CC1=CCCC(C)=CCC(C)(C)C=CC1
REMARK SMILES IDX 2 1 3 2 1 3 4 4 5 5 6 6 7 7 8 8 15 10 14 11 13 12 10 13
REMARK SMILES IDX 11 14 12 15 9 16
REMARK H PARENT
REMARK Flexibility Score: 60.00
ROOT
ATOM      1  C   UNL     1      86.355   4.144  -1.563  1.00  0.00    -0.074 C 
ATOM      2  C   UNL     1      87.077   3.723  -0.498  1.00  0.00    -0.027 C 
ATOM      3  C   UNL     1      86.548   5.561  -2.040  1.00  0.00     0.039 C 
ENDROOT
BRANCH   2   4
ATOM      4  C   UNL     1      87.078   2.324   0.089  1.00  0.00     0.032 C 
BRANCH   4   5
ATOM      5  C   UNL     1      86.375   2.146   1.457  1.00  0.00     0.034 C 
BRANCH   5   6
ATOM      6  C   UNL     1      85.611   0.838   1.650  1.00  0.00    -0.077 C 
ATOM      7  C   UNL     1      86.363  -0.471   1.687  1.00  0.00     0.039 C 
ATOM      8  C   UNL     1      84.254   0.776   1.654  1.00  0.00    -0.027 CG0
ATOM      9  G   UNL     1      83.306   1.940   1.418  1.00  0.00     0.000 G0
ENDBRANCH   5   6
ENDBRANCH   4   5
ENDBRANCH   2   4
BRANCH   1  10
ATOM     10  C   UNL     1      85.288   3.297  -2.220  1.00  0.00     0.057 C 
BRANCH  10  11
ATOM     11  C   UNL     1      84.094   3.228  -1.313  1.00  0.00    -0.026 C 
ATOM     12  C   UNL     1      83.440   2.074  -1.112  1.00  0.00    -0.024 C 
BRANCH  12  13
ATOM     13  C   UNL     1      82.495   1.858   0.063  1.00  0.00    -0.014 C 
ATOM     14  C   UNL     1      81.324   2.867   0.047  1.00  0.00     0.016 C 
ATOM     15  C   UNL     1      81.895   0.441  -0.066  1.00  0.00     0.016 C 
BRANCH  13  16
ATOM     16  C   UNL     1      83.280   1.926   1.411  1.00  0.00     0.038 CG0
ATOM     17  G   UNL     1      84.240   0.775   1.656  1.00  0.00     0.000 G0
ENDBRANCH  13  16
ENDBRANCH  12  13
ENDBRANCH  10  11
ENDBRANCH   1  10
TORSDOF 0
ENDMDL
MODEL 7
REMARK VINA RESULT:    -2.256      1.879      5.073
REMARK INTER + INTRA:          -2.297
REMARK INTER:                  -3.799
REMARK INTRA:                   1.502
REMARK UNBOUND:                 0.882
REMARK SMILES CC1=CCCC(C)=CCC(C)(C)C=CC1
REMARK SMILES IDX 2 1 3 2 1 3 4 4 5 5 6 6 7 7 8 8 15 10 14 11 13 12 10 13
REMARK SMILES IDX 11 14 12 15 9 16
REMARK H PARENT
REMARK Flexibility Score: 60.00
ROOT
ATOM      1  C   UNL     1      70.312   0.728   2.963  1.00  0.00    -0.074 C 
ATOM      2  C   UNL     1      71.666   0.757   2.997  1.00  0.00    -0.027 C 
ATOM      3  C   UNL     1      69.559   1.245   4.163  1.00  0.00     0.039 C 
ENDROOT
BRANCH   2   4
ATOM      4  C   UNL     1      72.599   0.348   1.873  1.00  0.00     0.032 C 
BRANCH   4   5
ATOM      5  C   UNL     1      73.681   1.375   1.461  1.00  0.00     0.034 C 
BRANCH   5   6
ATOM      6  C   UNL     1      74.107   1.345  -0.004  1.00  0.00    -0.077 C 
ATOM      7  C   UNL     1      75.500   0.892  -0.372  1.00  0.00     0.039 C 
ATOM      8  C   UNL     1      73.332   1.843  -1.004  1.00  0.00    -0.027 CG0
ATOM      9  G   UNL     1      71.992   2.537  -0.832  1.00  0.00     0.000 G0
ENDBRANCH   5   6
ENDBRANCH   4   5
ENDBRANCH   2   4
BRANCH   1  10
ATOM     10  C   UNL     1      69.530   0.100   1.832  1.00  0.00     0.057 C 
BRANCH  10  11
ATOM     11  C   UNL     1      70.269   0.324   0.545  1.00  0.00    -0.026 C 
ATOM     12  C   UNL     1      69.861   1.248  -0.339  1.00  0.00    -0.024 C 
BRANCH  12  13
ATOM     13  C   UNL     1      70.763   1.783  -1.444  1.00  0.00    -0.014 C 
ATOM     14  C   UNL     1      71.218   0.658  -2.403  1.00  0.00     0.016 C 
ATOM     15  C   UNL     1      69.946   2.801  -2.269  1.00  0.00     0.016 C 
BRANCH  13  16
ATOM     16  C   UNL     1      71.987   2.532  -0.832  1.00  0.00     0.038 CG0
ATOM     17  G   UNL     1      73.326   1.841  -1.023  1.00  0.00     0.000 G0
ENDBRANCH  13  16
ENDBRANCH  12  13
ENDBRANCH  10  11
ENDBRANCH   1  10
TORSDOF 0
ENDMDL
MODEL 8
REMARK VINA RESULT:    -2.071      1.229      3.520
REMARK INTER + INTRA:          -2.036
REMARK INTER:                  -3.732
REMARK INTRA:                   1.696
REMARK UNBOUND:                 0.882
REMARK SMILES CC1=CCCC(C)=CCC(C)(C)C=CC1
REMARK SMILES IDX 2 1 3 2 1 3 4 4 5 5 6 6 7 7 8 8 15 10 14 11 13 12 10 13
REMARK SMILES IDX 11 14 12 15 9 16
REMARK H PARENT
REMARK Flexibility Score: 60.00
ROOT
ATOM      1  C   UNL     1      70.918  -1.484  -3.369  1.00  0.00    -0.074 C 
ATOM      2  C   UNL     1      71.169  -1.462  -2.039  1.00  0.00    -0.027 C 
ATOM      3  C   UNL     1      71.150  -2.773  -4.117  1.00  0.00     0.039 C 
ENDROOT
BRANCH   2   4
ATOM      4  C   UNL     1      70.938  -0.292  -1.102  1.00  0.00     0.032 C 
BRANCH   4   5
ATOM      5  C   UNL     1      72.067   0.021  -0.090  1.00  0.00     0.034 C 
BRANCH   5   6
ATOM      6  C   UNL     1      72.043   1.416   0.528  1.00  0.00    -0.077 C 
ATOM      7  C   UNL     1      71.615   1.592   1.966  1.00  0.00     0.039 C 
ATOM      8  C   UNL     1      72.258   2.544  -0.199  1.00  0.00    -0.027 CG0
ATOM      9  G   UNL     1      72.492   2.608  -1.699  1.00  0.00     0.000 G0
ENDBRANCH   5   6
ENDBRANCH   4   5
ENDBRANCH   2   4
BRANCH   1  10
ATOM     10  C   UNL     1      70.526  -0.253  -4.154  1.00  0.00     0.057 C 
BRANCH  10  11
ATOM     11  C   UNL     1      71.294   0.925  -3.627  1.00  0.00    -0.026 C 
ATOM     12  C   UNL     1      70.696   2.107  -3.415  1.00  0.00    -0.024 C 
BRANCH  12  13
ATOM     13  C   UNL     1      71.306   3.193  -2.538  1.00  0.00    -0.014 C 
ATOM     14  C   UNL     1      71.755   4.414  -3.373  1.00  0.00     0.016 C 
ATOM     15  C   UNL     1      70.218   3.672  -1.553  1.00  0.00     0.016 C 
BRANCH  13  16
ATOM     16  C   UNL     1      72.490   2.615  -1.703  1.00  0.00     0.038 CG0
ATOM     17  G   UNL     1      72.245   2.541  -0.205  1.00  0.00     0.000 G0
ENDBRANCH  13  16
ENDBRANCH  12  13
ENDBRANCH  10  11
ENDBRANCH   1  10
TORSDOF 0
ENDMDL
MODEL 9
REMARK VINA RESULT:    -1.925     15.471     17.801
REMARK INTER + INTRA:          -1.831
REMARK INTER:                  -2.375
REMARK INTRA:                   0.544
REMARK UNBOUND:                 0.882
REMARK SMILES CC1=CCCC(C)=CCC(C)(C)C=CC1
REMARK SMILES IDX 2 1 3 2 1 3 4 4 5 5 6 6 7 7 8 8 15 10 14 11 13 12 10 13
REMARK SMILES IDX 11 14 12 15 9 16
REMARK H PARENT
REMARK Flexibility Score: 60.00
ROOT
ATOM      1  C   UNL     1      82.756   2.772   9.137  1.00  0.00    -0.074 C 
ATOM      2  C   UNL     1      83.722   1.824   9.124  1.00  0.00    -0.027 C 
ATOM      3  C   UNL     1      81.368   2.381   8.694  1.00  0.00     0.039 C 
ENDROOT
BRANCH   2   4
ATOM      4  C   UNL     1      85.155   1.997   9.593  1.00  0.00     0.032 C 
BRANCH   4   5
ATOM      5  C   UNL     1      86.256   1.886   8.511  1.00  0.00     0.034 C 
BRANCH   5   6
ATOM      6  C   UNL     1      85.795   2.062   7.067  1.00  0.00    -0.077 C 
ATOM      7  C   UNL     1      85.232   0.883   6.310  1.00  0.00     0.039 C 
ATOM      8  C   UNL     1      85.994   3.211   6.369  1.00  0.00    -0.027 CG0
ATOM      9  G   UNL     1      86.730   4.443   6.868  1.00  0.00     0.000 G0
ENDBRANCH   5   6
ENDBRANCH   4   5
ENDBRANCH   2   4
BRANCH   1  10
ATOM     10  C   UNL     1      83.029   4.222   9.466  1.00  0.00     0.057 C 
BRANCH  10  11
ATOM     11  C   UNL     1      83.714   4.866   8.296  1.00  0.00    -0.026 C 
ATOM     12  C   UNL     1      84.949   5.379   8.409  1.00  0.00    -0.024 C 
BRANCH  12  13
ATOM     13  C   UNL     1      85.828   5.682   7.203  1.00  0.00    -0.014 C 
ATOM     14  C   UNL     1      84.986   6.101   5.975  1.00  0.00     0.016 C 
ATOM     15  C   UNL     1      86.745   6.868   7.571  1.00  0.00     0.016 C 
BRANCH  13  16
ATOM     16  C   UNL     1      86.736   4.457   6.872  1.00  0.00     0.038 CG0
ATOM     17  G   UNL     1      86.002   3.236   6.344  1.00  0.00     0.000 G0
ENDBRANCH  13  16
ENDBRANCH  12  13
ENDBRANCH  10  11
ENDBRANCH   1  10
TORSDOF 0
ENDMDL
