MODEL 1
REMARK VINA RESULT:    -3.611      0.000      0.000
REMARK INTER + INTRA:          -4.278
REMARK INTER:                  -4.244
REMARK INTRA:                  -0.034
REMARK UNBOUND:                -0.034
REMARK SMILES O=C([O-])CCC(=O)[O-]
REMARK SMILES IDX 4 1 2 2 1 3 3 4 5 5 6 6 7 7 8 8
REMARK H PARENT
REMARK Flexibility Score: inf
ROOT
ATOM      1  C   UNL     1       5.224  -2.263 -22.017  1.00  0.00     0.059 C 
ENDROOT
BRANCH   1   2
ATOM      2  C   UNL     1       4.114  -1.836 -21.106  1.00  0.00     0.042 C 
ATOM      3  O   UNL     1       4.184  -0.738 -20.493  1.00  0.00    -0.550 OA
ATOM      4  O   UNL     1       2.984  -2.632 -20.963  1.00  0.00    -0.550 OA
ENDBRANCH   1   2
BRANCH   1   5
ATOM      5  C   UNL     1       4.994  -3.674 -22.566  1.00  0.00     0.059 C 
BRANCH   5   6
ATOM      6  C   UNL     1       5.756  -3.906 -23.834  1.00  0.00     0.042 C 
ATOM      7  O   UNL     1       6.852  -4.526 -23.810  1.00  0.00    -0.550 OA
ATOM      8  O   UNL     1       5.237  -3.473 -25.048  1.00  0.00    -0.550 OA
ENDBRANCH   5   6
ENDBRANCH   1   5
TORSDOF 3
ENDMDL
MODEL 2
REMARK VINA RESULT:    -3.544      2.337      3.951
REMARK INTER + INTRA:          -4.200
REMARK INTER:                  -4.107
REMARK INTRA:                  -0.092
REMARK UNBOUND:                -0.034
REMARK SMILES O=C([O-])CCC(=O)[O-]
REMARK SMILES IDX 4 1 2 2 1 3 3 4 5 5 6 6 7 7 8 8
REMARK H PARENT
REMARK Flexibility Score: inf
ROOT
ATOM      1  C   UNL     1       4.539  -1.316 -21.162  1.00  0.00     0.059 C 
ENDROOT
BRANCH   1   2
ATOM      2  C   UNL     1       4.700  -2.670 -21.783  1.00  0.00     0.042 C 
ATOM      3  O   UNL     1       5.773  -2.975 -22.367  1.00  0.00    -0.550 OA
ATOM      4  O   UNL     1       3.680  -3.608 -21.683  1.00  0.00    -0.550 OA
ENDBRANCH   1   2
BRANCH   1   5
ATOM      5  C   UNL     1       5.818  -0.481 -21.289  1.00  0.00     0.059 C 
BRANCH   5   6
ATOM      6  C   UNL     1       5.591   0.759 -22.098  1.00  0.00     0.042 C 
ATOM      7  O   UNL     1       5.764   0.742 -23.345  1.00  0.00    -0.550 OA
ATOM      8  O   UNL     1       5.149   1.922 -21.481  1.00  0.00    -0.550 OA
ENDBRANCH   5   6
ENDBRANCH   1   5
TORSDOF 3
ENDMDL
MODEL 3
REMARK VINA RESULT:    -3.514      2.337      3.461
REMARK INTER + INTRA:          -4.164
REMARK INTER:                  -4.108
REMARK INTRA:                  -0.056
REMARK UNBOUND:                -0.034
REMARK SMILES O=C([O-])CCC(=O)[O-]
REMARK SMILES IDX 4 1 2 2 1 3 3 4 5 5 6 6 7 7 8 8
REMARK H PARENT
REMARK Flexibility Score: inf
ROOT
ATOM      1  C   UNL     1       5.790  -0.495 -21.337  1.00  0.00     0.059 C 
ENDROOT
BRANCH   1   2
ATOM      2  C   UNL     1       5.558   0.835 -21.988  1.00  0.00     0.042 C 
ATOM      3  O   UNL     1       5.957   1.042 -23.165  1.00  0.00    -0.550 OA
ATOM      4  O   UNL     1       4.867   1.831 -21.312  1.00  0.00    -0.550 OA
ENDBRANCH   1   2
BRANCH   1   5
ATOM      5  C   UNL     1       4.473  -1.161 -20.928  1.00  0.00     0.059 C 
BRANCH   5   6
ATOM      6  C   UNL     1       4.358  -2.547 -21.484  1.00  0.00     0.042 C 
ATOM      7  O   UNL     1       5.279  -3.020 -22.200  1.00  0.00    -0.550 OA
ATOM      8  O   UNL     1       3.252  -3.330 -21.178  1.00  0.00    -0.550 OA
ENDBRANCH   5   6
ENDBRANCH   1   5
TORSDOF 3
ENDMDL
MODEL 4
REMARK VINA RESULT:    -3.507      9.446     11.061
REMARK INTER + INTRA:          -4.155
REMARK INTER:                  -4.007
REMARK INTRA:                  -0.148
REMARK UNBOUND:                -0.034
REMARK SMILES O=C([O-])CCC(=O)[O-]
REMARK SMILES IDX 4 1 2 2 1 3 3 4 5 5 6 6 7 7 8 8
REMARK H PARENT
REMARK Flexibility Score: inf
ROOT
ATOM      1  C   UNL     1       4.915   8.908 -22.124  1.00  0.00     0.059 C 
ENDROOT
BRANCH   1   2
ATOM      2  C   UNL     1       6.306   8.926 -22.682  1.00  0.00     0.042 C 
ATOM      3  O   UNL     1       6.506   9.275 -23.875  1.00  0.00    -0.550 OA
ATOM      4  O   UNL     1       7.385   8.594 -21.873  1.00  0.00    -0.550 OA
ENDBRANCH   1   2
BRANCH   1   5
ATOM      5  C   UNL     1       4.730   7.782 -21.103  1.00  0.00     0.059 C 
BRANCH   5   6
ATOM      6  C   UNL     1       4.509   6.459 -21.771  1.00  0.00     0.042 C 
ATOM      7  O   UNL     1       3.401   6.199 -22.309  1.00  0.00    -0.550 OA
ATOM      8  O   UNL     1       5.541   5.532 -21.837  1.00  0.00    -0.550 OA
ENDBRANCH   5   6
ENDBRANCH   1   5
TORSDOF 3
ENDMDL
MODEL 5
REMARK VINA RESULT:    -3.506      1.921      3.927
REMARK INTER + INTRA:          -4.155
REMARK INTER:                  -4.060
REMARK INTRA:                  -0.095
REMARK UNBOUND:                -0.034
REMARK SMILES O=C([O-])CCC(=O)[O-]
REMARK SMILES IDX 4 1 2 2 1 3 3 4 5 5 6 6 7 7 8 8
REMARK H PARENT
REMARK Flexibility Score: inf
ROOT
ATOM      1  C   UNL     1       4.138  -4.213 -23.455  1.00  0.00     0.059 C 
ENDROOT
BRANCH   1   2
ATOM      2  C   UNL     1       5.475  -3.774 -22.940  1.00  0.00     0.042 C 
ATOM      3  O   UNL     1       6.528  -4.322 -23.363  1.00  0.00    -0.550 OA
ATOM      4  O   UNL     1       5.562  -2.733 -22.024  1.00  0.00    -0.550 OA
ENDBRANCH   1   2
BRANCH   1   5
ATOM      5  C   UNL     1       3.352  -4.991 -22.395  1.00  0.00     0.059 C 
BRANCH   5   6
ATOM      6  C   UNL     1       2.418  -4.101 -21.635  1.00  0.00     0.042 C 
ATOM      7  O   UNL     1       2.471  -4.052 -20.378  1.00  0.00    -0.550 OA
ATOM      8  O   UNL     1       1.516  -3.294 -22.317  1.00  0.00    -0.550 OA
ENDBRANCH   5   6
ENDBRANCH   1   5
TORSDOF 3
ENDMDL
MODEL 6
REMARK VINA RESULT:    -3.498     12.123     13.321
REMARK INTER + INTRA:          -4.146
REMARK INTER:                  -4.030
REMARK INTRA:                  -0.116
REMARK UNBOUND:                -0.034
REMARK SMILES O=C([O-])CCC(=O)[O-]
REMARK SMILES IDX 4 1 2 2 1 3 3 4 5 5 6 6 7 7 8 8
REMARK H PARENT
REMARK Flexibility Score: inf
ROOT
ATOM      1  C   UNL     1       4.344   9.974 -22.280  1.00  0.00     0.059 C 
ENDROOT
BRANCH   1   2
ATOM      2  C   UNL     1       3.646  11.064 -23.035  1.00  0.00     0.042 C 
ATOM      3  O   UNL     1       4.132  11.499 -24.113  1.00  0.00    -0.550 OA
ATOM      4  O   UNL     1       2.439  11.572 -22.571  1.00  0.00    -0.550 OA
ENDBRANCH   1   2
BRANCH   1   5
ATOM      5  C   UNL     1       5.345   9.225 -23.165  1.00  0.00     0.059 C 
BRANCH   5   6
ATOM      6  C   UNL     1       6.755   9.436 -22.706  1.00  0.00     0.042 C 
ATOM      7  O   UNL     1       7.389  10.465 -23.060  1.00  0.00    -0.550 OA
ATOM      8  O   UNL     1       7.355   8.517 -21.854  1.00  0.00    -0.550 OA
ENDBRANCH   5   6
ENDBRANCH   1   5
TORSDOF 3
ENDMDL
MODEL 7
REMARK VINA RESULT:    -3.495     12.095     13.573
REMARK INTER + INTRA:          -4.141
REMARK INTER:                  -4.021
REMARK INTRA:                  -0.121
REMARK UNBOUND:                -0.034
REMARK SMILES O=C([O-])CCC(=O)[O-]
REMARK SMILES IDX 4 1 2 2 1 3 3 4 5 5 6 6 7 7 8 8
REMARK H PARENT
REMARK Flexibility Score: inf
ROOT
ATOM      1  C   UNL     1       5.308   9.192 -23.131  1.00  0.00     0.059 C 
ENDROOT
BRANCH   1   2
ATOM      2  C   UNL     1       6.717   9.418 -22.674  1.00  0.00     0.042 C 
ATOM      3  O   UNL     1       7.335  10.461 -23.018  1.00  0.00    -0.550 OA
ATOM      4  O   UNL     1       7.335   8.499 -21.835  1.00  0.00    -0.550 OA
ENDBRANCH   1   2
BRANCH   1   5
ATOM      5  C   UNL     1       4.307   9.993 -22.293  1.00  0.00     0.059 C 
BRANCH   5   6
ATOM      6  C   UNL     1       3.648  11.070 -23.099  1.00  0.00     0.042 C 
ATOM      7  O   UNL     1       4.220  11.538 -24.118  1.00  0.00    -0.550 OA
ATOM      8  O   UNL     1       2.385  11.528 -22.748  1.00  0.00    -0.550 OA
ENDBRANCH   5   6
ENDBRANCH   1   5
TORSDOF 3
ENDMDL
MODEL 8
REMARK VINA RESULT:    -3.466      9.441     11.016
REMARK INTER + INTRA:          -4.107
REMARK INTER:                  -3.961
REMARK INTRA:                  -0.146
REMARK UNBOUND:                -0.034
REMARK SMILES O=C([O-])CCC(=O)[O-]
REMARK SMILES IDX 4 1 2 2 1 3 3 4 5 5 6 6 7 7 8 8
REMARK H PARENT
REMARK Flexibility Score: inf
ROOT
ATOM      1  C   UNL     1       4.746   7.742 -21.165  1.00  0.00     0.059 C 
ENDROOT
BRANCH   1   2
ATOM      2  C   UNL     1       4.509   6.442 -21.872  1.00  0.00     0.042 C 
ATOM      3  O   UNL     1       3.435   6.250 -22.501  1.00  0.00    -0.550 OA
ATOM      4  O   UNL     1       5.491   5.459 -21.870  1.00  0.00    -0.550 OA
ENDBRANCH   1   2
BRANCH   1   5
ATOM      5  C   UNL     1       4.963   8.891 -22.154  1.00  0.00     0.059 C 
BRANCH   5   6
ATOM      6  C   UNL     1       6.366   8.911 -22.679  1.00  0.00     0.042 C 
ATOM      7  O   UNL     1       6.601   9.335 -23.841  1.00  0.00    -0.550 OA
ATOM      8  O   UNL     1       7.418   8.502 -21.870  1.00  0.00    -0.550 OA
ENDBRANCH   5   6
ENDBRANCH   1   5
TORSDOF 3
ENDMDL
MODEL 9
REMARK VINA RESULT:    -3.458      1.917      2.753
REMARK INTER + INTRA:          -4.098
REMARK INTER:                  -4.068
REMARK INTRA:                  -0.030
REMARK UNBOUND:                -0.034
REMARK SMILES O=C([O-])CCC(=O)[O-]
REMARK SMILES IDX 4 1 2 2 1 3 3 4 5 5 6 6 7 7 8 8
REMARK H PARENT
REMARK Flexibility Score: inf
ROOT
ATOM      1  C   UNL     1       3.361  -4.180 -23.038  1.00  0.00     0.059 C 
ENDROOT
BRANCH   1   2
ATOM      2  C   UNL     1       2.587  -4.838 -21.936  1.00  0.00     0.042 C 
ATOM      3  O   UNL     1       2.461  -4.266 -20.821  1.00  0.00    -0.550 OA
ATOM      4  O   UNL     1       1.971  -6.064 -22.154  1.00  0.00    -0.550 OA
ENDBRANCH   1   2
BRANCH   1   5
ATOM      5  C   UNL     1       4.823  -3.950 -22.642  1.00  0.00     0.059 C 
BRANCH   5   6
ATOM      6  C   UNL     1       5.734  -4.011 -23.829  1.00  0.00     0.042 C 
ATOM      7  O   UNL     1       5.362  -3.543 -24.937  1.00  0.00    -0.550 OA
ATOM      8  O   UNL     1       7.009  -4.548 -23.702  1.00  0.00    -0.550 OA
ENDBRANCH   5   6
ENDBRANCH   1   5
TORSDOF 3
ENDMDL
