MODEL 1
REMARK VINA RESULT:    -5.649      0.000      0.000
REMARK INTER + INTRA:         -12.723
REMARK INTER:                 -10.933
REMARK INTRA:                  -1.790
REMARK UNBOUND:                -1.790
REMARK SMILES CCCCCCCCCCCCCCCCCC(=O)[O-]
REMARK SMILES IDX 10 1 11 2 12 3 13 4 14 5 15 6 16 7 17 8 18 9 19 10 20 11
REMARK SMILES IDX 9 12 8 13 7 14 6 15 5 16 4 17 3 18 2 19 1 20
REMARK H PARENT
REMARK Flexibility Score: inf
ROOT
ATOM      1  C   UNL     1     -12.007 -16.058  26.496  1.00  0.00     0.000 C 
ENDROOT
BRANCH   1   2
ATOM      2  C   UNL     1     -10.624 -15.590  26.984  1.00  0.00     0.000 C 
BRANCH   2   3
ATOM      3  C   UNL     1      -9.804 -14.919  25.868  1.00  0.00     0.000 C 
BRANCH   3   4
ATOM      4  C   UNL     1      -8.582 -14.158  26.410  1.00  0.00     0.000 C 
BRANCH   4   5
ATOM      5  C   UNL     1      -7.274 -14.962  26.291  1.00  0.00     0.000 C 
BRANCH   5   6
ATOM      6  C   UNL     1      -6.313 -14.825  27.486  1.00  0.00     0.000 C 
BRANCH   6   7
ATOM      7  C   UNL     1      -6.971 -14.181  28.715  1.00  0.00     0.006 C 
BRANCH   7   8
ATOM      8  C   UNL     1      -6.035 -14.229  29.926  1.00  0.00     0.053 C 
BRANCH   8   9
ATOM      9  C   UNL     1      -6.779 -14.672  31.147  1.00  0.00     0.041 C 
ATOM     10  O   UNL     1      -6.548 -15.801  31.654  1.00  0.00    -0.550 OA
ATOM     11  O   UNL     1      -7.692 -13.819  31.753  1.00  0.00    -0.550 OA
ENDBRANCH   8   9
ENDBRANCH   7   8
ENDBRANCH   6   7
ENDBRANCH   5   6
ENDBRANCH   4   5
ENDBRANCH   3   4
ENDBRANCH   2   3
ENDBRANCH   1   2
BRANCH   1  12
ATOM     12  C   UNL     1     -13.086 -15.949  27.587  1.00  0.00     0.000 C 
BRANCH  12  13
ATOM     13  C   UNL     1     -12.514 -16.122  29.005  1.00  0.00    -0.000 C 
BRANCH  13  14
ATOM     14  C   UNL     1     -13.273 -17.180  29.824  1.00  0.00    -0.000 C 
BRANCH  14  15
ATOM     15  C   UNL     1     -12.656 -18.583  29.692  1.00  0.00    -0.000 C 
BRANCH  15  16
ATOM     16  C   UNL     1     -11.198 -18.543  29.201  1.00  0.00    -0.000 C 
BRANCH  16  17
ATOM     17  C   UNL     1     -10.190 -18.884  30.313  1.00  0.00    -0.000 C 
BRANCH  17  18
ATOM     18  C   UNL     1     -10.572 -18.263  31.666  1.00  0.00    -0.000 C 
BRANCH  18  19
ATOM     19  C   UNL     1      -9.874 -16.919  31.920  1.00  0.00    -0.003 C 
ATOM     20  C   UNL     1     -10.878 -15.851  32.348  1.00  0.00     0.004 C 
ENDBRANCH  18  19
ENDBRANCH  17  18
ENDBRANCH  16  17
ENDBRANCH  15  16
ENDBRANCH  14  15
ENDBRANCH  13  14
ENDBRANCH  12  13
ENDBRANCH   1  12
TORSDOF 16
ENDMDL
MODEL 2
REMARK VINA RESULT:    -5.525      1.508      2.175
REMARK INTER + INTRA:         -12.484
REMARK INTER:                 -10.650
REMARK INTRA:                  -1.834
REMARK UNBOUND:                -1.790
REMARK SMILES CCCCCCCCCCCCCCCCCC(=O)[O-]
REMARK SMILES IDX 10 1 11 2 12 3 13 4 14 5 15 6 16 7 17 8 18 9 19 10 20 11
REMARK SMILES IDX 9 12 8 13 7 14 6 15 5 16 4 17 3 18 2 19 1 20
REMARK H PARENT
REMARK Flexibility Score: inf
ROOT
ATOM      1  C   UNL     1     -10.557 -15.242  26.206  1.00  0.00     0.000 C 
ENDROOT
BRANCH   1   2
ATOM      2  C   UNL     1      -9.254 -14.439  26.036  1.00  0.00     0.000 C 
BRANCH   2   3
ATOM      3  C   UNL     1      -8.018 -15.212  26.527  1.00  0.00     0.000 C 
BRANCH   3   4
ATOM      4  C   UNL     1      -6.758 -14.332  26.589  1.00  0.00     0.000 C 
BRANCH   4   5
ATOM      5  C   UNL     1      -6.063 -14.377  27.962  1.00  0.00     0.000 C 
BRANCH   5   6
ATOM      6  C   UNL     1      -7.011 -14.393  29.175  1.00  0.00     0.000 C 
BRANCH   6   7
ATOM      7  C   UNL     1      -6.272 -14.271  30.515  1.00  0.00     0.006 C 
BRANCH   7   8
ATOM      8  C   UNL     1      -6.895 -13.177  31.387  1.00  0.00     0.053 C 
BRANCH   8   9
ATOM      9  C   UNL     1      -5.944 -12.033  31.554  1.00  0.00     0.041 C 
ATOM     10  O   UNL     1      -5.959 -11.073  30.740  1.00  0.00    -0.550 OA
ATOM     11  O   UNL     1      -5.076 -12.004  32.637  1.00  0.00    -0.550 OA
ENDBRANCH   8   9
ENDBRANCH   7   8
ENDBRANCH   6   7
ENDBRANCH   5   6
ENDBRANCH   4   5
ENDBRANCH   3   4
ENDBRANCH   2   3
ENDBRANCH   1   2
BRANCH   1  12
ATOM     12  C   UNL     1     -10.588 -16.047  27.516  1.00  0.00     0.000 C 
BRANCH  12  13
ATOM     13  C   UNL     1     -11.897 -16.837  27.695  1.00  0.00    -0.000 C 
BRANCH  13  14
ATOM     14  C   UNL     1     -11.727 -18.065  28.606  1.00  0.00    -0.000 C 
BRANCH  14  15
ATOM     15  C   UNL     1     -12.745 -18.089  29.761  1.00  0.00    -0.000 C 
BRANCH  15  16
ATOM     16  C   UNL     1     -12.073 -18.236  31.137  1.00  0.00    -0.000 C 
BRANCH  16  17
ATOM     17  C   UNL     1     -10.584 -18.607  31.031  1.00  0.00    -0.000 C 
BRANCH  17  18
ATOM     18  C   UNL     1      -9.676 -17.624  31.787  1.00  0.00    -0.000 C 
BRANCH  18  19
ATOM     19  C   UNL     1      -9.606 -16.244  31.115  1.00  0.00    -0.003 C 
ATOM     20  C   UNL     1     -10.343 -15.193  31.941  1.00  0.00     0.004 C 
ENDBRANCH  18  19
ENDBRANCH  17  18
ENDBRANCH  16  17
ENDBRANCH  15  16
ENDBRANCH  14  15
ENDBRANCH  13  14
ENDBRANCH  12  13
ENDBRANCH   1  12
TORSDOF 16
ENDMDL
MODEL 3
REMARK VINA RESULT:    -5.497      2.411      5.373
REMARK INTER + INTRA:         -12.430
REMARK INTER:                 -10.844
REMARK INTRA:                  -1.586
REMARK UNBOUND:                -1.790
REMARK SMILES CCCCCCCCCCCCCCCCCC(=O)[O-]
REMARK SMILES IDX 10 1 11 2 12 3 13 4 14 5 15 6 16 7 17 8 18 9 19 10 20 11
REMARK SMILES IDX 9 12 8 13 7 14 6 15 5 16 4 17 3 18 2 19 1 20
REMARK H PARENT
REMARK Flexibility Score: inf
ROOT
ATOM      1  C   UNL     1      -6.320 -14.466  27.561  1.00  0.00     0.000 C 
ENDROOT
BRANCH   1   2
ATOM      2  C   UNL     1      -7.276 -14.939  26.451  1.00  0.00     0.000 C 
BRANCH   2   3
ATOM      3  C   UNL     1      -8.269 -13.844  26.024  1.00  0.00     0.000 C 
BRANCH   3   4
ATOM      4  C   UNL     1      -9.707 -14.373  25.887  1.00  0.00     0.000 C 
BRANCH   4   5
ATOM      5  C   UNL     1      -9.932 -15.701  26.633  1.00  0.00     0.000 C 
BRANCH   5   6
ATOM      6  C   UNL     1     -11.388 -15.981  27.045  1.00  0.00     0.000 C 
BRANCH   6   7
ATOM      7  C   UNL     1     -11.555 -16.183  28.558  1.00  0.00     0.006 C 
BRANCH   7   8
ATOM      8  C   UNL     1     -13.036 -16.264  28.940  1.00  0.00     0.053 C 
BRANCH   8   9
ATOM      9  C   UNL     1     -13.267 -17.381  29.909  1.00  0.00     0.041 C 
ATOM     10  O   UNL     1     -13.705 -17.137  31.064  1.00  0.00    -0.550 OA
ATOM     11  O   UNL     1     -13.045 -18.696  29.520  1.00  0.00    -0.550 OA
ENDBRANCH   8   9
ENDBRANCH   7   8
ENDBRANCH   6   7
ENDBRANCH   5   6
ENDBRANCH   4   5
ENDBRANCH   3   4
ENDBRANCH   2   3
ENDBRANCH   1   2
BRANCH   1  12
ATOM     12  C   UNL     1      -7.033 -14.268  28.909  1.00  0.00     0.000 C 
BRANCH  12  13
ATOM     13  C   UNL     1      -6.060 -14.283  30.102  1.00  0.00    -0.000 C 
BRANCH  13  14
ATOM     14  C   UNL     1      -6.592 -13.492  31.309  1.00  0.00    -0.000 C 
BRANCH  14  15
ATOM     15  C   UNL     1      -7.893 -14.087  31.878  1.00  0.00    -0.000 C 
BRANCH  15  16
ATOM     16  C   UNL     1      -7.861 -15.623  31.942  1.00  0.00    -0.000 C 
BRANCH  16  17
ATOM     17  C   UNL     1      -9.010 -16.272  31.151  1.00  0.00    -0.000 C 
BRANCH  17  18
ATOM     18  C   UNL     1     -10.215 -16.620  32.040  1.00  0.00    -0.000 C 
BRANCH  18  19
ATOM     19  C   UNL     1     -10.309 -18.121  32.350  1.00  0.00    -0.003 C 
ATOM     20  C   UNL     1     -10.098 -18.957  31.091  1.00  0.00     0.004 C 
ENDBRANCH  18  19
ENDBRANCH  17  18
ENDBRANCH  16  17
ENDBRANCH  15  16
ENDBRANCH  14  15
ENDBRANCH  13  14
ENDBRANCH  12  13
ENDBRANCH   1  12
TORSDOF 16
ENDMDL
MODEL 4
REMARK VINA RESULT:    -5.485      0.917      2.015
REMARK INTER + INTRA:         -12.406
REMARK INTER:                 -10.641
REMARK INTRA:                  -1.765
REMARK UNBOUND:                -1.790
REMARK SMILES CCCCCCCCCCCCCCCCCC(=O)[O-]
REMARK SMILES IDX 10 1 11 2 12 3 13 4 14 5 15 6 16 7 17 8 18 9 19 10 20 11
REMARK SMILES IDX 9 12 8 13 7 14 6 15 5 16 4 17 3 18 2 19 1 20
REMARK H PARENT
REMARK Flexibility Score: inf
ROOT
ATOM      1  C   UNL     1     -10.372 -15.542  27.162  1.00  0.00     0.000 C 
ENDROOT
BRANCH   1   2
ATOM      2  C   UNL     1      -9.528 -15.032  25.979  1.00  0.00     0.000 C 
BRANCH   2   3
ATOM      3  C   UNL     1      -8.364 -14.134  26.431  1.00  0.00     0.000 C 
BRANCH   3   4
ATOM      4  C   UNL     1      -6.991 -14.795  26.220  1.00  0.00     0.000 C 
BRANCH   4   5
ATOM      5  C   UNL     1      -6.150 -14.853  27.508  1.00  0.00     0.000 C 
BRANCH   5   6
ATOM      6  C   UNL     1      -6.733 -14.081  28.705  1.00  0.00     0.000 C 
BRANCH   6   7
ATOM      7  C   UNL     1      -5.973 -14.341  30.014  1.00  0.00     0.006 C 
BRANCH   7   8
ATOM      8  C   UNL     1      -6.834 -15.135  31.000  1.00  0.00     0.053 C 
BRANCH   8   9
ATOM      9  C   UNL     1      -7.379 -14.234  32.064  1.00  0.00     0.041 C 
ATOM     10  O   UNL     1      -6.629 -13.819  32.987  1.00  0.00    -0.550 OA
ATOM     11  O   UNL     1      -8.701 -13.814  32.010  1.00  0.00    -0.550 OA
ENDBRANCH   8   9
ENDBRANCH   7   8
ENDBRANCH   6   7
ENDBRANCH   5   6
ENDBRANCH   4   5
ENDBRANCH   3   4
ENDBRANCH   2   3
ENDBRANCH   1   2
BRANCH   1  12
ATOM     12  C   UNL     1     -11.798 -15.937  26.745  1.00  0.00     0.000 C 
BRANCH  12  13
ATOM     13  C   UNL     1     -12.460 -16.905  27.741  1.00  0.00    -0.000 C 
BRANCH  13  14
ATOM     14  C   UNL     1     -13.011 -16.188  28.985  1.00  0.00    -0.000 C 
BRANCH  14  15
ATOM     15  C   UNL     1     -13.352 -17.163  30.127  1.00  0.00    -0.000 C 
BRANCH  15  16
ATOM     16  C   UNL     1     -12.505 -16.916  31.387  1.00  0.00    -0.000 C 
BRANCH  16  17
ATOM     17  C   UNL     1     -11.185 -16.188  31.079  1.00  0.00    -0.000 C 
BRANCH  17  18
ATOM     18  C   UNL     1      -9.961 -17.109  31.205  1.00  0.00    -0.000 C 
BRANCH  18  19
ATOM     19  C   UNL     1     -10.320 -18.596  31.070  1.00  0.00    -0.003 C 
ATOM     20  C   UNL     1     -10.211 -19.057  29.619  1.00  0.00     0.004 C 
ENDBRANCH  18  19
ENDBRANCH  17  18
ENDBRANCH  16  17
ENDBRANCH  15  16
ENDBRANCH  14  15
ENDBRANCH  13  14
ENDBRANCH  12  13
ENDBRANCH   1  12
TORSDOF 16
ENDMDL
MODEL 5
REMARK VINA RESULT:    -5.443      1.731      3.600
REMARK INTER + INTRA:         -12.324
REMARK INTER:                 -10.538
REMARK INTRA:                  -1.787
REMARK UNBOUND:                -1.790
REMARK SMILES CCCCCCCCCCCCCCCCCC(=O)[O-]
REMARK SMILES IDX 10 1 11 2 12 3 13 4 14 5 15 6 16 7 17 8 18 9 19 10 20 11
REMARK SMILES IDX 9 12 8 13 7 14 6 15 5 16 4 17 3 18 2 19 1 20
REMARK H PARENT
REMARK Flexibility Score: inf
ROOT
ATOM      1  C   UNL     1     -12.353 -16.424  29.789  1.00  0.00     0.000 C 
ENDROOT
BRANCH   1   2
ATOM      2  C   UNL     1     -11.338 -16.225  28.649  1.00  0.00     0.000 C 
BRANCH   2   3
ATOM      3  C   UNL     1     -12.007 -16.200  27.264  1.00  0.00     0.000 C 
BRANCH   3   4
ATOM      4  C   UNL     1     -11.272 -15.285  26.270  1.00  0.00     0.000 C 
BRANCH   4   5
ATOM      5  C   UNL     1      -9.742 -15.339  26.423  1.00  0.00     0.000 C 
BRANCH   5   6
ATOM      6  C   UNL     1      -8.970 -14.240  25.670  1.00  0.00     0.000 C 
BRANCH   6   7
ATOM      7  C   UNL     1      -7.553 -14.018  26.219  1.00  0.00     0.006 C 
BRANCH   7   8
ATOM      8  C   UNL     1      -7.414 -14.602  27.628  1.00  0.00     0.053 C 
BRANCH   8   9
ATOM      9  C   UNL     1      -5.980 -14.598  28.058  1.00  0.00     0.041 C 
ATOM     10  O   UNL     1      -5.687 -14.609  29.283  1.00  0.00    -0.550 OA
ATOM     11  O   UNL     1      -4.969 -14.634  27.107  1.00  0.00    -0.550 OA
ENDBRANCH   8   9
ENDBRANCH   7   8
ENDBRANCH   6   7
ENDBRANCH   5   6
ENDBRANCH   4   5
ENDBRANCH   3   4
ENDBRANCH   2   3
ENDBRANCH   1   2
BRANCH   1  12
ATOM     12  C   UNL     1     -12.174 -17.770  30.512  1.00  0.00     0.000 C 
BRANCH  12  13
ATOM     13  C   UNL     1     -10.974 -18.573  29.979  1.00  0.00    -0.000 C 
BRANCH  13  14
ATOM     14  C   UNL     1      -9.889 -18.794  31.048  1.00  0.00    -0.000 C 
BRANCH  14  15
ATOM     15  C   UNL     1      -9.787 -17.620  32.037  1.00  0.00    -0.000 C 
BRANCH  15  16
ATOM     16  C   UNL     1      -8.471 -16.836  31.889  1.00  0.00    -0.000 C 
BRANCH  16  17
ATOM     17  C   UNL     1      -8.630 -15.571  31.028  1.00  0.00    -0.000 C 
BRANCH  17  18
ATOM     18  C   UNL     1      -8.519 -14.279  31.852  1.00  0.00    -0.000 C 
BRANCH  18  19
ATOM     19  C   UNL     1      -7.101 -14.040  32.393  1.00  0.00    -0.003 C 
ATOM     20  C   UNL     1      -6.553 -12.696  31.922  1.00  0.00     0.004 C 
ENDBRANCH  18  19
ENDBRANCH  17  18
ENDBRANCH  16  17
ENDBRANCH  15  16
ENDBRANCH  14  15
ENDBRANCH  13  14
ENDBRANCH  12  13
ENDBRANCH   1  12
TORSDOF 16
ENDMDL
MODEL 6
REMARK VINA RESULT:    -5.438      2.857      6.908
REMARK INTER + INTRA:         -12.315
REMARK INTER:                 -10.535
REMARK INTRA:                  -1.781
REMARK UNBOUND:                -1.790
REMARK SMILES CCCCCCCCCCCCCCCCCC(=O)[O-]
REMARK SMILES IDX 10 1 11 2 12 3 13 4 14 5 15 6 16 7 17 8 18 9 19 10 20 11
REMARK SMILES IDX 9 12 8 13 7 14 6 15 5 16 4 17 3 18 2 19 1 20
REMARK H PARENT
REMARK Flexibility Score: inf
ROOT
ATOM      1  C   UNL     1     -10.197 -15.351  31.628  1.00  0.00     0.000 C 
ENDROOT
BRANCH   1   2
ATOM      2  C   UNL     1     -11.236 -16.008  32.555  1.00  0.00     0.000 C 
BRANCH   2   3
ATOM      3  C   UNL     1     -11.058 -17.533  32.652  1.00  0.00     0.000 C 
BRANCH   3   4
ATOM      4  C   UNL     1      -9.824 -18.033  31.881  1.00  0.00     0.000 C 
BRANCH   4   5
ATOM      5  C   UNL     1     -10.185 -18.981  30.723  1.00  0.00     0.000 C 
BRANCH   5   6
ATOM      6  C   UNL     1     -10.420 -18.295  29.366  1.00  0.00     0.000 C 
BRANCH   6   7
ATOM      7  C   UNL     1     -11.909 -18.129  29.028  1.00  0.00     0.006 C 
BRANCH   7   8
ATOM      8  C   UNL     1     -12.287 -16.648  28.931  1.00  0.00     0.053 C 
BRANCH   8   9
ATOM      9  C   UNL     1     -12.122 -16.155  27.527  1.00  0.00     0.041 C 
ATOM     10  O   UNL     1     -10.973 -15.910  27.074  1.00  0.00    -0.550 OA
ATOM     11  O   UNL     1     -13.231 -16.013  26.705  1.00  0.00    -0.550 OA
ENDBRANCH   8   9
ENDBRANCH   7   8
ENDBRANCH   6   7
ENDBRANCH   5   6
ENDBRANCH   4   5
ENDBRANCH   3   4
ENDBRANCH   2   3
ENDBRANCH   1   2
BRANCH   1  12
ATOM     12  C   UNL     1      -9.528 -14.122  32.265  1.00  0.00     0.000 C 
BRANCH  12  13
ATOM     13  C   UNL     1      -8.022 -14.040  31.955  1.00  0.00    -0.000 C 
BRANCH  13  14
ATOM     14  C   UNL     1      -7.620 -14.897  30.743  1.00  0.00    -0.000 C 
BRANCH  14  15
ATOM     15  C   UNL     1      -6.887 -14.084  29.661  1.00  0.00    -0.000 C 
BRANCH  15  16
ATOM     16  C   UNL     1      -5.516 -13.573  30.135  1.00  0.00    -0.000 C 
BRANCH  16  17
ATOM     17  C   UNL     1      -5.255 -12.113  29.725  1.00  0.00    -0.000 C 
BRANCH  17  18
ATOM     18  C   UNL     1      -5.670 -11.111  30.815  1.00  0.00    -0.000 C 
BRANCH  18  19
ATOM     19  C   UNL     1      -5.391 -11.628  32.234  1.00  0.00    -0.003 C 
ATOM     20  C   UNL     1      -3.968 -11.289  32.671  1.00  0.00     0.004 C 
ENDBRANCH  18  19
ENDBRANCH  17  18
ENDBRANCH  16  17
ENDBRANCH  15  16
ENDBRANCH  14  15
ENDBRANCH  13  14
ENDBRANCH  12  13
ENDBRANCH   1  12
TORSDOF 16
ENDMDL
MODEL 7
REMARK VINA RESULT:    -5.406      2.082      5.697
REMARK INTER + INTRA:         -12.252
REMARK INTER:                 -10.573
REMARK INTRA:                  -1.679
REMARK UNBOUND:                -1.790
REMARK SMILES CCCCCCCCCCCCCCCCCC(=O)[O-]
REMARK SMILES IDX 10 1 11 2 12 3 13 4 14 5 15 6 16 7 17 8 18 9 19 10 20 11
REMARK SMILES IDX 9 12 8 13 7 14 6 15 5 16 4 17 3 18 2 19 1 20
REMARK H PARENT
REMARK Flexibility Score: inf
ROOT
ATOM      1  C   UNL     1     -10.213 -14.964  26.210  1.00  0.00     0.000 C 
ENDROOT
BRANCH   1   2
ATOM      2  C   UNL     1     -11.449 -15.788  26.614  1.00  0.00     0.000 C 
BRANCH   2   3
ATOM      3  C   UNL     1     -11.241 -16.551  27.934  1.00  0.00     0.000 C 
BRANCH   3   4
ATOM      4  C   UNL     1     -12.172 -16.058  29.054  1.00  0.00     0.000 C 
BRANCH   4   5
ATOM      5  C   UNL     1     -13.088 -17.167  29.604  1.00  0.00     0.000 C 
BRANCH   5   6
ATOM      6  C   UNL     1     -13.088 -17.315  31.136  1.00  0.00     0.000 C 
BRANCH   6   7
ATOM      7  C   UNL     1     -11.933 -16.560  31.811  1.00  0.00     0.006 C 
BRANCH   7   8
ATOM      8  C   UNL     1     -11.242 -17.439  32.857  1.00  0.00     0.053 C 
BRANCH   8   9
ATOM      9  C   UNL     1     -10.888 -18.771  32.272  1.00  0.00     0.041 C 
ATOM     10  O   UNL     1     -11.386 -19.824  32.750  1.00  0.00    -0.550 OA
ATOM     11  O   UNL     1     -10.049 -18.845  31.169  1.00  0.00    -0.550 OA
ENDBRANCH   8   9
ENDBRANCH   7   8
ENDBRANCH   6   7
ENDBRANCH   5   6
ENDBRANCH   4   5
ENDBRANCH   3   4
ENDBRANCH   2   3
ENDBRANCH   1   2
BRANCH   1  12
ATOM     12  C   UNL     1      -8.970 -15.315  27.043  1.00  0.00     0.000 C 
BRANCH  12  13
ATOM     13  C   UNL     1      -7.661 -15.171  26.245  1.00  0.00    -0.000 C 
BRANCH  13  14
ATOM     14  C   UNL     1      -6.713 -14.122  26.850  1.00  0.00    -0.000 C 
BRANCH  14  15
ATOM     15  C   UNL     1      -5.806 -14.707  27.947  1.00  0.00    -0.000 C 
BRANCH  15  16
ATOM     16  C   UNL     1      -5.612 -13.742  29.129  1.00  0.00    -0.000 C 
BRANCH  16  17
ATOM     17  C   UNL     1      -6.767 -13.809  30.143  1.00  0.00    -0.000 C 
BRANCH  17  18
ATOM     18  C   UNL     1      -6.803 -15.141  30.909  1.00  0.00    -0.000 C 
BRANCH  18  19
ATOM     19  C   UNL     1      -8.218 -15.527  31.363  1.00  0.00    -0.003 C 
ATOM     20  C   UNL     1      -8.993 -14.304  31.847  1.00  0.00     0.004 C 
ENDBRANCH  18  19
ENDBRANCH  17  18
ENDBRANCH  16  17
ENDBRANCH  15  16
ENDBRANCH  14  15
ENDBRANCH  13  14
ENDBRANCH  12  13
ENDBRANCH   1  12
TORSDOF 16
ENDMDL
MODEL 8
REMARK VINA RESULT:    -5.390      2.248      5.727
REMARK INTER + INTRA:         -12.222
REMARK INTER:                 -10.357
REMARK INTRA:                  -1.865
REMARK UNBOUND:                -1.790
REMARK SMILES CCCCCCCCCCCCCCCCCC(=O)[O-]
REMARK SMILES IDX 10 1 11 2 12 3 13 4 14 5 15 6 16 7 17 8 18 9 19 10 20 11
REMARK SMILES IDX 9 12 8 13 7 14 6 15 5 16 4 17 3 18 2 19 1 20
REMARK H PARENT
REMARK Flexibility Score: inf
ROOT
ATOM      1  C   UNL     1     -10.936 -18.954  32.079  1.00  0.00     0.000 C 
ENDROOT
BRANCH   1   2
ATOM      2  C   UNL     1     -12.386 -18.682  31.639  1.00  0.00     0.000 C 
BRANCH   2   3
ATOM      3  C   UNL     1     -12.482 -18.235  30.171  1.00  0.00     0.000 C 
BRANCH   3   4
ATOM      4  C   UNL     1     -13.165 -16.866  30.014  1.00  0.00     0.000 C 
BRANCH   4   5
ATOM      5  C   UNL     1     -12.505 -15.987  28.935  1.00  0.00     0.000 C 
BRANCH   5   6
ATOM      6  C   UNL     1     -11.932 -16.753  27.729  1.00  0.00     0.000 C 
BRANCH   6   7
ATOM      7  C   UNL     1     -11.065 -15.872  26.818  1.00  0.00     0.006 C 
BRANCH   7   8
ATOM      8  C   UNL     1      -9.680 -15.644  27.432  1.00  0.00     0.053 C 
BRANCH   8   9
ATOM      9  C   UNL     1      -8.782 -14.949  26.457  1.00  0.00     0.041 C 
ATOM     10  O   UNL     1      -7.601 -15.351  26.287  1.00  0.00    -0.550 OA
ATOM     11  O   UNL     1      -9.264 -13.889  25.700  1.00  0.00    -0.550 OA
ENDBRANCH   8   9
ENDBRANCH   7   8
ENDBRANCH   6   7
ENDBRANCH   5   6
ENDBRANCH   4   5
ENDBRANCH   3   4
ENDBRANCH   2   3
ENDBRANCH   1   2
BRANCH   1  12
ATOM     12  C   UNL     1      -9.903 -18.428  31.068  1.00  0.00     0.000 C 
BRANCH  12  13
ATOM     13  C   UNL     1      -9.024 -17.306  31.649  1.00  0.00    -0.000 C 
BRANCH  13  14
ATOM     14  C   UNL     1      -9.759 -15.956  31.720  1.00  0.00    -0.000 C 
BRANCH  14  15
ATOM     15  C   UNL     1      -8.797 -14.756  31.662  1.00  0.00    -0.000 C 
BRANCH  15  16
ATOM     16  C   UNL     1      -7.418 -15.132  31.095  1.00  0.00    -0.000 C 
BRANCH  16  17
ATOM     17  C   UNL     1      -7.013 -14.258  29.895  1.00  0.00    -0.000 C 
BRANCH  17  18
ATOM     18  C   UNL     1      -5.621 -13.629  30.067  1.00  0.00    -0.000 C 
BRANCH  18  19
ATOM     19  C   UNL     1      -5.680 -12.113  30.304  1.00  0.00    -0.003 C 
ATOM     20  C   UNL     1      -6.136 -11.797  31.726  1.00  0.00     0.004 C 
ENDBRANCH  18  19
ENDBRANCH  17  18
ENDBRANCH  16  17
ENDBRANCH  15  16
ENDBRANCH  14  15
ENDBRANCH  13  14
ENDBRANCH  12  13
ENDBRANCH   1  12
TORSDOF 16
ENDMDL
MODEL 9
REMARK VINA RESULT:    -5.358      1.791      5.598
REMARK INTER + INTRA:         -12.161
REMARK INTER:                 -10.747
REMARK INTRA:                  -1.414
REMARK UNBOUND:                -1.790
REMARK SMILES CCCCCCCCCCCCCCCCCC(=O)[O-]
REMARK SMILES IDX 10 1 11 2 12 3 13 4 14 5 15 6 16 7 17 8 18 9 19 10 20 11
REMARK SMILES IDX 9 12 8 13 7 14 6 15 5 16 4 17 3 18 2 19 1 20
REMARK H PARENT
REMARK Flexibility Score: inf
ROOT
ATOM      1  C   UNL     1      -8.702 -14.313  25.778  1.00  0.00     0.000 C 
ENDROOT
BRANCH   1   2
ATOM      2  C   UNL     1     -10.137 -14.861  25.877  1.00  0.00     0.000 C 
BRANCH   2   3
ATOM      3  C   UNL     1     -10.372 -15.666  27.167  1.00  0.00     0.000 C 
BRANCH   3   4
ATOM      4  C   UNL     1     -11.832 -16.128  27.317  1.00  0.00     0.000 C 
BRANCH   4   5
ATOM      5  C   UNL     1     -12.010 -17.207  28.400  1.00  0.00     0.000 C 
BRANCH   5   6
ATOM      6  C   UNL     1     -12.622 -16.710  29.723  1.00  0.00     0.000 C 
BRANCH   6   7
ATOM      7  C   UNL     1     -12.274 -17.609  30.919  1.00  0.00     0.006 C 
BRANCH   7   8
ATOM      8  C   UNL     1     -11.076 -17.052  31.693  1.00  0.00     0.053 C 
BRANCH   8   9
ATOM      9  C   UNL     1      -9.870 -17.915  31.486  1.00  0.00     0.041 C 
ATOM     10  O   UNL     1      -9.925 -18.904  30.710  1.00  0.00    -0.550 OA
ATOM     11  O   UNL     1      -8.673 -17.598  32.113  1.00  0.00    -0.550 OA
ENDBRANCH   8   9
ENDBRANCH   7   8
ENDBRANCH   6   7
ENDBRANCH   5   6
ENDBRANCH   4   5
ENDBRANCH   3   4
ENDBRANCH   2   3
ENDBRANCH   1   2
BRANCH   1  12
ATOM     12  C   UNL     1      -7.675 -15.217  26.480  1.00  0.00     0.000 C 
BRANCH  12  13
ATOM     13  C   UNL     1      -6.323 -14.515  26.703  1.00  0.00    -0.000 C 
BRANCH  13  14
ATOM     14  C   UNL     1      -6.049 -14.216  28.187  1.00  0.00    -0.000 C 
BRANCH  14  15
ATOM     15  C   UNL     1      -7.266 -14.510  29.083  1.00  0.00    -0.000 C 
BRANCH  15  16
ATOM     16  C   UNL     1      -6.865 -14.860  30.526  1.00  0.00    -0.000 C 
BRANCH  16  17
ATOM     17  C   UNL     1      -7.804 -14.231  31.570  1.00  0.00    -0.000 C 
BRANCH  17  18
ATOM     18  C   UNL     1      -7.179 -13.011  32.266  1.00  0.00    -0.000 C 
BRANCH  18  19
ATOM     19  C   UNL     1      -5.876 -12.549  31.597  1.00  0.00    -0.003 C 
ATOM     20  C   UNL     1      -5.899 -11.047  31.328  1.00  0.00     0.004 C 
ENDBRANCH  18  19
ENDBRANCH  17  18
ENDBRANCH  16  17
ENDBRANCH  15  16
ENDBRANCH  14  15
ENDBRANCH  13  14
ENDBRANCH  12  13
ENDBRANCH   1  12
TORSDOF 16
ENDMDL
