MODEL 1
REMARK VINA RESULT:    -4.022      0.000      0.000
REMARK INTER + INTRA:          -9.596
REMARK INTER:                  -7.314
REMARK INTRA:                  -2.282
REMARK UNBOUND:                -2.282
REMARK SMILES CCCCCCCCCCCCCCCC(=O)[O-]
REMARK SMILES IDX 9 1 10 2 11 3 12 4 13 5 14 6 15 7 16 8 17 9 18 10 8 11 7 12
REMARK SMILES IDX 6 13 5 14 4 15 3 16 2 17 1 18
REMARK H PARENT
REMARK Flexibility Score: inf
ROOT
ATOM      1  C   UNL     1      52.312  23.777  35.832  1.00  0.00     0.000 C 
ENDROOT
BRANCH   1   2
ATOM      2  C   UNL     1      53.723  24.373  35.678  1.00  0.00     0.000 C 
BRANCH   2   3
ATOM      3  C   UNL     1      54.159  24.670  34.228  1.00  0.00     0.000 C 
BRANCH   3   4
ATOM      4  C   UNL     1      54.258  26.162  33.867  1.00  0.00     0.000 C 
BRANCH   4   5
ATOM      5  C   UNL     1      53.269  27.034  34.655  1.00  0.00     0.000 C 
BRANCH   5   6
ATOM      6  C   UNL     1      53.570  28.526  34.452  1.00  0.00     0.006 C 
BRANCH   6   7
ATOM      7  C   UNL     1      52.778  29.415  35.421  1.00  0.00     0.053 C 
BRANCH   7   8
ATOM      8  C   UNL     1      53.585  29.773  36.631  1.00  0.00     0.041 C 
ATOM      9  O   UNL     1      53.058  30.418  37.575  1.00  0.00    -0.550 OA
ATOM     10  O   UNL     1      54.927  29.423  36.702  1.00  0.00    -0.550 OA
ENDBRANCH   7   8
ENDBRANCH   6   7
ENDBRANCH   5   6
ENDBRANCH   4   5
ENDBRANCH   3   4
ENDBRANCH   2   3
ENDBRANCH   1   2
BRANCH   1  11
ATOM     11  C   UNL     1      51.357  24.698  36.611  1.00  0.00     0.000 C 
BRANCH  11  12
ATOM     12  C   UNL     1      49.927  24.695  36.040  1.00  0.00    -0.000 C 
BRANCH  12  13
ATOM     13  C   UNL     1      49.352  26.084  35.694  1.00  0.00    -0.000 C 
BRANCH  13  14
ATOM     14  C   UNL     1      49.676  26.601  34.280  1.00  0.00    -0.000 C 
BRANCH  14  15
ATOM     15  C   UNL     1      49.583  25.503  33.207  1.00  0.00    -0.000 C 
BRANCH  15  16
ATOM     16  C   UNL     1      50.930  25.226  32.516  1.00  0.00    -0.000 C 
BRANCH  16  17
ATOM     17  C   UNL     1      51.243  23.738  32.270  1.00  0.00    -0.003 C 
ATOM     18  C   UNL     1      50.238  22.797  32.934  1.00  0.00     0.004 C 
ENDBRANCH  16  17
ENDBRANCH  15  16
ENDBRANCH  14  15
ENDBRANCH  13  14
ENDBRANCH  12  13
ENDBRANCH  11  12
ENDBRANCH   1  11
TORSDOF 14
ENDMDL
MODEL 2
REMARK VINA RESULT:    -4.005      1.195      2.551
REMARK INTER + INTRA:          -9.566
REMARK INTER:                  -7.444
REMARK INTRA:                  -2.122
REMARK UNBOUND:                -2.282
REMARK SMILES CCCCCCCCCCCCCCCC(=O)[O-]
REMARK SMILES IDX 9 1 10 2 11 3 12 4 13 5 14 6 15 7 16 8 17 9 18 10 8 11 7 12
REMARK SMILES IDX 6 13 5 14 4 15 3 16 2 17 1 18
REMARK H PARENT
REMARK Flexibility Score: inf
ROOT
ATOM      1  C   UNL     1      53.183  24.598  33.280  1.00  0.00     0.000 C 
ENDROOT
BRANCH   1   2
ATOM      2  C   UNL     1      53.465  25.782  34.223  1.00  0.00     0.000 C 
BRANCH   2   3
ATOM      3  C   UNL     1      54.745  26.585  33.910  1.00  0.00     0.000 C 
BRANCH   3   4
ATOM      4  C   UNL     1      54.712  28.063  34.334  1.00  0.00     0.000 C 
BRANCH   4   5
ATOM      5  C   UNL     1      53.325  28.701  34.165  1.00  0.00     0.000 C 
BRANCH   5   6
ATOM      6  C   UNL     1      52.744  29.117  35.524  1.00  0.00     0.006 C 
BRANCH   6   7
ATOM      7  C   UNL     1      53.813  29.166  36.624  1.00  0.00     0.053 C 
BRANCH   7   8
ATOM      8  C   UNL     1      53.740  30.437  37.414  1.00  0.00     0.041 C 
ATOM      9  O   UNL     1      52.996  30.512  38.426  1.00  0.00    -0.550 OA
ATOM     10  O   UNL     1      54.469  31.549  37.012  1.00  0.00    -0.550 OA
ENDBRANCH   7   8
ENDBRANCH   6   7
ENDBRANCH   5   6
ENDBRANCH   4   5
ENDBRANCH   3   4
ENDBRANCH   2   3
ENDBRANCH   1   2
BRANCH   1  11
ATOM     11  C   UNL     1      51.775  24.650  32.663  1.00  0.00     0.000 C 
BRANCH  11  12
ATOM     12  C   UNL     1      51.090  26.016  32.852  1.00  0.00    -0.000 C 
BRANCH  12  13
ATOM     13  C   UNL     1      49.564  25.964  33.068  1.00  0.00    -0.000 C 
BRANCH  13  14
ATOM     14  C   UNL     1      49.069  26.518  34.417  1.00  0.00    -0.000 C 
BRANCH  14  15
ATOM     15  C   UNL     1      50.057  26.261  35.567  1.00  0.00    -0.000 C 
BRANCH  15  16
ATOM     16  C   UNL     1      49.872  24.878  36.217  1.00  0.00    -0.000 C 
BRANCH  16  17
ATOM     17  C   UNL     1      51.159  24.040  36.342  1.00  0.00    -0.003 C 
ATOM     18  C   UNL     1      51.058  22.681  35.649  1.00  0.00     0.004 C 
ENDBRANCH  16  17
ENDBRANCH  15  16
ENDBRANCH  14  15
ENDBRANCH  13  14
ENDBRANCH  12  13
ENDBRANCH  11  12
ENDBRANCH   1  11
TORSDOF 14
ENDMDL
MODEL 3
REMARK VINA RESULT:    -3.980      1.350      2.343
REMARK INTER + INTRA:          -9.520
REMARK INTER:                  -7.376
REMARK INTRA:                  -2.143
REMARK UNBOUND:                -2.282
REMARK SMILES CCCCCCCCCCCCCCCC(=O)[O-]
REMARK SMILES IDX 9 1 10 2 11 3 12 4 13 5 14 6 15 7 16 8 17 9 18 10 8 11 7 12
REMARK SMILES IDX 6 13 5 14 4 15 3 16 2 17 1 18
REMARK H PARENT
REMARK Flexibility Score: inf
ROOT
ATOM      1  C   UNL     1      52.403  24.809  35.805  1.00  0.00     0.000 C 
ENDROOT
BRANCH   1   2
ATOM      2  C   UNL     1      52.588  24.725  34.278  1.00  0.00     0.000 C 
BRANCH   2   3
ATOM      3  C   UNL     1      53.103  26.014  33.605  1.00  0.00     0.000 C 
BRANCH   3   4
ATOM      4  C   UNL     1      53.990  26.907  34.491  1.00  0.00     0.000 C 
BRANCH   4   5
ATOM      5  C   UNL     1      53.985  28.377  34.050  1.00  0.00     0.000 C 
BRANCH   5   6
ATOM      6  C   UNL     1      52.779  29.123  34.640  1.00  0.00     0.006 C 
BRANCH   6   7
ATOM      7  C   UNL     1      52.725  29.024  36.170  1.00  0.00     0.053 C 
BRANCH   7   8
ATOM      8  C   UNL     1      53.100  30.318  36.825  1.00  0.00     0.041 C 
ATOM      9  O   UNL     1      53.213  31.366  36.137  1.00  0.00    -0.550 OA
ATOM     10  O   UNL     1      53.357  30.359  38.189  1.00  0.00    -0.550 OA
ENDBRANCH   7   8
ENDBRANCH   6   7
ENDBRANCH   5   6
ENDBRANCH   4   5
ENDBRANCH   3   4
ENDBRANCH   2   3
ENDBRANCH   1   2
BRANCH   1  11
ATOM     11  C   UNL     1      51.389  23.783  36.340  1.00  0.00     0.000 C 
BRANCH  11  12
ATOM     12  C   UNL     1      50.943  22.771  35.269  1.00  0.00    -0.000 C 
BRANCH  12  13
ATOM     13  C   UNL     1      49.419  22.560  35.154  1.00  0.00    -0.000 C 
BRANCH  13  14
ATOM     14  C   UNL     1      48.781  23.058  33.845  1.00  0.00    -0.000 C 
BRANCH  14  15
ATOM     15  C   UNL     1      48.270  24.506  33.942  1.00  0.00    -0.000 C 
BRANCH  15  16
ATOM     16  C   UNL     1      49.176  25.510  33.206  1.00  0.00    -0.000 C 
BRANCH  16  17
ATOM     17  C   UNL     1      49.491  26.799  33.989  1.00  0.00    -0.003 C 
ATOM     18  C   UNL     1      49.455  26.602  35.504  1.00  0.00     0.004 C 
ENDBRANCH  16  17
ENDBRANCH  15  16
ENDBRANCH  14  15
ENDBRANCH  13  14
ENDBRANCH  12  13
ENDBRANCH  11  12
ENDBRANCH   1  11
TORSDOF 14
ENDMDL
MODEL 4
REMARK VINA RESULT:    -3.958      1.828      3.487
REMARK INTER + INTRA:          -9.480
REMARK INTER:                  -7.817
REMARK INTRA:                  -1.662
REMARK UNBOUND:                -2.282
REMARK SMILES CCCCCCCCCCCCCCCC(=O)[O-]
REMARK SMILES IDX 9 1 10 2 11 3 12 4 13 5 14 6 15 7 16 8 17 9 18 10 8 11 7 12
REMARK SMILES IDX 6 13 5 14 4 15 3 16 2 17 1 18
REMARK H PARENT
REMARK Flexibility Score: inf
ROOT
ATOM      1  C   UNL     1      53.858  26.553  35.220  1.00  0.00     0.000 C 
ENDROOT
BRANCH   1   2
ATOM      2  C   UNL     1      52.958  27.615  34.562  1.00  0.00     0.000 C 
BRANCH   2   3
ATOM      3  C   UNL     1      52.257  28.582  35.539  1.00  0.00     0.000 C 
BRANCH   3   4
ATOM      4  C   UNL     1      52.855  29.999  35.599  1.00  0.00     0.000 C 
BRANCH   4   5
ATOM      5  C   UNL     1      53.333  30.385  37.006  1.00  0.00     0.000 C 
BRANCH   5   6
ATOM      6  C   UNL     1      54.849  30.182  37.145  1.00  0.00     0.006 C 
BRANCH   6   7
ATOM      7  C   UNL     1      55.451  31.048  38.261  1.00  0.00     0.053 C 
BRANCH   7   8
ATOM      8  C   UNL     1      56.197  32.224  37.710  1.00  0.00     0.041 C 
ATOM      9  O   UNL     1      57.456  32.220  37.683  1.00  0.00    -0.550 OA
ATOM     10  O   UNL     1      55.504  33.339  37.257  1.00  0.00    -0.550 OA
ENDBRANCH   7   8
ENDBRANCH   6   7
ENDBRANCH   5   6
ENDBRANCH   4   5
ENDBRANCH   3   4
ENDBRANCH   2   3
ENDBRANCH   1   2
BRANCH   1  11
ATOM     11  C   UNL     1      53.200  25.163  35.271  1.00  0.00     0.000 C 
BRANCH  11  12
ATOM     12  C   UNL     1      52.217  25.011  36.447  1.00  0.00    -0.000 C 
BRANCH  12  13
ATOM     13  C   UNL     1      51.153  23.908  36.279  1.00  0.00    -0.000 C 
BRANCH  13  14
ATOM     14  C   UNL     1      49.766  24.392  35.820  1.00  0.00    -0.000 C 
BRANCH  14  15
ATOM     15  C   UNL     1      49.622  25.923  35.865  1.00  0.00    -0.000 C 
BRANCH  15  16
ATOM     16  C   UNL     1      49.373  26.543  34.478  1.00  0.00    -0.000 C 
BRANCH  16  17
ATOM     17  C   UNL     1      49.411  25.547  33.303  1.00  0.00    -0.003 C 
ATOM     18  C   UNL     1      50.787  25.449  32.646  1.00  0.00     0.004 C 
ENDBRANCH  16  17
ENDBRANCH  15  16
ENDBRANCH  14  15
ENDBRANCH  13  14
ENDBRANCH  12  13
ENDBRANCH  11  12
ENDBRANCH   1  11
TORSDOF 14
ENDMDL
MODEL 5
REMARK VINA RESULT:    -3.946      1.652      2.999
REMARK INTER + INTRA:          -9.457
REMARK INTER:                  -7.568
REMARK INTRA:                  -1.889
REMARK UNBOUND:                -2.282
REMARK SMILES CCCCCCCCCCCCCCCC(=O)[O-]
REMARK SMILES IDX 9 1 10 2 11 3 12 4 13 5 14 6 15 7 16 8 17 9 18 10 8 11 7 12
REMARK SMILES IDX 6 13 5 14 4 15 3 16 2 17 1 18
REMARK H PARENT
REMARK Flexibility Score: inf
ROOT
ATOM      1  C   UNL     1      53.442  26.337  35.397  1.00  0.00     0.000 C 
ENDROOT
BRANCH   1   2
ATOM      2  C   UNL     1      54.011  27.265  34.308  1.00  0.00     0.000 C 
BRANCH   2   3
ATOM      3  C   UNL     1      53.474  28.711  34.326  1.00  0.00     0.000 C 
BRANCH   3   4
ATOM      4  C   UNL     1      52.631  29.080  35.559  1.00  0.00     0.000 C 
BRANCH   4   5
ATOM      5  C   UNL     1      53.012  30.443  36.155  1.00  0.00     0.000 C 
BRANCH   5   6
ATOM      6  C   UNL     1      53.323  30.318  37.654  1.00  0.00     0.006 C 
BRANCH   6   7
ATOM      7  C   UNL     1      54.573  29.467  37.919  1.00  0.00     0.053 C 
BRANCH   7   8
ATOM      8  C   UNL     1      55.777  30.013  37.215  1.00  0.00     0.041 C 
ATOM      9  O   UNL     1      56.406  29.300  36.390  1.00  0.00    -0.550 OA
ATOM     10  O   UNL     1      56.224  31.298  37.495  1.00  0.00    -0.550 OA
ENDBRANCH   7   8
ENDBRANCH   6   7
ENDBRANCH   5   6
ENDBRANCH   4   5
ENDBRANCH   3   4
ENDBRANCH   2   3
ENDBRANCH   1   2
BRANCH   1  11
ATOM     11  C   UNL     1      52.362  25.382  34.863  1.00  0.00     0.000 C 
BRANCH  11  12
ATOM     12  C   UNL     1      52.027  25.628  33.380  1.00  0.00    -0.000 C 
BRANCH  12  13
ATOM     13  C   UNL     1      50.626  26.212  33.108  1.00  0.00    -0.000 C 
BRANCH  13  14
ATOM     14  C   UNL     1      49.828  26.624  34.358  1.00  0.00    -0.000 C 
BRANCH  14  15
ATOM     15  C   UNL     1      48.669  25.662  34.671  1.00  0.00    -0.000 C 
BRANCH  15  16
ATOM     16  C   UNL     1      48.406  24.653  33.538  1.00  0.00    -0.000 C 
BRANCH  16  17
ATOM     17  C   UNL     1      48.840  23.207  33.840  1.00  0.00    -0.003 C 
ATOM     18  C   UNL     1      49.327  23.015  35.276  1.00  0.00     0.004 C 
ENDBRANCH  16  17
ENDBRANCH  15  16
ENDBRANCH  14  15
ENDBRANCH  13  14
ENDBRANCH  12  13
ENDBRANCH  11  12
ENDBRANCH   1  11
TORSDOF 14
ENDMDL
MODEL 6
REMARK VINA RESULT:    -3.933      2.262      4.604
REMARK INTER + INTRA:          -9.435
REMARK INTER:                  -7.346
REMARK INTRA:                  -2.089
REMARK UNBOUND:                -2.282
REMARK SMILES CCCCCCCCCCCCCCCC(=O)[O-]
REMARK SMILES IDX 9 1 10 2 11 3 12 4 13 5 14 6 15 7 16 8 17 9 18 10 8 11 7 12
REMARK SMILES IDX 6 13 5 14 4 15 3 16 2 17 1 18
REMARK H PARENT
REMARK Flexibility Score: inf
ROOT
ATOM      1  C   UNL     1      53.051  29.422  34.929  1.00  0.00     0.000 C 
ENDROOT
BRANCH   1   2
ATOM      2  C   UNL     1      52.752  29.291  36.434  1.00  0.00     0.000 C 
BRANCH   2   3
ATOM      3  C   UNL     1      53.215  30.478  37.304  1.00  0.00     0.000 C 
BRANCH   3   4
ATOM      4  C   UNL     1      54.607  30.318  37.941  1.00  0.00     0.000 C 
BRANCH   4   5
ATOM      5  C   UNL     1      54.869  28.895  38.454  1.00  0.00     0.000 C 
BRANCH   5   6
ATOM      6  C   UNL     1      56.210  28.361  37.931  1.00  0.00     0.006 C 
BRANCH   6   7
ATOM      7  C   UNL     1      56.698  29.126  36.693  1.00  0.00     0.053 C 
BRANCH   7   8
ATOM      8  C   UNL     1      58.137  29.522  36.815  1.00  0.00     0.041 C 
ATOM      9  O   UNL     1      58.449  30.725  37.018  1.00  0.00    -0.550 OA
ATOM     10  O   UNL     1      59.136  28.568  36.672  1.00  0.00    -0.550 OA
ENDBRANCH   7   8
ENDBRANCH   6   7
ENDBRANCH   5   6
ENDBRANCH   4   5
ENDBRANCH   3   4
ENDBRANCH   2   3
ENDBRANCH   1   2
BRANCH   1  11
ATOM     11  C   UNL     1      53.590  28.120  34.312  1.00  0.00     0.000 C 
BRANCH  11  12
ATOM     12  C   UNL     1      53.835  27.020  35.361  1.00  0.00    -0.000 C 
BRANCH  12  13
ATOM     13  C   UNL     1      53.087  25.694  35.113  1.00  0.00    -0.000 C 
BRANCH  13  14
ATOM     14  C   UNL     1      52.241  25.182  36.293  1.00  0.00    -0.000 C 
BRANCH  14  15
ATOM     15  C   UNL     1      50.735  25.147  35.977  1.00  0.00    -0.000 C 
BRANCH  15  16
ATOM     16  C   UNL     1      50.160  26.536  35.646  1.00  0.00    -0.000 C 
BRANCH  16  17
ATOM     17  C   UNL     1      49.326  26.605  34.354  1.00  0.00    -0.003 C 
ATOM     18  C   UNL     1      50.112  26.187  33.111  1.00  0.00     0.004 C 
ENDBRANCH  16  17
ENDBRANCH  15  16
ENDBRANCH  14  15
ENDBRANCH  13  14
ENDBRANCH  12  13
ENDBRANCH  11  12
ENDBRANCH   1  11
TORSDOF 14
ENDMDL
MODEL 7
REMARK VINA RESULT:    -3.905      2.004      3.758
REMARK INTER + INTRA:          -9.383
REMARK INTER:                  -7.244
REMARK INTRA:                  -2.139
REMARK UNBOUND:                -2.282
REMARK SMILES CCCCCCCCCCCCCCCC(=O)[O-]
REMARK SMILES IDX 9 1 10 2 11 3 12 4 13 5 14 6 15 7 16 8 17 9 18 10 8 11 7 12
REMARK SMILES IDX 6 13 5 14 4 15 3 16 2 17 1 18
REMARK H PARENT
REMARK Flexibility Score: inf
ROOT
ATOM      1  C   UNL     1      52.530  26.978  33.972  1.00  0.00     0.000 C 
ENDROOT
BRANCH   1   2
ATOM      2  C   UNL     1      52.051  27.925  35.087  1.00  0.00     0.000 C 
BRANCH   2   3
ATOM      3  C   UNL     1      52.762  29.293  35.141  1.00  0.00     0.000 C 
BRANCH   3   4
ATOM      4  C   UNL     1      52.897  29.906  36.546  1.00  0.00     0.000 C 
BRANCH   4   5
ATOM      5  C   UNL     1      54.355  29.999  37.018  1.00  0.00     0.000 C 
BRANCH   5   6
ATOM      6  C   UNL     1      55.061  28.641  36.890  1.00  0.00     0.006 C 
BRANCH   6   7
ATOM      7  C   UNL     1      56.311  28.717  36.003  1.00  0.00     0.053 C 
BRANCH   7   8
ATOM      8  C   UNL     1      56.249  27.739  34.870  1.00  0.00     0.041 C 
ATOM      9  O   UNL     1      56.621  26.548  35.040  1.00  0.00    -0.550 OA
ATOM     10  O   UNL     1      55.813  28.151  33.618  1.00  0.00    -0.550 OA
ENDBRANCH   7   8
ENDBRANCH   6   7
ENDBRANCH   5   6
ENDBRANCH   4   5
ENDBRANCH   3   4
ENDBRANCH   2   3
ENDBRANCH   1   2
BRANCH   1  11
ATOM     11  C   UNL     1      53.170  25.690  34.516  1.00  0.00     0.000 C 
BRANCH  11  12
ATOM     12  C   UNL     1      53.087  25.585  36.050  1.00  0.00    -0.000 C 
BRANCH  12  13
ATOM     13  C   UNL     1      52.142  24.490  36.586  1.00  0.00    -0.000 C 
BRANCH  13  14
ATOM     14  C   UNL     1      50.646  24.706  36.293  1.00  0.00    -0.000 C 
BRANCH  14  15
ATOM     15  C   UNL     1      50.029  23.565  35.465  1.00  0.00    -0.000 C 
BRANCH  15  16
ATOM     16  C   UNL     1      49.408  24.053  34.144  1.00  0.00    -0.000 C 
BRANCH  16  17
ATOM     17  C   UNL     1      48.873  25.497  34.169  1.00  0.00    -0.003 C 
ATOM     18  C   UNL     1      49.249  26.297  32.923  1.00  0.00     0.004 C 
ENDBRANCH  16  17
ENDBRANCH  15  16
ENDBRANCH  14  15
ENDBRANCH  13  14
ENDBRANCH  12  13
ENDBRANCH  11  12
ENDBRANCH   1  11
TORSDOF 14
ENDMDL
MODEL 8
REMARK VINA RESULT:    -3.860      1.650      3.349
REMARK INTER + INTRA:          -9.302
REMARK INTER:                  -7.332
REMARK INTRA:                  -1.971
REMARK UNBOUND:                -2.282
REMARK SMILES CCCCCCCCCCCCCCCC(=O)[O-]
REMARK SMILES IDX 9 1 10 2 11 3 12 4 13 5 14 6 15 7 16 8 17 9 18 10 8 11 7 12
REMARK SMILES IDX 6 13 5 14 4 15 3 16 2 17 1 18
REMARK H PARENT
REMARK Flexibility Score: inf
ROOT
ATOM      1  C   UNL     1      52.357  27.607  34.686  1.00  0.00     0.000 C 
ENDROOT
BRANCH   1   2
ATOM      2  C   UNL     1      53.467  28.674  34.715  1.00  0.00     0.000 C 
BRANCH   2   3
ATOM      3  C   UNL     1      54.820  28.233  34.120  1.00  0.00     0.000 C 
BRANCH   3   4
ATOM      4  C   UNL     1      55.991  28.191  35.117  1.00  0.00     0.000 C 
BRANCH   4   5
ATOM      5  C   UNL     1      55.571  27.703  36.511  1.00  0.00     0.000 C 
BRANCH   5   6
ATOM      6  C   UNL     1      56.111  28.634  37.605  1.00  0.00     0.006 C 
BRANCH   6   7
ATOM      7  C   UNL     1      55.000  29.155  38.527  1.00  0.00     0.053 C 
BRANCH   7   8
ATOM      8  C   UNL     1      54.303  30.344  37.939  1.00  0.00     0.041 C 
ATOM      9  O   UNL     1      53.047  30.364  37.855  1.00  0.00    -0.550 OA
ATOM     10  O   UNL     1      55.042  31.415  37.454  1.00  0.00    -0.550 OA
ENDBRANCH   7   8
ENDBRANCH   6   7
ENDBRANCH   5   6
ENDBRANCH   4   5
ENDBRANCH   3   4
ENDBRANCH   2   3
ENDBRANCH   1   2
BRANCH   1  11
ATOM     11  C   UNL     1      52.679  26.436  33.742  1.00  0.00     0.000 C 
BRANCH  11  12
ATOM     12  C   UNL     1      52.990  25.130  34.496  1.00  0.00    -0.000 C 
BRANCH  12  13
ATOM     13  C   UNL     1      52.763  25.179  36.021  1.00  0.00    -0.000 C 
BRANCH  13  14
ATOM     14  C   UNL     1      51.607  24.309  36.545  1.00  0.00    -0.000 C 
BRANCH  14  15
ATOM     15  C   UNL     1      50.223  24.854  36.152  1.00  0.00    -0.000 C 
BRANCH  15  16
ATOM     16  C   UNL     1      49.528  24.001  35.075  1.00  0.00    -0.000 C 
BRANCH  16  17
ATOM     17  C   UNL     1      48.666  24.792  34.074  1.00  0.00    -0.003 C 
ATOM     18  C   UNL     1      48.992  26.284  34.050  1.00  0.00     0.004 C 
ENDBRANCH  16  17
ENDBRANCH  15  16
ENDBRANCH  14  15
ENDBRANCH  13  14
ENDBRANCH  12  13
ENDBRANCH  11  12
ENDBRANCH   1  11
TORSDOF 14
ENDMDL
MODEL 9
REMARK VINA RESULT:    -3.848      1.248      2.617
REMARK INTER + INTRA:          -9.280
REMARK INTER:                  -6.954
REMARK INTRA:                  -2.326
REMARK UNBOUND:                -2.282
REMARK SMILES CCCCCCCCCCCCCCCC(=O)[O-]
REMARK SMILES IDX 9 1 10 2 11 3 12 4 13 5 14 6 15 7 16 8 17 9 18 10 8 11 7 12
REMARK SMILES IDX 6 13 5 14 4 15 3 16 2 17 1 18
REMARK H PARENT
REMARK Flexibility Score: inf
ROOT
ATOM      1  C   UNL     1      54.997  24.296  34.928  1.00  0.00     0.000 C 
ENDROOT
BRANCH   1   2
ATOM      2  C   UNL     1      55.994  25.455  34.745  1.00  0.00     0.000 C 
BRANCH   2   3
ATOM      3  C   UNL     1      55.658  26.439  33.605  1.00  0.00     0.000 C 
BRANCH   3   4
ATOM      4  C   UNL     1      55.327  27.873  34.054  1.00  0.00     0.000 C 
BRANCH   4   5
ATOM      5  C   UNL     1      53.831  28.200  33.950  1.00  0.00     0.000 C 
BRANCH   5   6
ATOM      6  C   UNL     1      53.188  28.283  35.342  1.00  0.00     0.006 C 
BRANCH   6   7
ATOM      7  C   UNL     1      54.233  28.413  36.458  1.00  0.00     0.053 C 
BRANCH   7   8
ATOM      8  C   UNL     1      54.198  29.767  37.096  1.00  0.00     0.041 C 
ATOM      9  O   UNL     1      53.102  30.363  37.260  1.00  0.00    -0.550 OA
ATOM     10  O   UNL     1      55.381  30.386  37.480  1.00  0.00    -0.550 OA
ENDBRANCH   7   8
ENDBRANCH   6   7
ENDBRANCH   5   6
ENDBRANCH   4   5
ENDBRANCH   3   4
ENDBRANCH   2   3
ENDBRANCH   1   2
BRANCH   1  11
ATOM     11  C   UNL     1      53.775  24.689  35.776  1.00  0.00     0.000 C 
BRANCH  11  12
ATOM     12  C   UNL     1      52.442  24.478  35.035  1.00  0.00    -0.000 C 
BRANCH  12  13
ATOM     13  C   UNL     1      52.558  24.296  33.508  1.00  0.00    -0.000 C 
BRANCH  13  14
ATOM     14  C   UNL     1      51.400  24.885  32.683  1.00  0.00    -0.000 C 
BRANCH  14  15
ATOM     15  C   UNL     1      50.840  26.187  33.283  1.00  0.00    -0.000 C 
BRANCH  15  16
ATOM     16  C   UNL     1      49.306  26.176  33.409  1.00  0.00    -0.000 C 
BRANCH  16  17
ATOM     17  C   UNL     1      48.771  25.967  34.838  1.00  0.00    -0.003 C 
ATOM     18  C   UNL     1      49.680  26.567  35.911  1.00  0.00     0.004 C 
ENDBRANCH  16  17
ENDBRANCH  15  16
ENDBRANCH  14  15
ENDBRANCH  13  14
ENDBRANCH  12  13
ENDBRANCH  11  12
ENDBRANCH   1  11
TORSDOF 14
ENDMDL
