MODEL 1
REMARK VINA RESULT:    -2.200      0.000      0.000
REMARK INTER + INTRA:          -3.561
REMARK INTER:                  -2.972
REMARK INTRA:                  -0.589
REMARK UNBOUND:                -0.589
REMARK SMILES O=C[C@H](O)[C@H](O)[C@H](O)CO
REMARK SMILES IDX 7 1 9 2 10 3 5 5 3 6 2 7 1 8 4 9 6 11 8 13
REMARK H PARENT 10 4 4 10 6 12 8 14
REMARK Flexibility Score: inf
ROOT
ATOM      1  C   UNL     1      -6.993  -4.638  -8.079  1.00  0.00     0.171 C 
ENDROOT
BRANCH   1   2
ATOM      2  C   UNL     1      -5.514  -4.259  -8.283  1.00  0.00     0.190 C 
BRANCH   2   3
ATOM      3  O   UNL     1      -4.787  -4.453  -7.099  1.00  0.00    -0.394 OA
ATOM      4  H   UNL     1      -4.803  -3.588  -6.612  1.00  0.00     0.210 HD
ENDBRANCH   2   3
ENDBRANCH   1   2
BRANCH   1   5
ATOM      5  C   UNL     1      -7.712  -3.602  -7.178  1.00  0.00     0.181 C 
BRANCH   5   6
ATOM      6  C   UNL     1      -9.245  -3.564  -7.393  1.00  0.00     0.209 C 
BRANCH   6   7
ATOM      7  C   UNL     1      -9.852  -2.282  -6.882  1.00  0.00     0.258 C 
ATOM      8  O   UNL     1      -9.777  -1.248  -7.528  1.00  0.00    -0.300 OA
ENDBRANCH   6   7
BRANCH   6   9
ATOM      9  O   UNL     1      -9.846  -4.684  -6.790  1.00  0.00    -0.383 OA
ATOM     10  H   UNL     1      -9.508  -4.726  -5.856  1.00  0.00     0.211 HD
ENDBRANCH   6   9
ENDBRANCH   5   6
BRANCH   5  11
ATOM     11  O   UNL     1      -7.189  -2.324  -7.443  1.00  0.00    -0.387 OA
ATOM     12  H   UNL     1      -6.405  -2.201  -6.847  1.00  0.00     0.211 HD
ENDBRANCH   5  11
ENDBRANCH   1   5
BRANCH   1  13
ATOM     13  O   UNL     1      -7.060  -5.911  -7.488  1.00  0.00    -0.388 OA
ATOM     14  H   UNL     1      -7.191  -6.567  -8.223  1.00  0.00     0.211 HD
ENDBRANCH   1  13
TORSDOF 8
ENDMDL
MODEL 2
REMARK VINA RESULT:    -2.187      0.684      4.032
REMARK INTER + INTRA:          -3.543
REMARK INTER:                  -3.236
REMARK INTRA:                  -0.308
REMARK UNBOUND:                -0.589
REMARK SMILES O=C[C@H](O)[C@H](O)[C@H](O)CO
REMARK SMILES IDX 7 1 9 2 10 3 5 5 3 6 2 7 1 8 4 9 6 11 8 13
REMARK H PARENT 10 4 4 10 6 12 8 14
REMARK Flexibility Score: inf
ROOT
ATOM      1  C   UNL     1      -8.849  -3.217  -7.110  1.00  0.00     0.171 C 
ENDROOT
BRANCH   1   2
ATOM      2  C   UNL     1      -9.737  -2.190  -7.837  1.00  0.00     0.190 C 
BRANCH   2   3
ATOM      3  O   UNL     1     -10.050  -1.119  -6.987  1.00  0.00    -0.394 OA
ATOM      4  H   UNL     1     -10.691  -1.469  -6.314  1.00  0.00     0.210 HD
ENDBRANCH   2   3
ENDBRANCH   1   2
BRANCH   1   5
ATOM      5  C   UNL     1      -7.623  -3.602  -7.979  1.00  0.00     0.181 C 
BRANCH   5   6
ATOM      6  C   UNL     1      -6.713  -4.664  -7.314  1.00  0.00     0.209 C 
BRANCH   6   7
ATOM      7  C   UNL     1      -5.261  -4.455  -7.663  1.00  0.00     0.258 C 
ATOM      8  O   UNL     1      -4.387  -4.561  -6.816  1.00  0.00    -0.300 OA
ENDBRANCH   6   7
BRANCH   6   9
ATOM      9  O   UNL     1      -7.138  -5.957  -7.669  1.00  0.00    -0.383 OA
ATOM     10  H   UNL     1      -7.374  -6.426  -6.825  1.00  0.00     0.211 HD
ENDBRANCH   6   9
ENDBRANCH   5   6
BRANCH   5  11
ATOM     11  O   UNL     1      -6.860  -2.449  -8.231  1.00  0.00    -0.387 OA
ATOM     12  H   UNL     1      -6.236  -2.669  -8.971  1.00  0.00     0.211 HD
ENDBRANCH   5  11
ENDBRANCH   1   5
BRANCH   1  13
ATOM     13  O   UNL     1      -9.612  -4.363  -6.829  1.00  0.00    -0.388 OA
ATOM     14  H   UNL     1      -8.975  -5.115  -6.709  1.00  0.00     0.211 HD
ENDBRANCH   1  13
TORSDOF 8
ENDMDL
MODEL 3
REMARK VINA RESULT:    -1.984      1.339      4.142
REMARK INTER + INTRA:          -3.269
REMARK INTER:                  -2.762
REMARK INTRA:                  -0.506
REMARK UNBOUND:                -0.589
REMARK SMILES O=C[C@H](O)[C@H](O)[C@H](O)CO
REMARK SMILES IDX 7 1 9 2 10 3 5 5 3 6 2 7 1 8 4 9 6 11 8 13
REMARK H PARENT 10 4 4 10 6 12 8 14
REMARK Flexibility Score: inf
ROOT
ATOM      1  C   UNL     1      -9.092  -2.781  -7.807  1.00  0.00     0.171 C 
ENDROOT
BRANCH   1   2
ATOM      2  C   UNL     1      -9.787  -3.736  -6.818  1.00  0.00     0.190 C 
BRANCH   2   3
ATOM      3  O   UNL     1     -10.125  -3.062  -5.635  1.00  0.00    -0.394 OA
ATOM      4  H   UNL     1      -9.377  -2.438  -5.441  1.00  0.00     0.210 HD
ENDBRANCH   2   3
ENDBRANCH   1   2
BRANCH   1   5
ATOM      5  C   UNL     1      -7.550  -2.864  -7.667  1.00  0.00     0.181 C 
BRANCH   5   6
ATOM      6  C   UNL     1      -6.956  -4.183  -8.219  1.00  0.00     0.209 C 
BRANCH   6   7
ATOM      7  C   UNL     1      -5.981  -4.806  -7.253  1.00  0.00     0.258 C 
ATOM      8  O   UNL     1      -4.827  -4.411  -7.179  1.00  0.00    -0.300 OA
ENDBRANCH   6   7
BRANCH   6   9
ATOM      9  O   UNL     1      -6.355  -3.956  -9.471  1.00  0.00    -0.383 OA
ATOM     10  H   UNL     1      -5.397  -4.205  -9.380  1.00  0.00     0.211 HD
ENDBRANCH   6   9
ENDBRANCH   5   6
BRANCH   5  11
ATOM     11  O   UNL     1      -7.207  -2.749  -6.309  1.00  0.00    -0.387 OA
ATOM     12  H   UNL     1      -7.516  -3.578  -5.859  1.00  0.00     0.211 HD
ENDBRANCH   5  11
ENDBRANCH   1   5
BRANCH   1  13
ATOM     13  O   UNL     1      -9.524  -1.468  -7.553  1.00  0.00    -0.388 OA
ATOM     14  H   UNL     1      -9.805  -1.080  -8.423  1.00  0.00     0.211 HD
ENDBRANCH   1  13
TORSDOF 8
ENDMDL
MODEL 4
REMARK VINA RESULT:    -1.695      1.486      2.036
REMARK INTER + INTRA:          -2.879
REMARK INTER:                  -2.594
REMARK INTRA:                  -0.286
REMARK UNBOUND:                -0.589
REMARK SMILES O=C[C@H](O)[C@H](O)[C@H](O)CO
REMARK SMILES IDX 7 1 9 2 10 3 5 5 3 6 2 7 1 8 4 9 6 11 8 13
REMARK H PARENT 10 4 4 10 6 12 8 14
REMARK Flexibility Score: inf
ROOT
ATOM      1  C   UNL     1      -6.563  -3.714  -8.210  1.00  0.00     0.171 C 
ENDROOT
BRANCH   1   2
ATOM      2  C   UNL     1      -5.941  -4.771  -7.279  1.00  0.00     0.190 C 
BRANCH   2   3
ATOM      3  O   UNL     1      -4.580  -4.503  -7.066  1.00  0.00    -0.394 OA
ATOM      4  H   UNL     1      -4.248  -4.054  -7.887  1.00  0.00     0.210 HD
ENDBRANCH   2   3
ENDBRANCH   1   2
BRANCH   1   5
ATOM      5  C   UNL     1      -8.082  -3.562  -7.938  1.00  0.00     0.181 C 
BRANCH   5   6
ATOM      6  C   UNL     1      -8.437  -2.271  -7.159  1.00  0.00     0.209 C 
BRANCH   6   7
ATOM      7  C   UNL     1      -8.966  -2.577  -5.780  1.00  0.00     0.258 C 
ATOM      8  O   UNL     1     -10.109  -2.977  -5.618  1.00  0.00    -0.300 OA
ENDBRANCH   6   7
BRANCH   6   9
ATOM      9  O   UNL     1      -9.354  -1.499  -7.894  1.00  0.00    -0.383 OA
ATOM     10  H   UNL     1     -10.012  -2.130  -8.289  1.00  0.00     0.211 HD
ENDBRANCH   6   9
ENDBRANCH   5   6
BRANCH   5  11
ATOM     11  O   UNL     1      -8.529  -4.671  -7.199  1.00  0.00    -0.387 OA
ATOM     12  H   UNL     1      -8.104  -5.475  -7.596  1.00  0.00     0.211 HD
ENDBRANCH   5  11
ENDBRANCH   1   5
BRANCH   1  13
ATOM     13  O   UNL     1      -6.354  -4.101  -9.544  1.00  0.00    -0.388 OA
ATOM     14  H   UNL     1      -6.163  -5.076  -9.538  1.00  0.00     0.211 HD
ENDBRANCH   1  13
TORSDOF 8
ENDMDL
MODEL 5
REMARK VINA RESULT:    -1.195     21.666     22.705
REMARK INTER + INTRA:          -2.203
REMARK INTER:                  -1.914
REMARK INTRA:                  -0.289
REMARK UNBOUND:                -0.589
REMARK SMILES O=C[C@H](O)[C@H](O)[C@H](O)CO
REMARK SMILES IDX 7 1 9 2 10 3 5 5 3 6 2 7 1 8 4 9 6 11 8 13
REMARK H PARENT 10 4 4 10 6 12 8 14
REMARK Flexibility Score: inf
ROOT
ATOM      1  C   UNL     1       7.000  -0.605   8.561  1.00  0.00     0.171 C 
ENDROOT
BRANCH   1   2
ATOM      2  C   UNL     1       6.769  -1.008  10.029  1.00  0.00     0.190 C 
BRANCH   2   3
ATOM      3  O   UNL     1       5.941  -2.138  10.106  1.00  0.00    -0.394 OA
ATOM      4  H   UNL     1       5.186  -1.980   9.481  1.00  0.00     0.210 HD
ENDBRANCH   2   3
ENDBRANCH   1   2
BRANCH   1   5
ATOM      5  C   UNL     1       8.491  -0.264   8.308  1.00  0.00     0.181 C 
BRANCH   5   6
ATOM      6  C   UNL     1       8.729   0.483   6.972  1.00  0.00     0.209 C 
BRANCH   6   7
ATOM      7  C   UNL     1       9.037  -0.470   5.845  1.00  0.00     0.258 C 
ATOM      8  O   UNL     1      10.125  -1.019   5.763  1.00  0.00    -0.300 OA
ENDBRANCH   6   7
BRANCH   6   9
ATOM      9  O   UNL     1       9.754   1.434   7.126  1.00  0.00    -0.383 OA
ATOM     10  H   UNL     1       9.314   2.300   7.339  1.00  0.00     0.211 HD
ENDBRANCH   6   9
ENDBRANCH   5   6
BRANCH   5  11
ATOM     11  O   UNL     1       9.237  -1.455   8.296  1.00  0.00    -0.387 OA
ATOM     12  H   UNL     1      10.190  -1.201   8.183  1.00  0.00     0.211 HD
ENDBRANCH   5  11
ENDBRANCH   1   5
BRANCH   1  13
ATOM     13  O   UNL     1       6.199   0.512   8.264  1.00  0.00    -0.388 OA
ATOM     14  H   UNL     1       6.157   1.067   9.086  1.00  0.00     0.211 HD
ENDBRANCH   1  13
TORSDOF 8
ENDMDL
MODEL 6
REMARK VINA RESULT:    -0.904      1.492      4.218
REMARK INTER + INTRA:          -1.810
REMARK INTER:                  -1.523
REMARK INTRA:                  -0.286
REMARK UNBOUND:                -0.589
REMARK SMILES O=C[C@H](O)[C@H](O)[C@H](O)CO
REMARK SMILES IDX 7 1 9 2 10 3 5 5 3 6 2 7 1 8 4 9 6 11 8 13
REMARK H PARENT 10 4 4 10 6 12 8 14
REMARK Flexibility Score: inf
ROOT
ATOM      1  C   UNL     1      -8.122  -2.354  -7.094  1.00  0.00     0.171 C 
ENDROOT
BRANCH   1   2
ATOM      2  C   UNL     1      -9.596  -2.470  -7.527  1.00  0.00     0.190 C 
BRANCH   2   3
ATOM      3  O   UNL     1     -10.125  -1.205  -7.823  1.00  0.00    -0.394 OA
ATOM      4  H   UNL     1     -11.052  -1.355  -8.146  1.00  0.00     0.210 HD
ENDBRANCH   2   3
ENDBRANCH   1   2
BRANCH   1   5
ATOM      5  C   UNL     1      -7.424  -3.738  -7.128  1.00  0.00     0.181 C 
BRANCH   5   6
ATOM      6  C   UNL     1      -6.040  -3.707  -7.822  1.00  0.00     0.209 C 
BRANCH   6   7
ATOM      7  C   UNL     1      -6.165  -3.544  -9.316  1.00  0.00     0.258 C 
ATOM      8  O   UNL     1      -6.122  -4.511 -10.061  1.00  0.00    -0.300 OA
ENDBRANCH   6   7
BRANCH   6   9
ATOM      9  O   UNL     1      -5.309  -4.865  -7.498  1.00  0.00    -0.383 OA
ATOM     10  H   UNL     1      -5.592  -5.573  -8.136  1.00  0.00     0.211 HD
ENDBRANCH   6   9
ENDBRANCH   5   6
BRANCH   5  11
ATOM     11  O   UNL     1      -8.248  -4.651  -7.809  1.00  0.00    -0.387 OA
ATOM     12  H   UNL     1      -8.671  -5.229  -7.123  1.00  0.00     0.211 HD
ENDBRANCH   5  11
ENDBRANCH   1   5
BRANCH   1  13
ATOM     13  O   UNL     1      -8.070  -1.826  -5.793  1.00  0.00    -0.388 OA
ATOM     14  H   UNL     1      -9.000  -1.591  -5.536  1.00  0.00     0.211 HD
ENDBRANCH   1  13
TORSDOF 8
ENDMDL
MODEL 7
REMARK VINA RESULT:    -0.342     20.590     22.302
REMARK INTER + INTRA:          -1.051
REMARK INTER:                  -1.648
REMARK INTRA:                   0.597
REMARK UNBOUND:                -0.589
REMARK SMILES O=C[C@H](O)[C@H](O)[C@H](O)CO
REMARK SMILES IDX 7 1 9 2 10 3 5 5 3 6 2 7 1 8 4 9 6 11 8 13
REMARK H PARENT 10 4 4 10 6 12 8 14
REMARK Flexibility Score: inf
ROOT
ATOM      1  C   UNL     1       8.988  -0.357   8.278  1.00  0.00     0.171 C 
ENDROOT
BRANCH   1   2
ATOM      2  C   UNL     1       7.554  -0.740   8.689  1.00  0.00     0.190 C 
BRANCH   2   3
ATOM      3  O   UNL     1       6.645   0.255   8.300  1.00  0.00    -0.394 OA
ATOM      4  H   UNL     1       6.974   1.107   8.691  1.00  0.00     0.210 HD
ENDBRANCH   2   3
ENDBRANCH   1   2
BRANCH   1   5
ATOM      5  C   UNL     1       8.976   0.628   7.081  1.00  0.00     0.181 C 
BRANCH   5   6
ATOM      6  C   UNL     1       9.236  -0.062   5.719  1.00  0.00     0.209 C 
BRANCH   6   7
ATOM      7  C   UNL     1       7.953  -0.512   5.066  1.00  0.00     0.258 C 
ATOM      8  O   UNL     1       7.959  -1.049   3.969  1.00  0.00    -0.300 OA
ENDBRANCH   6   7
BRANCH   6   9
ATOM      9  O   UNL     1      10.125  -1.140   5.884  1.00  0.00    -0.383 OA
ATOM     10  H   UNL     1      10.180  -1.322   6.859  1.00  0.00     0.211 HD
ENDBRANCH   6   9
ENDBRANCH   5   6
BRANCH   5  11
ATOM     11  O   UNL     1       9.964   1.608   7.284  1.00  0.00    -0.387 OA
ATOM     12  H   UNL     1       9.748   2.066   8.137  1.00  0.00     0.211 HD
ENDBRANCH   5  11
ENDBRANCH   1   5
BRANCH   1  13
ATOM     13  O   UNL     1       9.689  -1.524   7.928  1.00  0.00    -0.388 OA
ATOM     14  H   UNL     1      10.472  -1.586   8.536  1.00  0.00     0.211 HD
ENDBRANCH   1  13
TORSDOF 8
ENDMDL
MODEL 8
REMARK VINA RESULT:    -0.202      1.044      2.167
REMARK INTER + INTRA:          -0.862
REMARK INTER:                  -0.671
REMARK INTRA:                  -0.191
REMARK UNBOUND:                -0.589
REMARK SMILES O=C[C@H](O)[C@H](O)[C@H](O)CO
REMARK SMILES IDX 7 1 9 2 10 3 5 5 3 6 2 7 1 8 4 9 6 11 8 13
REMARK H PARENT 10 4 4 10 6 12 8 14
REMARK Flexibility Score: inf
ROOT
ATOM      1  C   UNL     1      -7.621  -3.817  -7.137  1.00  0.00     0.171 C 
ENDROOT
BRANCH   1   2
ATOM      2  C   UNL     1      -6.645  -4.695  -7.943  1.00  0.00     0.190 C 
BRANCH   2   3
ATOM      3  O   UNL     1      -6.821  -6.050  -7.624  1.00  0.00    -0.394 OA
ATOM      4  H   UNL     1      -7.303  -6.460  -8.390  1.00  0.00     0.210 HD
ENDBRANCH   2   3
ENDBRANCH   1   2
BRANCH   1   5
ATOM      5  C   UNL     1      -9.091  -4.131  -7.516  1.00  0.00     0.181 C 
BRANCH   5   6
ATOM      6  C   UNL     1     -10.096  -3.074  -6.995  1.00  0.00     0.209 C 
BRANCH   6   7
ATOM      7  C   UNL     1     -10.085  -1.826  -7.841  1.00  0.00     0.258 C 
ATOM      8  O   UNL     1      -9.478  -0.828  -7.484  1.00  0.00    -0.300 OA
ENDBRANCH   6   7
BRANCH   6   9
ATOM      9  O   UNL     1      -9.827  -2.774  -5.647  1.00  0.00    -0.383 OA
ATOM     10  H   UNL     1      -9.168  -2.030  -5.642  1.00  0.00     0.211 HD
ENDBRANCH   6   9
ENDBRANCH   5   6
BRANCH   5  11
ATOM     11  O   UNL     1      -9.443  -5.385  -6.987  1.00  0.00    -0.387 OA
ATOM     12  H   UNL     1      -9.810  -5.226  -6.079  1.00  0.00     0.211 HD
ENDBRANCH   5  11
ENDBRANCH   1   5
BRANCH   1  13
ATOM     13  O   UNL     1      -7.340  -2.465  -7.398  1.00  0.00    -0.388 OA
ATOM     14  H   UNL     1      -7.550  -2.304  -8.356  1.00  0.00     0.211 HD
ENDBRANCH   1  13
TORSDOF 8
ENDMDL
MODEL 9
REMARK VINA RESULT:    -0.133     21.565     22.433
REMARK INTER + INTRA:          -0.769
REMARK INTER:                  -0.387
REMARK INTRA:                  -0.382
REMARK UNBOUND:                -0.589
REMARK SMILES O=C[C@H](O)[C@H](O)[C@H](O)CO
REMARK SMILES IDX 7 1 9 2 10 3 5 5 3 6 2 7 1 8 4 9 6 11 8 13
REMARK H PARENT 10 4 4 10 6 12 8 14
REMARK Flexibility Score: inf
ROOT
ATOM      1  C   UNL     1       9.091  -1.114   7.380  1.00  0.00     0.171 C 
ENDROOT
BRANCH   1   2
ATOM      2  C   UNL     1       9.529  -0.657   5.976  1.00  0.00     0.190 C 
BRANCH   2   3
ATOM      3  O   UNL     1       8.414  -0.478   5.144  1.00  0.00    -0.394 OA
ATOM      4  H   UNL     1       7.716  -1.105   5.468  1.00  0.00     0.210 HD
ENDBRANCH   2   3
ENDBRANCH   1   2
BRANCH   1   5
ATOM      5  C   UNL     1       8.766   0.103   8.283  1.00  0.00     0.181 C 
BRANCH   5   6
ATOM      6  C   UNL     1       7.333   0.064   8.868  1.00  0.00     0.209 C 
BRANCH   6   7
ATOM      7  C   UNL     1       7.036  -1.256   9.535  1.00  0.00     0.258 C 
ATOM      8  O   UNL     1       5.953  -1.467  10.059  1.00  0.00    -0.300 OA
ENDBRANCH   6   7
BRANCH   6   9
ATOM      9  O   UNL     1       6.392   0.347   7.862  1.00  0.00    -0.383 OA
ATOM     10  H   UNL     1       6.481  -0.365   7.174  1.00  0.00     0.211 HD
ENDBRANCH   6   9
ENDBRANCH   5   6
BRANCH   5  11
ATOM     11  O   UNL     1       8.914   1.282   7.534  1.00  0.00    -0.387 OA
ATOM     12  H   UNL     1       8.011   1.683   7.440  1.00  0.00     0.211 HD
ENDBRANCH   5  11
ENDBRANCH   1   5
BRANCH   1  13
ATOM     13  O   UNL     1      10.125  -1.873   7.955  1.00  0.00    -0.388 OA
ATOM     14  H   UNL     1      10.948  -1.317   7.921  1.00  0.00     0.211 HD
ENDBRANCH   1  13
TORSDOF 8
ENDMDL
