MODEL 1
REMARK VINA RESULT:    -5.145      0.000      0.000
REMARK INTER + INTRA:          -5.954
REMARK INTER:                  -5.747
REMARK INTRA:                  -0.207
REMARK UNBOUND:                -0.207
REMARK SMILES CC(C)c1ccc(C(=O)[O-])cc1
REMARK SMILES IDX 7 1 6 2 11 3 5 4 12 5 4 6 8 7 9 8 10 9 2 10 1 11 3 12
REMARK H PARENT
REMARK Flexibility Score: inf
ROOT
ATOM      1  C   UNL     1      -4.052  -6.755   6.409  1.00  0.00    -0.003 A 
ATOM      2  C   UNL     1      -4.763  -6.285   5.292  1.00  0.00     0.010 A 
ATOM      3  C   UNL     1      -4.249  -6.131   7.652  1.00  0.00     0.010 A 
ATOM      4  C   UNL     1      -5.653  -5.213   5.415  1.00  0.00     0.004 A 
ATOM      5  C   UNL     1      -5.138  -5.059   7.776  1.00  0.00     0.004 A 
ATOM      6  C   UNL     1      -5.850  -4.589   6.659  1.00  0.00    -0.045 A 
ENDROOT
BRANCH   1   7
ATOM      7  C   UNL     1      -3.111  -7.889   6.283  1.00  0.00     0.071 C 
ATOM      8  O   UNL     1      -3.383  -9.008   6.792  1.00  0.00    -0.545 OA
ATOM      9  O   UNL     1      -1.912  -7.735   5.596  1.00  0.00    -0.545 OA
ENDBRANCH   1   7
BRANCH   6  10
ATOM     10  C   UNL     1      -6.811  -3.423   6.809  1.00  0.00     0.013 C 
ATOM     11  C   UNL     1      -7.654  -3.238   5.541  1.00  0.00     0.012 C 
ATOM     12  C   UNL     1      -6.065  -2.134   7.169  1.00  0.00     0.012 C 
ENDBRANCH   6  10
TORSDOF 2
ENDMDL
MODEL 2
REMARK VINA RESULT:    -5.145      3.099      5.235
REMARK INTER + INTRA:          -5.953
REMARK INTER:                  -5.742
REMARK INTRA:                  -0.211
REMARK UNBOUND:                -0.207
REMARK SMILES CC(C)c1ccc(C(=O)[O-])cc1
REMARK SMILES IDX 7 1 6 2 11 3 5 4 12 5 4 6 8 7 9 8 10 9 2 10 1 11 3 12
REMARK H PARENT
REMARK Flexibility Score: inf
ROOT
ATOM      1  C   UNL     1      -5.419  -4.243   7.073  1.00  0.00    -0.003 A 
ATOM      2  C   UNL     1      -4.728  -4.913   8.098  1.00  0.00     0.010 A 
ATOM      3  C   UNL     1      -5.593  -4.886   5.837  1.00  0.00     0.010 A 
ATOM      4  C   UNL     1      -4.222  -6.199   7.889  1.00  0.00     0.004 A 
ATOM      5  C   UNL     1      -5.085  -6.172   5.627  1.00  0.00     0.004 A 
ATOM      6  C   UNL     1      -4.395  -6.843   6.651  1.00  0.00    -0.045 A 
ENDROOT
BRANCH   1   7
ATOM      7  C   UNL     1      -5.958  -2.882   7.291  1.00  0.00     0.071 C 
ATOM      8  O   UNL     1      -6.255  -2.147   6.313  1.00  0.00    -0.545 OA
ATOM      9  O   UNL     1      -6.144  -2.398   8.581  1.00  0.00    -0.545 OA
ENDBRANCH   1   7
BRANCH   6  10
ATOM     10  C   UNL     1      -3.850  -8.239   6.409  1.00  0.00     0.013 C 
ATOM     11  C   UNL     1      -2.391  -8.187   5.938  1.00  0.00     0.012 C 
ATOM     12  C   UNL     1      -4.725  -9.009   5.413  1.00  0.00     0.012 C 
ENDBRANCH   6  10
TORSDOF 2
ENDMDL
MODEL 3
REMARK VINA RESULT:    -5.136      0.104      1.401
REMARK INTER + INTRA:          -5.943
REMARK INTER:                  -5.735
REMARK INTRA:                  -0.208
REMARK UNBOUND:                -0.207
REMARK SMILES CC(C)c1ccc(C(=O)[O-])cc1
REMARK SMILES IDX 7 1 6 2 11 3 5 4 12 5 4 6 8 7 9 8 10 9 2 10 1 11 3 12
REMARK H PARENT
REMARK Flexibility Score: inf
ROOT
ATOM      1  C   UNL     1      -4.004  -6.762   6.334  1.00  0.00    -0.003 A 
ATOM      2  C   UNL     1      -4.199  -6.185   7.600  1.00  0.00     0.010 A 
ATOM      3  C   UNL     1      -4.728  -6.262   5.239  1.00  0.00     0.010 A 
ATOM      4  C   UNL     1      -5.100  -5.129   7.768  1.00  0.00     0.004 A 
ATOM      5  C   UNL     1      -5.629  -5.206   5.407  1.00  0.00     0.004 A 
ATOM      6  C   UNL     1      -5.825  -4.628   6.672  1.00  0.00    -0.045 A 
ENDROOT
BRANCH   1   7
ATOM      7  C   UNL     1      -3.051  -7.879   6.152  1.00  0.00     0.071 C 
ATOM      8  O   UNL     1      -3.304  -9.020   6.622  1.00  0.00    -0.545 OA
ATOM      9  O   UNL     1      -1.863  -7.684   5.457  1.00  0.00    -0.545 OA
ENDBRANCH   1   7
BRANCH   6  10
ATOM     10  C   UNL     1      -6.807  -3.482   6.839  1.00  0.00     0.013 C 
ATOM     11  C   UNL     1      -7.624  -3.266   5.559  1.00  0.00     0.012 C 
ATOM     12  C   UNL     1      -6.088  -2.195   7.258  1.00  0.00     0.012 C 
ENDBRANCH   6  10
TORSDOF 2
ENDMDL
MODEL 4
REMARK VINA RESULT:    -4.986      3.131      4.876
REMARK INTER + INTRA:          -5.776
REMARK INTER:                  -5.557
REMARK INTRA:                  -0.220
REMARK UNBOUND:                -0.207
REMARK SMILES CC(C)c1ccc(C(=O)[O-])cc1
REMARK SMILES IDX 7 1 6 2 11 3 5 4 12 5 4 6 8 7 9 8 10 9 2 10 1 11 3 12
REMARK H PARENT
REMARK Flexibility Score: inf
ROOT
ATOM      1  C   UNL     1      -5.442  -4.148   6.940  1.00  0.00    -0.003 A 
ATOM      2  C   UNL     1      -5.778  -4.593   5.651  1.00  0.00     0.010 A 
ATOM      3  C   UNL     1      -4.601  -4.942   7.737  1.00  0.00     0.010 A 
ATOM      4  C   UNL     1      -5.284  -5.809   5.168  1.00  0.00     0.004 A 
ATOM      5  C   UNL     1      -4.108  -6.158   7.255  1.00  0.00     0.004 A 
ATOM      6  C   UNL     1      -4.443  -6.605   5.966  1.00  0.00    -0.045 A 
ENDROOT
BRANCH   1   7
ATOM      7  C   UNL     1      -5.962  -2.861   7.454  1.00  0.00     0.071 C 
ATOM      8  O   UNL     1      -6.067  -2.660   8.692  1.00  0.00    -0.545 OA
ATOM      9  O   UNL     1      -6.341  -1.854   6.573  1.00  0.00    -0.545 OA
ENDBRANCH   1   7
BRANCH   6  10
ATOM     10  C   UNL     1      -3.899  -7.927   5.456  1.00  0.00     0.013 C 
ATOM     11  C   UNL     1      -4.927  -8.641   4.569  1.00  0.00     0.012 C 
ATOM     12  C   UNL     1      -3.454  -8.825   6.616  1.00  0.00     0.012 C 
ENDBRANCH   6  10
TORSDOF 2
ENDMDL
MODEL 5
REMARK VINA RESULT:    -4.816      1.868      2.852
REMARK INTER + INTRA:          -5.586
REMARK INTER:                  -5.373
REMARK INTRA:                  -0.213
REMARK UNBOUND:                -0.207
REMARK SMILES CC(C)c1ccc(C(=O)[O-])cc1
REMARK SMILES IDX 7 1 6 2 11 3 5 4 12 5 4 6 8 7 9 8 10 9 2 10 1 11 3 12
REMARK H PARENT
REMARK Flexibility Score: inf
ROOT
ATOM      1  C   UNL     1      -3.301  -8.309   4.875  1.00  0.00    -0.003 A 
ATOM      2  C   UNL     1      -4.692  -8.392   4.696  1.00  0.00     0.010 A 
ATOM      3  C   UNL     1      -2.794  -7.500   5.905  1.00  0.00     0.010 A 
ATOM      4  C   UNL     1      -5.559  -7.680   5.531  1.00  0.00     0.004 A 
ATOM      5  C   UNL     1      -3.661  -6.788   6.740  1.00  0.00     0.004 A 
ATOM      6  C   UNL     1      -5.052  -6.870   6.562  1.00  0.00    -0.045 A 
ENDROOT
BRANCH   1   7
ATOM      7  C   UNL     1      -2.381  -9.062   3.994  1.00  0.00     0.071 C 
ATOM      8  O   UNL     1      -1.161  -8.754   3.928  1.00  0.00    -0.545 OA
ATOM      9  O   UNL     1      -2.851 -10.122   3.226  1.00  0.00    -0.545 OA
ENDBRANCH   1   7
BRANCH   6  10
ATOM     10  C   UNL     1      -5.980  -6.091   7.477  1.00  0.00     0.013 C 
ATOM     11  C   UNL     1      -6.536  -4.849   6.769  1.00  0.00     0.012 C 
ATOM     12  C   UNL     1      -5.278  -5.713   8.786  1.00  0.00     0.012 C 
ENDBRANCH   6  10
TORSDOF 2
ENDMDL
MODEL 6
REMARK VINA RESULT:    -4.789      2.897      5.322
REMARK INTER + INTRA:          -5.556
REMARK INTER:                  -5.356
REMARK INTRA:                  -0.200
REMARK UNBOUND:                -0.207
REMARK SMILES CC(C)c1ccc(C(=O)[O-])cc1
REMARK SMILES IDX 7 1 6 2 11 3 5 4 12 5 4 6 8 7 9 8 10 9 2 10 1 11 3 12
REMARK H PARENT
REMARK Flexibility Score: inf
ROOT
ATOM      1  C   UNL     1      -5.629  -5.133   5.996  1.00  0.00    -0.003 A 
ATOM      2  C   UNL     1      -4.659  -5.599   6.899  1.00  0.00     0.010 A 
ATOM      3  C   UNL     1      -5.913  -5.893   4.850  1.00  0.00     0.010 A 
ATOM      4  C   UNL     1      -3.987  -6.801   6.661  1.00  0.00     0.004 A 
ATOM      5  C   UNL     1      -5.240  -7.095   4.611  1.00  0.00     0.004 A 
ATOM      6  C   UNL     1      -4.270  -7.563   5.514  1.00  0.00    -0.045 A 
ENDROOT
BRANCH   1   7
ATOM      7  C   UNL     1      -6.343  -3.861   6.245  1.00  0.00     0.071 C 
ATOM      8  O   UNL     1      -5.722  -2.766   6.242  1.00  0.00    -0.545 OA
ATOM      9  O   UNL     1      -7.713  -3.859   6.484  1.00  0.00    -0.545 OA
ENDBRANCH   1   7
BRANCH   6  10
ATOM     10  C   UNL     1      -3.548  -8.870   5.242  1.00  0.00     0.013 C 
ATOM     11  C   UNL     1      -3.630  -9.808   6.452  1.00  0.00     0.012 C 
ATOM     12  C   UNL     1      -2.091  -8.622   4.834  1.00  0.00     0.012 C 
ENDBRANCH   6  10
TORSDOF 2
ENDMDL
MODEL 7
REMARK VINA RESULT:    -4.770      4.156      5.899
REMARK INTER + INTRA:          -5.535
REMARK INTER:                  -5.331
REMARK INTRA:                  -0.204
REMARK UNBOUND:                -0.207
REMARK SMILES CC(C)c1ccc(C(=O)[O-])cc1
REMARK SMILES IDX 7 1 6 2 11 3 5 4 12 5 4 6 8 7 9 8 10 9 2 10 1 11 3 12
REMARK H PARENT
REMARK Flexibility Score: inf
ROOT
ATOM      1  C   UNL     1      -7.273  -2.051   6.167  1.00  0.00    -0.003 A 
ATOM      2  C   UNL     1      -6.387  -2.037   7.258  1.00  0.00     0.010 A 
ATOM      3  C   UNL     1      -7.594  -3.279   5.566  1.00  0.00     0.010 A 
ATOM      4  C   UNL     1      -5.834  -3.229   7.738  1.00  0.00     0.004 A 
ATOM      5  C   UNL     1      -7.040  -4.470   6.045  1.00  0.00     0.004 A 
ATOM      6  C   UNL     1      -6.155  -4.458   7.136  1.00  0.00    -0.045 A 
ENDROOT
BRANCH   1   7
ATOM      7  C   UNL     1      -7.861  -0.792   5.657  1.00  0.00     0.071 C 
ATOM      8  O   UNL     1      -8.651  -0.119   6.370  1.00  0.00    -0.545 OA
ATOM      9  O   UNL     1      -7.547  -0.335   4.382  1.00  0.00    -0.545 OA
ENDBRANCH   1   7
BRANCH   6  10
ATOM     10  C   UNL     1      -5.562  -5.760   7.645  1.00  0.00     0.013 C 
ATOM     11  C   UNL     1      -5.194  -5.654   9.131  1.00  0.00     0.012 C 
ATOM     12  C   UNL     1      -4.351  -6.181   6.805  1.00  0.00     0.012 C 
ENDBRANCH   6  10
TORSDOF 2
ENDMDL
MODEL 8
REMARK VINA RESULT:    -4.667      2.147      3.247
REMARK INTER + INTRA:          -5.420
REMARK INTER:                  -5.209
REMARK INTRA:                  -0.211
REMARK UNBOUND:                -0.207
REMARK SMILES CC(C)c1ccc(C(=O)[O-])cc1
REMARK SMILES IDX 7 1 6 2 11 3 5 4 12 5 4 6 8 7 9 8 10 9 2 10 1 11 3 12
REMARK H PARENT
REMARK Flexibility Score: inf
ROOT
ATOM      1  C   UNL     1      -5.568  -4.167   7.178  1.00  0.00    -0.003 A 
ATOM      2  C   UNL     1      -6.419  -4.248   6.063  1.00  0.00     0.010 A 
ATOM      3  C   UNL     1      -5.615  -3.021   7.989  1.00  0.00     0.010 A 
ATOM      4  C   UNL     1      -7.298  -3.203   5.764  1.00  0.00     0.004 A 
ATOM      5  C   UNL     1      -6.494  -1.976   7.690  1.00  0.00     0.004 A 
ATOM      6  C   UNL     1      -7.346  -2.055   6.575  1.00  0.00    -0.045 A 
ENDROOT
BRANCH   1   7
ATOM      7  C   UNL     1      -4.636  -5.271   7.498  1.00  0.00     0.071 C 
ATOM      8  O   UNL     1      -3.762  -5.633   6.667  1.00  0.00    -0.545 OA
ATOM      9  O   UNL     1      -4.713  -5.924   8.723  1.00  0.00    -0.545 OA
ENDBRANCH   1   7
BRANCH   6  10
ATOM     10  C   UNL     1      -8.295  -0.912   6.263  1.00  0.00     0.013 C 
ATOM     11  C   UNL     1      -8.035  -0.347   4.861  1.00  0.00     0.012 C 
ATOM     12  C   UNL     1      -8.205   0.187   7.327  1.00  0.00     0.012 C 
ENDBRANCH   6  10
TORSDOF 2
ENDMDL
MODEL 9
REMARK VINA RESULT:    -4.638      3.338      4.932
REMARK INTER + INTRA:          -5.387
REMARK INTER:                  -5.180
REMARK INTRA:                  -0.207
REMARK UNBOUND:                -0.207
REMARK SMILES CC(C)c1ccc(C(=O)[O-])cc1
REMARK SMILES IDX 7 1 6 2 11 3 5 4 12 5 4 6 8 7 9 8 10 9 2 10 1 11 3 12
REMARK H PARENT
REMARK Flexibility Score: inf
ROOT
ATOM      1  C   UNL     1      -5.973  -4.427   8.502  1.00  0.00    -0.003 A 
ATOM      2  C   UNL     1      -6.096  -4.067   7.149  1.00  0.00     0.010 A 
ATOM      3  C   UNL     1      -5.234  -5.574   8.837  1.00  0.00     0.010 A 
ATOM      4  C   UNL     1      -5.492  -4.839   6.152  1.00  0.00     0.004 A 
ATOM      5  C   UNL     1      -4.631  -6.346   7.840  1.00  0.00     0.004 A 
ATOM      6  C   UNL     1      -4.752  -5.986   6.487  1.00  0.00    -0.045 A 
ENDROOT
BRANCH   1   7
ATOM      7  C   UNL     1      -6.611  -3.613   9.560  1.00  0.00     0.071 C 
ATOM      8  O   UNL     1      -6.382  -2.377   9.643  1.00  0.00    -0.545 OA
ATOM      9  O   UNL     1      -7.473  -4.202  10.478  1.00  0.00    -0.545 OA
ENDBRANCH   1   7
BRANCH   6  10
ATOM     10  C   UNL     1      -4.091  -6.834   5.415  1.00  0.00     0.013 C 
ATOM     11  C   UNL     1      -5.106  -7.769   4.747  1.00  0.00     0.012 C 
ATOM     12  C   UNL     1      -2.907  -7.624   5.987  1.00  0.00     0.012 C 
ENDBRANCH   6  10
TORSDOF 2
ENDMDL
