MODEL 1
REMARK VINA RESULT:    -3.008      0.000      0.000
REMARK INTER + INTRA:          -3.917
REMARK INTER:                  -4.152
REMARK INTRA:                   0.235
REMARK UNBOUND:                 0.235
REMARK SMILES CC[C@H](CC[C@H](C)[C@@H]1CC[C@H]2[C@@H]3CC=C4C[C@H](O)CC[C@]4(C)[C@@H]3CC[C@]21C)C(C)C
REMARK SMILES IDX 5 1 4 2 3 3 2 4 1 5 28 6 29 7 30 8 6 9 7 10 8 11 9 12 26 13
REMARK SMILES IDX 10 14 11 15 25 16 27 17 12 18 24 19 23 20 13 21 21 22 14 23
REMARK SMILES IDX 15 24 20 25 22 26 16 27 19 28 17 29 18 30
REMARK H PARENT 18 31
REMARK Flexibility Score: inf
ROOT
ATOM      1  C   UNL     1     -12.966  23.628   8.905  1.00  0.00     0.004 C 
ENDROOT
BRANCH   1   2
ATOM      2  C   UNL     1     -13.208  22.227   9.522  1.00  0.00     0.004 C 
BRANCH   2   3
ATOM      3  C   UNL     1     -14.546  22.108  10.308  1.00  0.00    -0.009 C 
BRANCH   3   4
ATOM      4  C   UNL     1     -15.704  22.922   9.657  1.00  0.00     0.000 C 
ATOM      5  C   UNL     1     -16.598  23.717  10.609  1.00  0.00     0.004 C 
ENDBRANCH   3   4
BRANCH   3   6
ATOM      6  C   UNL     1     -14.877  20.628  10.696  1.00  0.00    -0.014 C 
ATOM      7  C   UNL     1     -13.697  19.642  10.602  1.00  0.00     0.007 C 
ATOM      8  C   UNL     1     -16.099  20.080   9.943  1.00  0.00     0.007 C 
ENDBRANCH   3   6
ENDBRANCH   2   3
ENDBRANCH   1   2
BRANCH   1   9
ATOM      9  C   UNL     1     -12.320  24.640   9.894  1.00  0.00    -0.011 C 
ATOM     10  C   UNL     1     -13.225  24.851  11.125  1.00  0.00     0.008 C 
BRANCH   9  11
ATOM     11  C   UNL     1     -11.934  26.033   9.259  1.00  0.00    -0.002 C 
ATOM     12  C   UNL     1     -10.639  26.619   9.845  1.00  0.00     0.005 C 
ATOM     13  C   UNL     1     -12.979  27.206   9.316  1.00  0.00    -0.026 C 
ATOM     14  C   UNL     1     -11.024  27.834  10.688  1.00  0.00     0.005 C 
ATOM     15  C   UNL     1     -12.546  28.031  10.563  1.00  0.00    -0.001 C 
ATOM     16  C   UNL     1     -12.828  28.058   8.017  1.00  0.00     0.007 C 
ATOM     17  C   UNL     1     -14.440  26.688   9.390  1.00  0.00     0.012 C 
ATOM     18  C   UNL     1     -12.938  29.545  10.596  1.00  0.00     0.000 C 
ATOM     19  C   UNL     1     -13.405  29.476   8.113  1.00  0.00     0.005 C 
ATOM     20  C   UNL     1     -12.717  30.271   9.244  1.00  0.00     0.003 C 
ATOM     21  C   UNL     1     -14.372  29.745  11.125  1.00  0.00     0.031 C 
ATOM     22  C   UNL     1     -13.092  31.811   9.344  1.00  0.00    -0.008 C 
ATOM     23  C   UNL     1     -14.860  31.159  11.018  1.00  0.00    -0.027 C 
ATOM     24  C   UNL     1     -14.388  32.052  10.127  1.00  0.00    -0.065 C 
ATOM     25  C   UNL     1     -13.234  32.461   7.930  1.00  0.00     0.014 C 
ATOM     26  C   UNL     1     -11.941  32.535  10.102  1.00  0.00     0.016 C 
ATOM     27  C   UNL     1     -15.012  33.440  10.100  1.00  0.00     0.063 C 
ATOM     28  C   UNL     1     -13.750  33.909   7.957  1.00  0.00     0.033 C 
ATOM     29  C   UNL     1     -15.108  33.996   8.674  1.00  0.00     0.118 C 
BRANCH  29  30
ATOM     30  O   UNL     1     -16.091  33.288   7.965  1.00  0.00    -0.393 OA
ATOM     31  H   UNL     1     -15.866  33.371   7.000  1.00  0.00     0.210 HD
ENDBRANCH  29  30
ENDBRANCH   9  11
ENDBRANCH   1   9
TORSDOF 7
ENDMDL
MODEL 2
REMARK VINA RESULT:    -2.241      1.615      3.193
REMARK INTER + INTRA:          -2.858
REMARK INTER:                  -3.667
REMARK INTRA:                   0.809
REMARK UNBOUND:                 0.235
REMARK SMILES CC[C@H](CC[C@H](C)[C@@H]1CC[C@H]2[C@@H]3CC=C4C[C@H](O)CC[C@]4(C)[C@@H]3CC[C@]21C)C(C)C
REMARK SMILES IDX 5 1 4 2 3 3 2 4 1 5 28 6 29 7 30 8 6 9 7 10 8 11 9 12 26 13
REMARK SMILES IDX 10 14 11 15 25 16 27 17 12 18 24 19 23 20 13 21 21 22 14 23
REMARK SMILES IDX 15 24 20 25 22 26 16 27 19 28 17 29 18 30
REMARK H PARENT 18 31
REMARK Flexibility Score: inf
ROOT
ATOM      1  C   UNL     1     -14.180  20.939   9.441  1.00  0.00     0.004 C 
ENDROOT
BRANCH   1   2
ATOM      2  C   UNL     1     -14.966  19.892  10.272  1.00  0.00     0.004 C 
BRANCH   2   3
ATOM      3  C   UNL     1     -15.294  18.587   9.491  1.00  0.00    -0.009 C 
BRANCH   3   4
ATOM      4  C   UNL     1     -14.163  17.520   9.593  1.00  0.00     0.000 C 
ATOM      5  C   UNL     1     -13.598  16.997   8.272  1.00  0.00     0.004 C 
ENDBRANCH   3   4
BRANCH   3   6
ATOM      6  C   UNL     1     -16.749  18.079   9.769  1.00  0.00    -0.014 C 
ATOM      7  C   UNL     1     -17.742  19.155  10.248  1.00  0.00     0.007 C 
ATOM      8  C   UNL     1     -16.779  16.862  10.706  1.00  0.00     0.007 C 
ENDBRANCH   3   6
ENDBRANCH   2   3
ENDBRANCH   1   2
BRANCH   1   9
ATOM      9  C   UNL     1     -13.811  22.219  10.243  1.00  0.00    -0.011 C 
ATOM     10  C   UNL     1     -15.012  22.702  11.082  1.00  0.00     0.008 C 
BRANCH   9  11
ATOM     11  C   UNL     1     -13.246  23.408   9.371  1.00  0.00    -0.002 C 
ATOM     12  C   UNL     1     -11.758  23.690   9.638  1.00  0.00     0.005 C 
ATOM     13  C   UNL     1     -13.952  24.810   9.454  1.00  0.00    -0.026 C 
ATOM     14  C   UNL     1     -11.668  25.031  10.366  1.00  0.00     0.005 C 
ATOM     15  C   UNL     1     -13.093  25.599  10.485  1.00  0.00    -0.001 C 
ATOM     16  C   UNL     1     -13.872  25.480   8.047  1.00  0.00     0.007 C 
ATOM     17  C   UNL     1     -15.448  24.692   9.852  1.00  0.00     0.012 C 
ATOM     18  C   UNL     1     -13.105  27.160  10.384  1.00  0.00     0.000 C 
ATOM     19  C   UNL     1     -14.068  27.002   8.053  1.00  0.00     0.005 C 
ATOM     20  C   UNL     1     -12.997  27.688   8.930  1.00  0.00     0.003 C 
ATOM     21  C   UNL     1     -14.313  27.766  11.125  1.00  0.00     0.031 C 
ATOM     22  C   UNL     1     -12.972  29.275   8.889  1.00  0.00    -0.008 C 
ATOM     23  C   UNL     1     -14.467  29.243  10.918  1.00  0.00    -0.027 C 
ATOM     24  C   UNL     1     -13.989  29.906   9.847  1.00  0.00    -0.065 C 
ATOM     25  C   UNL     1     -13.242  29.817   7.448  1.00  0.00     0.014 C 
ATOM     26  C   UNL     1     -11.554  29.742   9.329  1.00  0.00     0.016 C 
ATOM     27  C   UNL     1     -14.261  31.399   9.745  1.00  0.00     0.063 C 
ATOM     28  C   UNL     1     -13.386  31.346   7.372  1.00  0.00     0.033 C 
ATOM     29  C   UNL     1     -14.511  31.838   8.297  1.00  0.00     0.118 C 
BRANCH  29  30
ATOM     30  O   UNL     1     -15.756  31.348   7.872  1.00  0.00    -0.393 OA
ATOM     31  H   UNL     1     -16.372  32.126   7.826  1.00  0.00     0.210 HD
ENDBRANCH  29  30
ENDBRANCH   9  11
ENDBRANCH   1   9
TORSDOF 7
ENDMDL
MODEL 3
REMARK VINA RESULT:    -0.921      4.526     11.648
REMARK INTER + INTRA:          -1.037
REMARK INTER:                  -1.764
REMARK INTRA:                   0.728
REMARK UNBOUND:                 0.235
REMARK SMILES CC[C@H](CC[C@H](C)[C@@H]1CC[C@H]2[C@@H]3CC=C4C[C@H](O)CC[C@]4(C)[C@@H]3CC[C@]21C)C(C)C
REMARK SMILES IDX 5 1 4 2 3 3 2 4 1 5 28 6 29 7 30 8 6 9 7 10 8 11 9 12 26 13
REMARK SMILES IDX 10 14 11 15 25 16 27 17 12 18 24 19 23 20 13 21 21 22 14 23
REMARK SMILES IDX 15 24 20 25 22 26 16 27 19 28 17 29 18 30
REMARK H PARENT 18 31
REMARK Flexibility Score: inf
ROOT
ATOM      1  C   UNL     1     -14.624  24.681  10.407  1.00  0.00     0.004 C 
ENDROOT
BRANCH   1   2
ATOM      2  C   UNL     1     -13.486  25.345   9.591  1.00  0.00     0.004 C 
BRANCH   2   3
ATOM      3  C   UNL     1     -13.210  26.825   9.986  1.00  0.00    -0.009 C 
BRANCH   3   4
ATOM      4  C   UNL     1     -14.299  27.411  10.933  1.00  0.00     0.000 C 
ATOM      5  C   UNL     1     -14.432  28.934  10.959  1.00  0.00     0.004 C 
ENDBRANCH   3   4
BRANCH   3   6
ATOM      6  C   UNL     1     -11.723  27.056  10.417  1.00  0.00    -0.014 C 
ATOM      7  C   UNL     1     -11.083  28.362   9.908  1.00  0.00     0.007 C 
ATOM      8  C   UNL     1     -10.822  25.853  10.095  1.00  0.00     0.007 C 
ENDBRANCH   3   6
ENDBRANCH   2   3
ENDBRANCH   1   2
BRANCH   1   9
ATOM      9  C   UNL     1     -14.281  23.245  10.899  1.00  0.00    -0.011 C 
ATOM     10  C   UNL     1     -12.759  23.085  11.089  1.00  0.00     0.008 C 
BRANCH   9  11
ATOM     11  C   UNL     1     -14.840  22.081   9.991  1.00  0.00    -0.002 C 
ATOM     12  C   UNL     1     -16.238  21.605  10.423  1.00  0.00     0.005 C 
ATOM     13  C   UNL     1     -13.990  20.769   9.833  1.00  0.00    -0.026 C 
ATOM     14  C   UNL     1     -16.084  20.205  11.013  1.00  0.00     0.005 C 
ATOM     15  C   UNL     1     -14.606  19.797  10.881  1.00  0.00    -0.001 C 
ATOM     16  C   UNL     1     -14.203  20.222   8.386  1.00  0.00     0.007 C 
ATOM     17  C   UNL     1     -12.473  21.024  10.038  1.00  0.00     0.012 C 
ATOM     18  C   UNL     1     -14.449  18.263  10.618  1.00  0.00     0.000 C 
ATOM     19  C   UNL     1     -13.852  18.738   8.209  1.00  0.00     0.005 C 
ATOM     20  C   UNL     1     -14.710  17.858   9.144  1.00  0.00     0.003 C 
ATOM     21  C   UNL     1     -13.091  17.738  11.124  1.00  0.00     0.031 C 
ATOM     22  C   UNL     1     -14.578  16.288   8.941  1.00  0.00    -0.008 C 
ATOM     23  C   UNL     1     -12.818  16.313  10.746  1.00  0.00    -0.027 C 
ATOM     24  C   UNL     1     -13.374  15.697   9.685  1.00  0.00    -0.065 C 
ATOM     25  C   UNL     1     -14.464  15.912   7.429  1.00  0.00     0.014 C 
ATOM     26  C   UNL     1     -15.862  15.622   9.516  1.00  0.00     0.016 C 
ATOM     27  C   UNL     1     -12.968  14.260   9.393  1.00  0.00     0.063 C 
ATOM     28  C   UNL     1     -14.176  14.423   7.175  1.00  0.00     0.033 C 
ATOM     29  C   UNL     1     -12.885  13.984   7.887  1.00  0.00     0.118 C 
BRANCH  29  30
ATOM     30  O   UNL     1     -11.771  14.651   7.353  1.00  0.00    -0.393 OA
ATOM     31  H   UNL     1     -11.808  14.530   6.367  1.00  0.00     0.210 HD
ENDBRANCH  29  30
ENDBRANCH   9  11
ENDBRANCH   1   9
TORSDOF 7
ENDMDL
MODEL 4
REMARK VINA RESULT:    -0.816      4.416     11.573
REMARK INTER + INTRA:          -0.891
REMARK INTER:                  -0.522
REMARK INTRA:                  -0.369
REMARK UNBOUND:                 0.235
REMARK SMILES CC[C@H](CC[C@H](C)[C@@H]1CC[C@H]2[C@@H]3CC=C4C[C@H](O)CC[C@]4(C)[C@@H]3CC[C@]21C)C(C)C
REMARK SMILES IDX 5 1 4 2 3 3 2 4 1 5 28 6 29 7 30 8 6 9 7 10 8 11 9 12 26 13
REMARK SMILES IDX 10 14 11 15 25 16 27 17 12 18 24 19 23 20 13 21 21 22 14 23
REMARK SMILES IDX 15 24 20 25 22 26 16 27 19 28 17 29 18 30
REMARK H PARENT 18 31
REMARK Flexibility Score: inf
ROOT
ATOM      1  C   UNL     1     -14.255  24.886  10.658  1.00  0.00     0.004 C 
ENDROOT
BRANCH   1   2
ATOM      2  C   UNL     1     -13.446  25.715   9.628  1.00  0.00     0.004 C 
BRANCH   2   3
ATOM      3  C   UNL     1     -12.254  26.499  10.250  1.00  0.00    -0.009 C 
BRANCH   3   4
ATOM      4  C   UNL     1     -10.874  25.845   9.943  1.00  0.00     0.000 C 
ATOM      5  C   UNL     1     -10.696  24.391  10.382  1.00  0.00     0.004 C 
ENDBRANCH   3   4
BRANCH   3   6
ATOM      6  C   UNL     1     -12.359  28.040   9.993  1.00  0.00    -0.014 C 
ATOM      7  C   UNL     1     -11.161  28.874  10.485  1.00  0.00     0.007 C 
ATOM      8  C   UNL     1     -13.679  28.635  10.509  1.00  0.00     0.007 C 
ENDBRANCH   3   6
ENDBRANCH   2   3
ENDBRANCH   1   2
BRANCH   1   9
ATOM      9  C   UNL     1     -14.992  23.666  10.033  1.00  0.00    -0.011 C 
ATOM     10  C   UNL     1     -16.509  23.933   9.948  1.00  0.00     0.008 C 
BRANCH   9  11
ATOM     11  C   UNL     1     -14.723  22.288  10.755  1.00  0.00    -0.002 C 
ATOM     12  C   UNL     1     -13.244  22.086  11.124  1.00  0.00     0.005 C 
ATOM     13  C   UNL     1     -15.153  20.960  10.035  1.00  0.00    -0.026 C 
ATOM     14  C   UNL     1     -12.691  20.987  10.218  1.00  0.00     0.005 C 
ATOM     15  C   UNL     1     -13.847  20.471   9.343  1.00  0.00    -0.001 C 
ATOM     16  C   UNL     1     -15.609  19.939  11.125  1.00  0.00     0.007 C 
ATOM     17  C   UNL     1     -16.333  21.180   9.051  1.00  0.00     0.012 C 
ATOM     18  C   UNL     1     -13.716  18.939   9.054  1.00  0.00     0.000 C 
ATOM     19  C   UNL     1     -15.602  18.474  10.669  1.00  0.00     0.005 C 
ATOM     20  C   UNL     1     -14.185  18.045  10.230  1.00  0.00     0.003 C 
ATOM     21  C   UNL     1     -14.405  18.553   7.730  1.00  0.00     0.031 C 
ATOM     22  C   UNL     1     -13.993  16.503   9.900  1.00  0.00    -0.008 C 
ATOM     23  C   UNL     1     -14.457  17.074   7.488  1.00  0.00    -0.027 C 
ATOM     24  C   UNL     1     -14.414  16.150   8.469  1.00  0.00    -0.065 C 
ATOM     25  C   UNL     1     -14.792  15.599  10.893  1.00  0.00     0.014 C 
ATOM     26  C   UNL     1     -12.480  16.169  10.043  1.00  0.00     0.016 C 
ATOM     27  C   UNL     1     -14.525  14.683   8.079  1.00  0.00     0.063 C 
ATOM     28  C   UNL     1     -14.773  14.105  10.530  1.00  0.00     0.033 C 
ATOM     29  C   UNL     1     -15.322  13.876   9.111  1.00  0.00     0.118 C 
BRANCH  29  30
ATOM     30  O   UNL     1     -16.676  14.237   9.038  1.00  0.00    -0.393 OA
ATOM     31  H   UNL     1     -16.744  15.173   9.365  1.00  0.00     0.210 HD
ENDBRANCH  29  30
ENDBRANCH   9  11
ENDBRANCH   1   9
TORSDOF 7
ENDMDL
