MODEL 1
REMARK VINA RESULT:    -5.269      0.000      0.000
REMARK INTER + INTRA:          -5.269
REMARK INTER:                  -5.269
REMARK INTRA:                   0.000
REMARK UNBOUND:                 0.000
REMARK SMILES CC(C)=C1CC[C@@H](C)CC1=O
REMARK SMILES IDX 8 1 7 2 6 3 5 4 4 5 2 6 1 7 3 8 10 9 11 10 9 11
REMARK H PARENT
REMARK Flexibility Score: inf
ROOT
ATOM      1  C   UNL     1     -24.154   9.875 -27.607  1.00  0.00     0.008 C 
ATOM      2  C   UNL     1     -25.246  10.910 -27.904  1.00  0.00    -0.006 C 
ATOM      3  C   UNL     1     -26.582  10.215 -28.210  1.00  0.00     0.008 C 
ATOM      4  C   UNL     1     -27.709  11.236 -28.410  1.00  0.00     0.039 C 
ATOM      5  C   UNL     1     -27.356  12.301 -29.439  1.00  0.00    -0.006 C 
ATOM      6  C   UNL     1     -28.314  12.874 -30.226  1.00  0.00    -0.070 C 
ATOM      7  C   UNL     1     -29.770  12.487 -30.094  1.00  0.00     0.039 C 
ATOM      8  C   UNL     1     -27.969  13.890 -31.290  1.00  0.00     0.039 C 
ATOM      9  C   UNL     1     -25.934  12.756 -29.451  1.00  0.00     0.159 C 
ATOM     10  O   UNL     1     -25.627  13.939 -29.756  1.00  0.00    -0.295 OA
ATOM     11  C   UNL     1     -24.835  11.799 -29.088  1.00  0.00     0.084 C 
ENDROOT
TORSDOF 0
ENDMDL
MODEL 2
REMARK VINA RESULT:    -5.172      1.225      4.158
REMARK INTER + INTRA:          -5.172
REMARK INTER:                  -5.172
REMARK INTRA:                   0.000
REMARK UNBOUND:                 0.000
REMARK SMILES CC(C)=C1CC[C@@H](C)CC1=O
REMARK SMILES IDX 8 1 7 2 6 3 5 4 4 5 2 6 1 7 3 8 10 9 11 10 9 11
REMARK H PARENT
REMARK Flexibility Score: inf
ROOT
ATOM      1  C   UNL     1     -30.099  14.053 -30.873  1.00  0.00     0.008 C 
ATOM      2  C   UNL     1     -29.130  12.902 -30.575  1.00  0.00    -0.006 C 
ATOM      3  C   UNL     1     -29.322  12.392 -29.138  1.00  0.00     0.008 C 
ATOM      4  C   UNL     1     -28.432  11.175 -28.855  1.00  0.00     0.039 C 
ATOM      5  C   UNL     1     -26.970  11.429 -29.195  1.00  0.00    -0.006 C 
ATOM      6  C   UNL     1     -25.963  10.831 -28.492  1.00  0.00    -0.070 C 
ATOM      7  C   UNL     1     -26.260   9.875 -27.358  1.00  0.00     0.039 C 
ATOM      8  C   UNL     1     -24.508  11.119 -28.782  1.00  0.00     0.039 C 
ATOM      9  C   UNL     1     -26.713  12.269 -30.402  1.00  0.00     0.159 C 
ATOM     10  O   UNL     1     -25.698  12.084 -31.126  1.00  0.00    -0.295 OA
ATOM     11  C   UNL     1     -27.677  13.357 -30.780  1.00  0.00     0.084 C 
ENDROOT
TORSDOF 0
ENDMDL
MODEL 3
REMARK VINA RESULT:    -5.106      2.091      3.190
REMARK INTER + INTRA:          -5.106
REMARK INTER:                  -5.106
REMARK INTRA:                   0.000
REMARK UNBOUND:                 0.000
REMARK SMILES CC(C)=C1CC[C@@H](C)CC1=O
REMARK SMILES IDX 8 1 7 2 6 3 5 4 4 5 2 6 1 7 3 8 10 9 11 10 9 11
REMARK H PARENT
REMARK Flexibility Score: inf
ROOT
ATOM      1  C   UNL     1     -23.441  13.629 -30.331  1.00  0.00     0.008 C 
ATOM      2  C   UNL     1     -24.868  13.287 -30.777  1.00  0.00    -0.006 C 
ATOM      3  C   UNL     1     -25.775  14.523 -30.683  1.00  0.00     0.008 C 
ATOM      4  C   UNL     1     -27.180  14.226 -31.220  1.00  0.00     0.039 C 
ATOM      5  C   UNL     1     -27.803  12.994 -30.577  1.00  0.00    -0.006 C 
ATOM      6  C   UNL     1     -29.152  12.898 -30.387  1.00  0.00    -0.070 C 
ATOM      7  C   UNL     1     -30.086  14.003 -30.825  1.00  0.00     0.039 C 
ATOM      8  C   UNL     1     -29.776  11.706 -29.698  1.00  0.00     0.039 C 
ATOM      9  C   UNL     1     -26.870  11.867 -30.279  1.00  0.00     0.159 C 
ATOM     10  O   UNL     1     -27.254  10.668 -30.331  1.00  0.00    -0.295 OA
ATOM     11  C   UNL     1     -25.440  12.150 -29.917  1.00  0.00     0.084 C 
ENDROOT
TORSDOF 0
ENDMDL
MODEL 4
REMARK VINA RESULT:    -4.974      1.613      4.462
REMARK INTER + INTRA:          -4.974
REMARK INTER:                  -4.974
REMARK INTRA:                   0.000
REMARK UNBOUND:                 0.000
REMARK SMILES CC(C)=C1CC[C@@H](C)CC1=O
REMARK SMILES IDX 8 1 7 2 6 3 5 4 4 5 2 6 1 7 3 8 10 9 11 10 9 11
REMARK H PARENT
REMARK Flexibility Score: inf
ROOT
ATOM      1  C   UNL     1     -30.125  12.785 -30.506  1.00  0.00     0.008 C 
ATOM      2  C   UNL     1     -28.701  12.900 -29.948  1.00  0.00    -0.006 C 
ATOM      3  C   UNL     1     -27.779  13.600 -30.958  1.00  0.00     0.008 C 
ATOM      4  C   UNL     1     -26.376  13.815 -30.376  1.00  0.00     0.039 C 
ATOM      5  C   UNL     1     -25.770  12.532 -29.824  1.00  0.00    -0.006 C 
ATOM      6  C   UNL     1     -24.423  12.311 -29.859  1.00  0.00    -0.070 C 
ATOM      7  C   UNL     1     -23.475  13.340 -30.430  1.00  0.00     0.039 C 
ATOM      8  C   UNL     1     -23.816  11.018 -29.366  1.00  0.00     0.039 C 
ATOM      9  C   UNL     1     -26.717  11.598 -29.147  1.00  0.00     0.159 C 
ATOM     10  O   UNL     1     -26.349  10.876 -28.182  1.00  0.00    -0.295 OA
ATOM     11  C   UNL     1     -28.145  11.510 -29.606  1.00  0.00     0.084 C 
ENDROOT
TORSDOF 0
ENDMDL
MODEL 5
REMARK VINA RESULT:    -4.952      1.872      3.445
REMARK INTER + INTRA:          -4.952
REMARK INTER:                  -4.952
REMARK INTRA:                   0.000
REMARK UNBOUND:                 0.000
REMARK SMILES CC(C)=C1CC[C@@H](C)CC1=O
REMARK SMILES IDX 8 1 7 2 6 3 5 4 4 5 2 6 1 7 3 8 10 9 11 10 9 11
REMARK H PARENT
REMARK Flexibility Score: inf
ROOT
ATOM      1  C   UNL     1     -23.807  14.700 -31.146  1.00  0.00     0.008 C 
ATOM      2  C   UNL     1     -24.894  13.640 -30.931  1.00  0.00    -0.006 C 
ATOM      3  C   UNL     1     -26.213  14.300 -30.498  1.00  0.00     0.008 C 
ATOM      4  C   UNL     1     -27.340  13.266 -30.377  1.00  0.00     0.039 C 
ATOM      5  C   UNL     1     -26.958  12.087 -29.492  1.00  0.00    -0.006 C 
ATOM      6  C   UNL     1     -27.892  11.429 -28.743  1.00  0.00    -0.070 C 
ATOM      7  C   UNL     1     -29.348  11.833 -28.776  1.00  0.00     0.039 C 
ATOM      8  C   UNL     1     -27.515  10.295 -27.818  1.00  0.00     0.039 C 
ATOM      9  C   UNL     1     -25.540  11.629 -29.585  1.00  0.00     0.159 C 
ATOM     10  O   UNL     1     -25.231  10.417 -29.432  1.00  0.00    -0.295 OA
ATOM     11  C   UNL     1     -24.448  12.619 -29.875  1.00  0.00     0.084 C 
ENDROOT
TORSDOF 0
ENDMDL
MODEL 6
REMARK VINA RESULT:    -4.943      7.405      9.205
REMARK INTER + INTRA:          -4.943
REMARK INTER:                  -4.943
REMARK INTRA:                   0.000
REMARK UNBOUND:                 0.000
REMARK SMILES CC(C)=C1CC[C@@H](C)CC1=O
REMARK SMILES IDX 8 1 7 2 6 3 5 4 4 5 2 6 1 7 3 8 10 9 11 10 9 11
REMARK H PARENT
REMARK Flexibility Score: inf
ROOT
ATOM      1  C   UNL     1     -29.738  19.246 -33.743  1.00  0.00     0.008 C 
ATOM      2  C   UNL     1     -28.258  18.870 -33.878  1.00  0.00    -0.006 C 
ATOM      3  C   UNL     1     -27.706  18.357 -32.539  1.00  0.00     0.008 C 
ATOM      4  C   UNL     1     -26.255  17.880 -32.680  1.00  0.00     0.039 C 
ATOM      5  C   UNL     1     -25.355  18.929 -33.320  1.00  0.00    -0.006 C 
ATOM      6  C   UNL     1     -24.034  19.030 -32.988  1.00  0.00    -0.070 C 
ATOM      7  C   UNL     1     -23.405  18.090 -31.985  1.00  0.00     0.039 C 
ATOM      8  C   UNL     1     -23.145  20.103 -33.573  1.00  0.00     0.039 C 
ATOM      9  C   UNL     1     -25.973  19.752 -34.402  1.00  0.00     0.159 C 
ATOM     10  O   UNL     1     -25.290  20.180 -35.371  1.00  0.00    -0.295 OA
ATOM     11  C   UNL     1     -27.438  20.078 -34.355  1.00  0.00     0.084 C 
ENDROOT
TORSDOF 0
ENDMDL
MODEL 7
REMARK VINA RESULT:    -4.855      1.570      2.452
REMARK INTER + INTRA:          -4.855
REMARK INTER:                  -4.855
REMARK INTRA:                   0.000
REMARK UNBOUND:                 0.000
REMARK SMILES CC(C)=C1CC[C@@H](C)CC1=O
REMARK SMILES IDX 8 1 7 2 6 3 5 4 4 5 2 6 1 7 3 8 10 9 11 10 9 11
REMARK H PARENT
REMARK Flexibility Score: inf
ROOT
ATOM      1  C   UNL     1     -24.261  10.266 -27.861  1.00  0.00     0.008 C 
ATOM      2  C   UNL     1     -25.220  10.751 -28.955  1.00  0.00    -0.006 C 
ATOM      3  C   UNL     1     -24.944  12.222 -29.304  1.00  0.00     0.008 C 
ATOM      4  C   UNL     1     -25.825  12.694 -30.467  1.00  0.00     0.039 C 
ATOM      5  C   UNL     1     -27.303  12.417 -30.229  1.00  0.00    -0.006 C 
ATOM      6  C   UNL     1     -28.269  13.243 -30.728  1.00  0.00    -0.070 C 
ATOM      7  C   UNL     1     -27.911  14.458 -31.555  1.00  0.00     0.039 C 
ATOM      8  C   UNL     1     -29.737  13.011 -30.451  1.00  0.00     0.039 C 
ATOM      9  C   UNL     1     -27.627  11.141 -29.525  1.00  0.00     0.159 C 
ATOM     10  O   UNL     1     -28.687  10.506 -29.774  1.00  0.00    -0.295 OA
ATOM     11  C   UNL     1     -26.678  10.584 -28.503  1.00  0.00     0.084 C 
ENDROOT
TORSDOF 0
ENDMDL
MODEL 8
REMARK VINA RESULT:    -4.791      1.708      3.173
REMARK INTER + INTRA:          -4.791
REMARK INTER:                  -4.791
REMARK INTRA:                   0.000
REMARK UNBOUND:                 0.000
REMARK SMILES CC(C)=C1CC[C@@H](C)CC1=O
REMARK SMILES IDX 8 1 7 2 6 3 5 4 4 5 2 6 1 7 3 8 10 9 11 10 9 11
REMARK H PARENT
REMARK Flexibility Score: inf
ROOT
ATOM      1  C   UNL     1     -27.382   9.875 -27.531  1.00  0.00     0.008 C 
ATOM      2  C   UNL     1     -26.827  10.722 -28.683  1.00  0.00    -0.006 C 
ATOM      3  C   UNL     1     -25.319  10.957 -28.504  1.00  0.00     0.008 C 
ATOM      4  C   UNL     1     -24.727  11.716 -29.698  1.00  0.00     0.039 C 
ATOM      5  C   UNL     1     -25.485  12.999 -30.008  1.00  0.00    -0.006 C 
ATOM      6  C   UNL     1     -24.850  14.092 -30.524  1.00  0.00    -0.070 C 
ATOM      7  C   UNL     1     -23.369  14.067 -30.828  1.00  0.00     0.039 C 
ATOM      8  C   UNL     1     -25.580  15.390 -30.782  1.00  0.00     0.039 C 
ATOM      9  C   UNL     1     -26.966  12.948 -29.823  1.00  0.00     0.159 C 
ATOM     10  O   UNL     1     -27.741  13.625 -30.550  1.00  0.00    -0.295 OA
ATOM     11  C   UNL     1     -27.561  12.069 -28.760  1.00  0.00     0.084 C 
ENDROOT
TORSDOF 0
ENDMDL
MODEL 9
REMARK VINA RESULT:    -4.726     10.483     12.341
REMARK INTER + INTRA:          -4.726
REMARK INTER:                  -4.726
REMARK INTRA:                   0.000
REMARK UNBOUND:                 0.000
REMARK SMILES CC(C)=C1CC[C@@H](C)CC1=O
REMARK SMILES IDX 8 1 7 2 6 3 5 4 4 5 2 6 1 7 3 8 10 9 11 10 9 11
REMARK H PARENT
REMARK Flexibility Score: inf
ROOT
ATOM      1  C   UNL     1     -17.905  11.083 -30.890  1.00  0.00     0.008 C 
ATOM      2  C   UNL     1     -16.666  11.956 -30.660  1.00  0.00    -0.006 C 
ATOM      3  C   UNL     1     -17.048  13.444 -30.643  1.00  0.00     0.008 C 
ATOM      4  C   UNL     1     -15.838  14.327 -30.313  1.00  0.00     0.039 C 
ATOM      5  C   UNL     1     -14.644  14.041 -31.213  1.00  0.00    -0.006 C 
ATOM      6  C   UNL     1     -13.763  15.026 -31.558  1.00  0.00    -0.070 C 
ATOM      7  C   UNL     1     -13.925  16.438 -31.044  1.00  0.00     0.039 C 
ATOM      8  C   UNL     1     -12.606  14.767 -32.496  1.00  0.00     0.039 C 
ATOM      9  C   UNL     1     -14.437  12.612 -31.594  1.00  0.00     0.159 C 
ATOM     10  O   UNL     1     -13.281  12.145 -31.782  1.00  0.00    -0.295 OA
ATOM     11  C   UNL     1     -15.617  11.697 -31.751  1.00  0.00     0.084 C 
ENDROOT
TORSDOF 0
ENDMDL
