MODEL 1
REMARK VINA RESULT:    -2.905      0.000      0.000
REMARK INTER + INTRA:          -4.792
REMARK INTER:                  -4.093
REMARK INTRA:                  -0.699
REMARK UNBOUND:                -0.699
REMARK SMILES CCCCCCCCC(=O)[O-]
REMARK SMILES IDX 6 1 7 2 8 3 9 4 10 5 11 6 5 7 4 8 3 9 2 10 1 11
REMARK H PARENT
REMARK Flexibility Score: inf
ROOT
ATOM      1  C   UNL     1       7.089   6.002   7.681  1.00  0.00     0.000 C 
ENDROOT
BRANCH   1   2
ATOM      2  C   UNL     1       7.997   7.236   7.743  1.00  0.00     0.006 C 
BRANCH   2   3
ATOM      3  C   UNL     1       8.517   7.465   9.164  1.00  0.00     0.053 C 
BRANCH   3   4
ATOM      4  C   UNL     1       8.831   8.913   9.381  1.00  0.00     0.041 C 
ATOM      5  O   UNL     1       7.919   9.717   9.706  1.00  0.00    -0.550 OA
ATOM      6  O   UNL     1      10.121   9.382   9.175  1.00  0.00    -0.550 OA
ENDBRANCH   3   4
ENDBRANCH   2   3
ENDBRANCH   1   2
BRANCH   1   7
ATOM      7  C   UNL     1       6.798   5.461   9.086  1.00  0.00     0.000 C 
BRANCH   7   8
ATOM      8  C   UNL     1       5.285   5.368   9.337  1.00  0.00    -0.000 C 
BRANCH   8   9
ATOM      9  C   UNL     1       4.563   6.703   9.097  1.00  0.00    -0.000 C 
BRANCH   9  10
ATOM     10  C   UNL     1       4.984   7.792  10.095  1.00  0.00    -0.003 C 
ATOM     11  C   UNL     1       4.526   9.170   9.630  1.00  0.00     0.004 C 
ENDBRANCH   9  10
ENDBRANCH   8   9
ENDBRANCH   7   8
ENDBRANCH   1   7
TORSDOF 7
ENDMDL
MODEL 2
REMARK VINA RESULT:    -2.884     22.056     23.576
REMARK INTER + INTRA:          -4.763
REMARK INTER:                  -4.187
REMARK INTRA:                  -0.576
REMARK UNBOUND:                -0.699
REMARK SMILES CCCCCCCCC(=O)[O-]
REMARK SMILES IDX 6 1 7 2 8 3 9 4 10 5 11 6 5 7 4 8 3 9 2 10 1 11
REMARK H PARENT
REMARK Flexibility Score: inf
ROOT
ATOM      1  C   UNL     1       4.493  -5.238  -9.389  1.00  0.00     0.000 C 
ENDROOT
BRANCH   1   2
ATOM      2  C   UNL     1       5.883  -5.153 -10.031  1.00  0.00     0.006 C 
BRANCH   2   3
ATOM      3  C   UNL     1       6.930  -4.694  -9.013  1.00  0.00     0.053 C 
BRANCH   3   4
ATOM      4  C   UNL     1       7.641  -5.872  -8.424  1.00  0.00     0.041 C 
ATOM      5  O   UNL     1       8.570  -6.434  -9.060  1.00  0.00    -0.550 OA
ATOM      6  O   UNL     1       7.243  -6.381  -7.195  1.00  0.00    -0.550 OA
ENDBRANCH   3   4
ENDBRANCH   2   3
ENDBRANCH   1   2
BRANCH   1   7
ATOM      7  C   UNL     1       4.110  -6.693  -9.092  1.00  0.00     0.000 C 
BRANCH   7   8
ATOM      8  C   UNL     1       4.762  -7.650 -10.102  1.00  0.00    -0.000 C 
BRANCH   8   9
ATOM      9  C   UNL     1       4.709  -9.117  -9.646  1.00  0.00    -0.000 C 
BRANCH   9  10
ATOM     10  C   UNL     1       5.981  -9.896 -10.011  1.00  0.00    -0.003 C 
ATOM     11  C   UNL     1       7.094  -9.635  -9.000  1.00  0.00     0.004 C 
ENDBRANCH   9  10
ENDBRANCH   8   9
ENDBRANCH   7   8
ENDBRANCH   1   7
TORSDOF 7
ENDMDL
MODEL 3
REMARK VINA RESULT:    -2.871      2.871      4.206
REMARK INTER + INTRA:          -4.744
REMARK INTER:                  -4.034
REMARK INTRA:                  -0.710
REMARK UNBOUND:                -0.699
REMARK SMILES CCCCCCCCC(=O)[O-]
REMARK SMILES IDX 6 1 7 2 8 3 9 4 10 5 11 6 5 7 4 8 3 9 2 10 1 11
REMARK H PARENT
REMARK Flexibility Score: inf
ROOT
ATOM      1  C   UNL     1       7.370   6.345   8.199  1.00  0.00     0.000 C 
ENDROOT
BRANCH   1   2
ATOM      2  C   UNL     1       6.764   5.079   8.817  1.00  0.00     0.006 C 
BRANCH   2   3
ATOM      3  C   UNL     1       5.777   5.431   9.932  1.00  0.00     0.053 C 
BRANCH   3   4
ATOM      4  C   UNL     1       4.368   5.226   9.469  1.00  0.00     0.041 C 
ATOM      5  O   UNL     1       3.857   6.011   8.629  1.00  0.00    -0.550 OA
ATOM      6  O   UNL     1       3.603   4.197  10.003  1.00  0.00    -0.550 OA
ENDBRANCH   3   4
ENDBRANCH   2   3
ENDBRANCH   1   2
BRANCH   1   7
ATOM      7  C   UNL     1       8.634   6.776   8.953  1.00  0.00     0.000 C 
BRANCH   7   8
ATOM      8  C   UNL     1       8.472   8.189   9.534  1.00  0.00    -0.000 C 
BRANCH   8   9
ATOM      9  C   UNL     1       7.228   8.912   8.995  1.00  0.00    -0.000 C 
BRANCH   9  10
ATOM     10  C   UNL     1       6.286   9.382  10.113  1.00  0.00    -0.003 C 
ATOM     11  C   UNL     1       4.826   9.160   9.730  1.00  0.00     0.004 C 
ENDBRANCH   9  10
ENDBRANCH   8   9
ENDBRANCH   7   8
ENDBRANCH   1   7
TORSDOF 7
ENDMDL
MODEL 4
REMARK VINA RESULT:    -2.858     22.146     23.474
REMARK INTER + INTRA:          -4.726
REMARK INTER:                  -4.058
REMARK INTRA:                  -0.668
REMARK UNBOUND:                -0.699
REMARK SMILES CCCCCCCCC(=O)[O-]
REMARK SMILES IDX 6 1 7 2 8 3 9 4 10 5 11 6 5 7 4 8 3 9 2 10 1 11
REMARK H PARENT
REMARK Flexibility Score: inf
ROOT
ATOM      1  C   UNL     1       6.883  -4.868  -8.879  1.00  0.00     0.000 C 
ENDROOT
BRANCH   1   2
ATOM      2  C   UNL     1       8.263  -5.277  -9.409  1.00  0.00     0.006 C 
BRANCH   2   3
ATOM      3  C   UNL     1       8.262  -6.734  -9.879  1.00  0.00     0.053 C 
BRANCH   3   4
ATOM      4  C   UNL     1       8.769  -7.634  -8.795  1.00  0.00     0.041 C 
ATOM      5  O   UNL     1       9.712  -8.434  -9.026  1.00  0.00    -0.550 OA
ATOM      6  O   UNL     1       8.165  -7.624  -7.544  1.00  0.00    -0.550 OA
ENDBRANCH   3   4
ENDBRANCH   2   3
ENDBRANCH   1   2
BRANCH   1   7
ATOM      7  C   UNL     1       5.861  -4.776 -10.019  1.00  0.00     0.000 C 
BRANCH   7   8
ATOM      8  C   UNL     1       4.473  -5.239  -9.551  1.00  0.00    -0.000 C 
BRANCH   8   9
ATOM      9  C   UNL     1       4.482  -6.676  -9.006  1.00  0.00    -0.000 C 
BRANCH   9  10
ATOM     10  C   UNL     1       4.729  -7.723 -10.102  1.00  0.00    -0.003 C 
ATOM     11  C   UNL     1       5.307  -9.007  -9.514  1.00  0.00     0.004 C 
ENDBRANCH   9  10
ENDBRANCH   8   9
ENDBRANCH   7   8
ENDBRANCH   1   7
TORSDOF 7
ENDMDL
MODEL 5
REMARK VINA RESULT:    -2.818      1.373      2.865
REMARK INTER + INTRA:          -4.670
REMARK INTER:                  -4.196
REMARK INTRA:                  -0.474
REMARK UNBOUND:                -0.699
REMARK SMILES CCCCCCCCC(=O)[O-]
REMARK SMILES IDX 6 1 7 2 8 3 9 4 10 5 11 6 5 7 4 8 3 9 2 10 1 11
REMARK H PARENT
REMARK Flexibility Score: inf
ROOT
ATOM      1  C   UNL     1       5.123   9.082   9.646  1.00  0.00     0.000 C 
ENDROOT
BRANCH   1   2
ATOM      2  C   UNL     1       6.523   9.390   9.101  1.00  0.00     0.006 C 
BRANCH   2   3
ATOM      3  C   UNL     1       7.576   8.488   9.750  1.00  0.00     0.053 C 
BRANCH   3   4
ATOM      4  C   UNL     1       8.576   8.033   8.732  1.00  0.00     0.041 C 
ATOM      5  O   UNL     1       8.193   7.628   7.605  1.00  0.00    -0.550 OA
ATOM      6  O   UNL     1       9.928   8.010   9.049  1.00  0.00    -0.550 OA
ENDBRANCH   3   4
ENDBRANCH   2   3
ENDBRANCH   1   2
BRANCH   1   7
ATOM      7  C   UNL     1       5.026   7.628  10.125  1.00  0.00     0.000 C 
BRANCH   7   8
ATOM      8  C   UNL     1       4.672   6.688   8.962  1.00  0.00    -0.000 C 
BRANCH   8   9
ATOM      9  C   UNL     1       4.291   5.278   9.437  1.00  0.00    -0.000 C 
BRANCH   9  10
ATOM     10  C   UNL     1       5.507   4.459   9.895  1.00  0.00    -0.003 C 
ATOM     11  C   UNL     1       6.701   4.687   8.974  1.00  0.00     0.004 C 
ENDBRANCH   9  10
ENDBRANCH   8   9
ENDBRANCH   7   8
ENDBRANCH   1   7
TORSDOF 7
ENDMDL
MODEL 6
REMARK VINA RESULT:    -2.812     22.199     23.603
REMARK INTER + INTRA:          -4.662
REMARK INTER:                  -3.981
REMARK INTRA:                  -0.680
REMARK UNBOUND:                -0.699
REMARK SMILES CCCCCCCCC(=O)[O-]
REMARK SMILES IDX 6 1 7 2 8 3 9 4 10 5 11 6 5 7 4 8 3 9 2 10 1 11
REMARK H PARENT
REMARK Flexibility Score: inf
ROOT
ATOM      1  C   UNL     1       7.450  -5.967  -8.340  1.00  0.00     0.000 C 
ENDROOT
BRANCH   1   2
ATOM      2  C   UNL     1       6.751  -4.762  -8.980  1.00  0.00     0.006 C 
BRANCH   2   3
ATOM      3  C   UNL     1       5.776  -5.209 -10.073  1.00  0.00     0.053 C 
BRANCH   3   4
ATOM      4  C   UNL     1       4.365  -5.141  -9.577  1.00  0.00     0.041 C 
ATOM      5  O   UNL     1       3.576  -4.273 -10.031  1.00  0.00    -0.550 OA
ATOM      6  O   UNL     1       3.938  -6.004  -8.576  1.00  0.00    -0.550 OA
ENDBRANCH   3   4
ENDBRANCH   2   3
ENDBRANCH   1   2
BRANCH   1   7
ATOM      7  C   UNL     1       8.424  -6.627  -9.323  1.00  0.00     0.000 C 
BRANCH   7   8
ATOM      8  C   UNL     1       8.733  -8.073  -8.905  1.00  0.00    -0.000 C 
BRANCH   8   9
ATOM      9  C   UNL     1       7.469  -8.939  -8.793  1.00  0.00    -0.000 C 
BRANCH   9  10
ATOM     10  C   UNL     1       6.711  -9.054 -10.124  1.00  0.00    -0.003 C 
ATOM     11  C   UNL     1       5.203  -8.994  -9.904  1.00  0.00     0.004 C 
ENDBRANCH   9  10
ENDBRANCH   8   9
ENDBRANCH   7   8
ENDBRANCH   1   7
TORSDOF 7
ENDMDL
