MODEL 1
REMARK VINA RESULT:    -4.079      0.000      0.000
REMARK INTER + INTRA:         -10.611
REMARK INTER:                  -7.894
REMARK INTRA:                  -2.717
REMARK UNBOUND:                -2.717
REMARK SMILES CCCCCCCCCCCCCCCCCC(=O)[O-]
REMARK SMILES IDX 10 1 11 2 12 3 13 4 14 5 15 6 16 7 17 8 18 9 19 10 20 11
REMARK SMILES IDX 9 12 8 13 7 14 6 15 5 16 4 17 3 18 2 19 1 20
REMARK H PARENT
REMARK Flexibility Score: inf
ROOT
ATOM      1  C   UNL     1       7.575  -7.254 -36.712  1.00  0.00     0.000 C 
ENDROOT
BRANCH   1   2
ATOM      2  C   UNL     1       6.212  -7.954 -36.593  1.00  0.00     0.000 C 
BRANCH   2   3
ATOM      3  C   UNL     1       5.847  -8.302 -35.142  1.00  0.00     0.000 C 
BRANCH   3   4
ATOM      4  C   UNL     1       4.770  -7.350 -34.604  1.00  0.00     0.000 C 
BRANCH   4   5
ATOM      5  C   UNL     1       3.776  -6.965 -35.710  1.00  0.00     0.000 C 
BRANCH   5   6
ATOM      6  C   UNL     1       2.541  -7.879 -35.742  1.00  0.00     0.000 C 
BRANCH   6   7
ATOM      7  C   UNL     1       1.960  -8.141 -34.341  1.00  0.00     0.006 C 
BRANCH   7   8
ATOM      8  C   UNL     1       1.671  -9.629 -34.103  1.00  0.00     0.053 C 
BRANCH   8   9
ATOM      9  C   UNL     1       2.932 -10.429 -33.991  1.00  0.00     0.041 C 
ATOM     10  O   UNL     1       3.578 -10.449 -32.910  1.00  0.00    -0.550 OA
ATOM     11  O   UNL     1       3.380 -11.176 -35.073  1.00  0.00    -0.550 OA
ENDBRANCH   8   9
ENDBRANCH   7   8
ENDBRANCH   6   7
ENDBRANCH   5   6
ENDBRANCH   4   5
ENDBRANCH   3   4
ENDBRANCH   2   3
ENDBRANCH   1   2
BRANCH   1  12
ATOM     12  C   UNL     1       7.512  -5.984 -37.579  1.00  0.00     0.000 C 
BRANCH  12  13
ATOM     13  C   UNL     1       6.368  -5.038 -37.174  1.00  0.00    -0.000 C 
BRANCH  13  14
ATOM     14  C   UNL     1       6.769  -3.888 -36.230  1.00  0.00    -0.000 C 
BRANCH  14  15
ATOM     15  C   UNL     1       6.185  -4.043 -34.816  1.00  0.00    -0.000 C 
BRANCH  15  16
ATOM     16  C   UNL     1       7.269  -4.015 -33.725  1.00  0.00    -0.000 C 
BRANCH  16  17
ATOM     17  C   UNL     1       8.245  -5.200 -33.833  1.00  0.00    -0.000 C 
BRANCH  17  18
ATOM     18  C   UNL     1       8.318  -6.024 -32.539  1.00  0.00    -0.000 C 
BRANCH  18  19
ATOM     19  C   UNL     1       7.167  -5.713 -31.571  1.00  0.00    -0.003 C 
ATOM     20  C   UNL     1       6.396  -6.979 -31.211  1.00  0.00     0.004 C 
ENDBRANCH  18  19
ENDBRANCH  17  18
ENDBRANCH  16  17
ENDBRANCH  15  16
ENDBRANCH  14  15
ENDBRANCH  13  14
ENDBRANCH  12  13
ENDBRANCH   1  12
TORSDOF 16
ENDMDL
MODEL 2
REMARK VINA RESULT:    -4.049      3.807      7.154
REMARK INTER + INTRA:         -10.553
REMARK INTER:                  -8.631
REMARK INTRA:                  -1.922
REMARK UNBOUND:                -2.717
REMARK SMILES CCCCCCCCCCCCCCCCCC(=O)[O-]
REMARK SMILES IDX 10 1 11 2 12 3 13 4 14 5 15 6 16 7 17 8 18 9 19 10 20 11
REMARK SMILES IDX 9 12 8 13 7 14 6 15 5 16 4 17 3 18 2 19 1 20
REMARK H PARENT
REMARK Flexibility Score: inf
ROOT
ATOM      1  C   UNL     1       7.244  -5.953 -31.680  1.00  0.00     0.000 C 
ENDROOT
BRANCH   1   2
ATOM      2  C   UNL     1       8.036  -6.026 -32.994  1.00  0.00     0.000 C 
BRANCH   2   3
ATOM      3  C   UNL     1       8.195  -4.655 -33.669  1.00  0.00     0.000 C 
BRANCH   3   4
ATOM      4  C   UNL     1       7.271  -3.614 -33.022  1.00  0.00     0.000 C 
BRANCH   4   5
ATOM      5  C   UNL     1       6.188  -3.153 -34.009  1.00  0.00     0.000 C 
BRANCH   5   6
ATOM      6  C   UNL     1       6.492  -3.566 -35.458  1.00  0.00     0.000 C 
BRANCH   6   7
ATOM      7  C   UNL     1       6.967  -2.386 -36.324  1.00  0.00     0.006 C 
BRANCH   7   8
ATOM      8  C   UNL     1       8.317  -2.668 -36.996  1.00  0.00     0.053 C 
BRANCH   8   9
ATOM      9  C   UNL     1       9.447  -1.998 -36.277  1.00  0.00     0.041 C 
ATOM     10  O   UNL     1      10.520  -1.738 -36.882  1.00  0.00    -0.550 OA
ATOM     11  O   UNL     1       9.305  -1.636 -34.943  1.00  0.00    -0.550 OA
ENDBRANCH   8   9
ENDBRANCH   7   8
ENDBRANCH   6   7
ENDBRANCH   5   6
ENDBRANCH   4   5
ENDBRANCH   3   4
ENDBRANCH   2   3
ENDBRANCH   1   2
BRANCH   1  12
ATOM     12  C   UNL     1       6.014  -6.878 -31.679  1.00  0.00     0.000 C 
BRANCH  12  13
ATOM     13  C   UNL     1       5.274  -6.893 -33.029  1.00  0.00    -0.000 C 
BRANCH  13  14
ATOM     14  C   UNL     1       5.209  -8.264 -33.728  1.00  0.00    -0.000 C 
BRANCH  14  15
ATOM     15  C   UNL     1       5.410  -8.170 -35.251  1.00  0.00    -0.000 C 
BRANCH  15  16
ATOM     16  C   UNL     1       4.256  -8.813 -36.037  1.00  0.00    -0.000 C 
BRANCH  16  17
ATOM     17  C   UNL     1       2.975  -8.954 -35.196  1.00  0.00    -0.000 C 
BRANCH  17  18
ATOM     18  C   UNL     1       1.853  -8.016 -35.667  1.00  0.00    -0.000 C 
BRANCH  18  19
ATOM     19  C   UNL     1       0.877  -7.646 -34.541  1.00  0.00    -0.003 C 
ATOM     20  C   UNL     1       1.212  -8.398 -33.256  1.00  0.00     0.004 C 
ENDBRANCH  18  19
ENDBRANCH  17  18
ENDBRANCH  16  17
ENDBRANCH  15  16
ENDBRANCH  14  15
ENDBRANCH  13  14
ENDBRANCH  12  13
ENDBRANCH   1  12
TORSDOF 16
ENDMDL
MODEL 3
REMARK VINA RESULT:    -3.992     15.513     19.037
REMARK INTER + INTRA:         -10.442
REMARK INTER:                  -8.258
REMARK INTRA:                  -2.185
REMARK UNBOUND:                -2.717
REMARK SMILES CCCCCCCCCCCCCCCCCC(=O)[O-]
REMARK SMILES IDX 10 1 11 2 12 3 13 4 14 5 15 6 16 7 17 8 18 9 19 10 20 11
REMARK SMILES IDX 9 12 8 13 7 14 6 15 5 16 4 17 3 18 2 19 1 20
REMARK H PARENT
REMARK Flexibility Score: inf
ROOT
ATOM      1  C   UNL     1      18.080  -3.900 -18.213  1.00  0.00     0.000 C 
ENDROOT
BRANCH   1   2
ATOM      2  C   UNL     1      17.976  -2.371 -18.333  1.00  0.00     0.000 C 
BRANCH   2   3
ATOM      3  C   UNL     1      16.711  -1.919 -19.078  1.00  0.00     0.000 C 
BRANCH   3   4
ATOM      4  C   UNL     1      15.453  -2.201 -18.246  1.00  0.00     0.000 C 
BRANCH   4   5
ATOM      5  C   UNL     1      14.501  -3.146 -18.994  1.00  0.00     0.000 C 
BRANCH   5   6
ATOM      6  C   UNL     1      13.302  -2.411 -19.614  1.00  0.00     0.000 C 
BRANCH   6   7
ATOM      7  C   UNL     1      13.353  -2.386 -21.152  1.00  0.00     0.006 C 
BRANCH   7   8
ATOM      8  C   UNL     1      14.432  -3.322 -21.711  1.00  0.00     0.053 C 
BRANCH   8   9
ATOM      9  C   UNL     1      13.835  -4.527 -22.371  1.00  0.00     0.041 C 
ATOM     10  O   UNL     1      12.887  -5.148 -21.822  1.00  0.00    -0.550 OA
ATOM     11  O   UNL     1      14.307  -4.948 -23.608  1.00  0.00    -0.550 OA
ENDBRANCH   8   9
ENDBRANCH   7   8
ENDBRANCH   6   7
ENDBRANCH   5   6
ENDBRANCH   4   5
ENDBRANCH   3   4
ENDBRANCH   2   3
ENDBRANCH   1   2
BRANCH   1  12
ATOM     12  C   UNL     1      19.529  -4.404 -18.338  1.00  0.00     0.000 C 
BRANCH  12  13
ATOM     13  C   UNL     1      19.622  -5.934 -18.478  1.00  0.00    -0.000 C 
BRANCH  13  14
ATOM     14  C   UNL     1      20.725  -6.441 -19.427  1.00  0.00    -0.000 C 
BRANCH  14  15
ATOM     15  C   UNL     1      20.481  -6.047 -20.894  1.00  0.00    -0.000 C 
BRANCH  15  16
ATOM     16  C   UNL     1      19.985  -7.227 -21.746  1.00  0.00    -0.000 C 
BRANCH  16  17
ATOM     17  C   UNL     1      18.570  -7.685 -21.351  1.00  0.00    -0.000 C 
BRANCH  17  18
ATOM     18  C   UNL     1      17.470  -6.837 -22.006  1.00  0.00    -0.000 C 
BRANCH  18  19
ATOM     19  C   UNL     1      16.885  -5.784 -21.053  1.00  0.00    -0.003 C 
ATOM     20  C   UNL     1      16.012  -6.436 -19.985  1.00  0.00     0.004 C 
ENDBRANCH  18  19
ENDBRANCH  17  18
ENDBRANCH  16  17
ENDBRANCH  15  16
ENDBRANCH  14  15
ENDBRANCH  13  14
ENDBRANCH  12  13
ENDBRANCH   1  12
TORSDOF 16
ENDMDL
MODEL 4
REMARK VINA RESULT:    -3.974     14.880     17.794
REMARK INTER + INTRA:         -10.408
REMARK INTER:                  -9.210
REMARK INTRA:                  -1.199
REMARK UNBOUND:                -2.717
REMARK SMILES CCCCCCCCCCCCCCCCCC(=O)[O-]
REMARK SMILES IDX 10 1 11 2 12 3 13 4 14 5 15 6 16 7 17 8 18 9 19 10 20 11
REMARK SMILES IDX 9 12 8 13 7 14 6 15 5 16 4 17 3 18 2 19 1 20
REMARK H PARENT
REMARK Flexibility Score: inf
ROOT
ATOM      1  C   UNL     1      14.050  -4.760 -22.267  1.00  0.00     0.000 C 
ENDROOT
BRANCH   1   2
ATOM      2  C   UNL     1      14.162  -3.231 -22.365  1.00  0.00     0.000 C 
BRANCH   2   3
ATOM      3  C   UNL     1      15.017  -2.625 -21.242  1.00  0.00     0.000 C 
BRANCH   3   4
ATOM      4  C   UNL     1      14.723  -3.307 -19.899  1.00  0.00     0.000 C 
BRANCH   4   5
ATOM      5  C   UNL     1      14.347  -2.272 -18.827  1.00  0.00     0.000 C 
BRANCH   5   6
ATOM      6  C   UNL     1      12.862  -2.338 -18.435  1.00  0.00     0.000 C 
BRANCH   6   7
ATOM      7  C   UNL     1      11.924  -1.991 -19.605  1.00  0.00     0.006 C 
BRANCH   7   8
ATOM      8  C   UNL     1      10.530  -1.568 -19.124  1.00  0.00     0.053 C 
BRANCH   8   9
ATOM      9  C   UNL     1       9.444  -2.283 -19.866  1.00  0.00     0.041 C 
ATOM     10  O   UNL     1       8.667  -3.064 -19.257  1.00  0.00    -0.550 OA
ATOM     11  O   UNL     1       9.274  -2.066 -21.228  1.00  0.00    -0.550 OA
ENDBRANCH   8   9
ENDBRANCH   7   8
ENDBRANCH   6   7
ENDBRANCH   5   6
ENDBRANCH   4   5
ENDBRANCH   3   4
ENDBRANCH   2   3
ENDBRANCH   1   2
BRANCH   1  12
ATOM     12  C   UNL     1      14.469  -5.467 -23.569  1.00  0.00     0.000 C 
BRANCH  12  13
ATOM     13  C   UNL     1      15.817  -6.200 -23.446  1.00  0.00    -0.000 C 
BRANCH  13  14
ATOM     14  C   UNL     1      16.410  -6.251 -22.025  1.00  0.00    -0.000 C 
BRANCH  14  15
ATOM     15  C   UNL     1      17.046  -7.611 -21.691  1.00  0.00    -0.000 C 
BRANCH  15  16
ATOM     16  C   UNL     1      18.210  -7.487 -20.693  1.00  0.00    -0.000 C 
BRANCH  16  17
ATOM     17  C   UNL     1      18.225  -6.129 -19.970  1.00  0.00    -0.000 C 
BRANCH  17  18
ATOM     18  C   UNL     1      19.372  -6.012 -18.955  1.00  0.00    -0.000 C 
BRANCH  18  19
ATOM     19  C   UNL     1      20.718  -6.486 -19.524  1.00  0.00    -0.003 C 
ATOM     20  C   UNL     1      21.102  -5.685 -20.765  1.00  0.00     0.004 C 
ENDBRANCH  18  19
ENDBRANCH  17  18
ENDBRANCH  16  17
ENDBRANCH  15  16
ENDBRANCH  14  15
ENDBRANCH  13  14
ENDBRANCH  12  13
ENDBRANCH   1  12
TORSDOF 16
ENDMDL
MODEL 5
REMARK VINA RESULT:    -3.933      1.635      4.163
REMARK INTER + INTRA:         -10.328
REMARK INTER:                  -7.739
REMARK INTRA:                  -2.589
REMARK UNBOUND:                -2.717
REMARK SMILES CCCCCCCCCCCCCCCCCC(=O)[O-]
REMARK SMILES IDX 10 1 11 2 12 3 13 4 14 5 15 6 16 7 17 8 18 9 19 10 20 11
REMARK SMILES IDX 9 12 8 13 7 14 6 15 5 16 4 17 3 18 2 19 1 20
REMARK H PARENT
REMARK Flexibility Score: inf
ROOT
ATOM      1  C   UNL     1       7.297  -2.728 -34.095  1.00  0.00     0.000 C 
ENDROOT
BRANCH   1   2
ATOM      2  C   UNL     1       6.881  -4.143 -33.663  1.00  0.00     0.000 C 
BRANCH   2   3
ATOM      3  C   UNL     1       7.439  -4.533 -32.286  1.00  0.00     0.000 C 
BRANCH   3   4
ATOM      4  C   UNL     1       7.657  -6.050 -32.191  1.00  0.00     0.000 C 
BRANCH   4   5
ATOM      5  C   UNL     1       6.631  -6.693 -31.246  1.00  0.00     0.000 C 
BRANCH   5   6
ATOM      6  C   UNL     1       5.759  -7.747 -31.947  1.00  0.00     0.000 C 
BRANCH   6   7
ATOM      7  C   UNL     1       5.135  -7.227 -33.254  1.00  0.00     0.006 C 
BRANCH   7   8
ATOM      8  C   UNL     1       4.619  -8.366 -34.143  1.00  0.00     0.053 C 
BRANCH   8   9
ATOM      9  C   UNL     1       3.147  -8.250 -34.395  1.00  0.00     0.041 C 
ATOM     10  O   UNL     1       2.333  -8.298 -33.435  1.00  0.00    -0.550 OA
ATOM     11  O   UNL     1       2.675  -8.063 -35.688  1.00  0.00    -0.550 OA
ENDBRANCH   8   9
ENDBRANCH   7   8
ENDBRANCH   6   7
ENDBRANCH   5   6
ENDBRANCH   4   5
ENDBRANCH   3   4
ENDBRANCH   2   3
ENDBRANCH   1   2
BRANCH   1  12
ATOM     12  C   UNL     1       8.328  -2.739 -35.237  1.00  0.00     0.000 C 
BRANCH  12  13
ATOM     13  C   UNL     1       7.704  -2.432 -36.611  1.00  0.00    -0.000 C 
BRANCH  13  14
ATOM     14  C   UNL     1       6.165  -2.475 -36.658  1.00  0.00    -0.000 C 
BRANCH  14  15
ATOM     15  C   UNL     1       5.620  -2.936 -38.021  1.00  0.00    -0.000 C 
BRANCH  15  16
ATOM     16  C   UNL     1       4.742  -4.193 -37.909  1.00  0.00    -0.000 C 
BRANCH  16  17
ATOM     17  C   UNL     1       5.025  -4.997 -36.628  1.00  0.00    -0.000 C 
BRANCH  17  18
ATOM     18  C   UNL     1       5.789  -6.301 -36.906  1.00  0.00    -0.000 C 
BRANCH  18  19
ATOM     19  C   UNL     1       7.310  -6.140 -36.758  1.00  0.00    -0.003 C 
ATOM     20  C   UNL     1       7.874  -7.152 -35.765  1.00  0.00     0.004 C 
ENDBRANCH  18  19
ENDBRANCH  17  18
ENDBRANCH  16  17
ENDBRANCH  15  16
ENDBRANCH  14  15
ENDBRANCH  13  14
ENDBRANCH  12  13
ENDBRANCH   1  12
TORSDOF 16
ENDMDL
MODEL 6
REMARK VINA RESULT:    -3.928     15.277     18.876
REMARK INTER + INTRA:         -10.320
REMARK INTER:                  -8.498
REMARK INTRA:                  -1.821
REMARK UNBOUND:                -2.717
REMARK SMILES CCCCCCCCCCCCCCCCCC(=O)[O-]
REMARK SMILES IDX 10 1 11 2 12 3 13 4 14 5 15 6 16 7 17 8 18 9 19 10 20 11
REMARK SMILES IDX 9 12 8 13 7 14 6 15 5 16 4 17 3 18 2 19 1 20
REMARK H PARENT
REMARK Flexibility Score: inf
ROOT
ATOM      1  C   UNL     1      17.088  -4.839 -18.417  1.00  0.00     0.000 C 
ENDROOT
BRANCH   1   2
ATOM      2  C   UNL     1      18.303  -3.941 -18.136  1.00  0.00     0.000 C 
BRANCH   2   3
ATOM      3  C   UNL     1      19.619  -4.543 -18.651  1.00  0.00     0.000 C 
BRANCH   3   4
ATOM      4  C   UNL     1      19.398  -5.963 -19.191  1.00  0.00     0.000 C 
BRANCH   4   5
ATOM      5  C   UNL     1      20.475  -6.332 -20.222  1.00  0.00     0.000 C 
BRANCH   5   6
ATOM      6  C   UNL     1      19.880  -6.791 -21.562  1.00  0.00     0.000 C 
BRANCH   6   7
ATOM      7  C   UNL     1      19.174  -8.156 -21.461  1.00  0.00     0.006 C 
BRANCH   7   8
ATOM      8  C   UNL     1      19.587  -9.106 -22.592  1.00  0.00     0.053 C 
BRANCH   8   9
ATOM      9  C   UNL     1      18.405  -9.805 -23.191  1.00  0.00     0.041 C 
ATOM     10  O   UNL     1      18.570 -10.708 -24.052  1.00  0.00    -0.550 OA
ATOM     11  O   UNL     1      17.120  -9.477 -22.776  1.00  0.00    -0.550 OA
ENDBRANCH   8   9
ENDBRANCH   7   8
ENDBRANCH   6   7
ENDBRANCH   5   6
ENDBRANCH   4   5
ENDBRANCH   3   4
ENDBRANCH   2   3
ENDBRANCH   1   2
BRANCH   1  12
ATOM     12  C   UNL     1      15.752  -4.135 -18.118  1.00  0.00     0.000 C 
BRANCH  12  13
ATOM     13  C   UNL     1      15.746  -2.655 -18.541  1.00  0.00    -0.000 C 
BRANCH  13  14
ATOM     14  C   UNL     1      14.708  -2.283 -19.617  1.00  0.00    -0.000 C 
BRANCH  14  15
ATOM     15  C   UNL     1      15.126  -2.724 -21.030  1.00  0.00    -0.000 C 
BRANCH  15  16
ATOM     16  C   UNL     1      13.939  -3.240 -21.861  1.00  0.00    -0.000 C 
BRANCH  16  17
ATOM     17  C   UNL     1      14.093  -4.719 -22.256  1.00  0.00    -0.000 C 
BRANCH  17  18
ATOM     18  C   UNL     1      15.345  -5.366 -21.644  1.00  0.00    -0.000 C 
BRANCH  18  19
ATOM     19  C   UNL     1      16.209  -6.090 -22.688  1.00  0.00    -0.003 C 
ATOM     20  C   UNL     1      15.445  -6.283 -23.994  1.00  0.00     0.004 C 
ENDBRANCH  18  19
ENDBRANCH  17  18
ENDBRANCH  16  17
ENDBRANCH  15  16
ENDBRANCH  14  15
ENDBRANCH  13  14
ENDBRANCH  12  13
ENDBRANCH   1  12
TORSDOF 16
ENDMDL
MODEL 7
REMARK VINA RESULT:    -3.855      2.658      5.974
REMARK INTER + INTRA:         -10.179
REMARK INTER:                  -7.499
REMARK INTRA:                  -2.680
REMARK UNBOUND:                -2.717
REMARK SMILES CCCCCCCCCCCCCCCCCC(=O)[O-]
REMARK SMILES IDX 10 1 11 2 12 3 13 4 14 5 15 6 16 7 17 8 18 9 19 10 20 11
REMARK SMILES IDX 9 12 8 13 7 14 6 15 5 16 4 17 3 18 2 19 1 20
REMARK H PARENT
REMARK Flexibility Score: inf
ROOT
ATOM      1  C   UNL     1       6.512  -7.409 -34.902  1.00  0.00     0.000 C 
ENDROOT
BRANCH   1   2
ATOM      2  C   UNL     1       7.733  -7.113 -35.787  1.00  0.00     0.000 C 
BRANCH   2   3
ATOM      3  C   UNL     1       7.350  -6.788 -37.238  1.00  0.00     0.000 C 
BRANCH   3   4
ATOM      4  C   UNL     1       7.510  -5.288 -37.525  1.00  0.00     0.000 C 
BRANCH   4   5
ATOM      5  C   UNL     1       6.166  -4.557 -37.393  1.00  0.00     0.000 C 
BRANCH   5   6
ATOM      6  C   UNL     1       6.224  -3.384 -36.401  1.00  0.00     0.000 C 
BRANCH   6   7
ATOM      7  C   UNL     1       5.661  -3.750 -35.016  1.00  0.00     0.006 C 
BRANCH   7   8
ATOM      8  C   UNL     1       6.505  -3.167 -33.876  1.00  0.00     0.053 C 
BRANCH   8   9
ATOM      9  C   UNL     1       7.483  -4.168 -33.340  1.00  0.00     0.041 C 
ATOM     10  O   UNL     1       8.609  -4.310 -33.885  1.00  0.00    -0.550 OA
ATOM     11  O   UNL     1       7.160  -4.925 -32.221  1.00  0.00    -0.550 OA
ENDBRANCH   8   9
ENDBRANCH   7   8
ENDBRANCH   6   7
ENDBRANCH   5   6
ENDBRANCH   4   5
ENDBRANCH   3   4
ENDBRANCH   2   3
ENDBRANCH   1   2
BRANCH   1  12
ATOM     12  C   UNL     1       5.322  -7.963 -35.705  1.00  0.00     0.000 C 
BRANCH  12  13
ATOM     13  C   UNL     1       4.053  -7.104 -35.566  1.00  0.00    -0.000 C 
BRANCH  13  14
ATOM     14  C   UNL     1       3.192  -6.992 -36.839  1.00  0.00    -0.000 C 
BRANCH  14  15
ATOM     15  C   UNL     1       1.771  -7.551 -36.653  1.00  0.00    -0.000 C 
BRANCH  15  16
ATOM     16  C   UNL     1       1.341  -7.584 -35.177  1.00  0.00    -0.000 C 
BRANCH  16  17
ATOM     17  C   UNL     1       0.878  -8.981 -34.728  1.00  0.00    -0.000 C 
BRANCH  17  18
ATOM     18  C   UNL     1       1.551  -9.436 -33.424  1.00  0.00    -0.000 C 
BRANCH  18  19
ATOM     19  C   UNL     1       2.908 -10.115 -33.662  1.00  0.00    -0.003 C 
ATOM     20  C   UNL     1       2.914 -10.882 -34.981  1.00  0.00     0.004 C 
ENDBRANCH  18  19
ENDBRANCH  17  18
ENDBRANCH  16  17
ENDBRANCH  15  16
ENDBRANCH  14  15
ENDBRANCH  13  14
ENDBRANCH  12  13
ENDBRANCH   1  12
TORSDOF 16
ENDMDL
MODEL 8
REMARK VINA RESULT:    -3.851      9.809     13.425
REMARK INTER + INTRA:         -10.170
REMARK INTER:                  -8.676
REMARK INTRA:                  -1.495
REMARK UNBOUND:                -2.717
REMARK SMILES CCCCCCCCCCCCCCCCCC(=O)[O-]
REMARK SMILES IDX 10 1 11 2 12 3 13 4 14 5 15 6 16 7 17 8 18 9 19 10 20 11
REMARK SMILES IDX 9 12 8 13 7 14 6 15 5 16 4 17 3 18 2 19 1 20
REMARK H PARENT
REMARK Flexibility Score: inf
ROOT
ATOM      1  C   UNL     1       5.848 -12.976 -23.740  1.00  0.00     0.000 C 
ENDROOT
BRANCH   1   2
ATOM      2  C   UNL     1       6.306 -12.887 -25.204  1.00  0.00     0.000 C 
BRANCH   2   3
ATOM      3  C   UNL     1       7.835 -12.833 -25.346  1.00  0.00     0.000 C 
BRANCH   3   4
ATOM      4  C   UNL     1       8.322 -11.386 -25.496  1.00  0.00     0.000 C 
BRANCH   4   5
ATOM      5  C   UNL     1       9.769 -11.239 -25.002  1.00  0.00     0.000 C 
BRANCH   5   6
ATOM      6  C   UNL     1      10.722 -10.734 -26.097  1.00  0.00     0.000 C 
BRANCH   6   7
ATOM      7  C   UNL     1      10.807 -11.694 -27.297  1.00  0.00     0.006 C 
BRANCH   7   8
ATOM      8  C   UNL     1      11.384 -11.012 -28.544  1.00  0.00     0.053 C 
BRANCH   8   9
ATOM      9  C   UNL     1      11.442 -11.947 -29.713  1.00  0.00     0.041 C 
ATOM     10  O   UNL     1      12.330 -11.807 -30.595  1.00  0.00    -0.550 OA
ATOM     11  O   UNL     1      10.530 -12.990 -29.814  1.00  0.00    -0.550 OA
ENDBRANCH   8   9
ENDBRANCH   7   8
ENDBRANCH   6   7
ENDBRANCH   5   6
ENDBRANCH   4   5
ENDBRANCH   3   4
ENDBRANCH   2   3
ENDBRANCH   1   2
BRANCH   1  12
ATOM     12  C   UNL     1       6.978 -13.420 -22.794  1.00  0.00     0.000 C 
BRANCH  12  13
ATOM     13  C   UNL     1       6.517 -14.458 -21.755  1.00  0.00    -0.000 C 
BRANCH  13  14
ATOM     14  C   UNL     1       5.169 -14.151 -21.073  1.00  0.00    -0.000 C 
BRANCH  14  15
ATOM     15  C   UNL     1       5.228 -12.913 -20.161  1.00  0.00    -0.000 C 
BRANCH  15  16
ATOM     16  C   UNL     1       4.374 -11.750 -20.693  1.00  0.00    -0.000 C 
BRANCH  16  17
ATOM     17  C   UNL     1       2.893 -12.132 -20.854  1.00  0.00    -0.000 C 
BRANCH  17  18
ATOM     18  C   UNL     1       2.400 -11.986 -22.302  1.00  0.00    -0.000 C 
BRANCH  18  19
ATOM     19  C   UNL     1       2.112 -13.339 -22.970  1.00  0.00    -0.003 C 
ATOM     20  C   UNL     1       2.204 -13.232 -24.489  1.00  0.00     0.004 C 
ENDBRANCH  18  19
ENDBRANCH  17  18
ENDBRANCH  16  17
ENDBRANCH  15  16
ENDBRANCH  14  15
ENDBRANCH  13  14
ENDBRANCH  12  13
ENDBRANCH   1  12
TORSDOF 16
ENDMDL
MODEL 9
REMARK VINA RESULT:    -3.818      1.807      5.435
REMARK INTER + INTRA:         -10.107
REMARK INTER:                  -8.069
REMARK INTRA:                  -2.039
REMARK UNBOUND:                -2.717
REMARK SMILES CCCCCCCCCCCCCCCCCC(=O)[O-]
REMARK SMILES IDX 10 1 11 2 12 3 13 4 14 5 15 6 16 7 17 8 18 9 19 10 20 11
REMARK SMILES IDX 9 12 8 13 7 14 6 15 5 16 4 17 3 18 2 19 1 20
REMARK H PARENT
REMARK Flexibility Score: inf
ROOT
ATOM      1  C   UNL     1       7.370  -6.699 -36.468  1.00  0.00     0.000 C 
ENDROOT
BRANCH   1   2
ATOM      2  C   UNL     1       6.634  -5.630 -37.291  1.00  0.00     0.000 C 
BRANCH   2   3
ATOM      3  C   UNL     1       6.500  -4.294 -36.544  1.00  0.00     0.000 C 
BRANCH   3   4
ATOM      4  C   UNL     1       5.838  -4.494 -35.174  1.00  0.00     0.000 C 
BRANCH   4   5
ATOM      5  C   UNL     1       6.562  -3.681 -34.090  1.00  0.00     0.000 C 
BRANCH   5   6
ATOM      6  C   UNL     1       8.006  -4.153 -33.860  1.00  0.00     0.000 C 
BRANCH   6   7
ATOM      7  C   UNL     1       8.078  -5.505 -33.127  1.00  0.00     0.006 C 
BRANCH   7   8
ATOM      8  C   UNL     1       7.241  -5.511 -31.841  1.00  0.00     0.053 C 
BRANCH   8   9
ATOM      9  C   UNL     1       6.319  -6.690 -31.784  1.00  0.00     0.041 C 
ATOM     10  O   UNL     1       6.477  -7.578 -30.905  1.00  0.00    -0.550 OA
ATOM     11  O   UNL     1       5.267  -6.795 -32.685  1.00  0.00    -0.550 OA
ENDBRANCH   8   9
ENDBRANCH   7   8
ENDBRANCH   6   7
ENDBRANCH   5   6
ENDBRANCH   4   5
ENDBRANCH   3   4
ENDBRANCH   2   3
ENDBRANCH   1   2
BRANCH   1  12
ATOM     12  C   UNL     1       6.549  -7.990 -36.309  1.00  0.00     0.000 C 
BRANCH  12  13
ATOM     13  C   UNL     1       5.764  -8.362 -37.579  1.00  0.00    -0.000 C 
BRANCH  13  14
ATOM     14  C   UNL     1       4.284  -8.725 -37.355  1.00  0.00    -0.000 C 
BRANCH  14  15
ATOM     15  C   UNL     1       3.340  -7.521 -37.521  1.00  0.00    -0.000 C 
BRANCH  15  16
ATOM     16  C   UNL     1       3.026  -6.832 -36.183  1.00  0.00    -0.000 C 
BRANCH  16  17
ATOM     17  C   UNL     1       1.534  -6.907 -35.816  1.00  0.00    -0.000 C 
BRANCH  17  18
ATOM     18  C   UNL     1       1.121  -8.295 -35.304  1.00  0.00    -0.000 C 
BRANCH  18  19
ATOM     19  C   UNL     1       0.971  -8.343 -33.776  1.00  0.00    -0.003 C 
ATOM     20  C   UNL     1       1.567  -9.627 -33.206  1.00  0.00     0.004 C 
ENDBRANCH  18  19
ENDBRANCH  17  18
ENDBRANCH  16  17
ENDBRANCH  15  16
ENDBRANCH  14  15
ENDBRANCH  13  14
ENDBRANCH  12  13
ENDBRANCH   1  12
TORSDOF 16
ENDMDL
