MODEL 1
REMARK VINA RESULT:    -4.368      0.000      0.000
REMARK INTER + INTRA:          -4.644
REMARK INTER:                  -5.390
REMARK INTRA:                   0.746
REMARK UNBOUND:                 0.746
REMARK SMILES CC1=CC=CC(C)(C)CC1=O
REMARK SMILES IDX 1 1 2 2 3 3 10 4 11 5 9 6 4 8 5 9 6 10 7 11 8 12
REMARK H PARENT
REMARK Flexibility Score: 80.00
ROOT
ATOM      1  C   UNL     1     -14.906 -36.389  39.769  1.00  0.00     0.048 C 
ATOM      2  C   UNL     1     -13.792 -36.276  38.755  1.00  0.00    -0.008 C 
ATOM      3  C   UNL     1     -14.104 -35.791  37.535  1.00  0.00     0.007 C 
ENDROOT
BRANCH   2   4
ATOM      4  C   UNL     1     -12.457 -36.782  39.161  1.00  0.00     0.159 C 
ATOM      5  O   UNL     1     -12.358 -37.459  40.221  1.00  0.00    -0.295 OA
BRANCH   4   6
ATOM      6  C   UNL     1     -11.203 -36.518  38.385  1.00  0.00     0.091 CG0
ATOM      7  G   UNL     1     -11.255 -37.064  36.941  1.00  0.00     0.000 G0
ENDBRANCH   4   6
ENDBRANCH   2   4
BRANCH   3   8
ATOM      8  C   UNL     1     -13.245 -35.591  36.344  1.00  0.00    -0.003 C 
ATOM      9  C   UNL     1     -12.048 -36.123  36.066  1.00  0.00    -0.020 C 
BRANCH   9  10
ATOM     10  C   UNL     1     -11.258 -37.062  36.947  1.00  0.00    -0.010 CG0
ATOM     11  C   UNL     1     -11.847 -38.489  36.860  1.00  0.00     0.016 C 
ATOM     12  C   UNL     1      -9.806 -37.114  36.420  1.00  0.00     0.016 C 
ATOM     13  G   UNL     1     -11.226 -36.517  38.392  1.00  0.00     0.000 G0
ENDBRANCH   9  10
ENDBRANCH   3   8
TORSDOF 0
ENDMDL
MODEL 2
REMARK VINA RESULT:    -4.279      2.473      3.405
REMARK INTER + INTRA:          -4.533
REMARK INTER:                  -5.285
REMARK INTRA:                   0.751
REMARK UNBOUND:                 0.746
REMARK SMILES CC1=CC=CC(C)(C)CC1=O
REMARK SMILES IDX 1 1 2 2 3 3 10 4 11 5 9 6 4 8 5 9 6 10 7 11 8 12
REMARK H PARENT
REMARK Flexibility Score: 80.00
ROOT
ATOM      1  C   UNL     1     -13.244 -41.179  41.318  1.00  0.00     0.048 C 
ATOM      2  C   UNL     1     -13.187 -40.051  40.314  1.00  0.00    -0.008 C 
ATOM      3  C   UNL     1     -13.126 -40.380  39.006  1.00  0.00     0.007 C 
ENDROOT
BRANCH   2   4
ATOM      4  C   UNL     1     -13.127 -38.669  40.854  1.00  0.00     0.159 C 
ATOM      5  O   UNL     1     -12.936 -38.507  42.091  1.00  0.00    -0.295 OA
BRANCH   4   6
ATOM      6  C   UNL     1     -13.297 -37.444  40.009  1.00  0.00     0.091 CG0
ATOM      7  G   UNL     1     -12.267 -37.348  38.862  1.00  0.00     0.000 G0
ENDBRANCH   4   6
ENDBRANCH   2   4
BRANCH   3   8
ATOM      8  C   UNL     1     -13.036 -39.509  37.810  1.00  0.00    -0.003 C 
ATOM      9  C   UNL     1     -12.663 -38.226  37.726  1.00  0.00    -0.020 C 
BRANCH   9  10
ATOM     10  C   UNL     1     -12.259 -37.332  38.874  1.00  0.00    -0.010 CG0
ATOM     11  C   UNL     1     -10.822 -37.672  39.329  1.00  0.00     0.016 C 
ATOM     12  C   UNL     1     -12.266 -35.869  38.374  1.00  0.00     0.016 C 
ATOM     13  G   UNL     1     -13.291 -37.455  40.017  1.00  0.00     0.000 G0
ENDBRANCH   9  10
ENDBRANCH   3   8
TORSDOF 0
ENDMDL
MODEL 3
REMARK VINA RESULT:    -4.245      3.599      5.185
REMARK INTER + INTRA:          -4.491
REMARK INTER:                  -5.250
REMARK INTRA:                   0.759
REMARK UNBOUND:                 0.746
REMARK SMILES CC1=CC=CC(C)(C)CC1=O
REMARK SMILES IDX 1 1 2 2 3 3 10 4 11 5 9 6 4 8 5 9 6 10 7 11 8 12
REMARK H PARENT
REMARK Flexibility Score: 80.00
ROOT
ATOM      1  C   UNL     1     -13.478 -40.941  37.540  1.00  0.00     0.048 C 
ATOM      2  C   UNL     1     -13.004 -40.625  38.940  1.00  0.00    -0.008 C 
ATOM      3  C   UNL     1     -13.492 -41.377  39.950  1.00  0.00     0.007 C 
ENDROOT
BRANCH   2   4
ATOM      4  C   UNL     1     -12.096 -39.462  39.098  1.00  0.00     0.159 C 
ATOM      5  O   UNL     1     -11.932 -38.680  38.122  1.00  0.00    -0.295 OA
BRANCH   4   6
ATOM      6  C   UNL     1     -11.344 -39.167  40.360  1.00  0.00     0.091 CG0
ATOM      7  G   UNL     1     -12.264 -38.938  41.578  1.00  0.00     0.000 G0
ENDBRANCH   4   6
ENDBRANCH   2   4
BRANCH   3   8
ATOM      8  C   UNL     1     -13.238 -41.290  41.407  1.00  0.00    -0.003 C 
ATOM      9  C   UNL     1     -12.734 -40.274  42.118  1.00  0.00    -0.020 C 
BRANCH   9  10
ATOM     10  C   UNL     1     -12.266 -38.944  41.574  1.00  0.00    -0.010 CG0
ATOM     11  C   UNL     1     -13.483 -38.050  41.245  1.00  0.00     0.016 C 
ATOM     12  C   UNL     1     -11.438 -38.236  42.672  1.00  0.00     0.016 C 
ATOM     13  G   UNL     1     -11.349 -39.175  40.353  1.00  0.00     0.000 G0
ENDBRANCH   9  10
ENDBRANCH   3   8
TORSDOF 0
ENDMDL
MODEL 4
REMARK VINA RESULT:    -4.209      1.655      2.215
REMARK INTER + INTRA:          -4.447
REMARK INTER:                  -5.202
REMARK INTRA:                   0.754
REMARK UNBOUND:                 0.746
REMARK SMILES CC1=CC=CC(C)(C)CC1=O
REMARK SMILES IDX 1 1 2 2 3 3 10 4 11 5 9 6 4 8 5 9 6 10 7 11 8 12
REMARK H PARENT
REMARK Flexibility Score: 80.00
ROOT
ATOM      1  C   UNL     1     -14.627 -34.495  39.118  1.00  0.00     0.048 C 
ATOM      2  C   UNL     1     -13.801 -35.487  38.333  1.00  0.00    -0.008 C 
ATOM      3  C   UNL     1     -14.096 -36.797  38.472  1.00  0.00     0.007 C 
ENDROOT
BRANCH   2   4
ATOM      4  C   UNL     1     -12.678 -34.943  37.529  1.00  0.00     0.159 C 
ATOM      5  O   UNL     1     -12.337 -33.739  37.695  1.00  0.00    -0.295 OA
BRANCH   4   6
ATOM      6  C   UNL     1     -11.928 -35.744  36.509  1.00  0.00     0.091 CG0
ATOM      7  G   UNL     1     -11.250 -36.999  37.100  1.00  0.00     0.000 G0
ENDBRANCH   4   6
ENDBRANCH   2   4
BRANCH   3   8
ATOM      8  C   UNL     1     -13.456 -37.986  37.862  1.00  0.00    -0.003 C 
ATOM      9  C   UNL     1     -12.250 -38.096  37.290  1.00  0.00    -0.020 C 
BRANCH   9  10
ATOM     10  C   UNL     1     -11.241 -36.987  37.104  1.00  0.00    -0.010 CG0
ATOM     11  C   UNL     1     -10.526 -36.695  38.443  1.00  0.00     0.016 C 
ATOM     12  C   UNL     1     -10.177 -37.466  36.090  1.00  0.00     0.016 C 
ATOM     13  G   UNL     1     -11.939 -35.741  36.517  1.00  0.00     0.000 G0
ENDBRANCH   9  10
ENDBRANCH   3   8
TORSDOF 0
ENDMDL
MODEL 5
REMARK VINA RESULT:    -4.199      3.994      5.251
REMARK INTER + INTRA:          -4.435
REMARK INTER:                  -5.185
REMARK INTRA:                   0.750
REMARK UNBOUND:                 0.746
REMARK SMILES CC1=CC=CC(C)(C)CC1=O
REMARK SMILES IDX 1 1 2 2 3 3 10 4 11 5 9 6 4 8 5 9 6 10 7 11 8 12
REMARK H PARENT
REMARK Flexibility Score: 80.00
ROOT
ATOM      1  C   UNL     1     -12.766 -42.097  38.484  1.00  0.00     0.048 C 
ATOM      2  C   UNL     1     -12.736 -40.975  39.496  1.00  0.00    -0.008 C 
ATOM      3  C   UNL     1     -13.204 -39.770  39.108  1.00  0.00     0.007 C 
ENDROOT
BRANCH   2   4
ATOM      4  C   UNL     1     -12.122 -41.272  40.814  1.00  0.00     0.159 C 
ATOM      5  O   UNL     1     -11.493 -42.356  40.963  1.00  0.00    -0.295 OA
BRANCH   4   6
ATOM      6  C   UNL     1     -12.221 -40.357  41.996  1.00  0.00     0.091 CG0
ATOM      7  G   UNL     1     -11.621 -38.959  41.735  1.00  0.00     0.000 G0
ENDBRANCH   4   6
ENDBRANCH   2   4
BRANCH   3   8
ATOM      8  C   UNL     1     -13.278 -38.493  39.856  1.00  0.00    -0.003 C 
ATOM      9  C   UNL     1     -12.618 -38.121  40.960  1.00  0.00    -0.020 C 
BRANCH   9  10
ATOM     10  C   UNL     1     -11.630 -38.958  41.739  1.00  0.00    -0.010 CG0
ATOM     11  C   UNL     1     -10.273 -38.996  41.000  1.00  0.00     0.016 C 
ATOM     12  C   UNL     1     -11.406 -38.287  43.114  1.00  0.00     0.016 C 
ATOM     13  G   UNL     1     -12.217 -40.366  41.981  1.00  0.00     0.000 G0
ENDBRANCH   9  10
ENDBRANCH   3   8
TORSDOF 0
ENDMDL
MODEL 6
REMARK VINA RESULT:    -4.148      2.322      3.556
REMARK INTER + INTRA:          -4.371
REMARK INTER:                  -5.138
REMARK INTRA:                   0.767
REMARK UNBOUND:                 0.746
REMARK SMILES CC1=CC=CC(C)(C)CC1=O
REMARK SMILES IDX 1 1 2 2 3 3 10 4 11 5 9 6 4 8 5 9 6 10 7 11 8 12
REMARK H PARENT
REMARK Flexibility Score: 80.00
ROOT
ATOM      1  C   UNL     1     -13.866 -35.991  36.827  1.00  0.00     0.048 C 
ATOM      2  C   UNL     1     -13.561 -36.931  37.971  1.00  0.00    -0.008 C 
ATOM      3  C   UNL     1     -14.034 -36.604  39.192  1.00  0.00     0.007 C 
ENDROOT
BRANCH   2   4
ATOM      4  C   UNL     1     -12.697 -38.101  37.671  1.00  0.00     0.159 C 
ATOM      5  O   UNL     1     -12.101 -38.149  36.560  1.00  0.00    -0.295 OA
BRANCH   4   6
ATOM      6  C   UNL     1     -12.503 -39.248  38.615  1.00  0.00     0.091 CG0
ATOM      7  G   UNL     1     -11.906 -38.822  39.974  1.00  0.00     0.000 G0
ENDBRANCH   4   6
ENDBRANCH   2   4
BRANCH   3   8
ATOM      8  C   UNL     1     -13.878 -37.303  40.490  1.00  0.00    -0.003 C 
ATOM      9  C   UNL     1     -12.980 -38.230  40.848  1.00  0.00    -0.020 C 
BRANCH   9  10
ATOM     10  C   UNL     1     -11.900 -38.818  39.971  1.00  0.00    -0.010 CG0
ATOM     11  C   UNL     1     -10.742 -37.806  39.810  1.00  0.00     0.016 C 
ATOM     12  C   UNL     1     -11.338 -40.076  40.672  1.00  0.00     0.016 C 
ATOM     13  G   UNL     1     -12.505 -39.251  38.618  1.00  0.00     0.000 G0
ENDBRANCH   9  10
ENDBRANCH   3   8
TORSDOF 0
ENDMDL
MODEL 7
REMARK VINA RESULT:    -4.067      1.801      3.237
REMARK INTER + INTRA:          -4.272
REMARK INTER:                  -5.021
REMARK INTRA:                   0.749
REMARK UNBOUND:                 0.746
REMARK SMILES CC1=CC=CC(C)(C)CC1=O
REMARK SMILES IDX 1 1 2 2 3 3 10 4 11 5 9 6 4 8 5 9 6 10 7 11 8 12
REMARK H PARENT
REMARK Flexibility Score: 80.00
ROOT
ATOM      1  C   UNL     1      -9.281 -38.070  40.433  1.00  0.00     0.048 C 
ATOM      2  C   UNL     1     -10.537 -37.502  39.815  1.00  0.00    -0.008 C 
ATOM      3  C   UNL     1     -11.718 -37.835  40.379  1.00  0.00     0.007 C 
ENDROOT
BRANCH   2   4
ATOM      4  C   UNL     1     -10.374 -36.681  38.589  1.00  0.00     0.159 C 
ATOM      5  O   UNL     1      -9.254 -36.669  38.009  1.00  0.00    -0.295 OA
BRANCH   4   6
ATOM      6  C   UNL     1     -11.471 -35.847  38.002  1.00  0.00     0.091 CG0
ATOM      7  G   UNL     1     -12.710 -36.671  37.592  1.00  0.00     0.000 G0
ENDBRANCH   4   6
ENDBRANCH   2   4
BRANCH   3   8
ATOM      8  C   UNL     1     -13.097 -37.461  39.988  1.00  0.00    -0.003 C 
ATOM      9  C   UNL     1     -13.543 -36.983  38.819  1.00  0.00    -0.020 C 
BRANCH   9  10
ATOM     10  C   UNL     1     -12.709 -36.679  37.597  1.00  0.00    -0.010 CG0
ATOM     11  C   UNL     1     -12.346 -37.992  36.866  1.00  0.00     0.016 C 
ATOM     12  C   UNL     1     -13.557 -35.816  36.634  1.00  0.00     0.016 C 
ATOM     13  G   UNL     1     -11.465 -35.861  38.006  1.00  0.00     0.000 G0
ENDBRANCH   9  10
ENDBRANCH   3   8
TORSDOF 0
ENDMDL
MODEL 8
REMARK VINA RESULT:    -4.011      2.167      2.790
REMARK INTER + INTRA:          -4.202
REMARK INTER:                  -4.945
REMARK INTRA:                   0.743
REMARK UNBOUND:                 0.746
REMARK SMILES CC1=CC=CC(C)(C)CC1=O
REMARK SMILES IDX 1 1 2 2 3 3 10 4 11 5 9 6 4 8 5 9 6 10 7 11 8 12
REMARK H PARENT
REMARK Flexibility Score: 80.00
ROOT
ATOM      1  C   UNL     1     -13.036 -38.983  42.467  1.00  0.00     0.048 C 
ATOM      2  C   UNL     1     -12.921 -38.453  41.057  1.00  0.00    -0.008 C 
ATOM      3  C   UNL     1     -13.872 -37.595  40.631  1.00  0.00     0.007 C 
ENDROOT
BRANCH   2   4
ATOM      4  C   UNL     1     -11.810 -38.981  40.226  1.00  0.00     0.159 C 
ATOM      5  O   UNL     1     -11.147 -39.967  40.651  1.00  0.00    -0.295 OA
BRANCH   4   6
ATOM      6  C   UNL     1     -11.415 -38.395  38.905  1.00  0.00     0.091 CG0
ATOM      7  G   UNL     1     -12.557 -38.414  37.865  1.00  0.00     0.000 G0
ENDBRANCH   4   6
ENDBRANCH   2   4
BRANCH   3   8
ATOM      8  C   UNL     1     -14.040 -36.938  39.314  1.00  0.00    -0.003 C 
ATOM      9  C   UNL     1     -13.504 -37.268  38.131  1.00  0.00    -0.020 C 
BRANCH   9  10
ATOM     10  C   UNL     1     -12.552 -38.410  37.865  1.00  0.00    -0.010 CG0
ATOM     11  C   UNL     1     -13.328 -39.746  37.824  1.00  0.00     0.016 C 
ATOM     12  C   UNL     1     -11.908 -38.190  36.477  1.00  0.00     0.016 C 
ATOM     13  G   UNL     1     -11.427 -38.406  38.923  1.00  0.00     0.000 G0
ENDBRANCH   9  10
ENDBRANCH   3   8
TORSDOF 0
ENDMDL
MODEL 9
REMARK VINA RESULT:    -3.951      2.531      3.738
REMARK INTER + INTRA:          -4.129
REMARK INTER:                  -4.883
REMARK INTRA:                   0.754
REMARK UNBOUND:                 0.746
REMARK SMILES CC1=CC=CC(C)(C)CC1=O
REMARK SMILES IDX 1 1 2 2 3 3 10 4 11 5 9 6 4 8 5 9 6 10 7 11 8 12
REMARK H PARENT
REMARK Flexibility Score: 80.00
ROOT
ATOM      1  C   UNL     1     -13.503 -41.260  40.099  1.00  0.00     0.048 C 
ATOM      2  C   UNL     1     -12.509 -40.179  39.744  1.00  0.00    -0.008 C 
ATOM      3  C   UNL     1     -11.594 -39.838  40.677  1.00  0.00     0.007 C 
ENDROOT
BRANCH   2   4
ATOM      4  C   UNL     1     -12.668 -39.524  38.421  1.00  0.00     0.159 C 
ATOM      5  O   UNL     1     -13.718 -39.741  37.756  1.00  0.00    -0.295 OA
BRANCH   4   6
ATOM      6  C   UNL     1     -11.635 -38.623  37.816  1.00  0.00     0.091 CG0
ATOM      7  G   UNL     1     -11.333 -37.379  38.679  1.00  0.00     0.000 G0
ENDBRANCH   4   6
ENDBRANCH   2   4
BRANCH   3   8
ATOM      8  C   UNL     1     -10.525 -38.813  40.631  1.00  0.00    -0.003 C 
ATOM      9  C   UNL     1     -10.396 -37.764  39.808  1.00  0.00    -0.020 C 
BRANCH   9  10
ATOM     10  C   UNL     1     -11.328 -37.388  38.681  1.00  0.00    -0.010 CG0
ATOM     11  C   UNL     1     -12.602 -36.720  39.250  1.00  0.00     0.016 C 
ATOM     12  C   UNL     1     -10.610 -36.354  37.783  1.00  0.00     0.016 C 
ATOM     13  G   UNL     1     -11.641 -38.634  37.825  1.00  0.00     0.000 G0
ENDBRANCH   9  10
ENDBRANCH   3   8
TORSDOF 0
ENDMDL
