MODEL 1
REMARK VINA RESULT:    -5.435      0.000      0.000
REMARK INTER + INTRA:          -6.115
REMARK INTER:                  -6.071
REMARK INTRA:                  -0.044
REMARK UNBOUND:                -0.044
REMARK SMILES O=C([O-])c1ccc(O)c(O)c1
REMARK SMILES IDX 4 1 11 2 5 3 9 4 6 5 7 6 2 7 1 8 3 9 10 10 8 12
REMARK H PARENT 10 11 8 13
REMARK Flexibility Score: inf
ROOT
ATOM      1  C   UNL     1     -33.305  11.224 -37.547  1.00  0.00     0.001 A 
ATOM      2  C   UNL     1     -32.684  10.079 -37.014  1.00  0.00     0.060 A 
ATOM      3  C   UNL     1     -33.602  12.299 -36.691  1.00  0.00     0.014 A 
ATOM      4  C   UNL     1     -32.365  10.011 -35.650  1.00  0.00     0.158 A 
ATOM      5  C   UNL     1     -33.283  12.231 -35.332  1.00  0.00     0.051 A 
ATOM      6  C   UNL     1     -32.666  11.088 -34.808  1.00  0.00     0.157 A 
ENDROOT
BRANCH   1   7
ATOM      7  C   UNL     1     -33.643  11.298 -38.985  1.00  0.00     0.072 C 
ATOM      8  O   UNL     1     -33.272  10.393 -39.779  1.00  0.00    -0.545 OA
ATOM      9  O   UNL     1     -34.375  12.371 -39.481  1.00  0.00    -0.545 OA
ENDBRANCH   1   7
BRANCH   4  10
ATOM     10  O   UNL     1     -31.750   8.875 -35.125  1.00  0.00    -0.504 OA
ATOM     11  H   UNL     1     -32.171   8.345 -34.371  1.00  0.00     0.293 HD
ENDBRANCH   4  10
BRANCH   6  12
ATOM     12  O   UNL     1     -32.347  11.017 -33.453  1.00  0.00    -0.504 OA
ATOM     13  H   UNL     1     -32.870  11.536 -32.758  1.00  0.00     0.293 HD
ENDBRANCH   6  12
TORSDOF 3
ENDMDL
MODEL 2
REMARK VINA RESULT:    -5.347      1.112      4.626
REMARK INTER + INTRA:          -6.016
REMARK INTER:                  -5.972
REMARK INTRA:                  -0.044
REMARK UNBOUND:                -0.044
REMARK SMILES O=C([O-])c1ccc(O)c(O)c1
REMARK SMILES IDX 4 1 11 2 5 3 9 4 6 5 7 6 2 7 1 8 3 9 10 10 8 12
REMARK H PARENT 10 11 8 13
REMARK Flexibility Score: inf
ROOT
ATOM      1  C   UNL     1     -33.003  11.539 -36.164  1.00  0.00     0.001 A 
ATOM      2  C   UNL     1     -33.669  12.317 -37.129  1.00  0.00     0.060 A 
ATOM      3  C   UNL     1     -32.313  10.386 -36.577  1.00  0.00     0.014 A 
ATOM      4  C   UNL     1     -33.646  11.950 -38.481  1.00  0.00     0.158 A 
ATOM      5  C   UNL     1     -32.289  10.020 -37.926  1.00  0.00     0.051 A 
ATOM      6  C   UNL     1     -32.955  10.799 -38.880  1.00  0.00     0.157 A 
ENDROOT
BRANCH   1   7
ATOM      7  C   UNL     1     -33.026  11.924 -34.736  1.00  0.00     0.072 C 
ATOM      8  O   UNL     1     -33.811  12.820 -34.326  1.00  0.00    -0.545 OA
ATOM      9  O   UNL     1     -32.180  11.302 -33.825  1.00  0.00    -0.545 OA
ENDBRANCH   1   7
BRANCH   4  10
ATOM     10  O   UNL     1     -34.307  12.723 -39.434  1.00  0.00    -0.504 OA
ATOM     11  H   UNL     1     -34.351  12.442 -40.407  1.00  0.00     0.293 HD
ENDBRANCH   4  10
BRANCH   6  12
ATOM     12  O   UNL     1     -32.933  10.437 -40.226  1.00  0.00    -0.504 OA
ATOM     13  H   UNL     1     -33.674   9.880 -40.637  1.00  0.00     0.293 HD
ENDBRANCH   6  12
TORSDOF 3
ENDMDL
MODEL 3
REMARK VINA RESULT:    -5.245      2.134      4.610
REMARK INTER + INTRA:          -5.903
REMARK INTER:                  -5.867
REMARK INTRA:                  -0.036
REMARK UNBOUND:                -0.044
REMARK SMILES O=C([O-])c1ccc(O)c(O)c1
REMARK SMILES IDX 4 1 11 2 5 3 9 4 6 5 7 6 2 7 1 8 3 9 10 10 8 12
REMARK H PARENT 10 11 8 13
REMARK Flexibility Score: inf
ROOT
ATOM      1  C   UNL     1     -32.515  12.211 -33.700  1.00  0.00     0.001 A 
ATOM      2  C   UNL     1     -31.942  10.942 -33.907  1.00  0.00     0.060 A 
ATOM      3  C   UNL     1     -33.520  12.656 -34.576  1.00  0.00     0.014 A 
ATOM      4  C   UNL     1     -32.366  10.134 -34.970  1.00  0.00     0.158 A 
ATOM      5  C   UNL     1     -33.943  11.849 -35.636  1.00  0.00     0.051 A 
ATOM      6  C   UNL     1     -33.369  10.588 -35.837  1.00  0.00     0.157 A 
ENDROOT
BRANCH   1   7
ATOM      7  C   UNL     1     -32.069  13.067 -32.579  1.00  0.00     0.072 C 
ATOM      8  O   UNL     1     -31.247  14.002 -32.773  1.00  0.00    -0.545 OA
ATOM      9  O   UNL     1     -32.551  12.851 -31.293  1.00  0.00    -0.545 OA
ENDBRANCH   1   7
BRANCH   4  10
ATOM     10  O   UNL     1     -31.797   8.877 -35.173  1.00  0.00    -0.504 OA
ATOM     11  H   UNL     1     -31.548   8.551 -36.099  1.00  0.00     0.293 HD
ENDBRANCH   4  10
BRANCH   6  12
ATOM     12  O   UNL     1     -33.788   9.781 -36.893  1.00  0.00    -0.504 OA
ATOM     13  H   UNL     1     -34.713   9.874 -37.295  1.00  0.00     0.293 HD
ENDBRANCH   6  12
TORSDOF 3
ENDMDL
MODEL 4
REMARK VINA RESULT:    -5.124      0.817      1.999
REMARK INTER + INTRA:          -5.768
REMARK INTER:                  -5.723
REMARK INTRA:                  -0.045
REMARK UNBOUND:                -0.044
REMARK SMILES O=C([O-])c1ccc(O)c(O)c1
REMARK SMILES IDX 4 1 11 2 5 3 9 4 6 5 7 6 2 7 1 8 3 9 10 10 8 12
REMARK H PARENT 10 11 8 13
REMARK Flexibility Score: inf
ROOT
ATOM      1  C   UNL     1     -33.405  11.084 -37.576  1.00  0.00     0.001 A 
ATOM      2  C   UNL     1     -33.646  12.002 -36.537  1.00  0.00     0.060 A 
ATOM      3  C   UNL     1     -32.877   9.820 -37.260  1.00  0.00     0.014 A 
ATOM      4  C   UNL     1     -33.366  11.662 -35.206  1.00  0.00     0.158 A 
ATOM      5  C   UNL     1     -32.599   9.481 -35.933  1.00  0.00     0.051 A 
ATOM      6  C   UNL     1     -32.841  10.399 -34.904  1.00  0.00     0.157 A 
ENDROOT
BRANCH   1   7
ATOM      7  C   UNL     1     -33.699  11.440 -38.982  1.00  0.00     0.072 C 
ATOM      8  O   UNL     1     -33.396  10.656 -39.919  1.00  0.00    -0.545 OA
ATOM      9  O   UNL     1     -34.315  12.649 -39.287  1.00  0.00    -0.545 OA
ENDBRANCH   1   7
BRANCH   4  10
ATOM     10  O   UNL     1     -33.606  12.573 -34.179  1.00  0.00    -0.504 OA
ATOM     11  H   UNL     1     -32.948  12.702 -33.420  1.00  0.00     0.293 HD
ENDBRANCH   4  10
BRANCH   6  12
ATOM     12  O   UNL     1     -32.564  10.064 -33.579  1.00  0.00    -0.504 OA
ATOM     13  H   UNL     1     -31.631   9.805 -33.283  1.00  0.00     0.293 HD
ENDBRANCH   6  12
TORSDOF 3
ENDMDL
MODEL 5
REMARK VINA RESULT:    -4.947      1.387      1.471
REMARK INTER + INTRA:          -5.570
REMARK INTER:                  -5.531
REMARK INTRA:                  -0.038
REMARK UNBOUND:                -0.044
REMARK SMILES O=C([O-])c1ccc(O)c(O)c1
REMARK SMILES IDX 4 1 11 2 5 3 9 4 6 5 7 6 2 7 1 8 3 9 10 10 8 12
REMARK H PARENT 10 11 8 13
REMARK Flexibility Score: inf
ROOT
ATOM      1  C   UNL     1     -33.417  10.608 -37.969  1.00  0.00     0.001 A 
ATOM      2  C   UNL     1     -33.642   9.710 -36.909  1.00  0.00     0.060 A 
ATOM      3  C   UNL     1     -33.314  11.981 -37.687  1.00  0.00     0.014 A 
ATOM      4  C   UNL     1     -33.761  10.176 -35.592  1.00  0.00     0.158 A 
ATOM      5  C   UNL     1     -33.432  12.446 -36.375  1.00  0.00     0.051 A 
ATOM      6  C   UNL     1     -33.656  11.547 -35.325  1.00  0.00     0.157 A 
ENDROOT
BRANCH   1   7
ATOM      7  C   UNL     1     -33.291  10.119 -39.359  1.00  0.00     0.072 C 
ATOM      8  O   UNL     1     -32.450   9.228 -39.652  1.00  0.00    -0.545 OA
ATOM      9  O   UNL     1     -34.101  10.637 -40.363  1.00  0.00    -0.545 OA
ENDBRANCH   1   7
BRANCH   4  10
ATOM     10  O   UNL     1     -33.984   9.283 -34.545  1.00  0.00    -0.504 OA
ATOM     11  H   UNL     1     -33.331   8.538 -34.336  1.00  0.00     0.293 HD
ENDBRANCH   4  10
BRANCH   6  12
ATOM     12  O   UNL     1     -33.775  12.007 -34.014  1.00  0.00    -0.504 OA
ATOM     13  H   UNL     1     -34.648  12.381 -33.662  1.00  0.00     0.293 HD
ENDBRANCH   6  12
TORSDOF 3
ENDMDL
MODEL 6
REMARK VINA RESULT:    -4.774      1.358      4.279
REMARK INTER + INTRA:          -5.376
REMARK INTER:                  -5.340
REMARK INTRA:                  -0.036
REMARK UNBOUND:                -0.044
REMARK SMILES O=C([O-])c1ccc(O)c(O)c1
REMARK SMILES IDX 4 1 11 2 5 3 9 4 6 5 7 6 2 7 1 8 3 9 10 10 8 12
REMARK H PARENT 10 11 8 13
REMARK Flexibility Score: inf
ROOT
ATOM      1  C   UNL     1     -33.331  10.382 -36.894  1.00  0.00     0.001 A 
ATOM      2  C   UNL     1     -33.762   9.907 -38.147  1.00  0.00     0.060 A 
ATOM      3  C   UNL     1     -33.289  11.769 -36.669  1.00  0.00     0.014 A 
ATOM      4  C   UNL     1     -34.143  10.803 -39.156  1.00  0.00     0.158 A 
ATOM      5  C   UNL     1     -33.670  12.661 -37.675  1.00  0.00     0.051 A 
ATOM      6  C   UNL     1     -34.098  12.182 -38.919  1.00  0.00     0.157 A 
ENDROOT
BRANCH   1   7
ATOM      7  C   UNL     1     -32.927   9.439 -35.829  1.00  0.00     0.072 C 
ATOM      8  O   UNL     1     -31.754   8.982 -35.788  1.00  0.00    -0.545 OA
ATOM      9  O   UNL     1     -33.838   9.045 -34.855  1.00  0.00    -0.545 OA
ENDBRANCH   1   7
BRANCH   4  10
ATOM     10  O   UNL     1     -34.570  10.329 -40.396  1.00  0.00    -0.504 OA
ATOM     11  H   UNL     1     -35.467  10.594 -40.785  1.00  0.00     0.293 HD
ENDBRANCH   4  10
BRANCH   6  12
ATOM     12  O   UNL     1     -34.479  13.070 -39.925  1.00  0.00    -0.504 OA
ATOM     13  H   UNL     1     -33.972  13.931 -40.090  1.00  0.00     0.293 HD
ENDBRANCH   6  12
TORSDOF 3
ENDMDL
MODEL 7
REMARK VINA RESULT:    -4.339      1.972      4.882
REMARK INTER + INTRA:          -4.891
REMARK INTER:                  -4.853
REMARK INTRA:                  -0.038
REMARK UNBOUND:                -0.044
REMARK SMILES O=C([O-])c1ccc(O)c(O)c1
REMARK SMILES IDX 4 1 11 2 5 3 9 4 6 5 7 6 2 7 1 8 3 9 10 10 8 12
REMARK H PARENT 10 11 8 13
REMARK Flexibility Score: inf
ROOT
ATOM      1  C   UNL     1     -32.413  12.114 -33.888  1.00  0.00     0.001 A 
ATOM      2  C   UNL     1     -33.007  12.633 -35.054  1.00  0.00     0.060 A 
ATOM      3  C   UNL     1     -32.045  10.757 -33.857  1.00  0.00     0.014 A 
ATOM      4  C   UNL     1     -33.228  11.811 -36.168  1.00  0.00     0.158 A 
ATOM      5  C   UNL     1     -32.265   9.938 -34.968  1.00  0.00     0.051 A 
ATOM      6  C   UNL     1     -32.857  10.461 -36.125  1.00  0.00     0.157 A 
ENDROOT
BRANCH   1   7
ATOM      7  C   UNL     1     -32.179  12.978 -32.711  1.00  0.00     0.072 C 
ATOM      8  O   UNL     1     -32.696  12.699 -31.597  1.00  0.00    -0.545 OA
ATOM      9  O   UNL     1     -31.383  14.113 -32.819  1.00  0.00    -0.545 OA
ENDBRANCH   1   7
BRANCH   4  10
ATOM     10  O   UNL     1     -33.817  12.328 -37.321  1.00  0.00    -0.504 OA
ATOM     11  H   UNL     1     -34.333  11.738 -37.963  1.00  0.00     0.293 HD
ENDBRANCH   4  10
BRANCH   6  12
ATOM     12  O   UNL     1     -33.078   9.647 -37.235  1.00  0.00    -0.504 OA
ATOM     13  H   UNL     1     -33.309   8.666 -37.134  1.00  0.00     0.293 HD
ENDBRANCH   6  12
TORSDOF 3
ENDMDL
MODEL 8
REMARK VINA RESULT:    -4.289      1.770      2.071
REMARK INTER + INTRA:          -4.835
REMARK INTER:                  -4.799
REMARK INTRA:                  -0.036
REMARK UNBOUND:                -0.044
REMARK SMILES O=C([O-])c1ccc(O)c(O)c1
REMARK SMILES IDX 4 1 11 2 5 3 9 4 6 5 7 6 2 7 1 8 3 9 10 10 8 12
REMARK H PARENT 10 11 8 13
REMARK Flexibility Score: inf
ROOT
ATOM      1  C   UNL     1     -33.571  10.504 -38.467  1.00  0.00     0.001 A 
ATOM      2  C   UNL     1     -32.202  10.709 -38.217  1.00  0.00     0.060 A 
ATOM      3  C   UNL     1     -34.325   9.747 -37.554  1.00  0.00     0.014 A 
ATOM      4  C   UNL     1     -31.596  10.166 -37.075  1.00  0.00     0.158 A 
ATOM      5  C   UNL     1     -33.721   9.206 -36.415  1.00  0.00     0.051 A 
ATOM      6  C   UNL     1     -32.358   9.413 -36.172  1.00  0.00     0.157 A 
ENDROOT
BRANCH   1   7
ATOM      7  C   UNL     1     -34.213  11.076 -39.671  1.00  0.00     0.072 C 
ATOM      8  O   UNL     1     -34.421  10.361 -40.687  1.00  0.00    -0.545 OA
ATOM      9  O   UNL     1     -34.594  12.412 -39.699  1.00  0.00    -0.545 OA
ENDBRANCH   1   7
BRANCH   4  10
ATOM     10  O   UNL     1     -30.239  10.370 -36.831  1.00  0.00    -0.504 OA
ATOM     11  H   UNL     1     -29.528   9.823 -37.300  1.00  0.00     0.293 HD
ENDBRANCH   4  10
BRANCH   6  12
ATOM     12  O   UNL     1     -31.753   8.875 -35.038  1.00  0.00    -0.504 OA
ATOM     13  H   UNL     1     -30.762   8.992 -34.860  1.00  0.00     0.293 HD
ENDBRANCH   6  12
TORSDOF 3
ENDMDL
