MODEL 1
REMARK VINA RESULT:    -3.954      0.000      0.000
REMARK INTER + INTRA:          -4.831
REMARK INTER:                  -4.878
REMARK INTRA:                   0.047
REMARK UNBOUND:                 0.047
REMARK SMILES CCCCCC(=O)[O-]
REMARK SMILES IDX 4 1 5 2 6 3 7 4 8 5 3 6 2 7 1 8
REMARK H PARENT
REMARK Flexibility Score: inf
ROOT
ATOM      1  C   UNL     1     -20.396  -1.191   7.573  1.00  0.00     0.006 C 
ENDROOT
BRANCH   1   2
ATOM      2  C   UNL     1     -20.382  -0.895   9.079  1.00  0.00     0.053 C 
BRANCH   2   3
ATOM      3  C   UNL     1     -19.763  -2.015   9.858  1.00  0.00     0.041 C 
ATOM      4  O   UNL     1     -19.649  -1.930  11.109  1.00  0.00    -0.550 OA
ATOM      5  O   UNL     1     -19.283  -3.139   9.197  1.00  0.00    -0.550 OA
ENDBRANCH   2   3
ENDBRANCH   1   2
BRANCH   1   6
ATOM      6  C   UNL     1     -20.578   0.085   6.733  1.00  0.00     0.000 C 
BRANCH   6   7
ATOM      7  C   UNL     1     -19.966   1.324   7.403  1.00  0.00    -0.003 C 
ATOM      8  C   UNL     1     -21.019   2.248   8.012  1.00  0.00     0.004 C 
ENDBRANCH   6   7
ENDBRANCH   1   6
TORSDOF 4
ENDMDL
MODEL 2
REMARK VINA RESULT:    -3.813      2.999      4.336
REMARK INTER + INTRA:          -4.658
REMARK INTER:                  -4.567
REMARK INTRA:                  -0.091
REMARK UNBOUND:                 0.047
REMARK SMILES CCCCCC(=O)[O-]
REMARK SMILES IDX 4 1 5 2 6 3 7 4 8 5 3 6 2 7 1 8
REMARK H PARENT
REMARK Flexibility Score: inf
ROOT
ATOM      1  C   UNL     1     -20.393   0.527   8.391  1.00  0.00     0.006 C 
ENDROOT
BRANCH   1   2
ATOM      2  C   UNL     1     -20.860   1.919   7.944  1.00  0.00     0.053 C 
BRANCH   2   3
ATOM      3  C   UNL     1     -21.588   2.636   9.039  1.00  0.00     0.041 C 
ATOM      4  O   UNL     1     -21.906   2.027  10.094  1.00  0.00    -0.550 OA
ATOM      5  O   UNL     1     -21.944   3.970   8.880  1.00  0.00    -0.550 OA
ENDBRANCH   2   3
ENDBRANCH   1   2
BRANCH   1   6
ATOM      6  C   UNL     1     -20.486  -0.508   7.256  1.00  0.00     0.000 C 
BRANCH   6   7
ATOM      7  C   UNL     1     -20.051  -1.911   7.703  1.00  0.00    -0.003 C 
ATOM      8  C   UNL     1     -19.866  -2.019   9.217  1.00  0.00     0.004 C 
ENDBRANCH   6   7
ENDBRANCH   1   6
TORSDOF 4
ENDMDL
MODEL 3
REMARK VINA RESULT:    -3.763      2.734      4.477
REMARK INTER + INTRA:          -4.596
REMARK INTER:                  -4.503
REMARK INTRA:                  -0.093
REMARK UNBOUND:                 0.047
REMARK SMILES CCCCCC(=O)[O-]
REMARK SMILES IDX 4 1 5 2 6 3 7 4 8 5 3 6 2 7 1 8
REMARK H PARENT
REMARK Flexibility Score: inf
ROOT
ATOM      1  C   UNL     1     -20.327  -1.000   9.829  1.00  0.00     0.006 C 
ENDROOT
BRANCH   1   2
ATOM      2  C   UNL     1     -20.376  -0.419   8.409  1.00  0.00     0.053 C 
BRANCH   2   3
ATOM      3  C   UNL     1     -20.760   1.029   8.417  1.00  0.00     0.041 C 
ATOM      4  O   UNL     1     -20.532   1.752   7.412  1.00  0.00    -0.550 OA
ATOM      5  O   UNL     1     -21.340   1.588   9.549  1.00  0.00    -0.550 OA
ENDBRANCH   2   3
ENDBRANCH   1   2
BRANCH   1   6
ATOM      6  C   UNL     1     -19.542  -2.322   9.887  1.00  0.00     0.000 C 
BRANCH   6   7
ATOM      7  C   UNL     1     -19.539  -3.065   8.543  1.00  0.00    -0.003 C 
ATOM      8  C   UNL     1     -19.152  -4.537   8.681  1.00  0.00     0.004 C 
ENDBRANCH   6   7
ENDBRANCH   1   6
TORSDOF 4
ENDMDL
MODEL 4
REMARK VINA RESULT:    -3.721      1.048      1.460
REMARK INTER + INTRA:          -4.543
REMARK INTER:                  -4.444
REMARK INTRA:                  -0.100
REMARK UNBOUND:                 0.047
REMARK SMILES CCCCCC(=O)[O-]
REMARK SMILES IDX 4 1 5 2 6 3 7 4 8 5 3 6 2 7 1 8
REMARK H PARENT
REMARK Flexibility Score: inf
ROOT
ATOM      1  C   UNL     1     -20.376   0.203   8.022  1.00  0.00     0.006 C 
ENDROOT
BRANCH   1   2
ATOM      2  C   UNL     1     -20.605  -0.251   9.470  1.00  0.00     0.053 C 
BRANCH   2   3
ATOM      3  C   UNL     1     -19.974  -1.583   9.739  1.00  0.00     0.041 C 
ATOM      4  O   UNL     1     -19.725  -1.939  10.921  1.00  0.00    -0.550 OA
ATOM      5  O   UNL     1     -19.632  -2.416   8.681  1.00  0.00    -0.550 OA
ENDBRANCH   2   3
ENDBRANCH   1   2
BRANCH   1   6
ATOM      6  C   UNL     1     -20.746   1.681   7.811  1.00  0.00     0.000 C 
BRANCH   6   7
ATOM      7  C   UNL     1     -21.417   2.301   9.046  1.00  0.00    -0.003 C 
ATOM      8  C   UNL     1     -21.849   3.750   8.819  1.00  0.00     0.004 C 
ENDBRANCH   6   7
ENDBRANCH   1   6
TORSDOF 4
ENDMDL
MODEL 5
REMARK VINA RESULT:    -3.676      2.029      2.941
REMARK INTER + INTRA:          -4.489
REMARK INTER:                  -4.388
REMARK INTRA:                  -0.100
REMARK UNBOUND:                 0.047
REMARK SMILES CCCCCC(=O)[O-]
REMARK SMILES IDX 4 1 5 2 6 3 7 4 8 5 3 6 2 7 1 8
REMARK H PARENT
REMARK Flexibility Score: inf
ROOT
ATOM      1  C   UNL     1     -21.059   0.948   9.937  1.00  0.00     0.006 C 
ENDROOT
BRANCH   1   2
ATOM      2  C   UNL     1     -20.482   0.663   8.544  1.00  0.00     0.053 C 
BRANCH   2   3
ATOM      3  C   UNL     1     -20.351  -0.808   8.290  1.00  0.00     0.041 C 
ATOM      4  O   UNL     1     -20.694  -1.293   7.179  1.00  0.00    -0.550 OA
ATOM      5  O   UNL     1     -19.881  -1.648   9.292  1.00  0.00    -0.550 OA
ENDBRANCH   2   3
ENDBRANCH   1   2
BRANCH   1   6
ATOM      6  C   UNL     1     -21.883   2.247   9.969  1.00  0.00     0.000 C 
BRANCH   6   7
ATOM      7  C   UNL     1     -21.636   3.131   8.738  1.00  0.00    -0.003 C 
ATOM      8  C   UNL     1     -21.949   4.604   8.995  1.00  0.00     0.004 C 
ENDBRANCH   6   7
ENDBRANCH   1   6
TORSDOF 4
ENDMDL
MODEL 6
REMARK VINA RESULT:    -3.352      2.732      3.624
REMARK INTER + INTRA:          -4.088
REMARK INTER:                  -3.959
REMARK INTRA:                  -0.130
REMARK UNBOUND:                 0.047
REMARK SMILES CCCCCC(=O)[O-]
REMARK SMILES IDX 4 1 5 2 6 3 7 4 8 5 3 6 2 7 1 8
REMARK H PARENT
REMARK Flexibility Score: inf
ROOT
ATOM      1  C   UNL     1     -20.940   1.896   8.302  1.00  0.00     0.006 C 
ENDROOT
BRANCH   1   2
ATOM      2  C   UNL     1     -20.448   0.457   8.506  1.00  0.00     0.053 C 
BRANCH   2   3
ATOM      3  C   UNL     1     -20.461  -0.318   7.224  1.00  0.00     0.041 C 
ATOM      4  O   UNL     1     -20.742   0.255   6.138  1.00  0.00    -0.550 OA
ATOM      5  O   UNL     1     -20.193  -1.682   7.233  1.00  0.00    -0.550 OA
ENDBRANCH   2   3
ENDBRANCH   1   2
BRANCH   1   6
ATOM      6  C   UNL     1     -21.632   2.456   9.557  1.00  0.00     0.000 C 
BRANCH   6   7
ATOM      7  C   UNL     1     -21.878   1.378  10.624  1.00  0.00    -0.003 C 
ATOM      8  C   UNL     1     -21.247   1.726  11.971  1.00  0.00     0.004 C 
ENDBRANCH   6   7
ENDBRANCH   1   6
TORSDOF 4
ENDMDL
MODEL 7
REMARK VINA RESULT:    -3.349      2.677      4.276
REMARK INTER + INTRA:          -4.084
REMARK INTER:                  -3.965
REMARK INTRA:                  -0.119
REMARK UNBOUND:                 0.047
REMARK SMILES CCCCCC(=O)[O-]
REMARK SMILES IDX 4 1 5 2 6 3 7 4 8 5 3 6 2 7 1 8
REMARK H PARENT
REMARK Flexibility Score: inf
ROOT
ATOM      1  C   UNL     1     -20.035  -1.696   8.502  1.00  0.00     0.006 C 
ENDROOT
BRANCH   1   2
ATOM      2  C   UNL     1     -20.546  -0.272   8.762  1.00  0.00     0.053 C 
BRANCH   2   3
ATOM      3  C   UNL     1     -20.407   0.595   7.548  1.00  0.00     0.041 C 
ATOM      4  O   UNL     1     -19.966   0.114   6.471  1.00  0.00    -0.550 OA
ATOM      5  O   UNL     1     -20.736   1.944   7.616  1.00  0.00    -0.550 OA
ENDBRANCH   2   3
ENDBRANCH   1   2
BRANCH   1   6
ATOM      6  C   UNL     1     -19.868  -2.499   9.803  1.00  0.00     0.000 C 
BRANCH   6   7
ATOM      7  C   UNL     1     -19.763  -1.597  11.042  1.00  0.00    -0.003 C 
ATOM      8  C   UNL     1     -20.549  -2.138  12.236  1.00  0.00     0.004 C 
ENDBRANCH   6   7
ENDBRANCH   1   6
TORSDOF 4
ENDMDL
MODEL 8
REMARK VINA RESULT:    -3.176      1.510      2.177
REMARK INTER + INTRA:          -3.872
REMARK INTER:                  -3.791
REMARK INTRA:                  -0.081
REMARK UNBOUND:                 0.047
REMARK SMILES CCCCCC(=O)[O-]
REMARK SMILES IDX 4 1 5 2 6 3 7 4 8 5 3 6 2 7 1 8
REMARK H PARENT
REMARK Flexibility Score: inf
ROOT
ATOM      1  C   UNL     1     -20.397  -0.662   9.278  1.00  0.00     0.006 C 
ENDROOT
BRANCH   1   2
ATOM      2  C   UNL     1     -19.941  -1.744  10.267  1.00  0.00     0.053 C 
BRANCH   2   3
ATOM      3  C   UNL     1     -20.416  -1.456  11.658  1.00  0.00     0.041 C 
ATOM      4  O   UNL     1     -20.498  -2.384  12.505  1.00  0.00    -0.550 OA
ATOM      5  O   UNL     1     -20.798  -0.167  12.010  1.00  0.00    -0.550 OA
ENDBRANCH   2   3
ENDBRANCH   1   2
BRANCH   1   6
ATOM      6  C   UNL     1     -20.379  -1.162   7.823  1.00  0.00     0.000 C 
BRANCH   6   7
ATOM      7  C   UNL     1     -20.151  -0.027   6.813  1.00  0.00    -0.003 C 
ATOM      8  C   UNL     1     -20.438   1.354   7.402  1.00  0.00     0.004 C 
ENDBRANCH   6   7
ENDBRANCH   1   6
TORSDOF 4
ENDMDL
MODEL 9
REMARK VINA RESULT:    -3.143     12.765     14.015
REMARK INTER + INTRA:          -3.830
REMARK INTER:                  -3.747
REMARK INTRA:                  -0.083
REMARK UNBOUND:                 0.047
REMARK SMILES CCCCCC(=O)[O-]
REMARK SMILES IDX 4 1 5 2 6 3 7 4 8 5 3 6 2 7 1 8
REMARK H PARENT
REMARK Flexibility Score: inf
ROOT
ATOM      1  C   UNL     1     -13.273  11.089  12.501  1.00  0.00     0.006 C 
ENDROOT
BRANCH   1   2
ATOM      2  C   UNL     1     -14.692  11.033  11.920  1.00  0.00     0.053 C 
BRANCH   2   3
ATOM      3  C   UNL     1     -14.702  10.454  10.538  1.00  0.00     0.041 C 
ATOM      4  O   UNL     1     -13.813  10.779   9.708  1.00  0.00    -0.550 OA
ATOM      5  O   UNL     1     -15.713   9.580  10.158  1.00  0.00    -0.550 OA
ENDBRANCH   2   3
ENDBRANCH   1   2
BRANCH   1   6
ATOM      6  C   UNL     1     -13.203  10.495  13.919  1.00  0.00     0.000 C 
BRANCH   6   7
ATOM      7  C   UNL     1     -11.764  10.177  14.353  1.00  0.00    -0.003 C 
ATOM      8  C   UNL     1     -10.743  10.430  13.246  1.00  0.00     0.004 C 
ENDBRANCH   6   7
ENDBRANCH   1   6
TORSDOF 4
ENDMDL
