MODEL 1
REMARK VINA RESULT:    -7.125      0.000      0.000
REMARK INTER + INTRA:          -8.662
REMARK INTER:                  -8.375
REMARK INTRA:                  -0.287
REMARK UNBOUND:                -0.287
REMARK SMILES O=c1c(O)c(-c2ccc(O)cc2)oc2cc(O)cc(O)c12
REMARK SMILES IDX 5 1 3 2 2 3 1 4 21 5 19 6 18 7 16 8 15 9 14 10 13 11 6 12
REMARK SMILES IDX 7 13 8 14 9 15 12 16 11 17 10 18 4 20 20 22 17 24
REMARK H PARENT 10 19 4 21 20 23 17 25
REMARK Flexibility Score: inf
ROOT
ATOM      1  C   UNL     1       9.737  11.401 -15.945  1.00  0.00     0.180 A 
ATOM      2  C   UNL     1      10.380  10.218 -16.352  1.00  0.00     0.208 A 
ATOM      3  C   UNL     1      10.042   9.010 -15.722  1.00  0.00     0.238 A 
ATOM      4  O   UNL     1      10.604   7.942 -16.085  1.00  0.00    -0.285 OA
ATOM      5  C   UNL     1       9.085   9.009 -14.685  1.00  0.00     0.111 A 
ATOM      6  C   UNL     1       8.692   7.836 -13.996  1.00  0.00     0.134 A 
ATOM      7  C   UNL     1       7.740   7.919 -12.969  1.00  0.00     0.093 A 
ATOM      8  C   UNL     1       7.176   9.148 -12.619  1.00  0.00     0.123 A 
ATOM      9  C   UNL     1       7.560  10.310 -13.295  1.00  0.00     0.094 A 
ATOM     10  C   UNL     1       8.506  10.248 -14.323  1.00  0.00     0.146 A 
ATOM     11  O   UNL     1       8.850  11.364 -14.953  1.00  0.00    -0.452 OA
ENDROOT
BRANCH   1  12
ATOM     12  C   UNL     1      10.025  12.711 -16.573  1.00  0.00     0.021 A 
ATOM     13  C   UNL     1      11.003  13.577 -16.049  1.00  0.00     0.016 A 
ATOM     14  C   UNL     1      11.273  14.798 -16.675  1.00  0.00     0.047 A 
ATOM     15  C   UNL     1      10.585  15.163 -17.835  1.00  0.00     0.115 A 
ATOM     16  C   UNL     1       9.351  13.075 -17.751  1.00  0.00     0.016 A 
ATOM     17  C   UNL     1       9.624  14.297 -18.374  1.00  0.00     0.047 A 
BRANCH  15  18
ATOM     18  O   UNL     1      10.864  16.384 -18.446  1.00  0.00    -0.508 OA
ATOM     19  H   UNL     1      10.150  17.092 -18.564  1.00  0.00     0.293 HD
ENDBRANCH  15  18
ENDBRANCH   1  12
BRANCH   2  20
ATOM     20  O   UNL     1      11.360  10.254 -17.347  1.00  0.00    -0.502 OA
ATOM     21  H   UNL     1      12.350  10.283 -17.134  1.00  0.00     0.293 HD
ENDBRANCH   2  20
BRANCH   6  22
ATOM     22  O   UNL     1       9.237   6.594 -14.323  1.00  0.00    -0.507 OA
ATOM     23  H   UNL     1       9.432   5.894 -13.616  1.00  0.00     0.293 HD
ENDBRANCH   6  22
BRANCH   8  24
ATOM     24  O   UNL     1       6.233   9.203 -11.594  1.00  0.00    -0.508 OA
ATOM     25  H   UNL     1       5.719  10.052 -11.392  1.00  0.00     0.293 HD
ENDBRANCH   8  24
TORSDOF 5
ENDMDL
MODEL 2
REMARK VINA RESULT:    -6.737      2.029      7.378
REMARK INTER + INTRA:          -8.205
REMARK INTER:                  -7.923
REMARK INTRA:                  -0.282
REMARK UNBOUND:                -0.287
REMARK SMILES O=c1c(O)c(-c2ccc(O)cc2)oc2cc(O)cc(O)c12
REMARK SMILES IDX 5 1 3 2 2 3 1 4 21 5 19 6 18 7 16 8 15 9 14 10 13 11 6 12
REMARK SMILES IDX 7 13 8 14 9 15 12 16 11 17 10 18 4 20 20 22 17 24
REMARK H PARENT 10 19 4 21 20 23 17 25
REMARK Flexibility Score: inf
ROOT
ATOM      1  C   UNL     1       9.903  12.410 -17.261  1.00  0.00     0.180 A 
ATOM      2  C   UNL     1      10.605  13.514 -16.740  1.00  0.00     0.208 A 
ATOM      3  C   UNL     1      10.595  14.722 -17.454  1.00  0.00     0.238 A 
ATOM      4  O   UNL     1      11.211  15.720 -16.993  1.00  0.00    -0.285 OA
ATOM      5  C   UNL     1       9.904  14.801 -18.681  1.00  0.00     0.111 A 
ATOM      6  C   UNL     1       9.849  15.980 -19.464  1.00  0.00     0.134 A 
ATOM      7  C   UNL     1       9.149  15.976 -20.679  1.00  0.00     0.093 A 
ATOM      8  C   UNL     1       8.504  14.820 -21.126  1.00  0.00     0.123 A 
ATOM      9  C   UNL     1       8.554  13.652 -20.357  1.00  0.00     0.094 A 
ATOM     10  C   UNL     1       9.246  13.637 -19.142  1.00  0.00     0.146 A 
ATOM     11  O   UNL     1       9.275  12.517 -18.429  1.00  0.00    -0.452 OA
ENDROOT
BRANCH   1  12
ATOM     12  C   UNL     1       9.850  11.108 -16.558  1.00  0.00     0.021 A 
ATOM     13  C   UNL     1      10.764  10.079 -16.851  1.00  0.00     0.016 A 
ATOM     14  C   UNL     1      10.709   8.866 -16.156  1.00  0.00     0.047 A 
ATOM     15  C   UNL     1       9.753   8.670 -15.156  1.00  0.00     0.115 A 
ATOM     16  C   UNL     1       8.905  10.911 -15.536  1.00  0.00     0.016 A 
ATOM     17  C   UNL     1       8.852   9.697 -14.845  1.00  0.00     0.047 A 
BRANCH  15  18
ATOM     18  O   UNL     1       9.709   7.456 -14.474  1.00  0.00    -0.508 OA
ATOM     19  H   UNL     1       9.710   7.418 -13.462  1.00  0.00     0.293 HD
ENDBRANCH  15  18
ENDBRANCH   1  12
BRANCH   2  20
ATOM     20  O   UNL     1      11.322  13.395 -15.547  1.00  0.00    -0.502 OA
ATOM     21  H   UNL     1      12.118  13.984 -15.331  1.00  0.00     0.293 HD
ENDBRANCH   2  20
BRANCH   6  22
ATOM     22  O   UNL     1      10.483  17.150 -19.046  1.00  0.00    -0.507 OA
ATOM     23  H   UNL     1      10.572  17.956 -19.654  1.00  0.00     0.293 HD
ENDBRANCH   6  22
BRANCH   8  24
ATOM     24  O   UNL     1       7.815  14.842 -22.337  1.00  0.00    -0.508 OA
ATOM     25  H   UNL     1       8.279  15.077 -23.206  1.00  0.00     0.293 HD
ENDBRANCH   8  24
TORSDOF 5
ENDMDL
MODEL 3
REMARK VINA RESULT:    -6.482      2.683      7.332
REMARK INTER + INTRA:          -7.905
REMARK INTER:                  -7.607
REMARK INTRA:                  -0.298
REMARK UNBOUND:                -0.287
REMARK SMILES O=c1c(O)c(-c2ccc(O)cc2)oc2cc(O)cc(O)c12
REMARK SMILES IDX 5 1 3 2 2 3 1 4 21 5 19 6 18 7 16 8 15 9 14 10 13 11 6 12
REMARK SMILES IDX 7 13 8 14 9 15 12 16 11 17 10 18 4 20 20 22 17 24
REMARK H PARENT 10 19 4 21 20 23 17 25
REMARK Flexibility Score: inf
ROOT
ATOM      1  C   UNL     1       7.600   7.838 -14.647  1.00  0.00     0.180 A 
ATOM      2  C   UNL     1       7.193   8.316 -13.387  1.00  0.00     0.208 A 
ATOM      3  C   UNL     1       7.472   9.647 -13.043  1.00  0.00     0.238 A 
ATOM      4  O   UNL     1       7.103  10.090 -11.922  1.00  0.00    -0.285 OA
ATOM      5  C   UNL     1       8.169  10.470 -13.953  1.00  0.00     0.111 A 
ATOM      6  C   UNL     1       8.494  11.822 -13.682  1.00  0.00     0.134 A 
ATOM      7  C   UNL     1       9.198  12.572 -14.635  1.00  0.00     0.093 A 
ATOM      8  C   UNL     1       9.582  12.000 -15.850  1.00  0.00     0.123 A 
ATOM      9  C   UNL     1       9.265  10.665 -16.123  1.00  0.00     0.094 A 
ATOM     10  C   UNL     1       8.562   9.901 -15.187  1.00  0.00     0.146 A 
ATOM     11  O   UNL     1       8.268   8.639 -15.473  1.00  0.00    -0.452 OA
ENDROOT
BRANCH   1  12
ATOM     12  C   UNL     1       7.325   6.452 -15.090  1.00  0.00     0.021 A 
ATOM     13  C   UNL     1       6.132   6.118 -15.757  1.00  0.00     0.016 A 
ATOM     14  C   UNL     1       5.906   4.807 -16.187  1.00  0.00     0.047 A 
ATOM     15  C   UNL     1       6.870   3.818 -15.970  1.00  0.00     0.115 A 
ATOM     16  C   UNL     1       8.298   5.457 -14.893  1.00  0.00     0.016 A 
ATOM     17  C   UNL     1       8.069   4.147 -15.324  1.00  0.00     0.047 A 
BRANCH  15  18
ATOM     18  O   UNL     1       6.630   2.516 -16.403  1.00  0.00    -0.508 OA
ATOM     19  H   UNL     1       6.534   2.295 -17.386  1.00  0.00     0.293 HD
ENDBRANCH  15  18
ENDBRANCH   1  12
BRANCH   2  20
ATOM     20  O   UNL     1       6.548   7.466 -12.484  1.00  0.00    -0.502 OA
ATOM     21  H   UNL     1       6.040   7.813 -11.679  1.00  0.00     0.293 HD
ENDBRANCH   2  20
BRANCH   6  22
ATOM     22  O   UNL     1       8.124  12.422 -12.478  1.00  0.00    -0.507 OA
ATOM     23  H   UNL     1       7.371  13.099 -12.428  1.00  0.00     0.293 HD
ENDBRANCH   6  22
BRANCH   8  24
ATOM     24  O   UNL     1      10.282  12.767 -16.780  1.00  0.00    -0.508 OA
ATOM     25  H   UNL     1      11.250  12.572 -17.006  1.00  0.00     0.293 HD
ENDBRANCH   8  24
TORSDOF 5
ENDMDL
MODEL 4
REMARK VINA RESULT:    -6.406      2.454      3.576
REMARK INTER + INTRA:          -7.816
REMARK INTER:                  -7.779
REMARK INTRA:                  -0.037
REMARK UNBOUND:                -0.287
REMARK SMILES O=c1c(O)c(-c2ccc(O)cc2)oc2cc(O)cc(O)c12
REMARK SMILES IDX 5 1 3 2 2 3 1 4 21 5 19 6 18 7 16 8 15 9 14 10 13 11 6 12
REMARK SMILES IDX 7 13 8 14 9 15 12 16 11 17 10 18 4 20 20 22 17 24
REMARK H PARENT 10 19 4 21 20 23 17 25
REMARK Flexibility Score: inf
ROOT
ATOM      1  C   UNL     1       8.953  13.001 -18.516  1.00  0.00     0.180 A 
ATOM      2  C   UNL     1       9.346  11.672 -18.764  1.00  0.00     0.208 A 
ATOM      3  C   UNL     1       9.361  10.759 -17.699  1.00  0.00     0.238 A 
ATOM      4  O   UNL     1       9.699   9.563 -17.910  1.00  0.00    -0.285 OA
ATOM      5  C   UNL     1       9.004  11.192 -16.404  1.00  0.00     0.111 A 
ATOM      6  C   UNL     1       8.997  10.336 -15.276  1.00  0.00     0.134 A 
ATOM      7  C   UNL     1       8.640  10.846 -14.019  1.00  0.00     0.093 A 
ATOM      8  C   UNL     1       8.290  12.190 -13.868  1.00  0.00     0.123 A 
ATOM      9  C   UNL     1       8.295  13.040 -14.979  1.00  0.00     0.094 A 
ATOM     10  C   UNL     1       8.647  12.551 -16.240  1.00  0.00     0.146 A 
ATOM     11  O   UNL     1       8.639  13.377 -17.279  1.00  0.00    -0.452 OA
ENDROOT
BRANCH   1  12
ATOM     12  C   UNL     1       8.894  14.018 -19.591  1.00  0.00     0.021 A 
ATOM     13  C   UNL     1       8.158  13.796 -20.770  1.00  0.00     0.016 A 
ATOM     14  C   UNL     1       8.097  14.782 -21.760  1.00  0.00     0.047 A 
ATOM     15  C   UNL     1       8.755  16.002 -21.582  1.00  0.00     0.115 A 
ATOM     16  C   UNL     1       9.535  15.255 -19.409  1.00  0.00     0.016 A 
ATOM     17  C   UNL     1       9.473  16.237 -20.401  1.00  0.00     0.047 A 
BRANCH  15  18
ATOM     18  O   UNL     1       8.686  16.973 -22.578  1.00  0.00    -0.508 OA
ATOM     19  H   UNL     1       8.362  16.751 -23.511  1.00  0.00     0.293 HD
ENDBRANCH  15  18
ENDBRANCH   1  12
BRANCH   2  20
ATOM     20  O   UNL     1       9.741  11.280 -20.046  1.00  0.00    -0.502 OA
ATOM     21  H   UNL     1       9.272  11.607 -20.882  1.00  0.00     0.293 HD
ENDBRANCH   2  20
BRANCH   6  22
ATOM     22  O   UNL     1       9.342   8.989 -15.394  1.00  0.00    -0.507 OA
ATOM     23  H   UNL     1       8.667   8.250 -15.234  1.00  0.00     0.293 HD
ENDBRANCH   6  22
BRANCH   8  24
ATOM     24  O   UNL     1       7.940  12.671 -12.609  1.00  0.00    -0.508 OA
ATOM     25  H   UNL     1       8.630  13.065 -11.981  1.00  0.00     0.293 HD
ENDBRANCH   8  24
TORSDOF 5
ENDMDL
MODEL 5
REMARK VINA RESULT:    -6.258      1.263      3.200
REMARK INTER + INTRA:          -7.642
REMARK INTER:                  -7.358
REMARK INTRA:                  -0.284
REMARK UNBOUND:                -0.287
REMARK SMILES O=c1c(O)c(-c2ccc(O)cc2)oc2cc(O)cc(O)c12
REMARK SMILES IDX 5 1 3 2 2 3 1 4 21 5 19 6 18 7 16 8 15 9 14 10 13 11 6 12
REMARK SMILES IDX 7 13 8 14 9 15 12 16 11 17 10 18 4 20 20 22 17 24
REMARK H PARENT 10 19 4 21 20 23 17 25
REMARK Flexibility Score: inf
ROOT
ATOM      1  C   UNL     1       8.763  12.253 -15.525  1.00  0.00     0.180 A 
ATOM      2  C   UNL     1       7.683  12.582 -14.685  1.00  0.00     0.208 A 
ATOM      3  C   UNL     1       7.121  11.581 -13.879  1.00  0.00     0.238 A 
ATOM      4  O   UNL     1       6.161  11.866 -13.113  1.00  0.00    -0.285 OA
ATOM      5  C   UNL     1       7.633  10.267 -13.939  1.00  0.00     0.111 A 
ATOM      6  C   UNL     1       7.121   9.200 -13.162  1.00  0.00     0.134 A 
ATOM      7  C   UNL     1       7.678   7.919 -13.288  1.00  0.00     0.093 A 
ATOM      8  C   UNL     1       8.735   7.685 -14.171  1.00  0.00     0.123 A 
ATOM      9  C   UNL     1       9.245   8.735 -14.941  1.00  0.00     0.094 A 
ATOM     10  C   UNL     1       8.704  10.019 -14.830  1.00  0.00     0.146 A 
ATOM     11  O   UNL     1       9.210  11.000 -15.568  1.00  0.00    -0.452 OA
ENDROOT
BRANCH   1  12
ATOM     12  C   UNL     1       9.422  13.257 -16.392  1.00  0.00     0.021 A 
ATOM     13  C   UNL     1       8.914  13.572 -17.666  1.00  0.00     0.016 A 
ATOM     14  C   UNL     1       9.540  14.541 -18.456  1.00  0.00     0.047 A 
ATOM     15  C   UNL     1      10.667  15.217 -17.981  1.00  0.00     0.115 A 
ATOM     16  C   UNL     1      10.543  13.956 -15.912  1.00  0.00     0.016 A 
ATOM     17  C   UNL     1      11.166  14.924 -16.705  1.00  0.00     0.047 A 
BRANCH  15  18
ATOM     18  O   UNL     1      11.281  16.179 -18.780  1.00  0.00    -0.508 OA
ATOM     19  H   UNL     1      11.743  16.985 -18.377  1.00  0.00     0.293 HD
ENDBRANCH  15  18
ENDBRANCH   1  12
BRANCH   2  20
ATOM     20  O   UNL     1       7.163  13.879 -14.680  1.00  0.00    -0.502 OA
ATOM     21  H   UNL     1       6.581  14.233 -15.429  1.00  0.00     0.293 HD
ENDBRANCH   2  20
BRANCH   6  22
ATOM     22  O   UNL     1       6.066   9.401 -12.271  1.00  0.00    -0.507 OA
ATOM     23  H   UNL     1       5.572   8.626 -11.845  1.00  0.00     0.293 HD
ENDBRANCH   6  22
BRANCH   8  24
ATOM     24  O   UNL     1       9.270   6.403 -14.277  1.00  0.00    -0.508 OA
ATOM     25  H   UNL     1       8.875   5.713 -14.905  1.00  0.00     0.293 HD
ENDBRANCH   8  24
TORSDOF 5
ENDMDL
MODEL 6
REMARK VINA RESULT:    -6.227      1.944      6.984
REMARK INTER + INTRA:          -7.606
REMARK INTER:                  -7.574
REMARK INTRA:                  -0.032
REMARK UNBOUND:                -0.287
REMARK SMILES O=c1c(O)c(-c2ccc(O)cc2)oc2cc(O)cc(O)c12
REMARK SMILES IDX 5 1 3 2 2 3 1 4 21 5 19 6 18 7 16 8 15 9 14 10 13 11 6 12
REMARK SMILES IDX 7 13 8 14 9 15 12 16 11 17 10 18 4 20 20 22 17 24
REMARK H PARENT 10 19 4 21 20 23 17 25
REMARK Flexibility Score: inf
ROOT
ATOM      1  C   UNL     1       8.387  11.231 -14.874  1.00  0.00     0.180 A 
ATOM      2  C   UNL     1       8.782  12.517 -14.459  1.00  0.00     0.208 A 
ATOM      3  C   UNL     1       9.204  13.442 -15.426  1.00  0.00     0.238 A 
ATOM      4  O   UNL     1       9.549  14.601 -15.068  1.00  0.00    -0.285 OA
ATOM      5  C   UNL     1       9.245  13.062 -16.784  1.00  0.00     0.111 A 
ATOM      6  C   UNL     1       9.662  13.933 -17.820  1.00  0.00     0.134 A 
ATOM      7  C   UNL     1       9.683  13.477 -19.146  1.00  0.00     0.093 A 
ATOM      8  C   UNL     1       9.297  12.170 -19.456  1.00  0.00     0.123 A 
ATOM      9  C   UNL     1       8.884  11.305 -18.437  1.00  0.00     0.094 A 
ATOM     10  C   UNL     1       8.854  11.742 -17.110  1.00  0.00     0.146 A 
ATOM     11  O   UNL     1       8.453  10.903 -16.162  1.00  0.00    -0.452 OA
ENDROOT
BRANCH   1  12
ATOM     12  C   UNL     1       7.912  10.206 -13.917  1.00  0.00     0.021 A 
ATOM     13  C   UNL     1       6.864  10.474 -13.017  1.00  0.00     0.016 A 
ATOM     14  C   UNL     1       6.416   9.482 -12.139  1.00  0.00     0.047 A 
ATOM     15  C   UNL     1       6.996   8.210 -12.157  1.00  0.00     0.115 A 
ATOM     16  C   UNL     1       8.475   8.920 -13.945  1.00  0.00     0.016 A 
ATOM     17  C   UNL     1       8.026   7.931 -13.065  1.00  0.00     0.047 A 
BRANCH  15  18
ATOM     18  O   UNL     1       6.540   7.233 -11.276  1.00  0.00    -0.508 OA
ATOM     19  H   UNL     1       5.708   7.373 -10.715  1.00  0.00     0.293 HD
ENDBRANCH  15  18
ENDBRANCH   1  12
BRANCH   2  20
ATOM     20  O   UNL     1       8.779  12.853 -13.103  1.00  0.00    -0.502 OA
ATOM     21  H   UNL     1       8.726  13.812 -12.781  1.00  0.00     0.293 HD
ENDBRANCH   2  20
BRANCH   6  22
ATOM     22  O   UNL     1      10.054  15.244 -17.543  1.00  0.00    -0.507 OA
ATOM     23  H   UNL     1       9.634  15.778 -16.792  1.00  0.00     0.293 HD
ENDBRANCH   6  22
BRANCH   8  24
ATOM     24  O   UNL     1       9.329  11.741 -20.781  1.00  0.00    -0.508 OA
ATOM     25  H   UNL     1       9.855  10.922 -21.061  1.00  0.00     0.293 HD
ENDBRANCH   8  24
TORSDOF 5
ENDMDL
MODEL 7
REMARK VINA RESULT:    -6.198      1.956      2.542
REMARK INTER + INTRA:          -7.572
REMARK INTER:                  -7.312
REMARK INTRA:                  -0.260
REMARK UNBOUND:                -0.287
REMARK SMILES O=c1c(O)c(-c2ccc(O)cc2)oc2cc(O)cc(O)c12
REMARK SMILES IDX 5 1 3 2 2 3 1 4 21 5 19 6 18 7 16 8 15 9 14 10 13 11 6 12
REMARK SMILES IDX 7 13 8 14 9 15 12 16 11 17 10 18 4 20 20 22 17 24
REMARK H PARENT 10 19 4 21 20 23 17 25
REMARK Flexibility Score: inf
ROOT
ATOM      1  C   UNL     1       8.459  10.781 -17.479  1.00  0.00     0.180 A 
ATOM      2  C   UNL     1       9.406   9.741 -17.546  1.00  0.00     0.208 A 
ATOM      3  C   UNL     1       9.485   8.826 -16.486  1.00  0.00     0.238 A 
ATOM      4  O   UNL     1      10.321   7.884 -16.540  1.00  0.00    -0.285 OA
ATOM      5  C   UNL     1       8.635   8.976 -15.370  1.00  0.00     0.111 A 
ATOM      6  C   UNL     1       8.654   8.099 -14.258  1.00  0.00     0.134 A 
ATOM      7  C   UNL     1       7.783   8.322 -13.182  1.00  0.00     0.093 A 
ATOM      8  C   UNL     1       6.895   9.401 -13.195  1.00  0.00     0.123 A 
ATOM      9  C   UNL     1       6.871  10.270 -14.290  1.00  0.00     0.094 A 
ATOM     10  C   UNL     1       7.730  10.064 -15.374  1.00  0.00     0.146 A 
ATOM     11  O   UNL     1       7.684  10.901 -16.404  1.00  0.00    -0.452 OA
ENDROOT
BRANCH   1  12
ATOM     12  C   UNL     1       8.301  11.774 -18.566  1.00  0.00     0.021 A 
ATOM     13  C   UNL     1       7.242  11.689 -19.488  1.00  0.00     0.016 A 
ATOM     14  C   UNL     1       7.101  12.653 -20.492  1.00  0.00     0.047 A 
ATOM     15  C   UNL     1       8.001  13.718 -20.579  1.00  0.00     0.115 A 
ATOM     16  C   UNL     1       9.191  12.859 -18.646  1.00  0.00     0.016 A 
ATOM     17  C   UNL     1       9.047  13.820 -19.650  1.00  0.00     0.047 A 
BRANCH  15  18
ATOM     18  O   UNL     1       7.848  14.670 -21.584  1.00  0.00    -0.508 OA
ATOM     19  H   UNL     1       8.355  15.546 -21.564  1.00  0.00     0.293 HD
ENDBRANCH  15  18
ENDBRANCH   1  12
BRANCH   2  20
ATOM     20  O   UNL     1      10.269   9.643 -18.640  1.00  0.00    -0.502 OA
ATOM     21  H   UNL     1      10.121   8.980 -19.392  1.00  0.00     0.293 HD
ENDBRANCH   2  20
BRANCH   6  22
ATOM     22  O   UNL     1       9.529   7.014 -14.214  1.00  0.00    -0.507 OA
ATOM     23  H   UNL     1      10.427   7.070 -13.748  1.00  0.00     0.293 HD
ENDBRANCH   6  22
BRANCH   8  24
ATOM     24  O   UNL     1       6.041   9.600 -12.113  1.00  0.00    -0.508 OA
ATOM     25  H   UNL     1       5.388   8.885 -11.814  1.00  0.00     0.293 HD
ENDBRANCH   8  24
TORSDOF 5
ENDMDL
MODEL 8
REMARK VINA RESULT:    -6.175      2.452      7.246
REMARK INTER + INTRA:          -7.545
REMARK INTER:                  -7.256
REMARK INTRA:                  -0.289
REMARK UNBOUND:                -0.287
REMARK SMILES O=c1c(O)c(-c2ccc(O)cc2)oc2cc(O)cc(O)c12
REMARK SMILES IDX 5 1 3 2 2 3 1 4 21 5 19 6 18 7 16 8 15 9 14 10 13 11 6 12
REMARK SMILES IDX 7 13 8 14 9 15 12 16 11 17 10 18 4 20 20 22 17 24
REMARK H PARENT 10 19 4 21 20 23 17 25
REMARK Flexibility Score: inf
ROOT
ATOM      1  C   UNL     1       9.018  11.953 -17.751  1.00  0.00     0.180 A 
ATOM      2  C   UNL     1       8.221  11.688 -18.881  1.00  0.00     0.208 A 
ATOM      3  C   UNL     1       8.032  12.703 -19.831  1.00  0.00     0.238 A 
ATOM      4  O   UNL     1       7.329  12.475 -20.852  1.00  0.00    -0.285 OA
ATOM      5  C   UNL     1       8.623  13.968 -19.627  1.00  0.00     0.111 A 
ATOM      6  C   UNL     1       8.478  15.046 -20.534  1.00  0.00     0.134 A 
ATOM      7  C   UNL     1       9.090  16.277 -20.255  1.00  0.00     0.093 A 
ATOM      8  C   UNL     1       9.842  16.450 -19.090  1.00  0.00     0.123 A 
ATOM      9  C   UNL     1       9.989  15.390 -18.191  1.00  0.00     0.094 A 
ATOM     10  C   UNL     1       9.388  14.155 -18.452  1.00  0.00     0.146 A 
ATOM     11  O   UNL     1       9.547  13.162 -17.584  1.00  0.00    -0.452 OA
ENDROOT
BRANCH   1  12
ATOM     12  C   UNL     1       9.280  10.928 -16.715  1.00  0.00     0.021 A 
ATOM     13  C   UNL     1       8.453  10.801 -15.583  1.00  0.00     0.016 A 
ATOM     14  C   UNL     1       8.707   9.810 -14.630  1.00  0.00     0.047 A 
ATOM     15  C   UNL     1       9.777   8.927 -14.799  1.00  0.00     0.115 A 
ATOM     16  C   UNL     1      10.342  10.024 -16.888  1.00  0.00     0.016 A 
ATOM     17  C   UNL     1      10.593   9.035 -15.933  1.00  0.00     0.047 A 
BRANCH  15  18
ATOM     18  O   UNL     1      10.019   7.946 -13.840  1.00  0.00    -0.508 OA
ATOM     19  H   UNL     1      10.475   8.165 -12.963  1.00  0.00     0.293 HD
ENDBRANCH  15  18
ENDBRANCH   1  12
BRANCH   2  20
ATOM     20  O   UNL     1       7.606  10.443 -19.034  1.00  0.00    -0.502 OA
ATOM     21  H   UNL     1       7.780   9.670 -18.403  1.00  0.00     0.293 HD
ENDBRANCH   2  20
BRANCH   6  22
ATOM     22  O   UNL     1       7.733  14.904 -21.705  1.00  0.00    -0.507 OA
ATOM     23  H   UNL     1       7.904  15.482 -22.520  1.00  0.00     0.293 HD
ENDBRANCH   6  22
BRANCH   8  24
ATOM     24  O   UNL     1      10.439  17.683 -18.836  1.00  0.00    -0.508 OA
ATOM     25  H   UNL     1       9.928  18.552 -18.941  1.00  0.00     0.293 HD
ENDBRANCH   8  24
TORSDOF 5
ENDMDL
MODEL 9
REMARK VINA RESULT:    -6.114      2.381      4.203
REMARK INTER + INTRA:          -7.473
REMARK INTER:                  -7.196
REMARK INTRA:                  -0.277
REMARK UNBOUND:                -0.287
REMARK SMILES O=c1c(O)c(-c2ccc(O)cc2)oc2cc(O)cc(O)c12
REMARK SMILES IDX 5 1 3 2 2 3 1 4 21 5 19 6 18 7 16 8 15 9 14 10 13 11 6 12
REMARK SMILES IDX 7 13 8 14 9 15 12 16 11 17 10 18 4 20 20 22 17 24
REMARK H PARENT 10 19 4 21 20 23 17 25
REMARK Flexibility Score: inf
ROOT
ATOM      1  C   UNL     1       8.896  12.956 -18.153  1.00  0.00     0.180 A 
ATOM      2  C   UNL     1       8.047  13.050 -17.034  1.00  0.00     0.208 A 
ATOM      3  C   UNL     1       8.119  12.060 -16.042  1.00  0.00     0.238 A 
ATOM      4  O   UNL     1       7.372  12.140 -15.030  1.00  0.00    -0.285 OA
ATOM      5  C   UNL     1       9.020  10.985 -16.194  1.00  0.00     0.111 A 
ATOM      6  C   UNL     1       9.152   9.945 -15.243  1.00  0.00     0.134 A 
ATOM      7  C   UNL     1      10.065   8.905 -15.472  1.00  0.00     0.093 A 
ATOM      8  C   UNL     1      10.847   8.885 -16.629  1.00  0.00     0.123 A 
ATOM      9  C   UNL     1      10.722   9.910 -17.572  1.00  0.00     0.094 A 
ATOM     10  C   UNL     1       9.819  10.956 -17.362  1.00  0.00     0.146 A 
ATOM     11  O   UNL     1       9.723  11.920 -18.270  1.00  0.00    -0.452 OA
ENDROOT
BRANCH   1  12
ATOM     12  C   UNL     1       8.893  13.971 -19.231  1.00  0.00     0.021 A 
ATOM     13  C   UNL     1       9.575  15.194 -19.089  1.00  0.00     0.016 A 
ATOM     14  C   UNL     1       9.577  16.126 -20.132  1.00  0.00     0.047 A 
ATOM     15  C   UNL     1       8.914  15.846 -21.330  1.00  0.00     0.115 A 
ATOM     16  C   UNL     1       8.246  13.687 -20.446  1.00  0.00     0.016 A 
ATOM     17  C   UNL     1       8.250  14.622 -21.486  1.00  0.00     0.047 A 
BRANCH  15  18
ATOM     18  O   UNL     1       8.924  16.785 -22.358  1.00  0.00    -0.508 OA
ATOM     19  H   UNL     1       8.628  17.742 -22.204  1.00  0.00     0.293 HD
ENDBRANCH  15  18
ENDBRANCH   1  12
BRANCH   2  20
ATOM     20  O   UNL     1       7.129  14.098 -16.931  1.00  0.00    -0.502 OA
ATOM     21  H   UNL     1       7.409  15.046 -16.707  1.00  0.00     0.293 HD
ENDBRANCH   2  20
BRANCH   6  22
ATOM     22  O   UNL     1       8.385   9.935 -14.077  1.00  0.00    -0.507 OA
ATOM     23  H   UNL     1       7.603  10.567 -13.948  1.00  0.00     0.293 HD
ENDBRANCH   6  22
BRANCH   8  24
ATOM     24  O   UNL     1      11.746   7.840 -16.833  1.00  0.00    -0.508 OA
ATOM     25  H   UNL     1      12.742   7.963 -16.693  1.00  0.00     0.293 HD
ENDBRANCH   8  24
TORSDOF 5
ENDMDL
