MODEL 1
REMARK VINA RESULT:    -6.225      0.000      0.000
REMARK INTER + INTRA:          -7.183
REMARK INTER:                  -7.317
REMARK INTRA:                   0.134
REMARK UNBOUND:                 0.134
REMARK SMILES O=c1c(O)c(-c2ccc(O)c(O)c2)oc2cc(O)ccc12
REMARK SMILES IDX 5 1 3 2 2 3 1 4 21 5 15 6 14 7 16 8 17 9 19 10 20 11 6 12
REMARK SMILES IDX 7 13 8 14 9 15 13 16 11 17 10 18 12 20 4 22 18 24
REMARK H PARENT 10 19 12 21 4 23 18 25
REMARK Flexibility Score: inf
ROOT
ATOM      1  C   UNL     1      27.590 -11.820  31.103  1.00  0.00     0.180 A 
ATOM      2  C   UNL     1      28.552 -10.840  30.782  1.00  0.00     0.208 A 
ATOM      3  C   UNL     1      29.015 -10.754  29.459  1.00  0.00     0.235 A 
ATOM      4  O   UNL     1      29.867  -9.879  29.145  1.00  0.00    -0.285 OA
ATOM      5  C   UNL     1      28.528 -11.654  28.498  1.00  0.00     0.069 A 
ATOM      6  C   UNL     1      27.583 -12.621  28.904  1.00  0.00     0.142 A 
ATOM      7  O   UNL     1      27.164 -12.664  30.163  1.00  0.00    -0.452 OA
ATOM      8  C   UNL     1      27.082 -13.541  27.977  1.00  0.00     0.094 A 
ATOM      9  C   UNL     1      27.510 -13.506  26.646  1.00  0.00     0.119 A 
ATOM     10  C   UNL     1      28.446 -12.547  26.238  1.00  0.00     0.047 A 
ATOM     11  C   UNL     1      28.955 -11.624  27.158  1.00  0.00     0.020 A 
ENDROOT
BRANCH   1  12
ATOM     12  C   UNL     1      27.038 -11.963  32.469  1.00  0.00     0.025 A 
ATOM     13  C   UNL     1      26.746 -13.243  32.966  1.00  0.00     0.016 A 
ATOM     14  C   UNL     1      26.205 -13.399  34.244  1.00  0.00     0.051 A 
ATOM     15  C   UNL     1      25.936 -12.282  35.040  1.00  0.00     0.157 A 
ATOM     16  C   UNL     1      26.747 -10.838  33.263  1.00  0.00     0.062 A 
ATOM     17  C   UNL     1      26.202 -10.994  34.546  1.00  0.00     0.158 A 
BRANCH  15  18
ATOM     18  O   UNL     1      25.399 -12.470  36.314  1.00  0.00    -0.504 OA
ATOM     19  H   UNL     1      25.175 -11.693  36.923  1.00  0.00     0.293 HD
ENDBRANCH  15  18
BRANCH  17  20
ATOM     20  O   UNL     1      25.923  -9.875  35.328  1.00  0.00    -0.504 OA
ATOM     21  H   UNL     1      26.618  -9.156  35.495  1.00  0.00     0.293 HD
ENDBRANCH  17  20
ENDBRANCH   1  12
BRANCH   2  22
ATOM     22  O   UNL     1      29.054  -9.991  31.771  1.00  0.00    -0.502 OA
ATOM     23  H   UNL     1      29.090 -10.258  32.747  1.00  0.00     0.293 HD
ENDBRANCH   2  22
BRANCH   9  24
ATOM     24  O   UNL     1      26.999 -14.430  25.736  1.00  0.00    -0.508 OA
ATOM     25  H   UNL     1      27.446 -15.327  25.586  1.00  0.00     0.293 HD
ENDBRANCH   9  24
TORSDOF 5
ENDMDL
MODEL 2
REMARK VINA RESULT:    -5.848      1.019      1.684
REMARK INTER + INTRA:          -6.739
REMARK INTER:                  -6.592
REMARK INTRA:                  -0.147
REMARK UNBOUND:                 0.134
REMARK SMILES O=c1c(O)c(-c2ccc(O)c(O)c2)oc2cc(O)ccc12
REMARK SMILES IDX 5 1 3 2 2 3 1 4 21 5 15 6 14 7 16 8 17 9 19 10 20 11 6 12
REMARK SMILES IDX 7 13 8 14 9 15 13 16 11 17 10 18 12 20 4 22 18 24
REMARK H PARENT 10 19 12 21 4 23 18 25
REMARK Flexibility Score: inf
ROOT
ATOM      1  C   UNL     1      27.791 -11.951  31.059  1.00  0.00     0.180 A 
ATOM      2  C   UNL     1      29.143 -11.666  30.778  1.00  0.00     0.208 A 
ATOM      3  C   UNL     1      29.664 -12.023  29.524  1.00  0.00     0.235 A 
ATOM      4  O   UNL     1      30.868 -11.769  29.245  1.00  0.00    -0.285 OA
ATOM      5  C   UNL     1      28.837 -12.672  28.593  1.00  0.00     0.069 A 
ATOM      6  C   UNL     1      27.501 -12.944  28.960  1.00  0.00     0.142 A 
ATOM      7  O   UNL     1      27.045 -12.581  30.153  1.00  0.00    -0.452 OA
ATOM      8  C   UNL     1      26.649 -13.597  28.063  1.00  0.00     0.094 A 
ATOM      9  C   UNL     1      27.114 -13.982  26.800  1.00  0.00     0.119 A 
ATOM     10  C   UNL     1      28.439 -13.712  26.432  1.00  0.00     0.047 A 
ATOM     11  C   UNL     1      29.299 -13.061  27.322  1.00  0.00     0.020 A 
ENDROOT
BRANCH   1  12
ATOM     12  C   UNL     1      27.163 -11.590  32.350  1.00  0.00     0.025 A 
ATOM     13  C   UNL     1      27.056 -10.239  32.712  1.00  0.00     0.016 A 
ATOM     14  C   UNL     1      26.486  -9.877  33.935  1.00  0.00     0.051 A 
ATOM     15  C   UNL     1      26.028 -10.857  34.820  1.00  0.00     0.157 A 
ATOM     16  C   UNL     1      26.721 -12.577  33.251  1.00  0.00     0.062 A 
ATOM     17  C   UNL     1      26.150 -12.215  34.480  1.00  0.00     0.158 A 
BRANCH  15  18
ATOM     18  O   UNL     1      25.461 -10.466  36.033  1.00  0.00    -0.504 OA
ATOM     19  H   UNL     1      25.850  -9.715  36.591  1.00  0.00     0.293 HD
ENDBRANCH  15  18
BRANCH  17  20
ATOM     20  O   UNL     1      25.709 -13.198  35.363  1.00  0.00    -0.504 OA
ATOM     21  H   UNL     1      25.140 -13.977  35.051  1.00  0.00     0.293 HD
ENDBRANCH  17  20
ENDBRANCH   1  12
BRANCH   2  22
ATOM     22  O   UNL     1      29.955 -11.064  31.743  1.00  0.00    -0.502 OA
ATOM     23  H   UNL     1      29.859 -10.089  31.999  1.00  0.00     0.293 HD
ENDBRANCH   2  22
BRANCH   9  24
ATOM     24  O   UNL     1      26.251 -14.630  25.920  1.00  0.00    -0.508 OA
ATOM     25  H   UNL     1      25.884 -15.553  26.123  1.00  0.00     0.293 HD
ENDBRANCH   9  24
TORSDOF 5
ENDMDL
MODEL 3
REMARK VINA RESULT:    -5.012      1.864      7.143
REMARK INTER + INTRA:          -5.758
REMARK INTER:                  -5.592
REMARK INTRA:                  -0.166
REMARK UNBOUND:                 0.134
REMARK SMILES O=c1c(O)c(-c2ccc(O)c(O)c2)oc2cc(O)ccc12
REMARK SMILES IDX 5 1 3 2 2 3 1 4 21 5 15 6 14 7 16 8 17 9 19 10 20 11 6 12
REMARK SMILES IDX 7 13 8 14 9 15 13 16 11 17 10 18 12 20 4 22 18 24
REMARK H PARENT 10 19 12 21 4 23 18 25
REMARK Flexibility Score: inf
ROOT
ATOM      1  C   UNL     1      27.329 -12.657  31.027  1.00  0.00     0.180 A 
ATOM      2  C   UNL     1      26.917 -13.966  31.353  1.00  0.00     0.208 A 
ATOM      3  C   UNL     1      26.354 -14.202  32.617  1.00  0.00     0.235 A 
ATOM      4  O   UNL     1      25.968 -15.362  32.929  1.00  0.00    -0.285 OA
ATOM      5  C   UNL     1      26.235 -13.142  33.529  1.00  0.00     0.069 A 
ATOM      6  C   UNL     1      26.693 -11.866  33.135  1.00  0.00     0.142 A 
ATOM      7  O   UNL     1      27.212 -11.682  31.927  1.00  0.00    -0.452 OA
ATOM      8  C   UNL     1      26.600 -10.786  34.019  1.00  0.00     0.094 A 
ATOM      9  C   UNL     1      26.052 -10.963  35.294  1.00  0.00     0.119 A 
ATOM     10  C   UNL     1      25.595 -12.227  35.689  1.00  0.00     0.047 A 
ATOM     11  C   UNL     1      25.685 -13.313  34.813  1.00  0.00     0.020 A 
ENDROOT
BRANCH   1  12
ATOM     12  C   UNL     1      27.915 -12.323  29.709  1.00  0.00     0.025 A 
ATOM     13  C   UNL     1      27.199 -11.505  28.822  1.00  0.00     0.016 A 
ATOM     14  C   UNL     1      27.723 -11.195  27.565  1.00  0.00     0.051 A 
ATOM     15  C   UNL     1      28.963 -11.706  27.170  1.00  0.00     0.157 A 
ATOM     16  C   UNL     1      29.153 -12.854  29.302  1.00  0.00     0.062 A 
ATOM     17  C   UNL     1      29.680 -12.545  28.039  1.00  0.00     0.158 A 
BRANCH  15  18
ATOM     18  O   UNL     1      29.462 -11.377  25.910  1.00  0.00    -0.504 OA
ATOM     19  H   UNL     1      29.526 -12.056  25.162  1.00  0.00     0.293 HD
ENDBRANCH  15  18
BRANCH  17  20
ATOM     20  O   UNL     1      30.909 -13.070  27.646  1.00  0.00    -0.504 OA
ATOM     21  H   UNL     1      31.564 -12.532  27.090  1.00  0.00     0.293 HD
ENDBRANCH  17  20
ENDBRANCH   1  12
BRANCH   2  22
ATOM     22  O   UNL     1      27.094 -15.011  30.443  1.00  0.00    -0.502 OA
ATOM     23  H   UNL     1      26.527 -15.106  29.610  1.00  0.00     0.293 HD
ENDBRANCH   2  22
BRANCH   9  24
ATOM     24  O   UNL     1      25.967  -9.875  36.161  1.00  0.00    -0.508 OA
ATOM     25  H   UNL     1      26.640  -9.118  36.129  1.00  0.00     0.293 HD
ENDBRANCH   9  24
TORSDOF 5
ENDMDL
MODEL 4
REMARK VINA RESULT:    -4.825      2.290      4.079
REMARK INTER + INTRA:          -5.538
REMARK INTER:                  -6.011
REMARK INTRA:                   0.474
REMARK UNBOUND:                 0.134
REMARK SMILES O=c1c(O)c(-c2ccc(O)c(O)c2)oc2cc(O)ccc12
REMARK SMILES IDX 5 1 3 2 2 3 1 4 21 5 15 6 14 7 16 8 17 9 19 10 20 11 6 12
REMARK SMILES IDX 7 13 8 14 9 15 13 16 11 17 10 18 12 20 4 22 18 24
REMARK H PARENT 10 19 12 21 4 23 18 25
REMARK Flexibility Score: inf
ROOT
ATOM      1  C   UNL     1      26.454 -12.133  33.476  1.00  0.00     0.180 A 
ATOM      2  C   UNL     1      26.376 -13.466  33.022  1.00  0.00     0.208 A 
ATOM      3  C   UNL     1      27.109 -13.837  31.884  1.00  0.00     0.235 A 
ATOM      4  O   UNL     1      27.064 -15.026  31.465  1.00  0.00    -0.285 OA
ATOM      5  C   UNL     1      27.881 -12.873  31.216  1.00  0.00     0.069 A 
ATOM      6  C   UNL     1      27.887 -11.555  31.720  1.00  0.00     0.142 A 
ATOM      7  O   UNL     1      27.187 -11.246  32.805  1.00  0.00    -0.452 OA
ATOM      8  C   UNL     1      28.637 -10.564  31.076  1.00  0.00     0.094 A 
ATOM      9  C   UNL     1      29.383 -10.874  29.934  1.00  0.00     0.119 A 
ATOM     10  C   UNL     1      29.381 -12.182  29.432  1.00  0.00     0.047 A 
ATOM     11  C   UNL     1      28.634 -13.179  30.068  1.00  0.00     0.020 A 
ENDROOT
BRANCH   1  12
ATOM     12  C   UNL     1      25.726 -11.667  34.678  1.00  0.00     0.025 A 
ATOM     13  C   UNL     1      25.847 -10.330  35.085  1.00  0.00     0.016 A 
ATOM     14  C   UNL     1      25.186  -9.875  36.229  1.00  0.00     0.051 A 
ATOM     15  C   UNL     1      24.405 -10.750  36.990  1.00  0.00     0.157 A 
ATOM     16  C   UNL     1      24.957 -12.552  35.457  1.00  0.00     0.062 A 
ATOM     17  C   UNL     1      24.294 -12.097  36.606  1.00  0.00     0.158 A 
BRANCH  15  18
ATOM     18  O   UNL     1      23.755 -10.267  38.125  1.00  0.00    -0.504 OA
ATOM     19  H   UNL     1      22.797  -9.940  38.098  1.00  0.00     0.293 HD
ENDBRANCH  15  18
BRANCH  17  20
ATOM     20  O   UNL     1      23.530 -12.978  37.368  1.00  0.00    -0.504 OA
ATOM     21  H   UNL     1      23.902 -13.423  38.200  1.00  0.00     0.293 HD
ENDBRANCH  17  20
ENDBRANCH   1  12
BRANCH   2  22
ATOM     22  O   UNL     1      25.560 -14.391  33.679  1.00  0.00    -0.502 OA
ATOM     23  H   UNL     1      24.710 -14.752  33.265  1.00  0.00     0.293 HD
ENDBRANCH   2  22
BRANCH   9  24
ATOM     24  O   UNL     1      30.124  -9.875  29.307  1.00  0.00    -0.508 OA
ATOM     25  H   UNL     1      30.660  -9.200  29.840  1.00  0.00     0.293 HD
ENDBRANCH   9  24
TORSDOF 5
ENDMDL
MODEL 5
REMARK VINA RESULT:    -4.283      2.111      2.722
REMARK INTER + INTRA:          -4.900
REMARK INTER:                  -4.845
REMARK INTRA:                  -0.055
REMARK UNBOUND:                 0.134
REMARK SMILES O=c1c(O)c(-c2ccc(O)c(O)c2)oc2cc(O)ccc12
REMARK SMILES IDX 5 1 3 2 2 3 1 4 21 5 15 6 14 7 16 8 17 9 19 10 20 11 6 12
REMARK SMILES IDX 7 13 8 14 9 15 13 16 11 17 10 18 12 20 4 22 18 24
REMARK H PARENT 10 19 12 21 4 23 18 25
REMARK Flexibility Score: inf
ROOT
ATOM      1  C   UNL     1      27.782 -11.533  31.239  1.00  0.00     0.180 A 
ATOM      2  C   UNL     1      27.375 -10.824  30.090  1.00  0.00     0.208 A 
ATOM      3  C   UNL     1      28.036 -11.067  28.876  1.00  0.00     0.235 A 
ATOM      4  O   UNL     1      27.684 -10.453  27.831  1.00  0.00    -0.285 OA
ATOM      5  C   UNL     1      29.094 -11.989  28.839  1.00  0.00     0.069 A 
ATOM      6  C   UNL     1      29.456 -12.640  30.038  1.00  0.00     0.142 A 
ATOM      7  O   UNL     1      28.800 -12.389  31.164  1.00  0.00    -0.452 OA
ATOM      8  C   UNL     1      30.512 -13.559  30.043  1.00  0.00     0.094 A 
ATOM      9  C   UNL     1      31.211 -13.838  28.864  1.00  0.00     0.119 A 
ATOM     10  C   UNL     1      30.853 -13.194  27.672  1.00  0.00     0.047 A 
ATOM     11  C   UNL     1      29.801 -12.274  27.656  1.00  0.00     0.020 A 
ENDROOT
BRANCH   1  12
ATOM     12  C   UNL     1      27.123 -11.347  32.552  1.00  0.00     0.025 A 
ATOM     13  C   UNL     1      27.087 -10.069  33.132  1.00  0.00     0.016 A 
ATOM     14  C   UNL     1      26.490  -9.875  34.380  1.00  0.00     0.051 A 
ATOM     15  C   UNL     1      25.933 -10.954  35.073  1.00  0.00     0.157 A 
ATOM     16  C   UNL     1      26.582 -12.435  33.261  1.00  0.00     0.062 A 
ATOM     17  C   UNL     1      25.984 -12.242  34.515  1.00  0.00     0.158 A 
BRANCH  15  18
ATOM     18  O   UNL     1      25.341 -10.729  36.316  1.00  0.00    -0.504 OA
ATOM     19  H   UNL     1      25.281 -11.452  37.022  1.00  0.00     0.293 HD
ENDBRANCH  15  18
BRANCH  17  20
ATOM     20  O   UNL     1      25.444 -13.324  35.207  1.00  0.00    -0.504 OA
ATOM     21  H   UNL     1      25.529 -13.408  36.213  1.00  0.00     0.293 HD
ENDBRANCH  17  20
ENDBRANCH   1  12
BRANCH   2  22
ATOM     22  O   UNL     1      26.352  -9.875  30.169  1.00  0.00    -0.502 OA
ATOM     23  H   UNL     1      26.529  -8.881  30.106  1.00  0.00     0.293 HD
ENDBRANCH   2  22
BRANCH   9  24
ATOM     24  O   UNL     1      32.258 -14.756  28.888  1.00  0.00    -0.508 OA
ATOM     25  H   UNL     1      32.815 -14.901  29.722  1.00  0.00     0.293 HD
ENDBRANCH   9  24
TORSDOF 5
ENDMDL
MODEL 6
REMARK VINA RESULT:    -4.221      1.456      2.887
REMARK INTER + INTRA:          -4.827
REMARK INTER:                  -5.220
REMARK INTRA:                   0.393
REMARK UNBOUND:                 0.134
REMARK SMILES O=c1c(O)c(-c2ccc(O)c(O)c2)oc2cc(O)ccc12
REMARK SMILES IDX 5 1 3 2 2 3 1 4 21 5 15 6 14 7 16 8 17 9 19 10 20 11 6 12
REMARK SMILES IDX 7 13 8 14 9 15 13 16 11 17 10 18 12 20 4 22 18 24
REMARK H PARENT 10 19 12 21 4 23 18 25
REMARK Flexibility Score: inf
ROOT
ATOM      1  C   UNL     1      26.880 -12.912  30.528  1.00  0.00     0.180 A 
ATOM      2  C   UNL     1      26.295 -13.994  29.839  1.00  0.00     0.208 A 
ATOM      3  C   UNL     1      26.518 -14.118  28.459  1.00  0.00     0.235 A 
ATOM      4  O   UNL     1      26.014 -15.084  27.823  1.00  0.00    -0.285 OA
ATOM      5  C   UNL     1      27.296 -13.155  27.797  1.00  0.00     0.069 A 
ATOM      6  C   UNL     1      27.827 -12.088  28.553  1.00  0.00     0.142 A 
ATOM      7  O   UNL     1      27.600 -12.012  29.859  1.00  0.00    -0.452 OA
ATOM      8  C   UNL     1      28.599 -11.104  27.927  1.00  0.00     0.094 A 
ATOM      9  C   UNL     1      28.851 -11.172  26.553  1.00  0.00     0.119 A 
ATOM     10  C   UNL     1      28.327 -12.231  25.799  1.00  0.00     0.047 A 
ATOM     11  C   UNL     1      27.553 -13.219  26.415  1.00  0.00     0.020 A 
ENDROOT
BRANCH   1  12
ATOM     12  C   UNL     1      26.707 -12.721  31.986  1.00  0.00     0.025 A 
ATOM     13  C   UNL     1      26.387 -13.823  32.794  1.00  0.00     0.016 A 
ATOM     14  C   UNL     1      26.198 -13.662  34.168  1.00  0.00     0.051 A 
ATOM     15  C   UNL     1      26.313 -12.398  34.755  1.00  0.00     0.157 A 
ATOM     16  C   UNL     1      26.801 -11.446  32.575  1.00  0.00     0.062 A 
ATOM     17  C   UNL     1      26.610 -11.283  33.954  1.00  0.00     0.158 A 
BRANCH  15  18
ATOM     18  O   UNL     1      26.122 -12.269  36.131  1.00  0.00    -0.504 OA
ATOM     19  H   UNL     1      26.392 -12.996  36.782  1.00  0.00     0.293 HD
ENDBRANCH  15  18
BRANCH  17  20
ATOM     20  O   UNL     1      26.712 -10.018  34.530  1.00  0.00    -0.504 OA
ATOM     21  H   UNL     1      25.891  -9.497  34.818  1.00  0.00     0.293 HD
ENDBRANCH  17  20
ENDBRANCH   1  12
BRANCH   2  22
ATOM     22  O   UNL     1      25.484 -14.909  30.517  1.00  0.00    -0.502 OA
ATOM     23  H   UNL     1      24.634 -15.282  30.113  1.00  0.00     0.293 HD
ENDBRANCH   2  22
BRANCH   9  24
ATOM     24  O   UNL     1      29.623 -10.183  25.947  1.00  0.00    -0.508 OA
ATOM     25  H   UNL     1      30.279  -9.624  26.479  1.00  0.00     0.293 HD
ENDBRANCH   9  24
TORSDOF 5
ENDMDL
MODEL 7
REMARK VINA RESULT:    -3.249      2.268      3.561
REMARK INTER + INTRA:          -3.684
REMARK INTER:                  -3.626
REMARK INTRA:                  -0.059
REMARK UNBOUND:                 0.134
REMARK SMILES O=c1c(O)c(-c2ccc(O)c(O)c2)oc2cc(O)ccc12
REMARK SMILES IDX 5 1 3 2 2 3 1 4 21 5 15 6 14 7 16 8 17 9 19 10 20 11 6 12
REMARK SMILES IDX 7 13 8 14 9 15 13 16 11 17 10 18 12 20 4 22 18 24
REMARK H PARENT 10 19 12 21 4 23 18 25
REMARK Flexibility Score: inf
ROOT
ATOM      1  C   UNL     1      27.694 -13.003  31.896  1.00  0.00     0.180 A 
ATOM      2  C   UNL     1      27.265 -13.298  30.586  1.00  0.00     0.208 A 
ATOM      3  C   UNL     1      28.221 -13.367  29.560  1.00  0.00     0.235 A 
ATOM      4  O   UNL     1      27.863 -13.640  28.382  1.00  0.00    -0.285 OA
ATOM      5  C   UNL     1      29.571 -13.121  29.857  1.00  0.00     0.069 A 
ATOM      6  C   UNL     1      29.916 -12.809  31.189  1.00  0.00     0.142 A 
ATOM      7  O   UNL     1      28.983 -12.762  32.133  1.00  0.00    -0.452 OA
ATOM      8  C   UNL     1      31.250 -12.548  31.523  1.00  0.00     0.094 A 
ATOM      9  C   UNL     1      32.246 -12.598  30.541  1.00  0.00     0.119 A 
ATOM     10  C   UNL     1      31.907 -12.909  29.218  1.00  0.00     0.047 A 
ATOM     11  C   UNL     1      30.576 -13.170  28.874  1.00  0.00     0.020 A 
ENDROOT
BRANCH   1  12
ATOM     12  C   UNL     1      26.752 -12.930  33.035  1.00  0.00     0.025 A 
ATOM     13  C   UNL     1      25.930 -14.031  33.324  1.00  0.00     0.016 A 
ATOM     14  C   UNL     1      25.018 -13.975  34.381  1.00  0.00     0.051 A 
ATOM     15  C   UNL     1      24.903 -12.817  35.156  1.00  0.00     0.157 A 
ATOM     16  C   UNL     1      26.620 -11.758  33.803  1.00  0.00     0.062 A 
ATOM     17  C   UNL     1      25.703 -11.700  34.863  1.00  0.00     0.158 A 
BRANCH  15  18
ATOM     18  O   UNL     1      23.985 -12.793  36.206  1.00  0.00    -0.504 OA
ATOM     19  H   UNL     1      23.558 -11.933  36.527  1.00  0.00     0.293 HD
ENDBRANCH  15  18
BRANCH  17  20
ATOM     20  O   UNL     1      25.583 -10.538  35.622  1.00  0.00    -0.504 OA
ATOM     21  H   UNL     1      25.134 -10.541  36.531  1.00  0.00     0.293 HD
ENDBRANCH  17  20
ENDBRANCH   1  12
BRANCH   2  22
ATOM     22  O   UNL     1      25.908 -13.489  30.312  1.00  0.00    -0.502 OA
ATOM     23  H   UNL     1      25.475 -14.404  30.333  1.00  0.00     0.293 HD
ENDBRANCH   2  22
BRANCH   9  24
ATOM     24  O   UNL     1      33.568 -12.336  30.892  1.00  0.00    -0.508 OA
ATOM     25  H   UNL     1      33.982 -12.731  31.729  1.00  0.00     0.293 HD
ENDBRANCH   9  24
TORSDOF 5
ENDMDL
