MODEL 1
REMARK VINA RESULT:    -4.603      0.000      0.000
REMARK INTER + INTRA:          -5.037
REMARK INTER:                  -5.007
REMARK INTRA:                  -0.030
REMARK UNBOUND:                -0.030
REMARK SMILES O=C([O-])c1ccc(O)cc1
REMARK SMILES IDX 4 1 5 2 10 3 6 4 9 5 7 6 2 7 1 8 3 9 8 10
REMARK H PARENT 8 11
REMARK Flexibility Score: inf
ROOT
ATOM      1  C   UNL     1      29.869  10.017 -34.568  1.00  0.00    -0.003 A 
ATOM      2  C   UNL     1      30.530  11.217 -34.243  1.00  0.00     0.014 A 
ATOM      3  C   UNL     1      28.670   9.698 -33.905  1.00  0.00     0.014 A 
ATOM      4  C   UNL     1      29.999  12.078 -33.277  1.00  0.00     0.047 A 
ATOM      5  C   UNL     1      28.145  10.561 -32.939  1.00  0.00     0.047 A 
ATOM      6  C   UNL     1      28.805  11.751 -32.622  1.00  0.00     0.115 A 
ENDROOT
BRANCH   1   7
ATOM      7  C   UNL     1      30.426   9.103 -35.590  1.00  0.00     0.071 C 
ATOM      8  O   UNL     1      31.613   8.692 -35.504  1.00  0.00    -0.545 OA
ATOM      9  O   UNL     1      29.643   8.685 -36.661  1.00  0.00    -0.545 OA
ENDBRANCH   1   7
BRANCH   6  10
ATOM     10  O   UNL     1      28.268  12.600 -31.658  1.00  0.00    -0.508 OA
ATOM     11  H   UNL     1      28.476  12.483 -30.673  1.00  0.00     0.293 HD
ENDBRANCH   6  10
TORSDOF 2
ENDMDL
MODEL 2
REMARK VINA RESULT:    -4.467     11.425     12.081
REMARK INTER + INTRA:          -4.889
REMARK INTER:                  -4.855
REMARK INTRA:                  -0.034
REMARK UNBOUND:                -0.030
REMARK SMILES O=C([O-])c1ccc(O)cc1
REMARK SMILES IDX 4 1 5 2 10 3 6 4 9 5 7 6 2 7 1 8 3 9 8 10
REMARK H PARENT 8 11
REMARK Flexibility Score: inf
ROOT
ATOM      1  C   UNL     1      31.289   6.518 -23.384  1.00  0.00    -0.003 A 
ATOM      2  C   UNL     1      32.441   7.247 -23.034  1.00  0.00     0.014 A 
ATOM      3  C   UNL     1      30.226   6.440 -22.466  1.00  0.00     0.014 A 
ATOM      4  C   UNL     1      32.524   7.884 -21.791  1.00  0.00     0.047 A 
ATOM      5  C   UNL     1      30.314   7.078 -21.226  1.00  0.00     0.047 A 
ATOM      6  C   UNL     1      31.460   7.801 -20.884  1.00  0.00     0.115 A 
ENDROOT
BRANCH   1   7
ATOM      7  C   UNL     1      31.196   5.842 -24.697  1.00  0.00     0.071 C 
ATOM      8  O   UNL     1      30.476   4.818 -24.842  1.00  0.00    -0.545 OA
ATOM      9  O   UNL     1      31.902   6.329 -25.792  1.00  0.00    -0.545 OA
ENDBRANCH   1   7
BRANCH   6  10
ATOM     10  O   UNL     1      31.532   8.431 -19.645  1.00  0.00    -0.508 OA
ATOM     11  H   UNL     1      32.215   8.155 -18.949  1.00  0.00     0.293 HD
ENDBRANCH   6  10
TORSDOF 2
ENDMDL
MODEL 3
REMARK VINA RESULT:    -4.451     11.429     12.172
REMARK INTER + INTRA:          -4.871
REMARK INTER:                  -4.838
REMARK INTRA:                  -0.033
REMARK UNBOUND:                -0.030
REMARK SMILES O=C([O-])c1ccc(O)cc1
REMARK SMILES IDX 4 1 5 2 10 3 6 4 9 5 7 6 2 7 1 8 3 9 8 10
REMARK H PARENT 8 11
REMARK Flexibility Score: inf
ROOT
ATOM      1  C   UNL     1      31.295   6.495 -23.386  1.00  0.00    -0.003 A 
ATOM      2  C   UNL     1      30.220   6.428 -22.480  1.00  0.00     0.014 A 
ATOM      3  C   UNL     1      32.446   7.220 -23.027  1.00  0.00     0.014 A 
ATOM      4  C   UNL     1      30.298   7.071 -21.240  1.00  0.00     0.047 A 
ATOM      5  C   UNL     1      32.519   7.861 -21.787  1.00  0.00     0.047 A 
ATOM      6  C   UNL     1      31.449   7.789 -20.891  1.00  0.00     0.115 A 
ENDROOT
BRANCH   1   7
ATOM      7  C   UNL     1      31.218   5.817 -24.699  1.00  0.00     0.071 C 
ATOM      8  O   UNL     1      30.568   4.746 -24.830  1.00  0.00    -0.545 OA
ATOM      9  O   UNL     1      31.863   6.354 -25.808  1.00  0.00    -0.545 OA
ENDBRANCH   1   7
BRANCH   6  10
ATOM     10  O   UNL     1      31.538   8.434 -19.660  1.00  0.00    -0.508 OA
ATOM     11  H   UNL     1      32.340   9.004 -19.416  1.00  0.00     0.293 HD
ENDBRANCH   6  10
TORSDOF 2
ENDMDL
MODEL 4
REMARK VINA RESULT:    -4.410      1.751      4.040
REMARK INTER + INTRA:          -4.826
REMARK INTER:                  -4.798
REMARK INTRA:                  -0.028
REMARK UNBOUND:                -0.030
REMARK SMILES O=C([O-])c1ccc(O)cc1
REMARK SMILES IDX 4 1 5 2 10 3 6 4 9 5 7 6 2 7 1 8 3 9 8 10
REMARK H PARENT 8 11
REMARK Flexibility Score: inf
ROOT
ATOM      1  C   UNL     1      28.137  10.477 -32.627  1.00  0.00    -0.003 A 
ATOM      2  C   UNL     1      28.836  11.698 -32.650  1.00  0.00     0.014 A 
ATOM      3  C   UNL     1      28.644   9.387 -33.358  1.00  0.00     0.014 A 
ATOM      4  C   UNL     1      30.017  11.824 -33.390  1.00  0.00     0.047 A 
ATOM      5  C   UNL     1      29.824   9.518 -34.096  1.00  0.00     0.047 A 
ATOM      6  C   UNL     1      30.513  10.733 -34.114  1.00  0.00     0.115 A 
ENDROOT
BRANCH   1   7
ATOM      7  C   UNL     1      26.887  10.338 -31.846  1.00  0.00     0.071 C 
ATOM      8  O   UNL     1      26.857   9.631 -30.805  1.00  0.00    -0.545 OA
ATOM      9  O   UNL     1      25.728  10.989 -32.253  1.00  0.00    -0.545 OA
ENDBRANCH   1   7
BRANCH   6  10
ATOM     10  O   UNL     1      31.688  10.847 -34.854  1.00  0.00    -0.508 OA
ATOM     11  H   UNL     1      31.933  11.707 -35.330  1.00  0.00     0.293 HD
ENDBRANCH   6  10
TORSDOF 2
ENDMDL
MODEL 5
REMARK VINA RESULT:    -4.398      1.776      4.211
REMARK INTER + INTRA:          -4.814
REMARK INTER:                  -4.786
REMARK INTRA:                  -0.028
REMARK UNBOUND:                -0.030
REMARK SMILES O=C([O-])c1ccc(O)cc1
REMARK SMILES IDX 4 1 5 2 10 3 6 4 9 5 7 6 2 7 1 8 3 9 8 10
REMARK H PARENT 8 11
REMARK Flexibility Score: inf
ROOT
ATOM      1  C   UNL     1      28.145  10.450 -32.603  1.00  0.00    -0.003 A 
ATOM      2  C   UNL     1      28.665   9.366 -33.334  1.00  0.00     0.014 A 
ATOM      3  C   UNL     1      28.824  11.682 -32.634  1.00  0.00     0.014 A 
ATOM      4  C   UNL     1      29.839   9.513 -34.080  1.00  0.00     0.047 A 
ATOM      5  C   UNL     1      29.997  11.824 -33.380  1.00  0.00     0.047 A 
ATOM      6  C   UNL     1      30.508  10.744 -34.105  1.00  0.00     0.115 A 
ENDROOT
BRANCH   1   7
ATOM      7  C   UNL     1      26.903  10.300 -31.812  1.00  0.00     0.071 C 
ATOM      8  O   UNL     1      26.898   9.628 -30.747  1.00  0.00    -0.545 OA
ATOM      9  O   UNL     1      25.722  10.902 -32.234  1.00  0.00    -0.545 OA
ENDBRANCH   1   7
BRANCH   6  10
ATOM     10  O   UNL     1      31.677  10.902 -34.844  1.00  0.00    -0.508 OA
ATOM     11  H   UNL     1      31.851  11.739 -35.388  1.00  0.00     0.293 HD
ENDBRANCH   6  10
TORSDOF 2
ENDMDL
MODEL 6
REMARK VINA RESULT:    -4.254     11.782     12.953
REMARK INTER + INTRA:          -4.657
REMARK INTER:                  -4.625
REMARK INTRA:                  -0.033
REMARK UNBOUND:                -0.030
REMARK SMILES O=C([O-])c1ccc(O)cc1
REMARK SMILES IDX 4 1 5 2 10 3 6 4 9 5 7 6 2 7 1 8 3 9 8 10
REMARK H PARENT 8 11
REMARK Flexibility Score: inf
ROOT
ATOM      1  C   UNL     1      32.216   7.579 -21.957  1.00  0.00    -0.003 A 
ATOM      2  C   UNL     1      31.012   7.750 -21.248  1.00  0.00     0.014 A 
ATOM      3  C   UNL     1      32.208   6.823 -23.143  1.00  0.00     0.014 A 
ATOM      4  C   UNL     1      29.826   7.177 -21.719  1.00  0.00     0.047 A 
ATOM      5  C   UNL     1      31.020   6.252 -23.610  1.00  0.00     0.047 A 
ATOM      6  C   UNL     1      29.828   6.426 -22.902  1.00  0.00     0.115 A 
ENDROOT
BRANCH   1   7
ATOM      7  C   UNL     1      33.474   8.183 -21.463  1.00  0.00     0.071 C 
ATOM      8  O   UNL     1      33.466   9.310 -20.902  1.00  0.00    -0.545 OA
ATOM      9  O   UNL     1      34.683   7.513 -21.614  1.00  0.00    -0.545 OA
ENDBRANCH   1   7
BRANCH   6  10
ATOM     10  O   UNL     1      28.654   5.851 -23.380  1.00  0.00    -0.508 OA
ATOM     11  H   UNL     1      28.657   4.954 -23.853  1.00  0.00     0.293 HD
ENDBRANCH   6  10
TORSDOF 2
ENDMDL
MODEL 7
REMARK VINA RESULT:    -4.099      1.676      2.610
REMARK INTER + INTRA:          -4.488
REMARK INTER:                  -4.453
REMARK INTRA:                  -0.035
REMARK UNBOUND:                -0.030
REMARK SMILES O=C([O-])c1ccc(O)cc1
REMARK SMILES IDX 4 1 5 2 10 3 6 4 9 5 7 6 2 7 1 8 3 9 8 10
REMARK H PARENT 8 11
REMARK Flexibility Score: inf
ROOT
ATOM      1  C   UNL     1      28.952  10.548 -33.341  1.00  0.00    -0.003 A 
ATOM      2  C   UNL     1      27.803   9.739 -33.269  1.00  0.00     0.014 A 
ATOM      3  C   UNL     1      28.910  11.842 -32.791  1.00  0.00     0.014 A 
ATOM      4  C   UNL     1      26.638  10.217 -32.659  1.00  0.00     0.047 A 
ATOM      5  C   UNL     1      27.744  12.315 -32.183  1.00  0.00     0.047 A 
ATOM      6  C   UNL     1      26.607  11.506 -32.114  1.00  0.00     0.115 A 
ENDROOT
BRANCH   1   7
ATOM      7  C   UNL     1      30.187  10.049 -33.985  1.00  0.00     0.071 C 
ATOM      8  O   UNL     1      31.065  10.851 -34.399  1.00  0.00    -0.545 OA
ATOM      9  O   UNL     1      30.396   8.682 -34.142  1.00  0.00    -0.545 OA
ENDBRANCH   1   7
BRANCH   6  10
ATOM     10  O   UNL     1      25.453  11.992 -31.505  1.00  0.00    -0.508 OA
ATOM     11  H   UNL     1      24.817  12.613 -31.992  1.00  0.00     0.293 HD
ENDBRANCH   6  10
TORSDOF 2
ENDMDL
MODEL 8
REMARK VINA RESULT:    -4.090      2.174      3.339
REMARK INTER + INTRA:          -4.478
REMARK INTER:                  -4.442
REMARK INTRA:                  -0.036
REMARK UNBOUND:                -0.030
REMARK SMILES O=C([O-])c1ccc(O)cc1
REMARK SMILES IDX 4 1 5 2 10 3 6 4 9 5 7 6 2 7 1 8 3 9 8 10
REMARK H PARENT 8 11
REMARK Flexibility Score: inf
ROOT
ATOM      1  C   UNL     1      28.710  11.156 -32.973  1.00  0.00    -0.003 A 
ATOM      2  C   UNL     1      27.858  11.942 -32.174  1.00  0.00     0.014 A 
ATOM      3  C   UNL     1      28.274   9.885 -33.388  1.00  0.00     0.014 A 
ATOM      4  C   UNL     1      26.598  11.464 -31.800  1.00  0.00     0.047 A 
ATOM      5  C   UNL     1      27.014   9.411 -33.011  1.00  0.00     0.047 A 
ATOM      6  C   UNL     1      26.173  10.196 -32.219  1.00  0.00     0.115 A 
ENDROOT
BRANCH   1   7
ATOM      7  C   UNL     1      30.044  11.657 -33.372  1.00  0.00     0.071 C 
ATOM      8  O   UNL     1      30.503  12.722 -32.879  1.00  0.00    -0.545 OA
ATOM      9  O   UNL     1      30.811  10.958 -34.298  1.00  0.00    -0.545 OA
ENDBRANCH   1   7
BRANCH   6  10
ATOM     10  O   UNL     1      24.921   9.709 -31.852  1.00  0.00    -0.508 OA
ATOM     11  H   UNL     1      24.770   9.253 -30.960  1.00  0.00     0.293 HD
ENDBRANCH   6  10
TORSDOF 2
ENDMDL
MODEL 9
REMARK VINA RESULT:    -3.821     11.584     12.215
REMARK INTER + INTRA:          -4.185
REMARK INTER:                  -4.158
REMARK INTRA:                  -0.028
REMARK UNBOUND:                -0.030
REMARK SMILES O=C([O-])c1ccc(O)cc1
REMARK SMILES IDX 4 1 5 2 10 3 6 4 9 5 7 6 2 7 1 8 3 9 8 10
REMARK H PARENT 8 11
REMARK Flexibility Score: inf
ROOT
ATOM      1  C   UNL     1      32.351   6.799 -23.404  1.00  0.00    -0.003 A 
ATOM      2  C   UNL     1      33.741   6.780 -23.182  1.00  0.00     0.014 A 
ATOM      3  C   UNL     1      31.534   7.554 -22.543  1.00  0.00     0.014 A 
ATOM      4  C   UNL     1      34.298   7.501 -22.121  1.00  0.00     0.047 A 
ATOM      5  C   UNL     1      32.095   8.272 -21.484  1.00  0.00     0.047 A 
ATOM      6  C   UNL     1      33.476   8.249 -21.269  1.00  0.00     0.115 A 
ENDROOT
BRANCH   1   7
ATOM      7  C   UNL     1      31.756   6.039 -24.525  1.00  0.00     0.071 C 
ATOM      8  O   UNL     1      31.057   5.014 -24.306  1.00  0.00    -0.545 OA
ATOM      9  O   UNL     1      31.961   6.446 -25.839  1.00  0.00    -0.545 OA
ENDBRANCH   1   7
BRANCH   6  10
ATOM     10  O   UNL     1      34.019   8.971 -20.209  1.00  0.00    -0.508 OA
ATOM     11  H   UNL     1      33.492   9.148 -19.362  1.00  0.00     0.293 HD
ENDBRANCH   6  10
TORSDOF 2
ENDMDL
