MODEL 1
REMARK VINA RESULT:    -4.027      0.000      0.000
REMARK INTER + INTRA:          -8.080
REMARK INTER:                  -6.145
REMARK INTRA:                  -1.935
REMARK UNBOUND:                -1.935
REMARK SMILES OC[C@@H]1O[C@H](O[C@@]2(CO)O[C@H](CO)[C@H](O)[C@@H]2O)[C@@H](O)[C@@H](O)[C@H]1O
REMARK SMILES IDX 6 1 5 2 3 3 22 4 4 5 20 6 18 7 2 8 1 9 23 11 21 13 19 15
REMARK SMILES IDX 7 17 16 18 10 19 14 20 11 21 8 22 9 23 17 25 15 27 12 29
REMARK SMILES IDX 13 30
REMARK H PARENT 1 10 23 12 21 14 19 16 9 24 17 26 15 28 13 31
REMARK Flexibility Score: inf
ROOT
ATOM      1  O   UNL     1      10.445 -36.618  50.800  1.00  0.00    -0.313 OA
ENDROOT
BRANCH   1   2
ATOM      2  C   UNL     1       9.529 -36.713  49.715  1.00  0.00     0.285 C 
ATOM      3  C   UNL     1      10.947 -35.606  48.135  1.00  0.00     0.178 C 
ATOM      4  C   UNL     1      11.244 -36.923  47.381  1.00  0.00     0.177 C 
ATOM      5  O   UNL     1       9.697 -35.623  48.816  1.00  0.00    -0.341 OA
ATOM      6  C   UNL     1      11.055 -38.142  48.302  1.00  0.00     0.179 C 
ATOM      7  C   UNL     1       9.694 -38.073  49.010  1.00  0.00     0.202 C 
BRANCH   3   8
ATOM      8  C   UNL     1      12.110 -35.132  49.038  1.00  0.00     0.191 C 
BRANCH   8   9
ATOM      9  O   UNL     1      11.696 -34.073  49.858  1.00  0.00    -0.394 OA
ATOM     10  H   UNL     1      12.196 -33.268  49.560  1.00  0.00     0.210 HD
ENDBRANCH   8   9
ENDBRANCH   3   8
BRANCH   4  11
ATOM     11  O   UNL     1      10.386 -37.009  46.269  1.00  0.00    -0.387 OA
ATOM     12  H   UNL     1       9.461 -37.093  46.618  1.00  0.00     0.211 HD
ENDBRANCH   4  11
BRANCH   6  13
ATOM     13  O   UNL     1      11.161 -39.327  47.555  1.00  0.00    -0.387 OA
ATOM     14  H   UNL     1      10.423 -39.922  47.853  1.00  0.00     0.211 HD
ENDBRANCH   6  13
BRANCH   7  15
ATOM     15  O   UNL     1       8.659 -38.269  48.079  1.00  0.00    -0.385 OA
ATOM     16  H   UNL     1       8.055 -37.486  48.152  1.00  0.00     0.211 HD
ENDBRANCH   7  15
ENDBRANCH   1   2
BRANCH   1  17
ATOM     17  C   UNL     1       9.858 -36.329  52.066  1.00  0.00     0.224 C 
ATOM     18  C   UNL     1       8.300 -36.323  52.001  1.00  0.00     0.208 C 
ATOM     19  O   UNL     1      10.271 -35.018  52.409  1.00  0.00    -0.337 OA
ATOM     20  C   UNL     1       7.915 -35.003  52.622  1.00  0.00     0.180 C 
ATOM     21  C   UNL     1       9.151 -34.171  52.321  1.00  0.00     0.179 C 
BRANCH  17  22
ATOM     22  C   UNL     1      10.441 -37.273  53.154  1.00  0.00     0.225 C 
BRANCH  22  23
ATOM     23  O   UNL     1      10.082 -36.844  54.440  1.00  0.00    -0.391 OA
ATOM     24  H   UNL     1       9.099 -36.965  54.523  1.00  0.00     0.210 HD
ENDBRANCH  22  23
ENDBRANCH  17  22
BRANCH  18  25
ATOM     25  O   UNL     1       7.719 -37.412  52.676  1.00  0.00    -0.385 OA
ATOM     26  H   UNL     1       7.849 -37.247  53.646  1.00  0.00     0.211 HD
ENDBRANCH  18  25
BRANCH  20  27
ATOM     27  O   UNL     1       7.727 -35.149  54.009  1.00  0.00    -0.387 OA
ATOM     28  H   UNL     1       7.188 -35.970  54.147  1.00  0.00     0.211 HD
ENDBRANCH  20  27
BRANCH  21  29
ATOM     29  C   UNL     1       9.331 -32.959  53.245  1.00  0.00     0.191 C 
BRANCH  29  30
ATOM     30  O   UNL     1       8.120 -32.267  53.387  1.00  0.00    -0.394 OA
ATOM     31  H   UNL     1       8.002 -32.090  54.356  1.00  0.00     0.210 HD
ENDBRANCH  29  30
ENDBRANCH  21  29
ENDBRANCH   1  17
TORSDOF 13
ENDMDL
MODEL 2
REMARK VINA RESULT:    -3.976      8.377     10.695
REMARK INTER + INTRA:          -8.002
REMARK INTER:                  -6.014
REMARK INTRA:                  -1.988
REMARK UNBOUND:                -1.935
REMARK SMILES OC[C@@H]1O[C@H](O[C@@]2(CO)O[C@H](CO)[C@H](O)[C@@H]2O)[C@@H](O)[C@@H](O)[C@H]1O
REMARK SMILES IDX 6 1 5 2 3 3 22 4 4 5 20 6 18 7 2 8 1 9 23 11 21 13 19 15
REMARK SMILES IDX 7 17 16 18 10 19 14 20 11 21 8 22 9 23 17 25 15 27 12 29
REMARK SMILES IDX 13 30
REMARK H PARENT 1 10 23 12 21 14 19 16 9 24 17 26 15 28 13 31
REMARK Flexibility Score: inf
ROOT
ATOM      1  O   UNL     1      10.904 -26.386  50.805  1.00  0.00    -0.313 OA
ENDROOT
BRANCH   1   2
ATOM      2  C   UNL     1      11.272 -25.560  49.705  1.00  0.00     0.285 C 
ATOM      3  C   UNL     1      11.296 -27.336  48.098  1.00  0.00     0.178 C 
ATOM      4  C   UNL     1       9.996 -26.835  47.429  1.00  0.00     0.177 C 
ATOM      5  O   UNL     1      12.024 -26.299  48.749  1.00  0.00    -0.341 OA
ATOM      6  C   UNL     1       9.151 -26.007  48.413  1.00  0.00     0.179 C 
ATOM      7  C   UNL     1      10.012 -24.927  49.084  1.00  0.00     0.202 C 
BRANCH   3   8
ATOM      8  C   UNL     1      11.092 -28.576  49.001  1.00  0.00     0.191 C 
BRANCH   8   9
ATOM      9  O   UNL     1      12.297 -28.938  49.619  1.00  0.00    -0.394 OA
ATOM     10  H   UNL     1      12.184 -28.768  50.590  1.00  0.00     0.210 HD
ENDBRANCH   8   9
ENDBRANCH   3   8
BRANCH   4  11
ATOM     11  O   UNL     1      10.337 -26.062  46.304  1.00  0.00    -0.387 OA
ATOM     12  H   UNL     1       9.708 -25.295  46.274  1.00  0.00     0.211 HD
ENDBRANCH   4  11
BRANCH   6  13
ATOM     13  O   UNL     1       8.066 -25.422  47.739  1.00  0.00    -0.387 OA
ATOM     14  H   UNL     1       7.239 -25.785  48.154  1.00  0.00     0.211 HD
ENDBRANCH   6  13
BRANCH   7  15
ATOM     15  O   UNL     1      10.373 -23.949  48.141  1.00  0.00    -0.385 OA
ATOM     16  H   UNL     1       9.532 -23.523  47.833  1.00  0.00     0.211 HD
ENDBRANCH   7  15
ENDBRANCH   1   2
BRANCH   1  17
ATOM     17  C   UNL     1      11.672 -26.194  51.990  1.00  0.00     0.224 C 
ATOM     18  C   UNL     1      12.594 -24.942  51.895  1.00  0.00     0.208 C 
ATOM     19  O   UNL     1      12.512 -27.329  52.111  1.00  0.00    -0.337 OA
ATOM     20  C   UNL     1      13.959 -25.464  52.270  1.00  0.00     0.180 C 
ATOM     21  C   UNL     1      13.834 -26.922  51.856  1.00  0.00     0.179 C 
BRANCH  17  22
ATOM     22  C   UNL     1      10.742 -26.201  53.235  1.00  0.00     0.225 C 
BRANCH  22  23
ATOM     23  O   UNL     1      11.484 -26.334  54.419  1.00  0.00    -0.391 OA
ATOM     24  H   UNL     1      10.896 -26.045  55.165  1.00  0.00     0.210 HD
ENDBRANCH  22  23
ENDBRANCH  17  22
BRANCH  18  25
ATOM     25  O   UNL     1      12.182 -23.892  52.734  1.00  0.00    -0.385 OA
ATOM     26  H   UNL     1      11.200 -23.986  52.847  1.00  0.00     0.211 HD
ENDBRANCH  18  25
BRANCH  20  27
ATOM     27  O   UNL     1      14.163 -25.347  53.658  1.00  0.00    -0.387 OA
ATOM     28  H   UNL     1      14.196 -24.379  53.870  1.00  0.00     0.211 HD
ENDBRANCH  20  27
BRANCH  21  29
ATOM     29  C   UNL     1      14.822 -27.860  52.561  1.00  0.00     0.191 C 
BRANCH  29  30
ATOM     30  O   UNL     1      14.371 -28.167  53.852  1.00  0.00    -0.394 OA
ATOM     31  H   UNL     1      15.090 -27.895  54.480  1.00  0.00     0.210 HD
ENDBRANCH  29  30
ENDBRANCH  21  29
ENDBRANCH   1  17
TORSDOF 13
ENDMDL
MODEL 3
REMARK VINA RESULT:    -3.776      8.513      9.901
REMARK INTER + INTRA:          -7.697
REMARK INTER:                  -5.963
REMARK INTRA:                  -1.734
REMARK UNBOUND:                -1.935
REMARK SMILES OC[C@@H]1O[C@H](O[C@@]2(CO)O[C@H](CO)[C@H](O)[C@@H]2O)[C@@H](O)[C@@H](O)[C@H]1O
REMARK SMILES IDX 6 1 5 2 3 3 22 4 4 5 20 6 18 7 2 8 1 9 23 11 21 13 19 15
REMARK SMILES IDX 7 17 16 18 10 19 14 20 11 21 8 22 9 23 17 25 15 27 12 29
REMARK SMILES IDX 13 30
REMARK H PARENT 1 10 23 12 21 14 19 16 9 24 17 26 15 28 13 31
REMARK Flexibility Score: inf
ROOT
ATOM      1  O   UNL     1      13.832 -26.998  51.378  1.00  0.00    -0.313 OA
ENDROOT
BRANCH   1   2
ATOM      2  C   UNL     1      13.764 -28.339  51.855  1.00  0.00     0.285 C 
ATOM      3  C   UNL     1      14.514 -29.334  49.810  1.00  0.00     0.178 C 
ATOM      4  C   UNL     1      15.892 -29.691  50.414  1.00  0.00     0.177 C 
ATOM      5  O   UNL     1      13.484 -29.239  50.789  1.00  0.00    -0.341 OA
ATOM      6  C   UNL     1      16.237 -28.760  51.590  1.00  0.00     0.179 C 
ATOM      7  C   UNL     1      15.071 -28.699  52.587  1.00  0.00     0.202 C 
BRANCH   3   8
ATOM      8  C   UNL     1      14.549 -28.113  48.863  1.00  0.00     0.191 C 
BRANCH   8   9
ATOM      9  O   UNL     1      13.248 -27.729  48.505  1.00  0.00    -0.394 OA
ATOM     10  H   UNL     1      13.180 -27.831  47.520  1.00  0.00     0.210 HD
ENDBRANCH   8   9
ENDBRANCH   3   8
BRANCH   4  11
ATOM     11  O   UNL     1      15.865 -31.032  50.840  1.00  0.00    -0.387 OA
ATOM     12  H   UNL     1      16.567 -31.515  50.332  1.00  0.00     0.211 HD
ENDBRANCH   4  11
BRANCH   6  13
ATOM     13  O   UNL     1      17.406 -29.209  52.229  1.00  0.00    -0.387 OA
ATOM     14  H   UNL     1      17.926 -28.400  52.478  1.00  0.00     0.211 HD
ENDBRANCH   6  13
BRANCH   7  15
ATOM     15  O   UNL     1      14.937 -29.934  53.244  1.00  0.00    -0.385 OA
ATOM     16  H   UNL     1      14.238 -30.444  52.758  1.00  0.00     0.211 HD
ENDBRANCH   7  15
ENDBRANCH   1   2
BRANCH   1  17
ATOM     17  C   UNL     1      12.763 -26.152  51.795  1.00  0.00     0.224 C 
ATOM     18  C   UNL     1      11.754 -26.896  52.720  1.00  0.00     0.208 C 
ATOM     19  O   UNL     1      12.064 -25.783  50.619  1.00  0.00    -0.337 OA
ATOM     20  C   UNL     1      10.412 -26.631  52.084  1.00  0.00     0.180 C 
ATOM     21  C   UNL     1      10.816 -26.431  50.632  1.00  0.00     0.179 C 
BRANCH  17  22
ATOM     22  C   UNL     1      13.328 -24.838  52.402  1.00  0.00     0.225 C 
BRANCH  22  23
ATOM     23  O   UNL     1      14.223 -25.109  53.448  1.00  0.00    -0.391 OA
ATOM     24  H   UNL     1      14.194 -26.088  53.609  1.00  0.00     0.210 HD
ENDBRANCH  22  23
ENDBRANCH  17  22
BRANCH  18  25
ATOM     25  O   UNL     1      11.802 -26.451  54.054  1.00  0.00    -0.385 OA
ATOM     26  H   UNL     1      11.249 -27.083  54.584  1.00  0.00     0.211 HD
ENDBRANCH  18  25
BRANCH  20  27
ATOM     27  O   UNL     1       9.839 -25.461  52.617  1.00  0.00    -0.387 OA
ATOM     28  H   UNL     1      10.266 -25.301  53.498  1.00  0.00     0.211 HD
ENDBRANCH  20  27
BRANCH  21  29
ATOM     29  C   UNL     1       9.798 -25.637  49.802  1.00  0.00     0.191 C 
BRANCH  29  30
ATOM     30  O   UNL     1       8.503 -26.130  50.012  1.00  0.00    -0.394 OA
ATOM     31  H   UNL     1       8.245 -26.619  49.188  1.00  0.00     0.210 HD
ENDBRANCH  29  30
ENDBRANCH  21  29
ENDBRANCH   1  17
TORSDOF 13
ENDMDL
MODEL 4
REMARK VINA RESULT:    -3.761      9.149     12.715
REMARK INTER + INTRA:          -7.674
REMARK INTER:                  -5.882
REMARK INTRA:                  -1.792
REMARK UNBOUND:                -1.935
REMARK SMILES OC[C@@H]1O[C@H](O[C@@]2(CO)O[C@H](CO)[C@H](O)[C@@H]2O)[C@@H](O)[C@@H](O)[C@H]1O
REMARK SMILES IDX 6 1 5 2 3 3 22 4 4 5 20 6 18 7 2 8 1 9 23 11 21 13 19 15
REMARK SMILES IDX 7 17 16 18 10 19 14 20 11 21 8 22 9 23 17 25 15 27 12 29
REMARK SMILES IDX 13 30
REMARK H PARENT 1 10 23 12 21 14 19 16 9 24 17 26 15 28 13 31
REMARK Flexibility Score: inf
ROOT
ATOM      1  O   UNL     1      10.537 -24.532  50.869  1.00  0.00    -0.313 OA
ENDROOT
BRANCH   1   2
ATOM      2  C   UNL     1      10.856 -24.563  52.257  1.00  0.00     0.285 C 
ATOM      3  C   UNL     1      11.634 -22.300  52.351  1.00  0.00     0.178 C 
ATOM      4  C   UNL     1      10.385 -21.835  53.133  1.00  0.00     0.177 C 
ATOM      5  O   UNL     1      11.933 -23.679  52.546  1.00  0.00    -0.341 OA
ATOM      6  C   UNL     1       9.191 -22.771  52.875  1.00  0.00     0.179 C 
ATOM      7  C   UNL     1       9.601 -24.236  53.088  1.00  0.00     0.202 C 
BRANCH   3   8
ATOM      8  C   UNL     1      11.616 -21.901  50.857  1.00  0.00     0.191 C 
BRANCH   8   9
ATOM      9  O   UNL     1      12.669 -22.521  50.169  1.00  0.00    -0.394 OA
ATOM     10  H   UNL     1      12.666 -23.476  50.441  1.00  0.00     0.210 HD
ENDBRANCH   8   9
ENDBRANCH   3   8
BRANCH   4  11
ATOM     11  O   UNL     1      10.697 -21.803  54.505  1.00  0.00    -0.387 OA
ATOM     12  H   UNL     1      11.540 -21.290  54.602  1.00  0.00     0.211 HD
ENDBRANCH   4  11
BRANCH   6  13
ATOM     13  O   UNL     1       8.123 -22.432  53.724  1.00  0.00    -0.387 OA
ATOM     14  H   UNL     1       8.280 -22.902  54.585  1.00  0.00     0.211 HD
ENDBRANCH   6  13
BRANCH   7  15
ATOM     15  O   UNL     1       9.845 -24.471  54.452  1.00  0.00    -0.385 OA
ATOM     16  H   UNL     1       9.008 -24.842  54.834  1.00  0.00     0.211 HD
ENDBRANCH   7  15
ENDBRANCH   1   2
BRANCH   1  17
ATOM     17  C   UNL     1      10.894 -25.702  50.139  1.00  0.00     0.224 C 
ATOM     18  C   UNL     1      11.318 -26.872  51.077  1.00  0.00     0.208 C 
ATOM     19  O   UNL     1      12.024 -25.357  49.357  1.00  0.00    -0.337 OA
ATOM     20  C   UNL     1      12.654 -27.313  50.530  1.00  0.00     0.180 C 
ATOM     21  C   UNL     1      13.143 -26.024  49.890  1.00  0.00     0.179 C 
BRANCH  17  22
ATOM     22  C   UNL     1       9.764 -26.073  49.139  1.00  0.00     0.225 C 
BRANCH  22  23
ATOM     23  O   UNL     1       8.518 -26.126  49.781  1.00  0.00    -0.391 OA
ATOM     24  H   UNL     1       8.684 -25.980  50.750  1.00  0.00     0.210 HD
ENDBRANCH  22  23
ENDBRANCH  17  22
BRANCH  18  25
ATOM     25  O   UNL     1      10.385 -27.923  51.101  1.00  0.00    -0.385 OA
ATOM     26  H   UNL     1       9.490 -27.512  50.972  1.00  0.00     0.211 HD
ENDBRANCH  18  25
BRANCH  20  27
ATOM     27  O   UNL     1      12.478 -28.323  49.566  1.00  0.00    -0.387 OA
ATOM     28  H   UNL     1      13.234 -28.255  48.928  1.00  0.00     0.211 HD
ENDBRANCH  20  27
BRANCH  21  29
ATOM     29  C   UNL     1      14.205 -26.229  48.801  1.00  0.00     0.191 C 
BRANCH  29  30
ATOM     30  O   UNL     1      13.597 -26.510  47.570  1.00  0.00    -0.394 OA
ATOM     31  H   UNL     1      12.914 -27.210  47.740  1.00  0.00     0.210 HD
ENDBRANCH  29  30
ENDBRANCH  21  29
ENDBRANCH   1  17
TORSDOF 13
ENDMDL
MODEL 5
REMARK VINA RESULT:    -3.757      9.503     10.689
REMARK INTER + INTRA:          -7.669
REMARK INTER:                  -6.189
REMARK INTRA:                  -1.480
REMARK UNBOUND:                -1.935
REMARK SMILES OC[C@@H]1O[C@H](O[C@@]2(CO)O[C@H](CO)[C@H](O)[C@@H]2O)[C@@H](O)[C@@H](O)[C@H]1O
REMARK SMILES IDX 6 1 5 2 3 3 22 4 4 5 20 6 18 7 2 8 1 9 23 11 21 13 19 15
REMARK SMILES IDX 7 17 16 18 10 19 14 20 11 21 8 22 9 23 17 25 15 27 12 29
REMARK SMILES IDX 13 30
REMARK H PARENT 1 10 23 12 21 14 19 16 9 24 17 26 15 28 13 31
REMARK Flexibility Score: inf
ROOT
ATOM      1  O   UNL     1      11.503 -25.817  50.152  1.00  0.00    -0.313 OA
ENDROOT
BRANCH   1   2
ATOM      2  C   UNL     1      11.801 -26.986  49.396  1.00  0.00     0.285 C 
ATOM      3  C   UNL     1       9.830 -26.875  48.040  1.00  0.00     0.178 C 
ATOM      4  C   UNL     1      10.634 -26.439  46.793  1.00  0.00     0.177 C 
ATOM      5  O   UNL     1      10.605 -27.627  48.968  1.00  0.00    -0.341 OA
ATOM      6  C   UNL     1      11.953 -25.757  47.197  1.00  0.00     0.179 C 
ATOM      7  C   UNL     1      12.716 -26.622  48.212  1.00  0.00     0.202 C 
BRANCH   3   8
ATOM      8  C   UNL     1       9.053 -25.720  48.713  1.00  0.00     0.191 C 
BRANCH   8   9
ATOM      9  O   UNL     1       8.483 -26.147  49.921  1.00  0.00    -0.394 OA
ATOM     10  H   UNL     1       7.513 -26.273  49.751  1.00  0.00     0.210 HD
ENDBRANCH   8   9
ENDBRANCH   3   8
BRANCH   4  11
ATOM     11  O   UNL     1      10.890 -27.574  46.002  1.00  0.00    -0.387 OA
ATOM     12  H   UNL     1      10.920 -28.355  46.612  1.00  0.00     0.211 HD
ENDBRANCH   4  11
BRANCH   6  13
ATOM     13  O   UNL     1      12.742 -25.526  46.057  1.00  0.00    -0.387 OA
ATOM     14  H   UNL     1      13.627 -25.210  46.379  1.00  0.00     0.211 HD
ENDBRANCH   6  13
BRANCH   7  15
ATOM     15  O   UNL     1      13.190 -27.788  47.585  1.00  0.00    -0.385 OA
ATOM     16  H   UNL     1      13.659 -28.317  48.280  1.00  0.00     0.211 HD
ENDBRANCH   7  15
ENDBRANCH   1   2
BRANCH   1  17
ATOM     17  C   UNL     1      12.021 -25.805  51.480  1.00  0.00     0.224 C 
ATOM     18  C   UNL     1      13.019 -24.631  51.710  1.00  0.00     0.208 C 
ATOM     19  O   UNL     1      12.746 -27.013  51.637  1.00  0.00    -0.337 OA
ATOM     20  C   UNL     1      14.242 -25.300  52.288  1.00  0.00     0.180 C 
ATOM     21  C   UNL     1      14.114 -26.695  51.696  1.00  0.00     0.179 C 
BRANCH  17  22
ATOM     22  C   UNL     1      10.856 -25.855  52.507  1.00  0.00     0.225 C 
BRANCH  22  23
ATOM     23  O   UNL     1      11.339 -26.054  53.809  1.00  0.00    -0.391 OA
ATOM     24  H   UNL     1      10.602 -26.463  54.334  1.00  0.00     0.210 HD
ENDBRANCH  22  23
ENDBRANCH  17  22
BRANCH  18  25
ATOM     25  O   UNL     1      12.510 -23.636  52.563  1.00  0.00    -0.385 OA
ATOM     26  H   UNL     1      11.824 -23.140  52.043  1.00  0.00     0.211 HD
ENDBRANCH  18  25
BRANCH  20  27
ATOM     27  O   UNL     1      14.163 -25.335  53.693  1.00  0.00    -0.387 OA
ATOM     28  H   UNL     1      13.619 -26.128  53.936  1.00  0.00     0.211 HD
ENDBRANCH  20  27
BRANCH  21  29
ATOM     29  C   UNL     1      14.876 -27.777  52.474  1.00  0.00     0.191 C 
BRANCH  29  30
ATOM     30  O   UNL     1      14.236 -28.047  53.691  1.00  0.00    -0.394 OA
ATOM     31  H   UNL     1      14.807 -27.665  54.407  1.00  0.00     0.210 HD
ENDBRANCH  29  30
ENDBRANCH  21  29
ENDBRANCH   1  17
TORSDOF 13
ENDMDL
MODEL 6
REMARK VINA RESULT:    -3.736      8.518     11.747
REMARK INTER + INTRA:          -7.637
REMARK INTER:                  -6.748
REMARK INTRA:                  -0.888
REMARK UNBOUND:                -1.935
REMARK SMILES OC[C@@H]1O[C@H](O[C@@]2(CO)O[C@H](CO)[C@H](O)[C@@H]2O)[C@@H](O)[C@@H](O)[C@H]1O
REMARK SMILES IDX 6 1 5 2 3 3 22 4 4 5 20 6 18 7 2 8 1 9 23 11 21 13 19 15
REMARK SMILES IDX 7 17 16 18 10 19 14 20 11 21 8 22 9 23 17 25 15 27 12 29
REMARK SMILES IDX 13 30
REMARK H PARENT 1 10 23 12 21 14 19 16 9 24 17 26 15 28 13 31
REMARK Flexibility Score: inf
ROOT
ATOM      1  O   UNL     1      11.619 -25.585  51.052  1.00  0.00    -0.313 OA
ENDROOT
BRANCH   1   2
ATOM      2  C   UNL     1      12.175 -25.701  52.358  1.00  0.00     0.285 C 
ATOM      3  C   UNL     1      12.509 -28.069  52.242  1.00  0.00     0.178 C 
ATOM      4  C   UNL     1      14.041 -27.912  52.118  1.00  0.00     0.177 C 
ATOM      5  O   UNL     1      11.889 -26.978  52.916  1.00  0.00    -0.341 OA
ATOM      6  C   UNL     1      14.411 -26.534  51.539  1.00  0.00     0.179 C 
ATOM      7  C   UNL     1      13.688 -25.418  52.307  1.00  0.00     0.202 C 
BRANCH   3   8
ATOM      8  C   UNL     1      11.810 -28.418  50.907  1.00  0.00     0.191 C 
BRANCH   8   9
ATOM      9  O   UNL     1      10.417 -28.427  51.068  1.00  0.00    -0.394 OA
ATOM     10  H   UNL     1      10.081 -29.240  50.606  1.00  0.00     0.210 HD
ENDBRANCH   8   9
ENDBRANCH   3   8
BRANCH   4  11
ATOM     11  O   UNL     1      14.617 -28.080  53.391  1.00  0.00    -0.387 OA
ATOM     12  H   UNL     1      14.266 -28.931  53.761  1.00  0.00     0.211 HD
ENDBRANCH   4  11
BRANCH   6  13
ATOM     13  O   UNL     1      15.803 -26.348  51.596  1.00  0.00    -0.387 OA
ATOM     14  H   UNL     1      15.970 -25.382  51.440  1.00  0.00     0.211 HD
ENDBRANCH   6  13
BRANCH   7  15
ATOM     15  O   UNL     1      14.209 -25.318  53.609  1.00  0.00    -0.385 OA
ATOM     16  H   UNL     1      15.194 -25.239  53.519  1.00  0.00     0.211 HD
ENDBRANCH   7  15
ENDBRANCH   1   2
BRANCH   1  17
ATOM     17  C   UNL     1      10.597 -24.601  50.913  1.00  0.00     0.224 C 
ATOM     18  C   UNL     1      11.180 -23.190  50.603  1.00  0.00     0.208 C 
ATOM     19  O   UNL     1       9.945 -24.521  52.169  1.00  0.00    -0.337 OA
ATOM     20  C   UNL     1      10.539 -22.294  51.635  1.00  0.00     0.180 C 
ATOM     21  C   UNL     1      10.279 -23.288  52.756  1.00  0.00     0.179 C 
BRANCH  17  22
ATOM     22  C   UNL     1       9.528 -25.081  49.893  1.00  0.00     0.225 C 
BRANCH  22  23
ATOM     23  O   UNL     1       8.808 -26.177  50.393  1.00  0.00    -0.391 OA
ATOM     24  H   UNL     1       8.983 -26.942  49.785  1.00  0.00     0.210 HD
ENDBRANCH  22  23
ENDBRANCH  17  22
BRANCH  18  25
ATOM     25  O   UNL     1      10.910 -22.760  49.292  1.00  0.00    -0.385 OA
ATOM     26  H   UNL     1      11.789 -22.639  48.845  1.00  0.00     0.211 HD
ENDBRANCH  18  25
BRANCH  20  27
ATOM     27  O   UNL     1       9.334 -21.762  51.139  1.00  0.00    -0.387 OA
ATOM     28  H   UNL     1       8.638 -21.919  51.829  1.00  0.00     0.211 HD
ENDBRANCH  20  27
BRANCH  21  29
ATOM     29  C   UNL     1       9.181 -22.852  53.736  1.00  0.00     0.191 C 
BRANCH  29  30
ATOM     30  O   UNL     1       9.233 -23.623  54.905  1.00  0.00    -0.394 OA
ATOM     31  H   UNL     1       8.940 -24.539  54.659  1.00  0.00     0.210 HD
ENDBRANCH  29  30
ENDBRANCH  21  29
ENDBRANCH   1  17
TORSDOF 13
ENDMDL
MODEL 7
REMARK VINA RESULT:    -3.731      9.119     10.353
REMARK INTER + INTRA:          -7.629
REMARK INTER:                  -6.053
REMARK INTRA:                  -1.576
REMARK UNBOUND:                -1.935
REMARK SMILES OC[C@@H]1O[C@H](O[C@@]2(CO)O[C@H](CO)[C@H](O)[C@@H]2O)[C@@H](O)[C@@H](O)[C@H]1O
REMARK SMILES IDX 6 1 5 2 3 3 22 4 4 5 20 6 18 7 2 8 1 9 23 11 21 13 19 15
REMARK SMILES IDX 7 17 16 18 10 19 14 20 11 21 8 22 9 23 17 25 15 27 12 29
REMARK SMILES IDX 13 30
REMARK H PARENT 1 10 23 12 21 14 19 16 9 24 17 26 15 28 13 31
REMARK Flexibility Score: inf
ROOT
ATOM      1  O   UNL     1      11.639 -25.769  50.162  1.00  0.00    -0.313 OA
ENDROOT
BRANCH   1   2
ATOM      2  C   UNL     1      11.955 -27.061  49.653  1.00  0.00     0.285 C 
ATOM      3  C   UNL     1      10.061 -27.187  48.192  1.00  0.00     0.178 C 
ATOM      4  C   UNL     1      10.938 -26.996  46.933  1.00  0.00     0.177 C 
ATOM      5  O   UNL     1      10.771 -27.760  49.285  1.00  0.00    -0.341 OA
ATOM      6  C   UNL     1      12.247 -26.262  47.277  1.00  0.00     0.179 C 
ATOM      7  C   UNL     1      12.938 -26.930  48.475  1.00  0.00     0.202 C 
BRANCH   3   8
ATOM      8  C   UNL     1       9.271 -25.920  48.596  1.00  0.00     0.191 C 
BRANCH   8   9
ATOM      9  O   UNL     1       8.522 -26.156  49.758  1.00  0.00    -0.394 OA
ATOM     10  H   UNL     1       8.594 -27.127  49.953  1.00  0.00     0.210 HD
ENDBRANCH   8   9
ENDBRANCH   3   8
BRANCH   4  11
ATOM     11  O   UNL     1      11.214 -28.260  46.380  1.00  0.00    -0.387 OA
ATOM     12  H   UNL     1      10.350 -28.645  46.084  1.00  0.00     0.211 HD
ENDBRANCH   4  11
BRANCH   6  13
ATOM     13  O   UNL     1      13.099 -26.253  46.160  1.00  0.00    -0.387 OA
ATOM     14  H   UNL     1      12.521 -26.142  45.359  1.00  0.00     0.211 HD
ENDBRANCH   6  13
BRANCH   7  15
ATOM     15  O   UNL     1      13.423 -28.196  48.102  1.00  0.00    -0.385 OA
ATOM     16  H   UNL     1      12.879 -28.867  48.590  1.00  0.00     0.211 HD
ENDBRANCH   7  15
ENDBRANCH   1   2
BRANCH   1  17
ATOM     17  C   UNL     1      11.740 -25.634  51.578  1.00  0.00     0.224 C 
ATOM     18  C   UNL     1      10.803 -26.628  52.329  1.00  0.00     0.208 C 
ATOM     19  O   UNL     1      11.299 -24.324  51.887  1.00  0.00    -0.337 OA
ATOM     20  C   UNL     1      10.032 -25.751  53.285  1.00  0.00     0.180 C 
ATOM     21  C   UNL     1      10.059 -24.424  52.543  1.00  0.00     0.179 C 
BRANCH  17  22
ATOM     22  C   UNL     1      13.228 -25.714  52.017  1.00  0.00     0.225 C 
BRANCH  22  23
ATOM     23  O   UNL     1      13.376 -25.355  53.365  1.00  0.00    -0.391 OA
ATOM     24  H   UNL     1      14.350 -25.282  53.542  1.00  0.00     0.210 HD
ENDBRANCH  22  23
ENDBRANCH  17  22
BRANCH  18  25
ATOM     25  O   UNL     1      11.506 -27.646  52.998  1.00  0.00    -0.385 OA
ATOM     26  H   UNL     1      11.720 -27.296  53.902  1.00  0.00     0.211 HD
ENDBRANCH  18  25
BRANCH  20  27
ATOM     27  O   UNL     1      10.706 -25.659  54.517  1.00  0.00    -0.387 OA
ATOM     28  H   UNL     1      10.475 -26.470  55.039  1.00  0.00     0.211 HD
ENDBRANCH  20  27
BRANCH  21  29
ATOM     29  C   UNL     1       9.836 -23.201  53.443  1.00  0.00     0.191 C 
BRANCH  29  30
ATOM     30  O   UNL     1       8.911 -23.497  54.453  1.00  0.00    -0.394 OA
ATOM     31  H   UNL     1       8.858 -22.697  55.038  1.00  0.00     0.210 HD
ENDBRANCH  29  30
ENDBRANCH  21  29
ENDBRANCH   1  17
TORSDOF 13
ENDMDL
MODEL 8
REMARK VINA RESULT:    -3.722      8.423      9.459
REMARK INTER + INTRA:          -7.615
REMARK INTER:                  -5.958
REMARK INTRA:                  -1.657
REMARK UNBOUND:                -1.935
REMARK SMILES OC[C@@H]1O[C@H](O[C@@]2(CO)O[C@H](CO)[C@H](O)[C@@H]2O)[C@@H](O)[C@@H](O)[C@H]1O
REMARK SMILES IDX 6 1 5 2 3 3 22 4 4 5 20 6 18 7 2 8 1 9 23 11 21 13 19 15
REMARK SMILES IDX 7 17 16 18 10 19 14 20 11 21 8 22 9 23 17 25 15 27 12 29
REMARK SMILES IDX 13 30
REMARK H PARENT 1 10 23 12 21 14 19 16 9 24 17 26 15 28 13 31
REMARK Flexibility Score: inf
ROOT
ATOM      1  O   UNL     1      12.296 -28.029  45.957  1.00  0.00    -0.313 OA
ENDROOT
BRANCH   1   2
ATOM      2  C   UNL     1      12.659 -29.405  46.012  1.00  0.00     0.285 C 
ATOM      3  C   UNL     1      11.389 -30.042  44.084  1.00  0.00     0.178 C 
ATOM      4  C   UNL     1      12.662 -30.230  43.227  1.00  0.00     0.177 C 
ATOM      5  O   UNL     1      11.622 -30.221  45.477  1.00  0.00    -0.341 OA
ATOM      6  C   UNL     1      13.827 -29.385  43.776  1.00  0.00     0.179 C 
ATOM      7  C   UNL     1      13.998 -29.622  45.283  1.00  0.00     0.202 C 
BRANCH   3   8
ATOM      8  C   UNL     1      10.618 -28.737  43.773  1.00  0.00     0.191 C 
BRANCH   8   9
ATOM      9  O   UNL     1       9.593 -28.537  44.708  1.00  0.00    -0.394 OA
ATOM     10  H   UNL     1       8.794 -28.240  44.198  1.00  0.00     0.210 HD
ENDBRANCH   8   9
ENDBRANCH   3   8
BRANCH   4  11
ATOM     11  O   UNL     1      13.005 -31.594  43.222  1.00  0.00    -0.387 OA
ATOM     12  H   UNL     1      13.244 -31.840  44.153  1.00  0.00     0.211 HD
ENDBRANCH   4  11
BRANCH   6  13
ATOM     13  O   UNL     1      15.012 -29.702  43.090  1.00  0.00    -0.387 OA
ATOM     14  H   UNL     1      15.408 -28.842  42.789  1.00  0.00     0.211 HD
ENDBRANCH   6  13
BRANCH   7  15
ATOM     15  O   UNL     1      14.472 -30.925  45.512  1.00  0.00    -0.385 OA
ATOM     16  H   UNL     1      14.678 -30.991  46.480  1.00  0.00     0.211 HD
ENDBRANCH   7  15
ENDBRANCH   1   2
BRANCH   1  17
ATOM     17  C   UNL     1      12.244 -27.365  47.216  1.00  0.00     0.224 C 
ATOM     18  C   UNL     1      11.980 -28.356  48.390  1.00  0.00     0.208 C 
ATOM     19  O   UNL     1      11.140 -26.479  47.156  1.00  0.00    -0.337 OA
ATOM     20  C   UNL     1      10.812 -27.746  49.126  1.00  0.00     0.180 C 
ATOM     21  C   UNL     1      10.134 -26.977  48.004  1.00  0.00     0.179 C 
BRANCH  17  22
ATOM     22  C   UNL     1      13.508 -26.481  47.407  1.00  0.00     0.225 C 
BRANCH  22  23
ATOM     23  O   UNL     1      13.362 -25.623  48.507  1.00  0.00    -0.391 OA
ATOM     24  H   UNL     1      14.240 -25.180  48.649  1.00  0.00     0.210 HD
ENDBRANCH  22  23
ENDBRANCH  17  22
BRANCH  18  25
ATOM     25  O   UNL     1      13.098 -28.526  49.226  1.00  0.00    -0.385 OA
ATOM     26  H   UNL     1      12.816 -29.137  49.957  1.00  0.00     0.211 HD
ENDBRANCH  18  25
BRANCH  20  27
ATOM     27  O   UNL     1      11.268 -26.877  50.135  1.00  0.00    -0.387 OA
ATOM     28  H   UNL     1      10.481 -26.372  50.466  1.00  0.00     0.211 HD
ENDBRANCH  20  27
BRANCH  21  29
ATOM     29  C   UNL     1       9.233 -25.831  48.485  1.00  0.00     0.191 C 
BRANCH  29  30
ATOM     30  O   UNL     1       8.537 -26.208  49.642  1.00  0.00    -0.394 OA
ATOM     31  H   UNL     1       8.490 -27.199  49.639  1.00  0.00     0.210 HD
ENDBRANCH  29  30
ENDBRANCH  21  29
ENDBRANCH   1  17
TORSDOF 13
ENDMDL
MODEL 9
REMARK VINA RESULT:    -3.710      9.558     10.800
REMARK INTER + INTRA:          -7.597
REMARK INTER:                  -5.680
REMARK INTRA:                  -1.917
REMARK UNBOUND:                -1.935
REMARK SMILES OC[C@@H]1O[C@H](O[C@@]2(CO)O[C@H](CO)[C@H](O)[C@@H]2O)[C@@H](O)[C@@H](O)[C@H]1O
REMARK SMILES IDX 6 1 5 2 3 3 22 4 4 5 20 6 18 7 2 8 1 9 23 11 21 13 19 15
REMARK SMILES IDX 7 17 16 18 10 19 14 20 11 21 8 22 9 23 17 25 15 27 12 29
REMARK SMILES IDX 13 30
REMARK H PARENT 1 10 23 12 21 14 19 16 9 24 17 26 15 28 13 31
REMARK Flexibility Score: inf
ROOT
ATOM      1  O   UNL     1      11.583 -25.317  49.755  1.00  0.00    -0.313 OA
ENDROOT
BRANCH   1   2
ATOM      2  C   UNL     1      11.959 -26.529  49.110  1.00  0.00     0.285 C 
ATOM      3  C   UNL     1       9.821 -26.912  48.102  1.00  0.00     0.178 C 
ATOM      4  C   UNL     1      10.348 -26.553  46.694  1.00  0.00     0.177 C 
ATOM      5  O   UNL     1      10.839 -27.396  48.973  1.00  0.00    -0.341 OA
ATOM      6  C   UNL     1      11.579 -25.633  46.783  1.00  0.00     0.179 C 
ATOM      7  C   UNL     1      12.617 -26.216  47.753  1.00  0.00     0.202 C 
BRANCH   3   8
ATOM      8  C   UNL     1       8.967 -25.796  48.748  1.00  0.00     0.191 C 
BRANCH   8   9
ATOM      9  O   UNL     1       8.617 -26.142  50.061  1.00  0.00    -0.394 OA
ATOM     10  H   UNL     1       8.444 -27.120  50.064  1.00  0.00     0.210 HD
ENDBRANCH   8   9
ENDBRANCH   3   8
BRANCH   4  11
ATOM     11  O   UNL     1      10.674 -27.743  46.017  1.00  0.00    -0.387 OA
ATOM     12  H   UNL     1      11.262 -27.497  45.258  1.00  0.00     0.211 HD
ENDBRANCH   4  11
BRANCH   6  13
ATOM     13  O   UNL     1      12.142 -25.461  45.507  1.00  0.00    -0.387 OA
ATOM     14  H   UNL     1      12.993 -25.974  45.496  1.00  0.00     0.211 HD
ENDBRANCH   6  13
BRANCH   7  15
ATOM     15  O   UNL     1      13.183 -27.379  47.205  1.00  0.00    -0.385 OA
ATOM     16  H   UNL     1      12.503 -28.096  47.286  1.00  0.00     0.211 HD
ENDBRANCH   7  15
ENDBRANCH   1   2
BRANCH   1  17
ATOM     17  C   UNL     1      12.098 -25.146  51.073  1.00  0.00     0.224 C 
ATOM     18  C   UNL     1      13.232 -26.165  51.396  1.00  0.00     0.208 C 
ATOM     19  O   UNL     1      11.025 -25.414  51.960  1.00  0.00    -0.337 OA
ATOM     20  C   UNL     1      12.803 -26.788  52.701  1.00  0.00     0.180 C 
ATOM     21  C   UNL     1      11.293 -26.631  52.613  1.00  0.00     0.179 C 
BRANCH  17  22
ATOM     22  C   UNL     1      12.497 -23.662  51.302  1.00  0.00     0.225 C 
BRANCH  22  23
ATOM     23  O   UNL     1      12.732 -23.407  52.662  1.00  0.00    -0.391 OA
ATOM     24  H   UNL     1      11.907 -23.659  53.152  1.00  0.00     0.210 HD
ENDBRANCH  22  23
ENDBRANCH  17  22
BRANCH  18  25
ATOM     25  O   UNL     1      14.499 -25.564  51.491  1.00  0.00    -0.385 OA
ATOM     26  H   UNL     1      14.839 -25.760  52.403  1.00  0.00     0.211 HD
ENDBRANCH  18  25
BRANCH  20  27
ATOM     27  O   UNL     1      13.326 -26.061  53.786  1.00  0.00    -0.387 OA
ATOM     28  H   UNL     1      12.556 -25.716  54.308  1.00  0.00     0.211 HD
ENDBRANCH  20  27
BRANCH  21  29
ATOM     29  C   UNL     1      10.579 -26.671  53.971  1.00  0.00     0.191 C 
BRANCH  29  30
ATOM     30  O   UNL     1      10.352 -25.372  54.444  1.00  0.00    -0.394 OA
ATOM     31  H   UNL     1       9.509 -25.400  54.967  1.00  0.00     0.210 HD
ENDBRANCH  29  30
ENDBRANCH  21  29
ENDBRANCH   1  17
TORSDOF 13
ENDMDL
