MODEL 1
REMARK VINA RESULT:    -5.368      0.000      0.000
REMARK INTER + INTRA:         -14.682
REMARK INTER:                 -11.644
REMARK INTRA:                  -3.038
REMARK UNBOUND:                -3.038
REMARK SMILES CCCCCCCCCCCCCCCCCCCCCC(=O)[O-]
REMARK SMILES IDX 12 1 11 2 10 3 9 4 8 5 7 6 6 7 5 8 4 9 3 10 2 11 1 12 13 13
REMARK SMILES IDX 14 14 15 15 16 16 17 17 18 18 19 19 20 20 21 21 22 22 23 23
REMARK SMILES IDX 24 24
REMARK H PARENT
REMARK Flexibility Score: inf
ROOT
ATOM      1  C   UNL     1     -93.929 -62.248 -66.015  1.00  0.00     0.000 C 
ENDROOT
BRANCH   1   2
ATOM      2  C   UNL     1     -95.270 -61.496 -66.087  1.00  0.00     0.000 C 
BRANCH   2   3
ATOM      3  C   UNL     1     -96.147 -61.714 -64.845  1.00  0.00     0.000 C 
BRANCH   3   4
ATOM      4  C   UNL     1     -97.632 -61.758 -65.224  1.00  0.00    -0.000 C 
BRANCH   4   5
ATOM      5  C   UNL     1     -98.523 -61.623 -63.979  1.00  0.00    -0.000 C 
BRANCH   5   6
ATOM      6  C   UNL     1    -100.023 -61.636 -64.320  1.00  0.00    -0.000 C 
BRANCH   6   7
ATOM      7  C   UNL     1    -100.287 -61.950 -65.803  1.00  0.00    -0.000 C 
BRANCH   7   8
ATOM      8  C   UNL     1    -100.948 -60.775 -66.544  1.00  0.00    -0.000 C 
BRANCH   8   9
ATOM      9  C   UNL     1    -100.233 -59.436 -66.294  1.00  0.00    -0.000 C 
BRANCH   9  10
ATOM     10  C   UNL     1     -99.234 -59.083 -67.407  1.00  0.00    -0.000 C 
BRANCH  10  11
ATOM     11  C   UNL     1     -98.296 -57.931 -67.016  1.00  0.00    -0.003 C 
ATOM     12  C   UNL     1     -97.270 -58.385 -65.983  1.00  0.00     0.004 C 
ENDBRANCH  10  11
ENDBRANCH   9  10
ENDBRANCH   8   9
ENDBRANCH   7   8
ENDBRANCH   6   7
ENDBRANCH   5   6
ENDBRANCH   4   5
ENDBRANCH   3   4
ENDBRANCH   2   3
ENDBRANCH   1   2
BRANCH   1  13
ATOM     13  C   UNL     1     -93.625 -63.167 -67.216  1.00  0.00     0.000 C 
BRANCH  13  14
ATOM     14  C   UNL     1     -93.339 -62.436 -68.541  1.00  0.00     0.000 C 
BRANCH  14  15
ATOM     15  C   UNL     1     -94.040 -63.038 -69.775  1.00  0.00     0.000 C 
BRANCH  15  16
ATOM     16  C   UNL     1     -94.580 -61.975 -70.757  1.00  0.00     0.000 C 
BRANCH  16  17
ATOM     17  C   UNL     1     -96.117 -61.904 -70.757  1.00  0.00     0.000 C 
BRANCH  17  18
ATOM     18  C   UNL     1     -96.671 -61.065 -69.595  1.00  0.00     0.000 C 
BRANCH  18  19
ATOM     19  C   UNL     1     -97.730 -61.820 -68.770  1.00  0.00     0.000 C 
BRANCH  19  20
ATOM     20  C   UNL     1     -98.664 -62.669 -69.646  1.00  0.00     0.006 C 
BRANCH  20  21
ATOM     21  C   UNL     1     -99.666 -63.485 -68.819  1.00  0.00     0.053 C 
BRANCH  21  22
ATOM     22  C   UNL     1    -100.937 -63.679 -69.583  1.00  0.00     0.041 C 
ATOM     23  O   UNL     1    -101.722 -62.710 -69.764  1.00  0.00    -0.550 OA
ATOM     24  O   UNL     1    -101.236 -64.919 -70.133  1.00  0.00    -0.550 OA
ENDBRANCH  21  22
ENDBRANCH  20  21
ENDBRANCH  19  20
ENDBRANCH  18  19
ENDBRANCH  17  18
ENDBRANCH  16  17
ENDBRANCH  15  16
ENDBRANCH  14  15
ENDBRANCH  13  14
ENDBRANCH   1  13
TORSDOF 20
ENDMDL
MODEL 2
REMARK VINA RESULT:    -5.205      2.716      4.828
REMARK INTER + INTRA:         -14.329
REMARK INTER:                 -11.348
REMARK INTRA:                  -2.981
REMARK UNBOUND:                -3.038
REMARK SMILES CCCCCCCCCCCCCCCCCCCCCC(=O)[O-]
REMARK SMILES IDX 12 1 11 2 10 3 9 4 8 5 7 6 6 7 5 8 4 9 3 10 2 11 1 12 13 13
REMARK SMILES IDX 14 14 15 15 16 16 17 17 18 18 19 19 20 20 21 21 22 22 23 23
REMARK SMILES IDX 24 24
REMARK H PARENT
REMARK Flexibility Score: inf
ROOT
ATOM      1  C   UNL     1     -99.857 -62.551 -68.682  1.00  0.00     0.000 C 
ENDROOT
BRANCH   1   2
ATOM      2  C   UNL     1     -99.851 -62.346 -67.156  1.00  0.00     0.000 C 
BRANCH   2   3
ATOM      3  C   UNL     1    -100.865 -61.292 -66.689  1.00  0.00     0.000 C 
BRANCH   3   4
ATOM      4  C   UNL     1    -100.607 -60.892 -65.231  1.00  0.00    -0.000 C 
BRANCH   4   5
ATOM      5  C   UNL     1     -99.980 -62.054 -64.444  1.00  0.00    -0.000 C 
BRANCH   5   6
ATOM      6  C   UNL     1     -98.676 -61.652 -63.735  1.00  0.00    -0.000 C 
BRANCH   6   7
ATOM      7  C   UNL     1     -97.423 -62.129 -64.491  1.00  0.00    -0.000 C 
BRANCH   7   8
ATOM      8  C   UNL     1     -96.473 -60.972 -64.844  1.00  0.00    -0.000 C 
BRANCH   8   9
ATOM      9  C   UNL     1     -97.043 -60.045 -65.931  1.00  0.00    -0.000 C 
BRANCH   9  10
ATOM     10  C   UNL     1     -97.140 -58.582 -65.468  1.00  0.00    -0.000 C 
BRANCH  10  11
ATOM     11  C   UNL     1     -97.846 -57.684 -66.494  1.00  0.00    -0.003 C 
ATOM     12  C   UNL     1     -98.825 -58.486 -67.346  1.00  0.00     0.004 C 
ENDBRANCH  10  11
ENDBRANCH   9  10
ENDBRANCH   8   9
ENDBRANCH   7   8
ENDBRANCH   6   7
ENDBRANCH   5   6
ENDBRANCH   4   5
ENDBRANCH   3   4
ENDBRANCH   2   3
ENDBRANCH   1   2
BRANCH   1  13
ATOM     13  C   UNL     1     -98.468 -62.538 -69.353  1.00  0.00     0.000 C 
BRANCH  13  14
ATOM     14  C   UNL     1     -97.471 -61.521 -68.768  1.00  0.00     0.000 C 
BRANCH  14  15
ATOM     15  C   UNL     1     -96.581 -60.816 -69.810  1.00  0.00     0.000 C 
BRANCH  15  16
ATOM     16  C   UNL     1     -96.583 -61.507 -71.191  1.00  0.00     0.000 C 
BRANCH  16  17
ATOM     17  C   UNL     1     -95.201 -62.068 -71.568  1.00  0.00     0.000 C 
BRANCH  17  18
ATOM     18  C   UNL     1     -95.053 -63.559 -71.227  1.00  0.00     0.000 C 
BRANCH  18  19
ATOM     19  C   UNL     1     -93.724 -63.876 -70.518  1.00  0.00     0.000 C 
BRANCH  19  20
ATOM     20  C   UNL     1     -93.343 -62.814 -69.475  1.00  0.00     0.006 C 
BRANCH  20  21
ATOM     21  C   UNL     1     -93.247 -63.390 -68.057  1.00  0.00     0.053 C 
BRANCH  21  22
ATOM     22  C   UNL     1     -93.448 -62.310 -67.040  1.00  0.00     0.041 C 
ATOM     23  O   UNL     1     -93.005 -62.451 -65.870  1.00  0.00    -0.550 OA
ATOM     24  O   UNL     1     -94.086 -61.129 -67.397  1.00  0.00    -0.550 OA
ENDBRANCH  21  22
ENDBRANCH  20  21
ENDBRANCH  19  20
ENDBRANCH  18  19
ENDBRANCH  17  18
ENDBRANCH  16  17
ENDBRANCH  15  16
ENDBRANCH  14  15
ENDBRANCH  13  14
ENDBRANCH   1  13
TORSDOF 20
ENDMDL
MODEL 3
REMARK VINA RESULT:    -5.078      2.159      6.848
REMARK INTER + INTRA:         -14.053
REMARK INTER:                 -11.767
REMARK INTRA:                  -2.285
REMARK UNBOUND:                -3.038
REMARK SMILES CCCCCCCCCCCCCCCCCCCCCC(=O)[O-]
REMARK SMILES IDX 12 1 11 2 10 3 9 4 8 5 7 6 6 7 5 8 4 9 3 10 2 11 1 12 13 13
REMARK SMILES IDX 14 14 15 15 16 16 17 17 18 18 19 19 20 20 21 21 22 22 23 23
REMARK SMILES IDX 24 24
REMARK H PARENT
REMARK Flexibility Score: inf
ROOT
ATOM      1  C   UNL     1     -99.274 -62.871 -69.372  1.00  0.00     0.000 C 
ENDROOT
BRANCH   1   2
ATOM      2  C   UNL     1     -98.213 -61.848 -68.927  1.00  0.00     0.000 C 
BRANCH   2   3
ATOM      3  C   UNL     1     -96.835 -62.102 -69.557  1.00  0.00     0.000 C 
BRANCH   3   4
ATOM      4  C   UNL     1     -96.437 -60.950 -70.488  1.00  0.00    -0.000 C 
BRANCH   4   5
ATOM      5  C   UNL     1     -95.158 -61.288 -71.269  1.00  0.00    -0.000 C 
BRANCH   5   6
ATOM      6  C   UNL     1     -94.881 -62.800 -71.324  1.00  0.00    -0.000 C 
BRANCH   6   7
ATOM      7  C   UNL     1     -93.417 -63.144 -71.001  1.00  0.00    -0.000 C 
BRANCH   7   8
ATOM      8  C   UNL     1     -93.262 -63.835 -69.636  1.00  0.00    -0.000 C 
BRANCH   8   9
ATOM      9  C   UNL     1     -92.956 -62.844 -68.499  1.00  0.00    -0.000 C 
BRANCH   9  10
ATOM     10  C   UNL     1     -93.376 -63.380 -67.121  1.00  0.00    -0.000 C 
BRANCH  10  11
ATOM     11  C   UNL     1     -94.283 -62.402 -66.359  1.00  0.00    -0.003 C 
ATOM     12  C   UNL     1     -94.048 -60.966 -66.816  1.00  0.00     0.004 C 
ENDBRANCH  10  11
ENDBRANCH   9  10
ENDBRANCH   8   9
ENDBRANCH   7   8
ENDBRANCH   6   7
ENDBRANCH   5   6
ENDBRANCH   4   5
ENDBRANCH   3   4
ENDBRANCH   2   3
ENDBRANCH   1   2
BRANCH   1  13
ATOM     13  C   UNL     1    -100.556 -62.904 -68.514  1.00  0.00     0.000 C 
BRANCH  13  14
ATOM     14  C   UNL     1    -100.358 -62.536 -67.032  1.00  0.00     0.000 C 
BRANCH  14  15
ATOM     15  C   UNL     1    -100.864 -61.134 -66.641  1.00  0.00     0.000 C 
BRANCH  15  16
ATOM     16  C   UNL     1    -100.684 -60.808 -65.143  1.00  0.00     0.000 C 
BRANCH  16  17
ATOM     17  C   UNL     1     -99.743 -61.799 -64.436  1.00  0.00     0.000 C 
BRANCH  17  18
ATOM     18  C   UNL     1     -98.377 -61.917 -65.129  1.00  0.00     0.000 C 
BRANCH  18  19
ATOM     19  C   UNL     1     -97.261 -61.178 -64.370  1.00  0.00     0.000 C 
BRANCH  19  20
ATOM     20  C   UNL     1     -97.000 -59.771 -64.928  1.00  0.00     0.006 C 
BRANCH  20  21
ATOM     21  C   UNL     1     -97.355 -59.651 -66.415  1.00  0.00     0.053 C 
BRANCH  21  22
ATOM     22  C   UNL     1     -98.097 -58.379 -66.674  1.00  0.00     0.041 C 
ATOM     23  O   UNL     1     -97.693 -57.296 -66.173  1.00  0.00    -0.550 OA
ATOM     24  O   UNL     1     -99.210 -58.379 -67.506  1.00  0.00    -0.550 OA
ENDBRANCH  21  22
ENDBRANCH  20  21
ENDBRANCH  19  20
ENDBRANCH  18  19
ENDBRANCH  17  18
ENDBRANCH  16  17
ENDBRANCH  15  16
ENDBRANCH  14  15
ENDBRANCH  13  14
ENDBRANCH   1  13
TORSDOF 20
ENDMDL
MODEL 4
REMARK VINA RESULT:    -5.023      2.369      6.859
REMARK INTER + INTRA:         -13.934
REMARK INTER:                 -11.485
REMARK INTRA:                  -2.449
REMARK UNBOUND:                -3.038
REMARK SMILES CCCCCCCCCCCCCCCCCCCCCC(=O)[O-]
REMARK SMILES IDX 12 1 11 2 10 3 9 4 8 5 7 6 6 7 5 8 4 9 3 10 2 11 1 12 13 13
REMARK SMILES IDX 14 14 15 15 16 16 17 17 18 18 19 19 20 20 21 21 22 22 23 23
REMARK SMILES IDX 24 24
REMARK H PARENT
REMARK Flexibility Score: inf
ROOT
ATOM      1  C   UNL     1     -99.257 -63.150 -69.328  1.00  0.00     0.000 C 
ENDROOT
BRANCH   1   2
ATOM      2  C   UNL     1     -98.116 -62.130 -69.157  1.00  0.00     0.000 C 
BRANCH   2   3
ATOM      3  C   UNL     1     -96.940 -62.380 -70.113  1.00  0.00     0.000 C 
BRANCH   3   4
ATOM      4  C   UNL     1     -96.284 -61.058 -70.531  1.00  0.00    -0.000 C 
BRANCH   4   5
ATOM      5  C   UNL     1     -94.911 -61.304 -71.176  1.00  0.00    -0.000 C 
BRANCH   5   6
ATOM      6  C   UNL     1     -94.714 -62.767 -71.607  1.00  0.00    -0.000 C 
BRANCH   6   7
ATOM      7  C   UNL     1     -93.317 -63.304 -71.248  1.00  0.00    -0.000 C 
BRANCH   7   8
ATOM      8  C   UNL     1     -93.284 -63.976 -69.865  1.00  0.00    -0.000 C 
BRANCH   8   9
ATOM      9  C   UNL     1     -92.876 -63.007 -68.741  1.00  0.00    -0.000 C 
BRANCH   9  10
ATOM     10  C   UNL     1     -93.236 -63.538 -67.345  1.00  0.00    -0.000 C 
BRANCH  10  11
ATOM     11  C   UNL     1     -92.940 -62.521 -66.232  1.00  0.00    -0.003 C 
ATOM     12  C   UNL     1     -93.294 -61.105 -66.674  1.00  0.00     0.004 C 
ENDBRANCH  10  11
ENDBRANCH   9  10
ENDBRANCH   8   9
ENDBRANCH   7   8
ENDBRANCH   6   7
ENDBRANCH   5   6
ENDBRANCH   4   5
ENDBRANCH   3   4
ENDBRANCH   2   3
ENDBRANCH   1   2
BRANCH   1  13
ATOM     13  C   UNL     1    -100.308 -63.156 -68.199  1.00  0.00     0.000 C 
BRANCH  13  14
ATOM     14  C   UNL     1    -100.835 -61.768 -67.791  1.00  0.00     0.000 C 
BRANCH  14  15
ATOM     15  C   UNL     1    -100.318 -61.255 -66.432  1.00  0.00     0.000 C 
BRANCH  15  16
ATOM     16  C   UNL     1    -100.262 -59.715 -66.334  1.00  0.00     0.000 C 
BRANCH  16  17
ATOM     17  C   UNL     1     -99.274 -59.100 -67.340  1.00  0.00     0.000 C 
BRANCH  17  18
ATOM     18  C   UNL     1     -98.360 -58.042 -66.701  1.00  0.00     0.000 C 
BRANCH  18  19
ATOM     19  C   UNL     1     -96.877 -58.455 -66.711  1.00  0.00     0.000 C 
BRANCH  19  20
ATOM     20  C   UNL     1     -96.664 -59.900 -66.234  1.00  0.00     0.006 C 
BRANCH  20  21
ATOM     21  C   UNL     1     -96.945 -60.073 -64.736  1.00  0.00     0.053 C 
BRANCH  21  22
ATOM     22  C   UNL     1     -97.067 -61.524 -64.392  1.00  0.00     0.041 C 
ATOM     23  O   UNL     1     -96.135 -62.323 -64.674  1.00  0.00    -0.550 OA
ATOM     24  O   UNL     1     -98.191 -61.988 -63.721  1.00  0.00    -0.550 OA
ENDBRANCH  21  22
ENDBRANCH  20  21
ENDBRANCH  19  20
ENDBRANCH  18  19
ENDBRANCH  17  18
ENDBRANCH  16  17
ENDBRANCH  15  16
ENDBRANCH  14  15
ENDBRANCH  13  14
ENDBRANCH   1  13
TORSDOF 20
ENDMDL
MODEL 5
REMARK VINA RESULT:    -4.970      2.174      5.034
REMARK INTER + INTRA:         -13.819
REMARK INTER:                 -10.890
REMARK INTRA:                  -2.929
REMARK UNBOUND:                -3.038
REMARK SMILES CCCCCCCCCCCCCCCCCCCCCC(=O)[O-]
REMARK SMILES IDX 12 1 11 2 10 3 9 4 8 5 7 6 6 7 5 8 4 9 3 10 2 11 1 12 13 13
REMARK SMILES IDX 14 14 15 15 16 16 17 17 18 18 19 19 20 20 21 21 22 22 23 23
REMARK SMILES IDX 24 24
REMARK H PARENT
REMARK Flexibility Score: inf
ROOT
ATOM      1  C   UNL     1     -99.565 -62.020 -64.584  1.00  0.00     0.000 C 
ENDROOT
BRANCH   1   2
ATOM      2  C   UNL     1    -100.544 -60.968 -65.136  1.00  0.00     0.000 C 
BRANCH   2   3
ATOM      3  C   UNL     1    -100.920 -61.212 -66.606  1.00  0.00     0.000 C 
BRANCH   3   4
ATOM      4  C   UNL     1    -100.378 -62.561 -67.092  1.00  0.00    -0.000 C 
BRANCH   4   5
ATOM      5  C   UNL     1    -100.317 -62.609 -68.627  1.00  0.00    -0.000 C 
BRANCH   5   6
ATOM      6  C   UNL     1     -98.919 -62.979 -69.152  1.00  0.00    -0.000 C 
BRANCH   6   7
ATOM      7  C   UNL     1     -98.150 -61.759 -69.691  1.00  0.00    -0.000 C 
BRANCH   7   8
ATOM      8  C   UNL     1     -96.970 -61.363 -68.788  1.00  0.00    -0.000 C 
BRANCH   8   9
ATOM      9  C   UNL     1     -97.407 -60.540 -67.564  1.00  0.00    -0.000 C 
BRANCH   9  10
ATOM     10  C   UNL     1     -98.128 -59.240 -67.953  1.00  0.00    -0.000 C 
BRANCH  10  11
ATOM     11  C   UNL     1     -98.475 -58.370 -66.735  1.00  0.00    -0.003 C 
ATOM     12  C   UNL     1     -97.217 -57.783 -66.103  1.00  0.00     0.004 C 
ENDBRANCH  10  11
ENDBRANCH   9  10
ENDBRANCH   8   9
ENDBRANCH   7   8
ENDBRANCH   6   7
ENDBRANCH   5   6
ENDBRANCH   4   5
ENDBRANCH   3   4
ENDBRANCH   2   3
ENDBRANCH   1   2
BRANCH   1  13
ATOM     13  C   UNL     1     -98.299 -61.450 -63.912  1.00  0.00     0.000 C 
BRANCH  13  14
ATOM     14  C   UNL     1     -96.982 -62.143 -64.309  1.00  0.00     0.000 C 
BRANCH  14  15
ATOM     15  C   UNL     1     -95.974 -61.240 -65.046  1.00  0.00     0.000 C 
BRANCH  15  16
ATOM     16  C   UNL     1     -94.832 -62.021 -65.731  1.00  0.00     0.000 C 
BRANCH  16  17
ATOM     17  C   UNL     1     -93.799 -61.092 -66.391  1.00  0.00     0.000 C 
BRANCH  17  18
ATOM     18  C   UNL     1     -92.888 -61.828 -67.386  1.00  0.00     0.000 C 
BRANCH  18  19
ATOM     19  C   UNL     1     -93.316 -63.290 -67.611  1.00  0.00     0.000 C 
BRANCH  19  20
ATOM     20  C   UNL     1     -93.278 -63.693 -69.093  1.00  0.00     0.006 C 
BRANCH  20  21
ATOM     21  C   UNL     1     -93.830 -62.599 -70.016  1.00  0.00     0.053 C 
BRANCH  21  22
ATOM     22  C   UNL     1     -94.565 -63.208 -71.167  1.00  0.00     0.041 C 
ATOM     23  O   UNL     1     -94.369 -64.413 -71.478  1.00  0.00    -0.550 OA
ATOM     24  O   UNL     1     -95.500 -62.459 -71.871  1.00  0.00    -0.550 OA
ENDBRANCH  21  22
ENDBRANCH  20  21
ENDBRANCH  19  20
ENDBRANCH  18  19
ENDBRANCH  17  18
ENDBRANCH  16  17
ENDBRANCH  15  16
ENDBRANCH  14  15
ENDBRANCH  13  14
ENDBRANCH   1  13
TORSDOF 20
ENDMDL
MODEL 6
REMARK VINA RESULT:    -4.969      0.833      2.367
REMARK INTER + INTRA:         -13.817
REMARK INTER:                 -11.108
REMARK INTRA:                  -2.709
REMARK UNBOUND:                -3.038
REMARK SMILES CCCCCCCCCCCCCCCCCCCCCC(=O)[O-]
REMARK SMILES IDX 12 1 11 2 10 3 9 4 8 5 7 6 6 7 5 8 4 9 3 10 2 11 1 12 13 13
REMARK SMILES IDX 14 14 15 15 16 16 17 17 18 18 19 19 20 20 21 21 22 22 23 23
REMARK SMILES IDX 24 24
REMARK H PARENT
REMARK Flexibility Score: inf
ROOT
ATOM      1  C   UNL     1     -93.070 -63.415 -67.553  1.00  0.00     0.000 C 
ENDROOT
BRANCH   1   2
ATOM      2  C   UNL     1     -93.308 -61.960 -67.107  1.00  0.00     0.000 C 
BRANCH   2   3
ATOM      3  C   UNL     1     -94.296 -61.846 -65.937  1.00  0.00     0.000 C 
BRANCH   3   4
ATOM      4  C   UNL     1     -95.663 -61.349 -66.421  1.00  0.00    -0.000 C 
BRANCH   4   5
ATOM      5  C   UNL     1     -96.639 -61.187 -65.246  1.00  0.00    -0.000 C 
BRANCH   5   6
ATOM      6  C   UNL     1     -96.996 -59.716 -64.971  1.00  0.00    -0.000 C 
BRANCH   6   7
ATOM      7  C   UNL     1     -96.931 -58.847 -66.239  1.00  0.00    -0.000 C 
BRANCH   7   8
ATOM      8  C   UNL     1     -98.264 -58.142 -66.538  1.00  0.00    -0.000 C 
BRANCH   8   9
ATOM      9  C   UNL     1     -99.243 -59.029 -67.327  1.00  0.00    -0.000 C 
BRANCH   9  10
ATOM     10  C   UNL     1    -100.435 -59.495 -66.475  1.00  0.00    -0.000 C 
BRANCH  10  11
ATOM     11  C   UNL     1    -100.297 -60.955 -66.017  1.00  0.00    -0.003 C 
ATOM     12  C   UNL     1    -100.665 -61.106 -64.545  1.00  0.00     0.004 C 
ENDBRANCH  10  11
ENDBRANCH   9  10
ENDBRANCH   8   9
ENDBRANCH   7   8
ENDBRANCH   6   7
ENDBRANCH   5   6
ENDBRANCH   4   5
ENDBRANCH   3   4
ENDBRANCH   2   3
ENDBRANCH   1   2
BRANCH   1  13
ATOM     13  C   UNL     1     -93.033 -63.637 -69.079  1.00  0.00     0.000 C 
BRANCH  13  14
ATOM     14  C   UNL     1     -93.717 -62.538 -69.915  1.00  0.00     0.000 C 
BRANCH  14  15
ATOM     15  C   UNL     1     -94.919 -63.017 -70.751  1.00  0.00     0.000 C 
BRANCH  15  16
ATOM     16  C   UNL     1     -95.530 -61.914 -71.642  1.00  0.00     0.000 C 
BRANCH  16  17
ATOM     17  C   UNL     1     -96.939 -61.502 -71.183  1.00  0.00     0.000 C 
BRANCH  17  18
ATOM     18  C   UNL     1     -96.949 -60.898 -69.770  1.00  0.00     0.000 C 
BRANCH  18  19
ATOM     19  C   UNL     1     -97.756 -61.744 -68.769  1.00  0.00     0.000 C 
BRANCH  19  20
ATOM     20  C   UNL     1     -98.618 -62.812 -69.459  1.00  0.00     0.006 C 
BRANCH  20  21
ATOM     21  C   UNL     1     -99.905 -63.121 -68.685  1.00  0.00     0.053 C 
BRANCH  21  22
ATOM     22  C   UNL     1    -100.952 -63.661 -69.608  1.00  0.00     0.041 C 
ATOM     23  O   UNL     1    -100.976 -64.888 -69.890  1.00  0.00    -0.550 OA
ATOM     24  O   UNL     1    -101.929 -62.817 -70.122  1.00  0.00    -0.550 OA
ENDBRANCH  21  22
ENDBRANCH  20  21
ENDBRANCH  19  20
ENDBRANCH  18  19
ENDBRANCH  17  18
ENDBRANCH  16  17
ENDBRANCH  15  16
ENDBRANCH  14  15
ENDBRANCH  13  14
ENDBRANCH   1  13
TORSDOF 20
ENDMDL
MODEL 7
REMARK VINA RESULT:    -4.890      2.559      5.513
REMARK INTER + INTRA:         -13.645
REMARK INTER:                 -10.930
REMARK INTRA:                  -2.715
REMARK UNBOUND:                -3.038
REMARK SMILES CCCCCCCCCCCCCCCCCCCCCC(=O)[O-]
REMARK SMILES IDX 12 1 11 2 10 3 9 4 8 5 7 6 6 7 5 8 4 9 3 10 2 11 1 12 13 13
REMARK SMILES IDX 14 14 15 15 16 16 17 17 18 18 19 19 20 20 21 21 22 22 23 23
REMARK SMILES IDX 24 24
REMARK H PARENT
REMARK Flexibility Score: inf
ROOT
ATOM      1  C   UNL     1    -100.986 -60.507 -66.174  1.00  0.00     0.000 C 
ENDROOT
BRANCH   1   2
ATOM      2  C   UNL     1    -100.393 -59.094 -66.321  1.00  0.00     0.000 C 
BRANCH   2   3
ATOM      3  C   UNL     1     -99.208 -59.040 -67.297  1.00  0.00     0.000 C 
BRANCH   3   4
ATOM      4  C   UNL     1     -98.170 -58.007 -66.843  1.00  0.00    -0.000 C 
BRANCH   4   5
ATOM      5  C   UNL     1     -97.179 -58.623 -65.843  1.00  0.00    -0.000 C 
BRANCH   5   6
ATOM      6  C   UNL     1     -97.133 -60.158 -65.925  1.00  0.00    -0.000 C 
BRANCH   6   7
ATOM      7  C   UNL     1     -97.083 -60.822 -64.538  1.00  0.00    -0.000 C 
BRANCH   7   8
ATOM      8  C   UNL     1     -96.152 -62.045 -64.505  1.00  0.00    -0.000 C 
BRANCH   8   9
ATOM      9  C   UNL     1     -95.299 -62.179 -65.779  1.00  0.00    -0.000 C 
BRANCH   9  10
ATOM     10  C   UNL     1     -93.833 -61.777 -65.552  1.00  0.00    -0.000 C 
BRANCH  10  11
ATOM     11  C   UNL     1     -93.228 -61.046 -66.760  1.00  0.00    -0.003 C 
ATOM     12  C   UNL     1     -92.954 -62.014 -67.906  1.00  0.00     0.004 C 
ENDBRANCH  10  11
ENDBRANCH   9  10
ENDBRANCH   8   9
ENDBRANCH   7   8
ENDBRANCH   6   7
ENDBRANCH   5   6
ENDBRANCH   4   5
ENDBRANCH   3   4
ENDBRANCH   2   3
ENDBRANCH   1   2
BRANCH   1  13
ATOM     13  C   UNL     1    -100.962 -61.367 -67.454  1.00  0.00     0.000 C 
BRANCH  13  14
ATOM     14  C   UNL     1     -99.948 -62.527 -67.441  1.00  0.00     0.000 C 
BRANCH  14  15
ATOM     15  C   UNL     1     -99.666 -63.153 -68.821  1.00  0.00     0.000 C 
BRANCH  15  16
ATOM     16  C   UNL     1     -98.542 -62.440 -69.603  1.00  0.00     0.000 C 
BRANCH  16  17
ATOM     17  C   UNL     1     -97.438 -61.897 -68.680  1.00  0.00     0.000 C 
BRANCH  17  18
ATOM     18  C   UNL     1     -96.376 -61.086 -69.439  1.00  0.00     0.000 C 
BRANCH  18  19
ATOM     19  C   UNL     1     -96.609 -61.080 -70.960  1.00  0.00     0.000 C 
BRANCH  19  20
ATOM     20  C   UNL     1     -95.534 -61.869 -71.724  1.00  0.00     0.006 C 
BRANCH  20  21
ATOM     21  C   UNL     1     -95.437 -63.329 -71.266  1.00  0.00     0.053 C 
BRANCH  21  22
ATOM     22  C   UNL     1     -94.011 -63.779 -71.252  1.00  0.00     0.041 C 
ATOM     23  O   UNL     1     -93.264 -63.547 -72.240  1.00  0.00    -0.550 OA
ATOM     24  O   UNL     1     -93.492 -64.416 -70.132  1.00  0.00    -0.550 OA
ENDBRANCH  21  22
ENDBRANCH  20  21
ENDBRANCH  19  20
ENDBRANCH  18  19
ENDBRANCH  17  18
ENDBRANCH  16  17
ENDBRANCH  15  16
ENDBRANCH  14  15
ENDBRANCH  13  14
ENDBRANCH   1  13
TORSDOF 20
ENDMDL
MODEL 8
REMARK VINA RESULT:    -4.838      1.888      6.282
REMARK INTER + INTRA:         -13.532
REMARK INTER:                 -10.611
REMARK INTRA:                  -2.922
REMARK UNBOUND:                -3.038
REMARK SMILES CCCCCCCCCCCCCCCCCCCCCC(=O)[O-]
REMARK SMILES IDX 12 1 11 2 10 3 9 4 8 5 7 6 6 7 5 8 4 9 3 10 2 11 1 12 13 13
REMARK SMILES IDX 14 14 15 15 16 16 17 17 18 18 19 19 20 20 21 21 22 22 23 23
REMARK SMILES IDX 24 24
REMARK H PARENT
REMARK Flexibility Score: inf
ROOT
ATOM      1  C   UNL     1    -100.974 -60.667 -67.360  1.00  0.00     0.000 C 
ENDROOT
BRANCH   1   2
ATOM      2  C   UNL     1    -100.130 -61.952 -67.451  1.00  0.00     0.000 C 
BRANCH   2   3
ATOM      3  C   UNL     1    -100.554 -62.867 -68.610  1.00  0.00     0.000 C 
BRANCH   3   4
ATOM      4  C   UNL     1     -99.354 -63.221 -69.496  1.00  0.00    -0.000 C 
BRANCH   4   5
ATOM      5  C   UNL     1     -98.234 -62.179 -69.350  1.00  0.00    -0.000 C 
BRANCH   5   6
ATOM      6  C   UNL     1     -96.958 -62.570 -70.114  1.00  0.00    -0.000 C 
BRANCH   6   7
ATOM      7  C   UNL     1     -96.210 -61.349 -70.677  1.00  0.00    -0.000 C 
BRANCH   7   8
ATOM      8  C   UNL     1     -94.687 -61.559 -70.715  1.00  0.00    -0.000 C 
BRANCH   8   9
ATOM      9  C   UNL     1     -94.293 -63.043 -70.822  1.00  0.00    -0.000 C 
BRANCH   9  10
ATOM     10  C   UNL     1     -93.279 -63.463 -69.746  1.00  0.00    -0.000 C 
BRANCH  10  11
ATOM     11  C   UNL     1     -93.492 -62.726 -68.415  1.00  0.00    -0.003 C 
ATOM     12  C   UNL     1     -93.209 -63.641 -67.228  1.00  0.00     0.004 C 
ENDBRANCH  10  11
ENDBRANCH   9  10
ENDBRANCH   8   9
ENDBRANCH   7   8
ENDBRANCH   6   7
ENDBRANCH   5   6
ENDBRANCH   4   5
ENDBRANCH   3   4
ENDBRANCH   2   3
ENDBRANCH   1   2
BRANCH   1  13
ATOM     13  C   UNL     1    -100.294 -59.484 -66.642  1.00  0.00     0.000 C 
BRANCH  13  14
ATOM     14  C   UNL     1     -99.214 -58.756 -67.464  1.00  0.00     0.000 C 
BRANCH  14  15
ATOM     15  C   UNL     1     -98.177 -57.982 -66.626  1.00  0.00     0.000 C 
BRANCH  15  16
ATOM     16  C   UNL     1     -96.938 -58.822 -66.247  1.00  0.00     0.000 C 
BRANCH  16  17
ATOM     17  C   UNL     1     -96.726 -60.015 -67.196  1.00  0.00     0.000 C 
BRANCH  17  18
ATOM     18  C   UNL     1     -96.118 -61.235 -66.487  1.00  0.00     0.000 C 
BRANCH  18  19
ATOM     19  C   UNL     1     -96.292 -61.181 -64.959  1.00  0.00     0.000 C 
BRANCH  19  20
ATOM     20  C   UNL     1     -97.402 -62.117 -64.458  1.00  0.00     0.006 C 
BRANCH  20  21
ATOM     21  C   UNL     1     -98.569 -61.357 -63.815  1.00  0.00     0.053 C 
BRANCH  21  22
ATOM     22  C   UNL     1     -99.866 -62.040 -64.114  1.00  0.00     0.041 C 
ATOM     23  O   UNL     1     -99.877 -63.242 -64.490  1.00  0.00    -0.550 OA
ATOM     24  O   UNL     1    -101.066 -61.363 -63.935  1.00  0.00    -0.550 OA
ENDBRANCH  21  22
ENDBRANCH  20  21
ENDBRANCH  19  20
ENDBRANCH  18  19
ENDBRANCH  17  18
ENDBRANCH  16  17
ENDBRANCH  15  16
ENDBRANCH  14  15
ENDBRANCH  13  14
ENDBRANCH   1  13
TORSDOF 20
ENDMDL
MODEL 9
REMARK VINA RESULT:    -4.834      2.133      6.081
REMARK INTER + INTRA:         -13.523
REMARK INTER:                 -10.398
REMARK INTRA:                  -3.126
REMARK UNBOUND:                -3.038
REMARK SMILES CCCCCCCCCCCCCCCCCCCCCC(=O)[O-]
REMARK SMILES IDX 12 1 11 2 10 3 9 4 8 5 7 6 6 7 5 8 4 9 3 10 2 11 1 12 13 13
REMARK SMILES IDX 14 14 15 15 16 16 17 17 18 18 19 19 20 20 21 21 22 22 23 23
REMARK SMILES IDX 24 24
REMARK H PARENT
REMARK Flexibility Score: inf
ROOT
ATOM      1  C   UNL     1     -97.497 -61.188 -64.571  1.00  0.00     0.000 C 
ENDROOT
BRANCH   1   2
ATOM      2  C   UNL     1     -96.259 -62.086 -64.394  1.00  0.00     0.000 C 
BRANCH   2   3
ATOM      3  C   UNL     1     -95.467 -62.278 -65.695  1.00  0.00     0.000 C 
BRANCH   3   4
ATOM      4  C   UNL     1     -94.528 -61.091 -65.945  1.00  0.00    -0.000 C 
BRANCH   4   5
ATOM      5  C   UNL     1     -93.333 -61.507 -66.816  1.00  0.00    -0.000 C 
BRANCH   5   6
ATOM      6  C   UNL     1     -93.609 -62.782 -67.630  1.00  0.00    -0.000 C 
BRANCH   6   7
ATOM      7  C   UNL     1     -93.002 -62.723 -69.043  1.00  0.00    -0.000 C 
BRANCH   7   8
ATOM      8  C   UNL     1     -93.339 -63.967 -69.881  1.00  0.00    -0.000 C 
BRANCH   8   9
ATOM      9  C   UNL     1     -94.169 -63.634 -71.134  1.00  0.00    -0.000 C 
BRANCH   9  10
ATOM     10  C   UNL     1     -95.621 -63.258 -70.797  1.00  0.00    -0.000 C 
BRANCH  10  11
ATOM     11  C   UNL     1     -96.078 -61.976 -71.510  1.00  0.00    -0.003 C 
ATOM     12  C   UNL     1     -95.041 -60.867 -71.365  1.00  0.00     0.004 C 
ENDBRANCH  10  11
ENDBRANCH   9  10
ENDBRANCH   8   9
ENDBRANCH   7   8
ENDBRANCH   6   7
ENDBRANCH   5   6
ENDBRANCH   4   5
ENDBRANCH   3   4
ENDBRANCH   2   3
ENDBRANCH   1   2
BRANCH   1  13
ATOM     13  C   UNL     1     -98.815 -61.768 -64.017  1.00  0.00     0.000 C 
BRANCH  13  14
ATOM     14  C   UNL     1     -99.751 -62.384 -65.073  1.00  0.00     0.000 C 
BRANCH  14  15
ATOM     15  C   UNL     1    -100.743 -61.394 -65.714  1.00  0.00     0.000 C 
BRANCH  15  16
ATOM     16  C   UNL     1    -100.771 -61.460 -67.256  1.00  0.00     0.000 C 
BRANCH  16  17
ATOM     17  C   UNL     1    -100.164 -62.765 -67.799  1.00  0.00     0.000 C 
BRANCH  17  18
ATOM     18  C   UNL     1     -99.019 -62.518 -68.793  1.00  0.00     0.000 C 
BRANCH  18  19
ATOM     19  C   UNL     1     -97.836 -61.763 -68.161  1.00  0.00     0.000 C 
BRANCH  19  20
ATOM     20  C   UNL     1     -97.752 -60.301 -68.627  1.00  0.00     0.006 C 
BRANCH  20  21
ATOM     21  C   UNL     1     -97.119 -59.383 -67.575  1.00  0.00     0.053 C 
BRANCH  21  22
ATOM     22  C   UNL     1     -98.142 -58.444 -67.018  1.00  0.00     0.041 C 
ATOM     23  O   UNL     1     -97.821 -57.614 -66.126  1.00  0.00    -0.550 OA
ATOM     24  O   UNL     1     -99.440 -58.456 -67.513  1.00  0.00    -0.550 OA
ENDBRANCH  21  22
ENDBRANCH  20  21
ENDBRANCH  19  20
ENDBRANCH  18  19
ENDBRANCH  17  18
ENDBRANCH  16  17
ENDBRANCH  15  16
ENDBRANCH  14  15
ENDBRANCH  13  14
ENDBRANCH   1  13
TORSDOF 20
ENDMDL
