MODEL 1
REMARK VINA RESULT:    -4.872      0.000      0.000
REMARK INTER + INTRA:          -7.276
REMARK INTER:                  -6.581
REMARK INTRA:                  -0.696
REMARK UNBOUND:                -0.696
REMARK SMILES CC(=O)CCC=C(C)CCC=C(C)C
REMARK SMILES IDX 7 1 6 2 8 3 9 4 10 5 11 6 13 7 12 8 14 9 5 10 4 11 2 12 3 13
REMARK SMILES IDX 1 14
REMARK H PARENT
REMARK Flexibility Score: inf
ROOT
ATOM      1  C   UNL     1      15.432  24.239  27.791  1.00  0.00    -0.077 C 
ATOM      2  C   UNL     1      16.464  25.112  27.859  1.00  0.00    -0.028 C 
ATOM      3  C   UNL     1      14.092  24.678  28.324  1.00  0.00     0.039 C 
ENDROOT
BRANCH   1   4
ATOM      4  C   UNL     1      15.555  22.857  27.182  1.00  0.00     0.034 C 
BRANCH   4   5
ATOM      5  C   UNL     1      14.426  21.944  27.672  1.00  0.00     0.032 C 
BRANCH   5   6
ATOM      6  C   UNL     1      14.980  20.641  28.193  1.00  0.00    -0.028 C 
ATOM      7  C   UNL     1      15.036  21.428  30.570  1.00  0.00     0.039 C 
ATOM      8  C   UNL     1      15.284  20.404  29.488  1.00  0.00    -0.080 C 
ATOM      9  C   UNL     1      15.873  19.065  29.853  1.00  0.00     0.039 C 
ENDBRANCH   5   6
ENDBRANCH   4   5
ENDBRANCH   1   4
BRANCH   2  10
ATOM     10  C   UNL     1      17.884  24.828  27.425  1.00  0.00     0.035 C 
BRANCH  10  11
ATOM     11  C   UNL     1      18.862  25.831  28.047  1.00  0.00     0.079 C 
BRANCH  11  12
ATOM     12  C   UNL     1      20.220  25.217  28.266  1.00  0.00     0.130 C 
ATOM     13  O   UNL     1      20.841  25.479  29.285  1.00  0.00    -0.300 OA
ATOM     14  C   UNL     1      20.829  24.293  27.254  1.00  0.00     0.087 C 
ENDBRANCH  11  12
ENDBRANCH  10  11
ENDBRANCH   2  10
TORSDOF 6
ENDMDL
MODEL 2
REMARK VINA RESULT:    -4.762      1.502      2.362
REMARK INTER + INTRA:          -7.128
REMARK INTER:                  -6.349
REMARK INTRA:                  -0.779
REMARK UNBOUND:                -0.696
REMARK SMILES CC(=O)CCC=C(C)CCC=C(C)C
REMARK SMILES IDX 7 1 6 2 8 3 9 4 10 5 11 6 13 7 12 8 14 9 5 10 4 11 2 12 3 13
REMARK SMILES IDX 1 14
REMARK H PARENT
REMARK Flexibility Score: inf
ROOT
ATOM      1  C   UNL     1      16.712  26.341  28.579  1.00  0.00    -0.077 C 
ATOM      2  C   UNL     1      17.708  27.257  28.589  1.00  0.00    -0.028 C 
ATOM      3  C   UNL     1      15.456  26.646  29.354  1.00  0.00     0.039 C 
ENDROOT
BRANCH   1   4
ATOM      4  C   UNL     1      16.791  25.040  27.806  1.00  0.00     0.034 C 
BRANCH   4   5
ATOM      5  C   UNL     1      15.419  24.658  27.241  1.00  0.00     0.032 C 
BRANCH   5   6
ATOM      6  C   UNL     1      15.365  23.186  26.919  1.00  0.00    -0.028 C 
ATOM      7  C   UNL     1      14.151  22.604  29.031  1.00  0.00     0.039 C 
ATOM      8  C   UNL     1      14.822  22.247  27.725  1.00  0.00    -0.080 C 
ATOM      9  C   UNL     1      14.879  20.806  27.289  1.00  0.00     0.039 C 
ENDBRANCH   5   6
ENDBRANCH   4   5
ENDBRANCH   1   4
BRANCH   2  10
ATOM     10  C   UNL     1      19.053  27.100  27.917  1.00  0.00     0.035 C 
BRANCH  10  11
ATOM     11  C   UNL     1      20.062  26.429  28.854  1.00  0.00     0.079 C 
BRANCH  11  12
ATOM     12  C   UNL     1      20.924  25.435  28.120  1.00  0.00     0.130 C 
ATOM     13  O   UNL     1      22.127  25.406  28.336  1.00  0.00    -0.300 OA
ATOM     14  C   UNL     1      20.336  24.481  27.123  1.00  0.00     0.087 C 
ENDBRANCH  11  12
ENDBRANCH  10  11
ENDBRANCH   2  10
TORSDOF 6
ENDMDL
MODEL 3
REMARK VINA RESULT:    -4.708      2.325      3.315
REMARK INTER + INTRA:          -7.056
REMARK INTER:                  -6.342
REMARK INTRA:                  -0.713
REMARK UNBOUND:                -0.696
REMARK SMILES CC(=O)CCC=C(C)CCC=C(C)C
REMARK SMILES IDX 7 1 6 2 8 3 9 4 10 5 11 6 13 7 12 8 14 9 5 10 4 11 2 12 3 13
REMARK SMILES IDX 1 14
REMARK H PARENT
REMARK Flexibility Score: inf
ROOT
ATOM      1  C   UNL     1      16.367  22.426  26.095  1.00  0.00    -0.077 C 
ATOM      2  C   UNL     1      16.500  23.677  26.596  1.00  0.00    -0.028 C 
ATOM      3  C   UNL     1      17.599  21.736  25.569  1.00  0.00     0.039 C 
ENDROOT
BRANCH   1   4
ATOM      4  C   UNL     1      15.048  21.682  26.064  1.00  0.00     0.034 C 
BRANCH   4   5
ATOM      5  C   UNL     1      14.986  20.636  27.182  1.00  0.00     0.032 C 
BRANCH   5   6
ATOM      6  C   UNL     1      14.887  21.302  28.532  1.00  0.00    -0.028 C 
ATOM      7  C   UNL     1      15.725  19.290  29.766  1.00  0.00     0.039 C 
ATOM      8  C   UNL     1      15.191  20.701  29.704  1.00  0.00    -0.080 C 
ATOM      9  C   UNL     1      15.001  21.479  30.981  1.00  0.00     0.039 C 
ENDBRANCH   5   6
ENDBRANCH   4   5
ENDBRANCH   1   4
BRANCH   2  10
ATOM     10  C   UNL     1      15.373  24.539  27.115  1.00  0.00     0.035 C 
BRANCH  10  11
ATOM     11  C   UNL     1      15.564  24.861  28.601  1.00  0.00     0.079 C 
BRANCH  11  12
ATOM     12  C   UNL     1      16.157  26.232  28.799  1.00  0.00     0.130 C 
ATOM     13  O   UNL     1      16.986  26.649  28.004  1.00  0.00    -0.300 OA
ATOM     14  C   UNL     1      15.754  27.095  29.957  1.00  0.00     0.087 C 
ENDBRANCH  11  12
ENDBRANCH  10  11
ENDBRANCH   2  10
TORSDOF 6
ENDMDL
MODEL 4
REMARK VINA RESULT:    -4.692      2.960      5.559
REMARK INTER + INTRA:          -7.033
REMARK INTER:                  -6.252
REMARK INTRA:                  -0.781
REMARK UNBOUND:                -0.696
REMARK SMILES CC(=O)CCC=C(C)CCC=C(C)C
REMARK SMILES IDX 7 1 6 2 8 3 9 4 10 5 11 6 13 7 12 8 14 9 5 10 4 11 2 12 3 13
REMARK SMILES IDX 1 14
REMARK H PARENT
REMARK Flexibility Score: inf
ROOT
ATOM      1  C   UNL     1      16.160  26.234  28.658  1.00  0.00    -0.077 C 
ATOM      2  C   UNL     1      15.334  25.204  28.357  1.00  0.00    -0.028 C 
ATOM      3  C   UNL     1      15.857  27.052  29.887  1.00  0.00     0.039 C 
ENDROOT
BRANCH   1   4
ATOM      4  C   UNL     1      17.383  26.582  27.836  1.00  0.00     0.034 C 
BRANCH   4   5
ATOM      5  C   UNL     1      18.596  25.764  28.291  1.00  0.00     0.032 C 
BRANCH   5   6
ATOM      6  C   UNL     1      19.119  24.911  27.162  1.00  0.00    -0.028 C 
ATOM      7  C   UNL     1      21.475  24.947  28.011  1.00  0.00     0.039 C 
ATOM      8  C   UNL     1      20.414  24.557  27.009  1.00  0.00    -0.080 C 
ATOM      9  C   UNL     1      20.796  23.735  25.805  1.00  0.00     0.039 C 
ENDBRANCH   5   6
ENDBRANCH   4   5
ENDBRANCH   1   4
BRANCH   2  10
ATOM     10  C   UNL     1      15.449  24.313  27.141  1.00  0.00     0.035 C 
BRANCH  10  11
ATOM     11  C   UNL     1      15.088  22.864  27.483  1.00  0.00     0.079 C 
BRANCH  11  12
ATOM     12  C   UNL     1      15.536  21.912  26.405  1.00  0.00     0.130 C 
ATOM     13  O   UNL     1      14.837  20.950  26.123  1.00  0.00    -0.300 OA
ATOM     14  C   UNL     1      16.827  22.119  25.671  1.00  0.00     0.087 C 
ENDBRANCH  11  12
ENDBRANCH  10  11
ENDBRANCH   2  10
TORSDOF 6
ENDMDL
MODEL 5
REMARK VINA RESULT:    -4.677      2.340      5.828
REMARK INTER + INTRA:          -7.013
REMARK INTER:                  -6.161
REMARK INTRA:                  -0.852
REMARK UNBOUND:                -0.696
REMARK SMILES CC(=O)CCC=C(C)CCC=C(C)C
REMARK SMILES IDX 7 1 6 2 8 3 9 4 10 5 11 6 13 7 12 8 14 9 5 10 4 11 2 12 3 13
REMARK SMILES IDX 1 14
REMARK H PARENT
REMARK Flexibility Score: inf
ROOT
ATOM      1  C   UNL     1      15.314  23.197  27.041  1.00  0.00    -0.077 C 
ATOM      2  C   UNL     1      14.622  22.351  27.839  1.00  0.00    -0.028 C 
ATOM      3  C   UNL     1      15.899  22.652  25.763  1.00  0.00     0.039 C 
ENDROOT
BRANCH   1   4
ATOM      4  C   UNL     1      15.504  24.666  27.359  1.00  0.00     0.034 C 
BRANCH   4   5
ATOM      5  C   UNL     1      16.857  24.905  28.039  1.00  0.00     0.032 C 
BRANCH   5   6
ATOM      6  C   UNL     1      17.259  26.355  27.935  1.00  0.00    -0.028 C 
ATOM      7  C   UNL     1      19.708  25.853  28.073  1.00  0.00     0.039 C 
ATOM      8  C   UNL     1      18.535  26.798  27.975  1.00  0.00    -0.080 C 
ATOM      9  C   UNL     1      18.781  28.283  27.903  1.00  0.00     0.039 C 
ENDBRANCH   5   6
ENDBRANCH   4   5
ENDBRANCH   1   4
BRANCH   2  10
ATOM     10  C   UNL     1      14.014  22.705  29.177  1.00  0.00     0.035 C 
BRANCH  10  11
ATOM     11  C   UNL     1      14.925  22.268  30.329  1.00  0.00     0.079 C 
BRANCH  11  12
ATOM     12  C   UNL     1      15.037  23.338  31.383  1.00  0.00     0.130 C 
ATOM     13  O   UNL     1      15.409  23.039  32.508  1.00  0.00    -0.300 OA
ATOM     14  C   UNL     1      14.698  24.768  31.080  1.00  0.00     0.087 C 
ENDBRANCH  11  12
ENDBRANCH  10  11
ENDBRANCH   2  10
TORSDOF 6
ENDMDL
MODEL 6
REMARK VINA RESULT:    -4.666      4.597      6.420
REMARK INTER + INTRA:          -6.999
REMARK INTER:                  -6.117
REMARK INTRA:                  -0.881
REMARK UNBOUND:                -0.696
REMARK SMILES CC(=O)CCC=C(C)CCC=C(C)C
REMARK SMILES IDX 7 1 6 2 8 3 9 4 10 5 11 6 13 7 12 8 14 9 5 10 4 11 2 12 3 13
REMARK SMILES IDX 1 14
REMARK H PARENT
REMARK Flexibility Score: inf
ROOT
ATOM      1  C   UNL     1      20.520  25.049  27.586  1.00  0.00    -0.077 C 
ATOM      2  C   UNL     1      21.681  25.651  27.936  1.00  0.00    -0.028 C 
ATOM      3  C   UNL     1      20.568  23.968  26.537  1.00  0.00     0.039 C 
ENDROOT
BRANCH   1   4
ATOM      4  C   UNL     1      19.186  25.393  28.217  1.00  0.00     0.034 C 
BRANCH   4   5
ATOM      5  C   UNL     1      18.497  26.524  27.448  1.00  0.00     0.032 C 
BRANCH   5   6
ATOM      6  C   UNL     1      17.522  27.258  28.335  1.00  0.00    -0.028 C 
ATOM      7  C   UNL     1      18.993  29.272  28.560  1.00  0.00     0.039 C 
ATOM      8  C   UNL     1      17.743  28.481  28.864  1.00  0.00    -0.080 C 
ATOM      9  C   UNL     1      16.694  29.071  29.771  1.00  0.00     0.039 C 
ENDBRANCH   5   6
ENDBRANCH   4   5
ENDBRANCH   1   4
BRANCH   2  10
ATOM     10  C   UNL     1      21.818  26.785  28.925  1.00  0.00     0.035 C 
BRANCH  10  11
ATOM     11  C   UNL     1      22.519  27.990  28.289  1.00  0.00     0.079 C 
BRANCH  11  12
ATOM     12  C   UNL     1      23.880  28.223  28.893  1.00  0.00     0.130 C 
ATOM     13  O   UNL     1      24.037  29.136  29.689  1.00  0.00    -0.300 OA
ATOM     14  C   UNL     1      25.050  27.356  28.533  1.00  0.00     0.087 C 
ENDBRANCH  11  12
ENDBRANCH  10  11
ENDBRANCH   2  10
TORSDOF 6
ENDMDL
MODEL 7
REMARK VINA RESULT:    -4.595      5.237      7.418
REMARK INTER + INTRA:          -6.902
REMARK INTER:                  -5.902
REMARK INTRA:                  -1.000
REMARK UNBOUND:                -0.696
REMARK SMILES CC(=O)CCC=C(C)CCC=C(C)C
REMARK SMILES IDX 7 1 6 2 8 3 9 4 10 5 11 6 13 7 12 8 14 9 5 10 4 11 2 12 3 13
REMARK SMILES IDX 1 14
REMARK H PARENT
REMARK Flexibility Score: inf
ROOT
ATOM      1  C   UNL     1      21.731  26.556  28.730  1.00  0.00    -0.077 C 
ATOM      2  C   UNL     1      22.838  26.635  27.956  1.00  0.00    -0.028 C 
ATOM      3  C   UNL     1      20.966  25.257  28.747  1.00  0.00     0.039 C 
ENDROOT
BRANCH   1   4
ATOM      4  C   UNL     1      21.242  27.699  29.596  1.00  0.00     0.034 C 
BRANCH   4   5
ATOM      5  C   UNL     1      20.274  28.596  28.817  1.00  0.00     0.032 C 
BRANCH   5   6
ATOM      6  C   UNL     1      18.863  28.426  29.321  1.00  0.00    -0.028 C 
ATOM      7  C   UNL     1      18.106  27.205  27.270  1.00  0.00     0.039 C 
ATOM      8  C   UNL     1      17.871  27.826  28.627  1.00  0.00    -0.080 C 
ATOM      9  C   UNL     1      16.497  27.768  29.242  1.00  0.00     0.039 C 
ENDBRANCH   5   6
ENDBRANCH   4   5
ENDBRANCH   1   4
BRANCH   2  10
ATOM     10  C   UNL     1      23.695  27.867  27.773  1.00  0.00     0.035 C 
BRANCH  10  11
ATOM     11  C   UNL     1      24.893  27.852  28.729  1.00  0.00     0.079 C 
BRANCH  11  12
ATOM     12  C   UNL     1      25.114  29.202  29.362  1.00  0.00     0.130 C 
ATOM     13  O   UNL     1      26.054  29.891  28.997  1.00  0.00    -0.300 OA
ATOM     14  C   UNL     1      24.202  29.716  30.437  1.00  0.00     0.087 C 
ENDBRANCH  11  12
ENDBRANCH  10  11
ENDBRANCH   2  10
TORSDOF 6
ENDMDL
MODEL 8
REMARK VINA RESULT:    -4.568      6.486      8.608
REMARK INTER + INTRA:          -6.866
REMARK INTER:                  -5.079
REMARK INTRA:                  -1.786
REMARK UNBOUND:                -0.696
REMARK SMILES CC(=O)CCC=C(C)CCC=C(C)C
REMARK SMILES IDX 7 1 6 2 8 3 9 4 10 5 11 6 13 7 12 8 14 9 5 10 4 11 2 12 3 13
REMARK SMILES IDX 1 14
REMARK H PARENT
REMARK Flexibility Score: inf
ROOT
ATOM      1  C   UNL     1      15.619  30.022  30.201  1.00  0.00    -0.077 C 
ATOM      2  C   UNL     1      15.501  31.125  29.427  1.00  0.00    -0.028 C 
ATOM      3  C   UNL     1      14.906  28.767  29.766  1.00  0.00     0.039 C 
ENDROOT
BRANCH   1   4
ATOM      4  C   UNL     1      16.453  29.982  31.466  1.00  0.00     0.034 C 
BRANCH   4   5
ATOM      5  C   UNL     1      17.602  28.978  31.329  1.00  0.00     0.032 C 
BRANCH   5   6
ATOM      6  C   UNL     1      18.879  29.678  30.936  1.00  0.00    -0.028 C 
ATOM      7  C   UNL     1      18.737  28.943  28.546  1.00  0.00     0.039 C 
ATOM      8  C   UNL     1      19.415  29.649  29.696  1.00  0.00    -0.080 C 
ATOM      9  C   UNL     1      20.723  30.361  29.462  1.00  0.00     0.039 C 
ENDBRANCH   5   6
ENDBRANCH   4   5
ENDBRANCH   1   4
BRANCH   2  10
ATOM     10  C   UNL     1      16.098  32.480  29.732  1.00  0.00     0.035 C 
BRANCH  10  11
ATOM     11  C   UNL     1      17.398  32.698  28.952  1.00  0.00     0.079 C 
BRANCH  11  12
ATOM     12  C   UNL     1      18.468  33.311  29.818  1.00  0.00     0.130 C 
ATOM     13  O   UNL     1      19.457  33.803  29.296  1.00  0.00    -0.300 OA
ATOM     14  C   UNL     1      18.345  33.327  31.313  1.00  0.00     0.087 C 
ENDBRANCH  11  12
ENDBRANCH  10  11
ENDBRANCH   2  10
TORSDOF 6
ENDMDL
MODEL 9
REMARK VINA RESULT:    -4.526      5.276      7.842
REMARK INTER + INTRA:          -6.809
REMARK INTER:                  -5.368
REMARK INTRA:                  -1.441
REMARK UNBOUND:                -0.696
REMARK SMILES CC(=O)CCC=C(C)CCC=C(C)C
REMARK SMILES IDX 7 1 6 2 8 3 9 4 10 5 11 6 13 7 12 8 14 9 5 10 4 11 2 12 3 13
REMARK SMILES IDX 1 14
REMARK H PARENT
REMARK Flexibility Score: inf
ROOT
ATOM      1  C   UNL     1      17.108  31.791  29.704  1.00  0.00    -0.077 C 
ATOM      2  C   UNL     1      15.766  31.630  29.774  1.00  0.00    -0.028 C 
ATOM      3  C   UNL     1      17.643  32.995  28.973  1.00  0.00     0.039 C 
ENDROOT
BRANCH   1   4
ATOM      4  C   UNL     1      18.092  30.835  30.346  1.00  0.00     0.034 C 
BRANCH   4   5
ATOM      5  C   UNL     1      19.087  30.300  29.311  1.00  0.00     0.032 C 
BRANCH   5   6
ATOM      6  C   UNL     1      18.442  29.248  28.443  1.00  0.00    -0.028 C 
ATOM      7  C   UNL     1      19.871  27.399  29.345  1.00  0.00     0.039 C 
ATOM      8  C   UNL     1      18.802  27.945  28.429  1.00  0.00    -0.080 C 
ATOM      9  C   UNL     1      18.095  27.016  27.475  1.00  0.00     0.039 C 
ENDBRANCH   5   6
ENDBRANCH   4   5
ENDBRANCH   1   4
BRANCH   2  10
ATOM     10  C   UNL     1      15.055  30.461  30.416  1.00  0.00     0.035 C 
BRANCH  10  11
ATOM     11  C   UNL     1      14.799  29.344  29.399  1.00  0.00     0.079 C 
BRANCH  11  12
ATOM     12  C   UNL     1      15.218  28.000  29.935  1.00  0.00     0.130 C 
ATOM     13  O   UNL     1      14.809  26.983  29.395  1.00  0.00    -0.300 OA
ATOM     14  C   UNL     1      16.126  27.884  31.123  1.00  0.00     0.087 C 
ENDBRANCH  11  12
ENDBRANCH  10  11
ENDBRANCH   2  10
TORSDOF 6
ENDMDL
