MODEL 1
REMARK VINA RESULT:     0.765      0.000      0.000
REMARK INTER + INTRA:           0.679
REMARK INTER:                   1.078
REMARK INTRA:                  -0.399
REMARK UNBOUND:                -0.399
REMARK SMILES CCCCCCCCC(=O)[O-]
REMARK SMILES IDX 6 1 7 2 8 3 9 4 10 5 11 6 5 7 4 8 3 9 2 10 1 11
REMARK H PARENT
REMARK Flexibility Score: inf
ROOT
ATOM      1  C   UNL     1     -12.733  17.796 -10.719  1.00  0.00     0.000 C 
ENDROOT
BRANCH   1   2
ATOM      2  C   UNL     1     -13.321  19.000 -11.470  1.00  0.00     0.006 C 
BRANCH   2   3
ATOM      3  C   UNL     1     -12.269  19.724 -12.320  1.00  0.00     0.053 C 
BRANCH   3   4
ATOM      4  C   UNL     1     -12.399  19.386 -13.774  1.00  0.00     0.041 C 
ATOM      5  O   UNL     1     -13.526  19.109 -14.261  1.00  0.00    -0.550 OA
ATOM      6  O   UNL     1     -11.280  19.408 -14.597  1.00  0.00    -0.550 OA
ENDBRANCH   3   4
ENDBRANCH   2   3
ENDBRANCH   1   2
BRANCH   1   7
ATOM      7  C   UNL     1     -12.757  18.031  -9.201  1.00  0.00     0.000 C 
BRANCH   7   8
ATOM      8  C   UNL     1     -13.257  19.435  -8.828  1.00  0.00    -0.000 C 
BRANCH   8   9
ATOM      9  C   UNL     1     -13.183  19.708  -7.316  1.00  0.00    -0.000 C 
BRANCH   9  10
ATOM     10  C   UNL     1     -12.459  21.024  -6.990  1.00  0.00    -0.003 C 
ATOM     11  C   UNL     1     -11.720  21.604  -8.196  1.00  0.00     0.004 C 
ENDBRANCH   9  10
ENDBRANCH   8   9
ENDBRANCH   7   8
ENDBRANCH   1   7
TORSDOF 7
ENDMDL
MODEL 2
REMARK VINA RESULT:     1.593      3.284      5.510
REMARK INTER + INTRA:           1.846
REMARK INTER:                   2.142
REMARK INTRA:                  -0.296
REMARK UNBOUND:                -0.399
REMARK SMILES CCCCCCCCC(=O)[O-]
REMARK SMILES IDX 6 1 7 2 8 3 9 4 10 5 11 6 5 7 4 8 3 9 2 10 1 11
REMARK H PARENT
REMARK Flexibility Score: inf
ROOT
ATOM      1  C   UNL     1     -12.779  18.042  -9.264  1.00  0.00     0.000 C 
ENDROOT
BRANCH   1   2
ATOM      2  C   UNL     1     -13.424  19.378  -8.862  1.00  0.00     0.006 C 
BRANCH   2   3
ATOM      3  C   UNL     1     -13.099  19.767  -7.415  1.00  0.00     0.053 C 
BRANCH   3   4
ATOM      4  C   UNL     1     -12.323  21.047  -7.344  1.00  0.00     0.041 C 
ATOM      5  O   UNL     1     -12.327  21.732  -6.288  1.00  0.00    -0.550 OA
ATOM      6  O   UNL     1     -11.568  21.465  -8.432  1.00  0.00    -0.550 OA
ENDBRANCH   3   4
ENDBRANCH   2   3
ENDBRANCH   1   2
BRANCH   1   7
ATOM      7  C   UNL     1     -12.757  17.881 -10.791  1.00  0.00     0.000 C 
BRANCH   7   8
ATOM      8  C   UNL     1     -13.060  19.195 -11.529  1.00  0.00    -0.000 C 
BRANCH   8   9
ATOM      9  C   UNL     1     -13.043  19.033 -13.059  1.00  0.00    -0.000 C 
BRANCH   9  10
ATOM     10  C   UNL     1     -11.909  19.829 -13.723  1.00  0.00    -0.003 C 
ATOM     11  C   UNL     1     -11.251  19.069 -14.875  1.00  0.00     0.004 C 
ENDBRANCH   9  10
ENDBRANCH   8   9
ENDBRANCH   7   8
ENDBRANCH   1   7
TORSDOF 7
ENDMDL
MODEL 3
REMARK VINA RESULT:     1.983     15.847     17.366
REMARK INTER + INTRA:           2.395
REMARK INTER:                   2.186
REMARK INTRA:                   0.209
REMARK UNBOUND:                -0.399
REMARK SMILES CCCCCCCCC(=O)[O-]
REMARK SMILES IDX 6 1 7 2 8 3 9 4 10 5 11 6 5 7 4 8 3 9 2 10 1 11
REMARK H PARENT
REMARK Flexibility Score: inf
ROOT
ATOM      1  C   UNL     1     -19.214   7.759  -3.641  1.00  0.00     0.000 C 
ENDROOT
BRANCH   1   2
ATOM      2  C   UNL     1     -17.919   7.447  -2.876  1.00  0.00     0.006 C 
BRANCH   2   3
ATOM      3  C   UNL     1     -16.806   6.939  -3.799  1.00  0.00     0.053 C 
BRANCH   3   4
ATOM      4  C   UNL     1     -16.871   5.453  -3.985  1.00  0.00     0.041 C 
ATOM      5  O   UNL     1     -16.146   4.891  -4.847  1.00  0.00    -0.550 OA
ATOM      6  O   UNL     1     -17.709   4.687  -3.185  1.00  0.00    -0.550 OA
ENDBRANCH   3   4
ENDBRANCH   2   3
ENDBRANCH   1   2
BRANCH   1   7
ATOM      7  C   UNL     1     -20.424   7.096  -2.966  1.00  0.00     0.000 C 
BRANCH   7   8
ATOM      8  C   UNL     1     -20.325   5.563  -2.947  1.00  0.00    -0.000 C 
BRANCH   8   9
ATOM      9  C   UNL     1     -21.702   4.881  -2.876  1.00  0.00    -0.000 C 
BRANCH   9  10
ATOM     10  C   UNL     1     -21.926   3.886  -4.026  1.00  0.00    -0.003 C 
ATOM     11  C   UNL     1     -20.739   2.944  -4.229  1.00  0.00     0.004 C 
ENDBRANCH   9  10
ENDBRANCH   8   9
ENDBRANCH   7   8
ENDBRANCH   1   7
TORSDOF 7
ENDMDL
MODEL 4
REMARK VINA RESULT:     2.147      0.625      1.417
REMARK INTER + INTRA:           2.627
REMARK INTER:                   2.833
REMARK INTRA:                  -0.206
REMARK UNBOUND:                -0.399
REMARK SMILES CCCCCCCCC(=O)[O-]
REMARK SMILES IDX 6 1 7 2 8 3 9 4 10 5 11 6 5 7 4 8 3 9 2 10 1 11
REMARK H PARENT
REMARK Flexibility Score: inf
ROOT
ATOM      1  C   UNL     1     -12.880  17.605 -10.439  1.00  0.00     0.000 C 
ENDROOT
BRANCH   1   2
ATOM      2  C   UNL     1     -13.221  18.687 -11.475  1.00  0.00     0.006 C 
BRANCH   2   3
ATOM      3  C   UNL     1     -12.016  19.056 -12.349  1.00  0.00     0.053 C 
BRANCH   3   4
ATOM      4  C   UNL     1     -12.433  19.461 -13.730  1.00  0.00     0.041 C 
ATOM      5  O   UNL     1     -11.621  20.054 -14.488  1.00  0.00    -0.550 OA
ATOM      6  O   UNL     1     -13.706  19.155 -14.192  1.00  0.00    -0.550 OA
ENDBRANCH   3   4
ENDBRANCH   2   3
ENDBRANCH   1   2
BRANCH   1   7
ATOM      7  C   UNL     1     -12.707  18.217  -9.042  1.00  0.00     0.000 C 
BRANCH   7   8
ATOM      8  C   UNL     1     -13.383  19.591  -8.910  1.00  0.00    -0.000 C 
BRANCH   8   9
ATOM      9  C   UNL     1     -12.370  20.747  -8.846  1.00  0.00    -0.000 C 
BRANCH   9  10
ATOM     10  C   UNL     1     -12.106  21.219  -7.409  1.00  0.00    -0.003 C 
ATOM     11  C   UNL     1     -12.959  20.479  -6.379  1.00  0.00     0.004 C 
ENDBRANCH   9  10
ENDBRANCH   8   9
ENDBRANCH   7   8
ENDBRANCH   1   7
TORSDOF 7
ENDMDL
MODEL 5
REMARK VINA RESULT:     3.713     17.157     18.890
REMARK INTER + INTRA:           4.834
REMARK INTER:                   2.917
REMARK INTRA:                   1.917
REMARK UNBOUND:                -0.399
REMARK SMILES CCCCCCCCC(=O)[O-]
REMARK SMILES IDX 6 1 7 2 8 3 9 4 10 5 11 6 5 7 4 8 3 9 2 10 1 11
REMARK H PARENT
REMARK Flexibility Score: inf
ROOT
ATOM      1  C   UNL     1      -6.543   2.942 -21.664  1.00  0.00     0.000 C 
ENDROOT
BRANCH   1   2
ATOM      2  C   UNL     1      -6.809   3.494 -23.073  1.00  0.00     0.006 C 
BRANCH   2   3
ATOM      3  C   UNL     1      -7.281   4.953 -23.046  1.00  0.00     0.053 C 
BRANCH   3   4
ATOM      4  C   UNL     1      -8.775   5.055 -23.085  1.00  0.00     0.041 C 
ATOM      5  O   UNL     1      -9.331   6.184 -23.117  1.00  0.00    -0.550 OA
ATOM      6  O   UNL     1      -9.552   3.905 -23.119  1.00  0.00    -0.550 OA
ENDBRANCH   3   4
ENDBRANCH   2   3
ENDBRANCH   1   2
BRANCH   1   7
ATOM      7  C   UNL     1      -6.886   3.985 -20.591  1.00  0.00     0.000 C 
BRANCH   7   8
ATOM      8  C   UNL     1      -8.398   4.223 -20.459  1.00  0.00    -0.000 C 
BRANCH   8   9
ATOM      9  C   UNL     1      -8.745   5.225 -19.344  1.00  0.00    -0.000 C 
BRANCH   9  10
ATOM     10  C   UNL     1      -7.609   6.224 -19.074  1.00  0.00    -0.003 C 
ATOM     11  C   UNL     1      -6.667   5.758 -17.965  1.00  0.00     0.004 C 
ENDBRANCH   9  10
ENDBRANCH   8   9
ENDBRANCH   7   8
ENDBRANCH   1   7
TORSDOF 7
ENDMDL
