MODEL 1
REMARK VINA RESULT:    -4.578      0.000      0.000
REMARK INTER + INTRA:          -6.624
REMARK INTER:                  -6.184
REMARK INTRA:                  -0.440
REMARK UNBOUND:                -0.440
REMARK SMILES [NH3+]CCCC[C@H]([NH3+])C(=O)[O-]
REMARK SMILES IDX 4 1 3 2 2 3 1 4 5 8 6 9 7 10 8 14 9 15 10 16
REMARK H PARENT 1 5 1 6 1 7 7 11 7 12 7 13
REMARK Flexibility Score: inf
ROOT
ATOM      1  C   UNL     1      45.952  58.579  90.443  1.00  0.00     0.012 C 
ENDROOT
BRANCH   1   2
ATOM      2  C   UNL     1      47.297  58.009  89.958  1.00  0.00     0.061 C 
BRANCH   2   3
ATOM      3  C   UNL     1      47.173  56.563  89.450  1.00  0.00     0.258 C 
BRANCH   3   4
ATOM      4  N   UNL     1      47.537  55.585  90.476  1.00  0.00    -0.358 N 
ATOM      5  H   UNL     1      47.938  56.068  91.314  1.00  0.00     0.344 HD
ATOM      6  H   UNL     1      46.703  55.021  90.754  1.00  0.00     0.344 HD
ATOM      7  H   UNL     1      48.258  54.936  90.086  1.00  0.00     0.344 HD
ENDBRANCH   3   4
ENDBRANCH   2   3
ENDBRANCH   1   2
BRANCH   1   8
ATOM      8  C   UNL     1      45.750  58.424  91.962  1.00  0.00     0.072 C 
BRANCH   8   9
ATOM      9  C   UNL     1      44.342  57.942  92.383  1.00  0.00     0.227 C 
BRANCH   9  10
ATOM     10  N   UNL     1      43.769  58.783  93.444  1.00  0.00    -0.350 N 
ATOM     11  H   UNL     1      42.801  59.079  93.185  1.00  0.00     0.345 HD
ATOM     12  H   UNL     1      43.701  58.238  94.335  1.00  0.00     0.345 HD
ATOM     13  H   UNL     1      44.361  59.630  93.607  1.00  0.00     0.345 HD
ENDBRANCH   9  10
BRANCH   9  14
ATOM     14  C   UNL     1      44.418  56.509  92.839  1.00  0.00     0.099 C 
ATOM     15  O   UNL     1      45.000  55.643  92.133  1.00  0.00    -0.544 OA
ATOM     16  O   UNL     1      43.817  56.128  94.032  1.00  0.00    -0.544 OA
ENDBRANCH   9  14
ENDBRANCH   8   9
ENDBRANCH   1   8
TORSDOF 7
ENDMDL
MODEL 2
REMARK VINA RESULT:    -4.548      1.984      3.968
REMARK INTER + INTRA:          -6.583
REMARK INTER:                  -6.173
REMARK INTRA:                  -0.410
REMARK UNBOUND:                -0.440
REMARK SMILES [NH3+]CCCC[C@H]([NH3+])C(=O)[O-]
REMARK SMILES IDX 4 1 3 2 2 3 1 4 5 8 6 9 7 10 8 14 9 15 10 16
REMARK H PARENT 1 5 1 6 1 7 7 11 7 12 7 13
REMARK Flexibility Score: inf
ROOT
ATOM      1  C   UNL     1      45.524  58.730  92.264  1.00  0.00     0.012 C 
ENDROOT
BRANCH   1   2
ATOM      2  C   UNL     1      44.147  58.324  92.817  1.00  0.00     0.061 C 
BRANCH   2   3
ATOM      3  C   UNL     1      44.209  57.045  93.669  1.00  0.00     0.258 C 
BRANCH   3   4
ATOM      4  N   UNL     1      43.875  55.850  92.894  1.00  0.00    -0.358 N 
ATOM      5  H   UNL     1      44.560  55.084  93.090  1.00  0.00     0.344 HD
ATOM      6  H   UNL     1      42.906  55.529  93.119  1.00  0.00     0.344 HD
ATOM      7  H   UNL     1      43.915  56.083  91.875  1.00  0.00     0.344 HD
ENDBRANCH   3   4
ENDBRANCH   2   3
ENDBRANCH   1   2
BRANCH   1   8
ATOM      8  C   UNL     1      45.706  58.359  90.780  1.00  0.00     0.072 C 
BRANCH   8   9
ATOM      9  C   UNL     1      47.108  57.819  90.414  1.00  0.00     0.227 C 
BRANCH   9  10
ATOM     10  N   UNL     1      47.635  58.445  89.192  1.00  0.00    -0.350 N 
ATOM     11  H   UNL     1      47.909  59.434  89.386  1.00  0.00     0.345 HD
ATOM     12  H   UNL     1      48.494  57.939  88.873  1.00  0.00     0.345 HD
ATOM     13  H   UNL     1      46.922  58.424  88.427  1.00  0.00     0.345 HD
ENDBRANCH   9  10
BRANCH   9  14
ATOM     14  C   UNL     1      47.040  56.324  90.245  1.00  0.00     0.099 C 
ATOM     15  O   UNL     1      47.561  55.770  89.241  1.00  0.00    -0.544 OA
ATOM     16  O   UNL     1      46.372  55.549  91.185  1.00  0.00    -0.544 OA
ENDBRANCH   9  14
ENDBRANCH   8   9
ENDBRANCH   1   8
TORSDOF 7
ENDMDL
MODEL 3
REMARK VINA RESULT:    -4.458      1.952      1.996
REMARK INTER + INTRA:          -6.462
REMARK INTER:                  -6.391
REMARK INTRA:                  -0.070
REMARK UNBOUND:                -0.440
REMARK SMILES [NH3+]CCCC[C@H]([NH3+])C(=O)[O-]
REMARK SMILES IDX 4 1 3 2 2 3 1 4 5 8 6 9 7 10 8 14 9 15 10 16
REMARK H PARENT 1 5 1 6 1 7 7 11 7 12 7 13
REMARK Flexibility Score: inf
ROOT
ATOM      1  C   UNL     1      46.083  58.727  90.013  1.00  0.00     0.012 C 
ENDROOT
BRANCH   1   2
ATOM      2  C   UNL     1      47.021  58.243  88.894  1.00  0.00     0.061 C 
BRANCH   2   3
ATOM      3  C   UNL     1      46.562  58.706  87.502  1.00  0.00     0.258 C 
BRANCH   3   4
ATOM      4  N   UNL     1      47.656  58.697  86.529  1.00  0.00    -0.358 N 
ATOM      5  H   UNL     1      47.377  58.169  85.670  1.00  0.00     0.344 HD
ATOM      6  H   UNL     1      47.926  59.674  86.277  1.00  0.00     0.344 HD
ATOM      7  H   UNL     1      48.487  58.226  86.957  1.00  0.00     0.344 HD
ENDBRANCH   3   4
ENDBRANCH   2   3
ENDBRANCH   1   2
BRANCH   1   8
ATOM      8  C   UNL     1      46.035  57.762  91.213  1.00  0.00     0.072 C 
BRANCH   8   9
ATOM      9  C   UNL     1      44.874  58.016  92.203  1.00  0.00     0.227 C 
BRANCH   9  10
ATOM     10  N   UNL     1      45.206  59.064  93.180  1.00  0.00    -0.350 N 
ATOM     11  H   UNL     1      45.773  59.813  92.723  1.00  0.00     0.345 HD
ATOM     12  H   UNL     1      44.329  59.510  93.537  1.00  0.00     0.345 HD
ATOM     13  H   UNL     1      45.739  58.665  93.986  1.00  0.00     0.345 HD
ENDBRANCH   9  10
BRANCH   9  14
ATOM     14  C   UNL     1      44.531  56.733  92.913  1.00  0.00     0.099 C 
ATOM     15  O   UNL     1      44.682  55.624  92.336  1.00  0.00    -0.544 OA
ATOM     16  O   UNL     1      44.016  56.770  94.202  1.00  0.00    -0.544 OA
ENDBRANCH   9  14
ENDBRANCH   8   9
ENDBRANCH   1   8
TORSDOF 7
ENDMDL
MODEL 4
REMARK VINA RESULT:    -4.265      2.934      5.071
REMARK INTER + INTRA:          -6.200
REMARK INTER:                  -6.126
REMARK INTRA:                  -0.074
REMARK UNBOUND:                -0.440
REMARK SMILES [NH3+]CCCC[C@H]([NH3+])C(=O)[O-]
REMARK SMILES IDX 4 1 3 2 2 3 1 4 5 8 6 9 7 10 8 14 9 15 10 16
REMARK H PARENT 1 5 1 6 1 7 7 11 7 12 7 13
REMARK Flexibility Score: inf
ROOT
ATOM      1  C   UNL     1      44.862  57.802  92.343  1.00  0.00     0.012 C 
ENDROOT
BRANCH   1   2
ATOM      2  C   UNL     1      44.080  58.653  93.359  1.00  0.00     0.061 C 
BRANCH   2   3
ATOM      3  C   UNL     1      44.822  58.798  94.698  1.00  0.00     0.258 C 
BRANCH   3   4
ATOM      4  N   UNL     1      43.987  59.420  95.726  1.00  0.00    -0.358 N 
ATOM      5  H   UNL     1      44.205  59.016  96.667  1.00  0.00     0.344 HD
ATOM      6  H   UNL     1      44.133  60.454  95.739  1.00  0.00     0.344 HD
ATOM      7  H   UNL     1      42.981  59.232  95.506  1.00  0.00     0.344 HD
ENDBRANCH   3   4
ENDBRANCH   2   3
ENDBRANCH   1   2
BRANCH   1   8
ATOM      8  C   UNL     1      45.600  58.653  91.292  1.00  0.00     0.072 C 
BRANCH   8   9
ATOM      9  C   UNL     1      46.492  57.849  90.318  1.00  0.00     0.227 C 
BRANCH   9  10
ATOM     10  N   UNL     1      47.882  57.765  90.791  1.00  0.00    -0.350 N 
ATOM     11  H   UNL     1      47.914  57.314  91.733  1.00  0.00     0.345 HD
ATOM     12  H   UNL     1      48.446  57.169  90.140  1.00  0.00     0.345 HD
ATOM     13  H   UNL     1      48.315  58.716  90.844  1.00  0.00     0.345 HD
ENDBRANCH   9  10
BRANCH   9  14
ATOM     14  C   UNL     1      46.444  58.485  88.954  1.00  0.00     0.099 C 
ATOM     15  O   UNL     1      45.569  59.349  88.682  1.00  0.00    -0.544 OA
ATOM     16  O   UNL     1      47.351  58.097  87.976  1.00  0.00    -0.544 OA
ENDBRANCH   9  14
ENDBRANCH   8   9
ENDBRANCH   1   8
TORSDOF 7
ENDMDL
MODEL 5
REMARK VINA RESULT:    -4.234      2.372      2.532
REMARK INTER + INTRA:          -6.158
REMARK INTER:                  -6.075
REMARK INTRA:                  -0.084
REMARK UNBOUND:                -0.440
REMARK SMILES [NH3+]CCCC[C@H]([NH3+])C(=O)[O-]
REMARK SMILES IDX 4 1 3 2 2 3 1 4 5 8 6 9 7 10 8 14 9 15 10 16
REMARK H PARENT 1 5 1 6 1 7 7 11 7 12 7 13
REMARK Flexibility Score: inf
ROOT
ATOM      1  C   UNL     1      46.760  57.744  90.740  1.00  0.00     0.012 C 
ENDROOT
BRANCH   1   2
ATOM      2  C   UNL     1      47.472  58.342  89.514  1.00  0.00     0.061 C 
BRANCH   2   3
ATOM      3  C   UNL     1      46.790  57.952  88.192  1.00  0.00     0.258 C 
BRANCH   3   4
ATOM      4  N   UNL     1      47.423  58.590  87.036  1.00  0.00    -0.358 N 
ATOM      5  H   UNL     1      46.748  59.233  86.560  1.00  0.00     0.344 HD
ATOM      6  H   UNL     1      48.272  59.120  87.334  1.00  0.00     0.344 HD
ATOM      7  H   UNL     1      47.716  57.850  86.358  1.00  0.00     0.344 HD
ENDBRANCH   3   4
ENDBRANCH   2   3
ENDBRANCH   1   2
BRANCH   1   8
ATOM      8  C   UNL     1      45.778  58.729  91.401  1.00  0.00     0.072 C 
BRANCH   8   9
ATOM      9  C   UNL     1      44.850  58.101  92.467  1.00  0.00     0.227 C 
BRANCH   9  10
ATOM     10  N   UNL     1      43.450  58.057  92.018  1.00  0.00    -0.350 N 
ATOM     11  H   UNL     1      42.808  58.078  92.842  1.00  0.00     0.345 HD
ATOM     12  H   UNL     1      43.235  58.897  91.433  1.00  0.00     0.345 HD
ATOM     13  H   UNL     1      43.268  57.193  91.456  1.00  0.00     0.345 HD
ENDBRANCH   9  10
BRANCH   9  14
ATOM     14  C   UNL     1      44.960  58.883  93.750  1.00  0.00     0.099 C 
ATOM     15  O   UNL     1      45.789  59.826  93.855  1.00  0.00    -0.544 OA
ATOM     16  O   UNL     1      44.165  58.545  94.838  1.00  0.00    -0.544 OA
ENDBRANCH   9  14
ENDBRANCH   8   9
ENDBRANCH   1   8
TORSDOF 7
ENDMDL
MODEL 6
REMARK VINA RESULT:    -4.088      3.935      5.040
REMARK INTER + INTRA:          -5.962
REMARK INTER:                  -5.891
REMARK INTRA:                  -0.071
REMARK UNBOUND:                -0.440
REMARK SMILES [NH3+]CCCC[C@H]([NH3+])C(=O)[O-]
REMARK SMILES IDX 4 1 3 2 2 3 1 4 5 8 6 9 7 10 8 14 9 15 10 16
REMARK H PARENT 1 5 1 6 1 7 7 11 7 12 7 13
REMARK Flexibility Score: inf
ROOT
ATOM      1  C   UNL     1      47.490  58.739  86.686  1.00  0.00     0.012 C 
ENDROOT
BRANCH   1   2
ATOM      2  C   UNL     1      48.257  60.072  86.703  1.00  0.00     0.061 C 
BRANCH   2   3
ATOM      3  C   UNL     1      48.994  60.342  85.380  1.00  0.00     0.258 C 
BRANCH   3   4
ATOM      4  N   UNL     1      49.391  61.744  85.247  1.00  0.00    -0.358 N 
ATOM      5  H   UNL     1      50.433  61.825  85.188  1.00  0.00     0.344 HD
ATOM      6  H   UNL     1      48.951  62.168  84.400  1.00  0.00     0.344 HD
ATOM      7  H   UNL     1      49.062  62.272  86.088  1.00  0.00     0.344 HD
ENDBRANCH   3   4
ENDBRANCH   2   3
ENDBRANCH   1   2
BRANCH   1   8
ATOM      8  C   UNL     1      46.586  58.553  87.919  1.00  0.00     0.072 C 
BRANCH   8   9
ATOM      9  C   UNL     1      47.216  57.730  89.067  1.00  0.00     0.227 C 
BRANCH   9  10
ATOM     10  N   UNL     1      47.296  56.300  88.735  1.00  0.00    -0.350 N 
ATOM     11  H   UNL     1      46.337  55.889  88.681  1.00  0.00     0.345 HD
ATOM     12  H   UNL     1      47.743  56.175  87.797  1.00  0.00     0.345 HD
ATOM     13  H   UNL     1      47.857  55.783  89.452  1.00  0.00     0.345 HD
ENDBRANCH   9  10
BRANCH   9  14
ATOM     14  C   UNL     1      46.411  57.927  90.325  1.00  0.00     0.099 C 
ATOM     15  O   UNL     1      46.328  57.007  91.181  1.00  0.00    -0.544 OA
ATOM     16  O   UNL     1      45.729  59.120  90.532  1.00  0.00    -0.544 OA
ENDBRANCH   9  14
ENDBRANCH   8   9
ENDBRANCH   1   8
TORSDOF 7
ENDMDL
MODEL 7
REMARK VINA RESULT:    -3.916      2.765      3.548
REMARK INTER + INTRA:          -5.729
REMARK INTER:                  -5.614
REMARK INTRA:                  -0.115
REMARK UNBOUND:                -0.440
REMARK SMILES [NH3+]CCCC[C@H]([NH3+])C(=O)[O-]
REMARK SMILES IDX 4 1 3 2 2 3 1 4 5 8 6 9 7 10 8 14 9 15 10 16
REMARK H PARENT 1 5 1 6 1 7 7 11 7 12 7 13
REMARK Flexibility Score: inf
ROOT
ATOM      1  C   UNL     1      45.277  55.272  91.777  1.00  0.00     0.012 C 
ENDROOT
BRANCH   1   2
ATOM      2  C   UNL     1      45.984  54.091  92.464  1.00  0.00     0.061 C 
BRANCH   2   3
ATOM      3  C   UNL     1      45.646  52.742  91.807  1.00  0.00     0.258 C 
BRANCH   3   4
ATOM      4  N   UNL     1      44.400  52.799  91.041  1.00  0.00    -0.358 N 
ATOM      5  H   UNL     1      44.593  52.681  90.019  1.00  0.00     0.344 HD
ATOM      6  H   UNL     1      43.738  52.059  91.367  1.00  0.00     0.344 HD
ATOM      7  H   UNL     1      43.951  53.732  91.191  1.00  0.00     0.344 HD
ENDBRANCH   3   4
ENDBRANCH   2   3
ENDBRANCH   1   2
BRANCH   1   8
ATOM      8  C   UNL     1      44.502  56.163  92.765  1.00  0.00     0.072 C 
BRANCH   8   9
ATOM      9  C   UNL     1      44.495  57.669  92.413  1.00  0.00     0.227 C 
BRANCH   9  10
ATOM     10  N   UNL     1      45.523  58.003  91.417  1.00  0.00    -0.350 N 
ATOM     11  H   UNL     1      45.983  57.132  91.069  1.00  0.00     0.345 HD
ATOM     12  H   UNL     1      45.082  58.474  90.592  1.00  0.00     0.345 HD
ATOM     13  H   UNL     1      46.245  58.639  91.827  1.00  0.00     0.345 HD
ENDBRANCH   9  10
BRANCH   9  14
ATOM     14  C   UNL     1      44.703  58.477  93.667  1.00  0.00     0.099 C 
ATOM     15  O   UNL     1      44.050  58.216  94.712  1.00  0.00    -0.544 OA
ATOM     16  O   UNL     1      45.600  59.538  93.667  1.00  0.00    -0.544 OA
ENDBRANCH   9  14
ENDBRANCH   8   9
ENDBRANCH   1   8
TORSDOF 7
ENDMDL
MODEL 8
REMARK VINA RESULT:    -3.906      3.057      3.771
REMARK INTER + INTRA:          -5.716
REMARK INTER:                  -5.616
REMARK INTRA:                  -0.101
REMARK UNBOUND:                -0.440
REMARK SMILES [NH3+]CCCC[C@H]([NH3+])C(=O)[O-]
REMARK SMILES IDX 4 1 3 2 2 3 1 4 5 8 6 9 7 10 8 14 9 15 10 16
REMARK H PARENT 1 5 1 6 1 7 7 11 7 12 7 13
REMARK Flexibility Score: inf
ROOT
ATOM      1  C   UNL     1      45.928  54.202  92.320  1.00  0.00     0.012 C 
ENDROOT
BRANCH   1   2
ATOM      2  C   UNL     1      45.437  52.891  91.683  1.00  0.00     0.061 C 
BRANCH   2   3
ATOM      3  C   UNL     1      46.245  51.671  92.155  1.00  0.00     0.258 C 
BRANCH   3   4
ATOM      4  N   UNL     1      47.499  52.057  92.804  1.00  0.00    -0.358 N 
ATOM      5  H   UNL     1      48.003  52.770  92.228  1.00  0.00     0.344 HD
ATOM      6  H   UNL     1      47.313  52.436  93.759  1.00  0.00     0.344 HD
ATOM      7  H   UNL     1      48.107  51.211  92.898  1.00  0.00     0.344 HD
ENDBRANCH   3   4
ENDBRANCH   2   3
ENDBRANCH   1   2
BRANCH   1   8
ATOM      8  C   UNL     1      45.024  55.404  91.988  1.00  0.00     0.072 C 
BRANCH   8   9
ATOM      9  C   UNL     1      44.537  56.208  93.217  1.00  0.00     0.227 C 
BRANCH   9  10
ATOM     10  N   UNL     1      43.277  55.675  93.755  1.00  0.00    -0.350 N 
ATOM     11  H   UNL     1      43.472  55.028  94.552  1.00  0.00     0.345 HD
ATOM     12  H   UNL     1      42.687  56.457  94.125  1.00  0.00     0.345 HD
ATOM     13  H   UNL     1      42.742  55.165  93.014  1.00  0.00     0.345 HD
ENDBRANCH   9  10
BRANCH   9  14
ATOM     14  C   UNL     1      44.369  57.655  92.834  1.00  0.00     0.099 C 
ATOM     15  O   UNL     1      44.624  58.040  91.663  1.00  0.00    -0.544 OA
ATOM     16  O   UNL     1      43.959  58.580  93.786  1.00  0.00    -0.544 OA
ENDBRANCH   9  14
ENDBRANCH   8   9
ENDBRANCH   1   8
TORSDOF 7
ENDMDL
MODEL 9
REMARK VINA RESULT:    -3.841      3.341      4.275
REMARK INTER + INTRA:          -5.628
REMARK INTER:                  -5.585
REMARK INTRA:                  -0.043
REMARK UNBOUND:                -0.440
REMARK SMILES [NH3+]CCCC[C@H]([NH3+])C(=O)[O-]
REMARK SMILES IDX 4 1 3 2 2 3 1 4 5 8 6 9 7 10 8 14 9 15 10 16
REMARK H PARENT 1 5 1 6 1 7 7 11 7 12 7 13
REMARK Flexibility Score: inf
ROOT
ATOM      1  C   UNL     1      46.334  55.383  90.381  1.00  0.00     0.012 C 
ENDROOT
BRANCH   1   2
ATOM      2  C   UNL     1      45.890  54.784  91.727  1.00  0.00     0.061 C 
BRANCH   2   3
ATOM      3  C   UNL     1      45.761  53.252  91.673  1.00  0.00     0.258 C 
BRANCH   3   4
ATOM      4  N   UNL     1      44.457  52.827  91.159  1.00  0.00    -0.358 N 
ATOM      5  H   UNL     1      44.053  52.077  91.767  1.00  0.00     0.344 HD
ATOM      6  H   UNL     1      43.803  53.639  91.111  1.00  0.00     0.344 HD
ATOM      7  H   UNL     1      44.581  52.445  90.193  1.00  0.00     0.344 HD
ENDBRANCH   3   4
ENDBRANCH   2   3
ENDBRANCH   1   2
BRANCH   1   8
ATOM      8  C   UNL     1      47.475  56.406  90.529  1.00  0.00     0.072 C 
BRANCH   8   9
ATOM      9  C   UNL     1      47.041  57.885  90.403  1.00  0.00     0.227 C 
BRANCH   9  10
ATOM     10  N   UNL     1      45.873  58.187  91.244  1.00  0.00    -0.350 N 
ATOM     11  H   UNL     1      46.028  59.079  91.766  1.00  0.00     0.345 HD
ATOM     12  H   UNL     1      45.025  58.319  90.645  1.00  0.00     0.345 HD
ATOM     13  H   UNL     1      45.695  57.412  91.924  1.00  0.00     0.345 HD
ENDBRANCH   9  10
BRANCH   9  14
ATOM     14  C   UNL     1      46.738  58.197  88.962  1.00  0.00     0.099 C 
ATOM     15  O   UNL     1      47.388  57.641  88.037  1.00  0.00    -0.544 OA
ATOM     16  O   UNL     1      45.757  59.129  88.645  1.00  0.00    -0.544 OA
ENDBRANCH   9  14
ENDBRANCH   8   9
ENDBRANCH   1   8
TORSDOF 7
ENDMDL
