MODEL 1
REMARK VINA RESULT:    -6.697      0.000      0.000
REMARK INTER + INTRA:         -11.217
REMARK INTER:                 -10.417
REMARK INTRA:                  -0.801
REMARK UNBOUND:                -0.801
REMARK SMILES COc1cc(CNC(=O)CCCCC=CC(C)C)ccc1O
REMARK SMILES IDX 11 1 12 2 13 3 14 4 15 5 16 6 17 7 18 8 10 9 8 10 9 11 7 12
REMARK SMILES IDX 6 14 5 15 4 16 19 17 3 18 20 19 21 20 2 21 1 22 22 23
REMARK H PARENT 7 13 22 24
REMARK Flexibility Score: inf
ROOT
ATOM      1  C   UNL     1       0.111  16.706 -32.896  1.00  0.00     0.010 C 
ENDROOT
BRANCH   1   2
ATOM      2  C   UNL     1       1.146  17.806 -32.615  1.00  0.00     0.005 C 
BRANCH   2   3
ATOM      3  C   UNL     1       2.253  17.329 -31.665  1.00  0.00     0.027 C 
BRANCH   3   4
ATOM      4  C   UNL     1       1.811  16.125 -30.875  1.00  0.00    -0.031 C 
ATOM      5  C   UNL     1       1.839  16.111 -29.530  1.00  0.00    -0.028 C 
BRANCH   5   6
ATOM      6  C   UNL     1       1.328  14.944 -28.717  1.00  0.00     0.005 C 
ATOM      7  C   UNL     1       1.399  15.239 -27.214  1.00  0.00     0.012 C 
ATOM      8  C   UNL     1      -0.091  14.546 -29.138  1.00  0.00     0.012 C 
ENDBRANCH   5   6
ENDBRANCH   3   4
ENDBRANCH   2   3
ENDBRANCH   1   2
BRANCH   1   9
ATOM      9  C   UNL     1      -1.257  17.315 -33.229  1.00  0.00     0.100 C 
BRANCH   9  10
ATOM     10  C   UNL     1      -1.684  16.984 -34.631  1.00  0.00     0.220 C 
ATOM     11  O   UNL     1      -1.434  17.794 -35.568  1.00  0.00    -0.275 OA
ATOM     12  N   UNL     1      -2.429  15.782 -34.893  1.00  0.00    -0.352 N 
ATOM     13  H   UNL     1      -2.604  15.107 -34.115  1.00  0.00     0.163 HD
BRANCH  12  14
ATOM     14  C   UNL     1      -2.972  15.471 -36.215  1.00  0.00     0.151 C 
BRANCH  14  15
ATOM     15  C   UNL     1      -4.359  16.042 -36.353  1.00  0.00    -0.025 A 
ATOM     16  C   UNL     1      -4.618  17.030 -37.317  1.00  0.00     0.056 A 
ATOM     17  C   UNL     1      -5.408  15.571 -35.550  1.00  0.00     0.009 A 
ATOM     18  C   UNL     1      -5.918  17.554 -37.478  1.00  0.00     0.160 A 
ATOM     19  C   UNL     1      -6.698  16.085 -35.703  1.00  0.00     0.050 A 
ATOM     20  C   UNL     1      -6.958  17.071 -36.660  1.00  0.00     0.157 A 
BRANCH  18  21
ATOM     21  O   UNL     1      -6.208  18.541 -38.433  1.00  0.00    -0.493 OA
ATOM     22  C   UNL     1      -5.998  19.936 -38.241  1.00  0.00     0.278 C 
ENDBRANCH  18  21
BRANCH  20  23
ATOM     23  O   UNL     1      -8.259  17.559 -36.786  1.00  0.00    -0.504 OA
ATOM     24  H   UNL     1      -9.070  17.004 -36.542  1.00  0.00     0.293 HD
ENDBRANCH  20  23
ENDBRANCH  14  15
ENDBRANCH  12  14
ENDBRANCH   9  10
ENDBRANCH   1   9
TORSDOF 10
ENDMDL
MODEL 2
REMARK VINA RESULT:    -6.560      1.187      1.521
REMARK INTER + INTRA:         -11.004
REMARK INTER:                 -10.280
REMARK INTRA:                  -0.723
REMARK UNBOUND:                -0.801
REMARK SMILES COc1cc(CNC(=O)CCCCC=CC(C)C)ccc1O
REMARK SMILES IDX 11 1 12 2 13 3 14 4 15 5 16 6 17 7 18 8 10 9 8 10 9 11 7 12
REMARK SMILES IDX 6 14 5 15 4 16 19 17 3 18 20 19 21 20 2 21 1 22 22 23
REMARK H PARENT 7 13 22 24
REMARK Flexibility Score: inf
ROOT
ATOM      1  C   UNL     1       0.292  17.029 -32.903  1.00  0.00     0.010 C 
ENDROOT
BRANCH   1   2
ATOM      2  C   UNL     1       0.978  18.281 -32.334  1.00  0.00     0.005 C 
BRANCH   2   3
ATOM      3  C   UNL     1       2.470  18.335 -32.689  1.00  0.00     0.027 C 
BRANCH   3   4
ATOM      4  C   UNL     1       3.240  17.259 -31.968  1.00  0.00    -0.031 C 
ATOM      5  C   UNL     1       3.352  17.244 -30.627  1.00  0.00    -0.028 C 
BRANCH   5   6
ATOM      6  C   UNL     1       4.054  16.133 -29.881  1.00  0.00     0.005 C 
ATOM      7  C   UNL     1       3.242  15.685 -28.660  1.00  0.00     0.012 C 
ATOM      8  C   UNL     1       4.370  14.950 -30.803  1.00  0.00     0.012 C 
ENDBRANCH   5   6
ENDBRANCH   3   4
ENDBRANCH   2   3
ENDBRANCH   1   2
BRANCH   1   9
ATOM      9  C   UNL     1      -1.205  17.278 -33.123  1.00  0.00     0.100 C 
BRANCH   9  10
ATOM     10  C   UNL     1      -1.605  17.022 -34.548  1.00  0.00     0.220 C 
ATOM     11  O   UNL     1      -1.286  17.851 -35.446  1.00  0.00    -0.275 OA
ATOM     12  N   UNL     1      -2.403  15.871 -34.878  1.00  0.00    -0.352 N 
ATOM     13  H   UNL     1      -2.636  15.178 -34.132  1.00  0.00     0.163 HD
BRANCH  12  14
ATOM     14  C   UNL     1      -2.920  15.638 -36.225  1.00  0.00     0.151 C 
BRANCH  14  15
ATOM     15  C   UNL     1      -4.318  16.186 -36.346  1.00  0.00    -0.025 A 
ATOM     16  C   UNL     1      -4.604  17.168 -37.309  1.00  0.00     0.056 A 
ATOM     17  C   UNL     1      -5.348  15.701 -35.528  1.00  0.00     0.009 A 
ATOM     18  C   UNL     1      -5.914  17.671 -37.454  1.00  0.00     0.160 A 
ATOM     19  C   UNL     1      -6.648  16.195 -35.665  1.00  0.00     0.050 A 
ATOM     20  C   UNL     1      -6.936  17.175 -36.621  1.00  0.00     0.157 A 
BRANCH  18  21
ATOM     21  O   UNL     1      -6.233  18.652 -38.407  1.00  0.00    -0.493 OA
ATOM     22  C   UNL     1      -6.202  20.054 -38.163  1.00  0.00     0.278 C 
ENDBRANCH  18  21
BRANCH  20  23
ATOM     23  O   UNL     1      -8.246  17.642 -36.731  1.00  0.00    -0.504 OA
ATOM     24  H   UNL     1      -8.900  17.262 -37.404  1.00  0.00     0.293 HD
ENDBRANCH  20  23
ENDBRANCH  14  15
ENDBRANCH  12  14
ENDBRANCH   9  10
ENDBRANCH   1   9
TORSDOF 10
ENDMDL
MODEL 3
REMARK VINA RESULT:    -6.546      1.986      4.101
REMARK INTER + INTRA:         -10.982
REMARK INTER:                 -10.111
REMARK INTRA:                  -0.871
REMARK UNBOUND:                -0.801
REMARK SMILES COc1cc(CNC(=O)CCCCC=CC(C)C)ccc1O
REMARK SMILES IDX 11 1 12 2 13 3 14 4 15 5 16 6 17 7 18 8 10 9 8 10 9 11 7 12
REMARK SMILES IDX 6 14 5 15 4 16 19 17 3 18 20 19 21 20 2 21 1 22 22 23
REMARK H PARENT 7 13 22 24
REMARK Flexibility Score: inf
ROOT
ATOM      1  C   UNL     1       0.030  16.663 -32.967  1.00  0.00     0.010 C 
ENDROOT
BRANCH   1   2
ATOM      2  C   UNL     1       0.906  17.564 -32.083  1.00  0.00     0.005 C 
BRANCH   2   3
ATOM      3  C   UNL     1       0.780  19.046 -32.464  1.00  0.00     0.027 C 
BRANCH   3   4
ATOM      4  C   UNL     1       1.470  19.331 -33.773  1.00  0.00    -0.031 C 
ATOM      5  C   UNL     1       0.936  20.158 -34.690  1.00  0.00    -0.028 C 
BRANCH   5   6
ATOM      6  C   UNL     1       1.648  20.518 -35.974  1.00  0.00     0.005 C 
ATOM      7  C   UNL     1       1.399  21.982 -36.357  1.00  0.00     0.012 C 
ATOM      8  C   UNL     1       3.148  20.214 -35.888  1.00  0.00     0.012 C 
ENDBRANCH   5   6
ENDBRANCH   3   4
ENDBRANCH   2   3
ENDBRANCH   1   2
BRANCH   1   9
ATOM      9  C   UNL     1      -1.293  17.356 -33.313  1.00  0.00     0.100 C 
BRANCH   9  10
ATOM     10  C   UNL     1      -1.749  17.016 -34.704  1.00  0.00     0.220 C 
ATOM     11  O   UNL     1      -1.584  17.852 -35.637  1.00  0.00    -0.275 OA
ATOM     12  N   UNL     1      -2.427  15.774 -34.958  1.00  0.00    -0.352 N 
ATOM     13  H   UNL     1      -2.532  15.079 -34.184  1.00  0.00     0.163 HD
BRANCH  12  14
ATOM     14  C   UNL     1      -2.997  15.446 -36.263  1.00  0.00     0.151 C 
BRANCH  14  15
ATOM     15  C   UNL     1      -4.384  16.020 -36.383  1.00  0.00    -0.025 A 
ATOM     16  C   UNL     1      -4.651  17.018 -37.335  1.00  0.00     0.056 A 
ATOM     17  C   UNL     1      -5.426  15.543 -35.575  1.00  0.00     0.009 A 
ATOM     18  C   UNL     1      -5.951  17.545 -37.478  1.00  0.00     0.160 A 
ATOM     19  C   UNL     1      -6.717  16.060 -35.710  1.00  0.00     0.050 A 
ATOM     20  C   UNL     1      -6.985  17.056 -36.655  1.00  0.00     0.157 A 
BRANCH  18  21
ATOM     21  O   UNL     1      -6.250  18.542 -38.421  1.00  0.00    -0.493 OA
ATOM     22  C   UNL     1      -5.953  19.925 -38.254  1.00  0.00     0.278 C 
ENDBRANCH  18  21
BRANCH  20  23
ATOM     23  O   UNL     1      -8.286  17.547 -36.764  1.00  0.00    -0.504 OA
ATOM     24  H   UNL     1      -8.519  18.330 -37.362  1.00  0.00     0.293 HD
ENDBRANCH  20  23
ENDBRANCH  14  15
ENDBRANCH  12  14
ENDBRANCH   9  10
ENDBRANCH   1   9
TORSDOF 10
ENDMDL
MODEL 4
REMARK VINA RESULT:    -6.454      1.801      2.519
REMARK INTER + INTRA:         -10.838
REMARK INTER:                 -10.120
REMARK INTRA:                  -0.718
REMARK UNBOUND:                -0.801
REMARK SMILES COc1cc(CNC(=O)CCCCC=CC(C)C)ccc1O
REMARK SMILES IDX 11 1 12 2 13 3 14 4 15 5 16 6 17 7 18 8 10 9 8 10 9 11 7 12
REMARK SMILES IDX 6 14 5 15 4 16 19 17 3 18 20 19 21 20 2 21 1 22 22 23
REMARK H PARENT 7 13 22 24
REMARK Flexibility Score: inf
ROOT
ATOM      1  C   UNL     1       1.809  17.681 -31.426  1.00  0.00     0.010 C 
ENDROOT
BRANCH   1   2
ATOM      2  C   UNL     1       3.235  17.109 -31.410  1.00  0.00     0.005 C 
BRANCH   2   3
ATOM      3  C   UNL     1       3.631  16.585 -30.023  1.00  0.00     0.027 C 
BRANCH   3   4
ATOM      4  C   UNL     1       2.612  15.607 -29.498  1.00  0.00    -0.031 C 
ATOM      5  C   UNL     1       2.002  15.787 -28.313  1.00  0.00    -0.028 C 
BRANCH   5   6
ATOM      6  C   UNL     1       0.921  14.860 -27.804  1.00  0.00     0.005 C 
ATOM      7  C   UNL     1       0.260  15.419 -26.538  1.00  0.00     0.012 C 
ATOM      8  C   UNL     1      -0.119  14.563 -28.889  1.00  0.00     0.012 C 
ENDBRANCH   5   6
ENDBRANCH   3   4
ENDBRANCH   2   3
ENDBRANCH   1   2
BRANCH   1   9
ATOM      9  C   UNL     1       0.925  16.917 -32.419  1.00  0.00     0.100 C 
BRANCH   9  10
ATOM     10  C   UNL     1      -0.187  17.778 -32.948  1.00  0.00     0.220 C 
ATOM     11  O   UNL     1      -0.055  19.034 -32.955  1.00  0.00    -0.275 OA
ATOM     12  N   UNL     1      -1.419  17.178 -33.385  1.00  0.00    -0.352 N 
ATOM     13  H   UNL     1      -1.504  16.137 -33.402  1.00  0.00     0.163 HD
BRANCH  12  14
ATOM     14  C   UNL     1      -2.574  17.974 -33.795  1.00  0.00     0.151 C 
BRANCH  14  15
ATOM     15  C   UNL     1      -3.527  17.129 -34.600  1.00  0.00    -0.025 A 
ATOM     16  C   UNL     1      -4.907  17.390 -34.553  1.00  0.00     0.056 A 
ATOM     17  C   UNL     1      -3.047  16.103 -35.427  1.00  0.00     0.009 A 
ATOM     18  C   UNL     1      -5.808  16.626 -35.323  1.00  0.00     0.160 A 
ATOM     19  C   UNL     1      -3.933  15.342 -36.192  1.00  0.00     0.050 A 
ATOM     20  C   UNL     1      -5.308  15.597 -36.145  1.00  0.00     0.157 A 
BRANCH  18  21
ATOM     21  O   UNL     1      -7.192  16.863 -35.299  1.00  0.00    -0.493 OA
ATOM     22  C   UNL     1      -7.850  17.883 -36.043  1.00  0.00     0.278 C 
ENDBRANCH  18  21
BRANCH  20  23
ATOM     23  O   UNL     1      -6.164  14.818 -36.925  1.00  0.00    -0.504 OA
ATOM     24  H   UNL     1      -7.071  14.515 -36.593  1.00  0.00     0.293 HD
ENDBRANCH  20  23
ENDBRANCH  14  15
ENDBRANCH  12  14
ENDBRANCH   9  10
ENDBRANCH   1   9
TORSDOF 10
ENDMDL
MODEL 5
REMARK VINA RESULT:    -6.426      2.658      3.636
REMARK INTER + INTRA:         -10.795
REMARK INTER:                  -9.951
REMARK INTRA:                  -0.844
REMARK UNBOUND:                -0.801
REMARK SMILES COc1cc(CNC(=O)CCCCC=CC(C)C)ccc1O
REMARK SMILES IDX 11 1 12 2 13 3 14 4 15 5 16 6 17 7 18 8 10 9 8 10 9 11 7 12
REMARK SMILES IDX 6 14 5 15 4 16 19 17 3 18 20 19 21 20 2 21 1 22 22 23
REMARK H PARENT 7 13 22 24
REMARK Flexibility Score: inf
ROOT
ATOM      1  C   UNL     1       2.593  16.647 -31.274  1.00  0.00     0.010 C 
ENDROOT
BRANCH   1   2
ATOM      2  C   UNL     1       3.984  16.696 -30.624  1.00  0.00     0.005 C 
BRANCH   2   3
ATOM      3  C   UNL     1       3.983  16.102 -29.209  1.00  0.00     0.027 C 
BRANCH   3   4
ATOM      4  C   UNL     1       2.714  15.334 -28.942  1.00  0.00    -0.031 C 
ATOM      5  C   UNL     1       2.035  15.466 -27.788  1.00  0.00    -0.028 C 
BRANCH   5   6
ATOM      6  C   UNL     1       0.720  14.765 -27.532  1.00  0.00     0.005 C 
ATOM      7  C   UNL     1      -0.075  15.463 -26.423  1.00  0.00     0.012 C 
ATOM      8  C   UNL     1      -0.108  14.639 -28.816  1.00  0.00     0.012 C 
ENDBRANCH   5   6
ENDBRANCH   3   4
ENDBRANCH   2   3
ENDBRANCH   1   2
BRANCH   1   9
ATOM      9  C   UNL     1       2.625  17.257 -32.681  1.00  0.00     0.100 C 
BRANCH   9  10
ATOM     10  C   UNL     1       1.408  18.096 -32.949  1.00  0.00     0.220 C 
ATOM     11  O   UNL     1       0.915  18.797 -32.021  1.00  0.00    -0.275 OA
ATOM     12  N   UNL     1       0.770  18.050 -34.238  1.00  0.00    -0.352 N 
ATOM     13  H   UNL     1       1.204  17.489 -35.005  1.00  0.00     0.163 HD
BRANCH  12  14
ATOM     14  C   UNL     1      -0.482  18.750 -34.516  1.00  0.00     0.151 C 
BRANCH  14  15
ATOM     15  C   UNL     1      -1.629  17.774 -34.538  1.00  0.00    -0.025 A 
ATOM     16  C   UNL     1      -1.810  16.930 -35.646  1.00  0.00     0.056 A 
ATOM     17  C   UNL     1      -2.501  17.673 -33.444  1.00  0.00     0.009 A 
ATOM     18  C   UNL     1      -2.862  15.991 -35.669  1.00  0.00     0.160 A 
ATOM     19  C   UNL     1      -3.545  16.746 -33.460  1.00  0.00     0.050 A 
ATOM     20  C   UNL     1      -3.731  15.906 -34.563  1.00  0.00     0.157 A 
BRANCH  18  21
ATOM     21  O   UNL     1      -3.069  15.133 -36.761  1.00  0.00    -0.493 OA
ATOM     22  C   UNL     1      -3.844  15.461 -37.909  1.00  0.00     0.278 C 
ENDBRANCH  18  21
BRANCH  20  23
ATOM     23  O   UNL     1      -4.783  14.990 -34.542  1.00  0.00    -0.504 OA
ATOM     24  H   UNL     1      -5.613  15.136 -33.982  1.00  0.00     0.293 HD
ENDBRANCH  20  23
ENDBRANCH  14  15
ENDBRANCH  12  14
ENDBRANCH   9  10
ENDBRANCH   1   9
TORSDOF 10
ENDMDL
MODEL 6
REMARK VINA RESULT:    -6.372      1.112      1.916
REMARK INTER + INTRA:         -10.712
REMARK INTER:                 -10.171
REMARK INTRA:                  -0.541
REMARK UNBOUND:                -0.801
REMARK SMILES COc1cc(CNC(=O)CCCCC=CC(C)C)ccc1O
REMARK SMILES IDX 11 1 12 2 13 3 14 4 15 5 16 6 17 7 18 8 10 9 8 10 9 11 7 12
REMARK SMILES IDX 6 14 5 15 4 16 19 17 3 18 20 19 21 20 2 21 1 22 22 23
REMARK H PARENT 7 13 22 24
REMARK Flexibility Score: inf
ROOT
ATOM      1  C   UNL     1      -0.597  17.971 -33.529  1.00  0.00     0.010 C 
ENDROOT
BRANCH   1   2
ATOM      2  C   UNL     1       0.329  17.612 -32.357  1.00  0.00     0.005 C 
BRANCH   2   3
ATOM      3  C   UNL     1       0.941  16.213 -32.511  1.00  0.00     0.027 C 
BRANCH   3   4
ATOM      4  C   UNL     1       1.668  15.796 -31.259  1.00  0.00    -0.031 C 
ATOM      5  C   UNL     1       1.011  15.493 -30.125  1.00  0.00    -0.028 C 
BRANCH   5   6
ATOM      6  C   UNL     1       1.715  14.998 -28.883  1.00  0.00     0.005 C 
ATOM      7  C   UNL     1       3.004  15.788 -28.622  1.00  0.00     0.012 C 
ATOM      8  C   UNL     1       0.789  15.028 -27.663  1.00  0.00     0.012 C 
ENDBRANCH   5   6
ENDBRANCH   3   4
ENDBRANCH   2   3
ENDBRANCH   1   2
BRANCH   1   9
ATOM      9  C   UNL     1      -1.728  16.945 -33.667  1.00  0.00     0.100 C 
BRANCH   9  10
ATOM     10  C   UNL     1      -1.928  16.528 -35.096  1.00  0.00     0.220 C 
ATOM     11  O   UNL     1      -1.393  17.199 -36.023  1.00  0.00    -0.275 OA
ATOM     12  N   UNL     1      -2.775  15.409 -35.410  1.00  0.00    -0.352 N 
ATOM     13  H   UNL     1      -3.188  14.845 -34.633  1.00  0.00     0.163 HD
BRANCH  12  14
ATOM     14  C   UNL     1      -3.100  15.035 -36.785  1.00  0.00     0.151 C 
BRANCH  14  15
ATOM     15  C   UNL     1      -4.108  15.995 -37.359  1.00  0.00    -0.025 A 
ATOM     16  C   UNL     1      -5.260  16.325 -36.625  1.00  0.00     0.056 A 
ATOM     17  C   UNL     1      -3.892  16.594 -38.609  1.00  0.00     0.009 A 
ATOM     18  C   UNL     1      -6.198  17.245 -37.137  1.00  0.00     0.160 A 
ATOM     19  C   UNL     1      -4.817  17.505 -39.123  1.00  0.00     0.050 A 
ATOM     20  C   UNL     1      -5.967  17.833 -38.396  1.00  0.00     0.157 A 
BRANCH  18  21
ATOM     21  O   UNL     1      -7.358  17.596 -36.428  1.00  0.00    -0.493 OA
ATOM     22  C   UNL     1      -7.561  18.847 -35.781  1.00  0.00     0.278 C 
ENDBRANCH  18  21
BRANCH  20  23
ATOM     23  O   UNL     1      -6.868  18.749 -38.940  1.00  0.00    -0.504 OA
ATOM     24  H   UNL     1      -6.699  19.212 -39.825  1.00  0.00     0.293 HD
ENDBRANCH  20  23
ENDBRANCH  14  15
ENDBRANCH  12  14
ENDBRANCH   9  10
ENDBRANCH   1   9
TORSDOF 10
ENDMDL
MODEL 7
REMARK VINA RESULT:    -6.350      1.366      2.276
REMARK INTER + INTRA:         -10.677
REMARK INTER:                 -10.053
REMARK INTRA:                  -0.625
REMARK UNBOUND:                -0.801
REMARK SMILES COc1cc(CNC(=O)CCCCC=CC(C)C)ccc1O
REMARK SMILES IDX 11 1 12 2 13 3 14 4 15 5 16 6 17 7 18 8 10 9 8 10 9 11 7 12
REMARK SMILES IDX 6 14 5 15 4 16 19 17 3 18 20 19 21 20 2 21 1 22 22 23
REMARK H PARENT 7 13 22 24
REMARK Flexibility Score: inf
ROOT
ATOM      1  C   UNL     1      -0.304  16.896 -33.152  1.00  0.00     0.010 C 
ENDROOT
BRANCH   1   2
ATOM      2  C   UNL     1       0.331  18.171 -32.576  1.00  0.00     0.005 C 
BRANCH   2   3
ATOM      3  C   UNL     1       1.865  18.112 -32.596  1.00  0.00     0.027 C 
BRANCH   3   4
ATOM      4  C   UNL     1       2.382  17.055 -31.656  1.00  0.00    -0.031 C 
ATOM      5  C   UNL     1       3.495  17.241 -30.924  1.00  0.00    -0.028 C 
BRANCH   5   6
ATOM      6  C   UNL     1       3.987  16.225 -29.918  1.00  0.00     0.005 C 
ATOM      7  C   UNL     1       2.944  15.977 -28.822  1.00  0.00     0.012 C 
ATOM      8  C   UNL     1       4.399  14.915 -30.600  1.00  0.00     0.012 C 
ENDBRANCH   5   6
ENDBRANCH   3   4
ENDBRANCH   2   3
ENDBRANCH   1   2
BRANCH   1   9
ATOM      9  C   UNL     1      -1.722  17.176 -33.666  1.00  0.00     0.100 C 
BRANCH   9  10
ATOM     10  C   UNL     1      -1.920  16.652 -35.060  1.00  0.00     0.220 C 
ATOM     11  O   UNL     1      -1.317  17.200 -36.025  1.00  0.00    -0.275 OA
ATOM     12  N   UNL     1      -2.840  15.573 -35.301  1.00  0.00    -0.352 N 
ATOM     13  H   UNL     1      -3.310  15.109 -34.491  1.00  0.00     0.163 HD
BRANCH  12  14
ATOM     14  C   UNL     1      -3.160  15.105 -36.648  1.00  0.00     0.151 C 
BRANCH  14  15
ATOM     15  C   UNL     1      -4.155  16.031 -37.296  1.00  0.00    -0.025 A 
ATOM     16  C   UNL     1      -5.358  16.339 -36.638  1.00  0.00     0.056 A 
ATOM     17  C   UNL     1      -3.878  16.620 -38.538  1.00  0.00     0.009 A 
ATOM     18  C   UNL     1      -6.287  17.228 -37.219  1.00  0.00     0.160 A 
ATOM     19  C   UNL     1      -4.793  17.500 -39.120  1.00  0.00     0.050 A 
ATOM     20  C   UNL     1      -5.993  17.807 -38.470  1.00  0.00     0.157 A 
BRANCH  18  21
ATOM     21  O   UNL     1      -7.497  17.556 -36.587  1.00  0.00    -0.493 OA
ATOM     22  C   UNL     1      -7.636  18.548 -35.576  1.00  0.00     0.278 C 
ENDBRANCH  18  21
BRANCH  20  23
ATOM     23  O   UNL     1      -6.882  18.692 -39.080  1.00  0.00    -0.504 OA
ATOM     24  H   UNL     1      -6.644  19.200 -39.923  1.00  0.00     0.293 HD
ENDBRANCH  20  23
ENDBRANCH  14  15
ENDBRANCH  12  14
ENDBRANCH   9  10
ENDBRANCH   1   9
TORSDOF 10
ENDMDL
MODEL 8
REMARK VINA RESULT:    -6.310      2.042      2.609
REMARK INTER + INTRA:         -10.615
REMARK INTER:                  -9.907
REMARK INTRA:                  -0.708
REMARK UNBOUND:                -0.801
REMARK SMILES COc1cc(CNC(=O)CCCCC=CC(C)C)ccc1O
REMARK SMILES IDX 11 1 12 2 13 3 14 4 15 5 16 6 17 7 18 8 10 9 8 10 9 11 7 12
REMARK SMILES IDX 6 14 5 15 4 16 19 17 3 18 20 19 21 20 2 21 1 22 22 23
REMARK H PARENT 7 13 22 24
REMARK Flexibility Score: inf
ROOT
ATOM      1  C   UNL     1       0.319  19.783 -33.170  1.00  0.00     0.010 C 
ENDROOT
BRANCH   1   2
ATOM      2  C   UNL     1       1.397  19.039 -32.368  1.00  0.00     0.005 C 
BRANCH   2   3
ATOM      3  C   UNL     1       2.489  18.452 -33.273  1.00  0.00     0.027 C 
BRANCH   3   4
ATOM      4  C   UNL     1       3.464  17.620 -32.481  1.00  0.00    -0.031 C 
ATOM      5  C   UNL     1       3.223  17.268 -31.205  1.00  0.00    -0.028 C 
BRANCH   5   6
ATOM      6  C   UNL     1       4.150  16.370 -30.419  1.00  0.00     0.005 C 
ATOM      7  C   UNL     1       3.623  16.133 -28.999  1.00  0.00     0.012 C 
ATOM      8  C   UNL     1       4.400  15.046 -31.147  1.00  0.00     0.012 C 
ENDBRANCH   5   6
ENDBRANCH   3   4
ENDBRANCH   2   3
ENDBRANCH   1   2
BRANCH   1   9
ATOM      9  C   UNL     1      -0.165  18.936 -34.354  1.00  0.00     0.100 C 
BRANCH   9  10
ATOM     10  C   UNL     1      -1.315  18.050 -33.968  1.00  0.00     0.220 C 
ATOM     11  O   UNL     1      -1.087  16.894 -33.513  1.00  0.00    -0.275 OA
ATOM     12  N   UNL     1      -2.667  18.492 -34.176  1.00  0.00    -0.352 N 
ATOM     13  H   UNL     1      -2.842  19.461 -34.525  1.00  0.00     0.163 HD
BRANCH  12  14
ATOM     14  C   UNL     1      -3.820  17.627 -33.931  1.00  0.00     0.151 C 
BRANCH  14  15
ATOM     15  C   UNL     1      -4.746  17.647 -35.119  1.00  0.00    -0.025 A 
ATOM     16  C   UNL     1      -4.247  17.362 -36.401  1.00  0.00     0.056 A 
ATOM     17  C   UNL     1      -6.112  17.915 -34.954  1.00  0.00     0.009 A 
ATOM     18  C   UNL     1      -5.107  17.350 -37.519  1.00  0.00     0.160 A 
ATOM     19  C   UNL     1      -6.970  17.905 -36.056  1.00  0.00     0.050 A 
ATOM     20  C   UNL     1      -6.477  17.625 -37.335  1.00  0.00     0.157 A 
BRANCH  18  21
ATOM     21  O   UNL     1      -4.641  17.068 -38.813  1.00  0.00    -0.493 OA
ATOM     22  C   UNL     1      -3.338  16.577 -39.112  1.00  0.00     0.278 C 
ENDBRANCH  18  21
BRANCH  20  23
ATOM     23  O   UNL     1      -7.364  17.621 -38.412  1.00  0.00    -0.504 OA
ATOM     24  H   UNL     1      -7.917  18.433 -38.658  1.00  0.00     0.293 HD
ENDBRANCH  20  23
ENDBRANCH  14  15
ENDBRANCH  12  14
ENDBRANCH   9  10
ENDBRANCH   1   9
TORSDOF 10
ENDMDL
MODEL 9
REMARK VINA RESULT:    -6.235      2.460      4.571
REMARK INTER + INTRA:         -10.498
REMARK INTER:                  -9.514
REMARK INTRA:                  -0.984
REMARK UNBOUND:                -0.801
REMARK SMILES COc1cc(CNC(=O)CCCCC=CC(C)C)ccc1O
REMARK SMILES IDX 11 1 12 2 13 3 14 4 15 5 16 6 17 7 18 8 10 9 8 10 9 11 7 12
REMARK SMILES IDX 6 14 5 15 4 16 19 17 3 18 20 19 21 20 2 21 1 22 22 23
REMARK H PARENT 7 13 22 24
REMARK Flexibility Score: inf
ROOT
ATOM      1  C   UNL     1      -0.182  17.143 -32.988  1.00  0.00     0.010 C 
ENDROOT
BRANCH   1   2
ATOM      2  C   UNL     1       0.665  18.392 -32.699  1.00  0.00     0.005 C 
BRANCH   2   3
ATOM      3  C   UNL     1      -0.051  19.685 -33.110  1.00  0.00     0.027 C 
BRANCH   3   4
ATOM      4  C   UNL     1       0.574  20.286 -34.343  1.00  0.00    -0.031 C 
ATOM      5  C   UNL     1       1.710  19.796 -34.872  1.00  0.00    -0.028 C 
BRANCH   5   6
ATOM      6  C   UNL     1       2.311  20.334 -36.151  1.00  0.00     0.005 C 
ATOM      7  C   UNL     1       1.825  21.760 -36.436  1.00  0.00     0.012 C 
ATOM      8  C   UNL     1       3.841  20.263 -36.124  1.00  0.00     0.012 C 
ENDBRANCH   5   6
ENDBRANCH   3   4
ENDBRANCH   2   3
ENDBRANCH   1   2
BRANCH   1   9
ATOM      9  C   UNL     1      -1.532  17.530 -33.606  1.00  0.00     0.100 C 
BRANCH   9  10
ATOM     10  C   UNL     1      -1.707  16.932 -34.973  1.00  0.00     0.220 C 
ATOM     11  O   UNL     1      -1.025  17.374 -35.940  1.00  0.00    -0.275 OA
ATOM     12  N   UNL     1      -2.692  15.907 -35.191  1.00  0.00    -0.352 N 
ATOM     13  H   UNL     1      -3.228  15.530 -34.378  1.00  0.00     0.163 HD
BRANCH  12  14
ATOM     14  C   UNL     1      -2.987  15.376 -36.521  1.00  0.00     0.151 C 
BRANCH  14  15
ATOM     15  C   UNL     1      -4.037  16.220 -37.194  1.00  0.00    -0.025 A 
ATOM     16  C   UNL     1      -5.239  16.510 -36.527  1.00  0.00     0.056 A 
ATOM     17  C   UNL     1      -3.812  16.753 -38.472  1.00  0.00     0.009 A 
ATOM     18  C   UNL     1      -6.219  17.322 -37.133  1.00  0.00     0.160 A 
ATOM     19  C   UNL     1      -4.779  17.558 -39.080  1.00  0.00     0.050 A 
ATOM     20  C   UNL     1      -5.978  17.845 -38.419  1.00  0.00     0.157 A 
BRANCH  18  21
ATOM     21  O   UNL     1      -7.430  17.630 -36.492  1.00  0.00    -0.493 OA
ATOM     22  C   UNL     1      -7.642  18.778 -35.677  1.00  0.00     0.278 C 
ENDBRANCH  18  21
BRANCH  20  23
ATOM     23  O   UNL     1      -6.919  18.655 -39.055  1.00  0.00    -0.504 OA
ATOM     24  H   UNL     1      -7.880  18.364 -39.188  1.00  0.00     0.293 HD
ENDBRANCH  20  23
ENDBRANCH  14  15
ENDBRANCH  12  14
ENDBRANCH   9  10
ENDBRANCH   1   9
TORSDOF 10
ENDMDL
