MODEL 1
REMARK VINA RESULT:    -3.237      0.000      0.000
REMARK INTER + INTRA:          -3.332
REMARK INTER:                  -3.332
REMARK INTRA:                   0.000
REMARK UNBOUND:                 0.000
REMARK SMILES CC1(C)[C@H]2CC[C@](C)(C2)[C@H]1O
REMARK SMILES IDX 1 1 2 2 4 3 5 4 6 5 7 6 9 7 10 8 8 9 3 10 11 11
REMARK H PARENT 11 12
REMARK Flexibility Score: inf
ROOT
ATOM      1  C   UNL     1     117.059 113.165 109.900  1.00  0.00     0.014 C 
ATOM      2  C   UNL     1     116.632 114.406 109.073  1.00  0.00    -0.006 C 
ATOM      3  C   UNL     1     116.191 115.629 109.953  1.00  0.00    -0.002 C 
ATOM      4  C   UNL     1     117.222 115.929 111.062  1.00  0.00     0.005 C 
ATOM      5  C   UNL     1     118.424 116.470 110.274  1.00  0.00     0.010 C 
ATOM      6  C   UNL     1     117.909 116.477 108.814  1.00  0.00    -0.006 C 
ATOM      7  C   UNL     1     116.447 116.816 109.034  1.00  0.00     0.013 C 
ATOM      8  C   UNL     1     117.781 115.043 108.221  1.00  0.00     0.126 C 
ATOM      9  C   UNL     1     118.645 117.464 107.901  1.00  0.00     0.014 C 
ATOM     10  C   UNL     1     115.456 113.961 108.168  1.00  0.00     0.014 C 
ENDROOT
BRANCH   8  11
ATOM     11  O   UNL     1     118.985 114.310 108.170  1.00  0.00    -0.392 OA
ATOM     12  H   UNL     1     119.082 113.767 108.986  1.00  0.00     0.211 HD
ENDBRANCH   8  11
TORSDOF 1
ENDMDL
MODEL 2
REMARK VINA RESULT:    -3.232      8.003      9.983
REMARK INTER + INTRA:          -3.326
REMARK INTER:                  -3.326
REMARK INTRA:                   0.000
REMARK UNBOUND:                 0.000
REMARK SMILES CC1(C)[C@H]2CC[C@](C)(C2)[C@H]1O
REMARK SMILES IDX 1 1 2 2 4 3 5 4 6 5 7 6 9 7 10 8 8 9 3 10 11 11
REMARK H PARENT 11 12
REMARK Flexibility Score: inf
ROOT
ATOM      1  C   UNL     1     109.767 107.526 104.008  1.00  0.00     0.014 C 
ATOM      2  C   UNL     1     110.312 108.314 105.227  1.00  0.00    -0.006 C 
ATOM      3  C   UNL     1     111.825 108.028 105.538  1.00  0.00    -0.002 C 
ATOM      4  C   UNL     1     112.695 108.141 104.269  1.00  0.00     0.005 C 
ATOM      5  C   UNL     1     112.670 109.647 103.969  1.00  0.00     0.010 C 
ATOM      6  C   UNL     1     111.843 110.222 105.146  1.00  0.00    -0.006 C 
ATOM      7  C   UNL     1     112.265 109.291 106.266  1.00  0.00     0.013 C 
ATOM      8  C   UNL     1     110.330 109.869 105.038  1.00  0.00     0.126 C 
ATOM      9  C   UNL     1     112.116 111.703 105.431  1.00  0.00     0.014 C 
ATOM     10  C   UNL     1     109.442 107.917 106.446  1.00  0.00     0.014 C 
ENDROOT
BRANCH   8  11
ATOM     11  O   UNL     1     109.686 110.353 103.880  1.00  0.00    -0.392 OA
ATOM     12  H   UNL     1     108.737 110.535 104.075  1.00  0.00     0.211 HD
ENDBRANCH   8  11
TORSDOF 1
ENDMDL
MODEL 3
REMARK VINA RESULT:    -3.231      8.005      9.200
REMARK INTER + INTRA:          -3.325
REMARK INTER:                  -3.325
REMARK INTRA:                   0.000
REMARK UNBOUND:                 0.000
REMARK SMILES CC1(C)[C@H]2CC[C@](C)(C2)[C@H]1O
REMARK SMILES IDX 1 1 2 2 4 3 5 4 6 5 7 6 9 7 10 8 8 9 3 10 11 11
REMARK H PARENT 11 12
REMARK Flexibility Score: inf
ROOT
ATOM      1  C   UNL     1     112.550 109.737 103.902  1.00  0.00     0.014 C 
ATOM      2  C   UNL     1     111.802 110.292 105.142  1.00  0.00    -0.006 C 
ATOM      3  C   UNL     1     112.091 111.809 105.426  1.00  0.00    -0.002 C 
ATOM      4  C   UNL     1     111.929 112.664 104.152  1.00  0.00     0.005 C 
ATOM      5  C   UNL     1     110.413 112.629 103.906  1.00  0.00     0.010 C 
ATOM      6  C   UNL     1     109.884 111.811 105.111  1.00  0.00    -0.006 C 
ATOM      7  C   UNL     1     110.852 112.251 106.193  1.00  0.00     0.013 C 
ATOM      8  C   UNL     1     110.242 110.299 105.008  1.00  0.00     0.126 C 
ATOM      9  C   UNL     1     108.413 112.080 105.445  1.00  0.00     0.014 C 
ATOM     10  C   UNL     1     112.247 109.438 106.356  1.00  0.00     0.014 C 
ENDROOT
BRANCH   8  11
ATOM     11  O   UNL     1     109.721 109.640 103.875  1.00  0.00    -0.392 OA
ATOM     12  H   UNL     1     108.854 110.037 103.626  1.00  0.00     0.211 HD
ENDBRANCH   8  11
TORSDOF 1
ENDMDL
MODEL 4
REMARK VINA RESULT:    -3.213     11.742     12.964
REMARK INTER + INTRA:          -3.306
REMARK INTER:                  -3.306
REMARK INTRA:                   0.000
REMARK UNBOUND:                 0.000
REMARK SMILES CC1(C)[C@H]2CC[C@](C)(C2)[C@H]1O
REMARK SMILES IDX 1 1 2 2 4 3 5 4 6 5 7 6 9 7 10 8 8 9 3 10 11 11
REMARK H PARENT 11 12
REMARK Flexibility Score: inf
ROOT
ATOM      1  C   UNL     1     106.997 116.988 109.845  1.00  0.00     0.014 C 
ATOM      2  C   UNL     1     105.743 116.593 109.023  1.00  0.00    -0.006 C 
ATOM      3  C   UNL     1     104.526 116.143 109.907  1.00  0.00    -0.002 C 
ATOM      4  C   UNL     1     104.248 117.150 111.043  1.00  0.00     0.005 C 
ATOM      5  C   UNL     1     103.710 118.376 110.290  1.00  0.00     0.010 C 
ATOM      6  C   UNL     1     103.682 117.895 108.818  1.00  0.00    -0.006 C 
ATOM      7  C   UNL     1     103.331 116.432 109.008  1.00  0.00     0.013 C 
ATOM      8  C   UNL     1     105.108 117.768 108.206  1.00  0.00     0.126 C 
ATOM      9  C   UNL     1     102.692 118.663 107.934  1.00  0.00     0.014 C 
ATOM     10  C   UNL     1     106.166 115.435 108.085  1.00  0.00     0.014 C 
ENDROOT
BRANCH   8  11
ATOM     11  O   UNL     1     105.852 118.966 108.175  1.00  0.00    -0.392 OA
ATOM     12  H   UNL     1     106.729 118.805 107.756  1.00  0.00     0.211 HD
ENDBRANCH   8  11
TORSDOF 1
ENDMDL
MODEL 5
REMARK VINA RESULT:    -3.213      8.441     10.972
REMARK INTER + INTRA:          -3.306
REMARK INTER:                  -3.306
REMARK INTRA:                   0.000
REMARK UNBOUND:                 0.000
REMARK SMILES CC1(C)[C@H]2CC[C@](C)(C2)[C@H]1O
REMARK SMILES IDX 1 1 2 2 4 3 5 4 6 5 7 6 9 7 10 8 8 9 3 10 11 11
REMARK H PARENT 11 12
REMARK Flexibility Score: inf
ROOT
ATOM      1  C   UNL     1     110.223 112.583 103.979  1.00  0.00     0.014 C 
ATOM      2  C   UNL     1     109.702 111.769 105.192  1.00  0.00    -0.006 C 
ATOM      3  C   UNL     1     108.168 111.959 105.468  1.00  0.00    -0.002 C 
ATOM      4  C   UNL     1     107.336 111.782 104.181  1.00  0.00     0.005 C 
ATOM      5  C   UNL     1     107.464 110.279 103.894  1.00  0.00     0.010 C 
ATOM      6  C   UNL     1     108.301 109.766 105.092  1.00  0.00    -0.006 C 
ATOM      7  C   UNL     1     107.794 110.675 106.196  1.00  0.00     0.013 C 
ATOM      8  C   UNL     1     109.789 110.216 105.015  1.00  0.00     0.126 C 
ATOM      9  C   UNL     1     108.117 108.272 105.382  1.00  0.00     0.014 C 
ATOM     10  C   UNL     1     110.518 112.229 106.427  1.00  0.00     0.014 C 
ENDROOT
BRANCH   8  11
ATOM     11  O   UNL     1     110.488 109.767 103.875  1.00  0.00    -0.392 OA
ATOM     12  H   UNL     1     110.095 110.164 103.063  1.00  0.00     0.211 HD
ENDBRANCH   8  11
TORSDOF 1
ENDMDL
MODEL 6
REMARK VINA RESULT:    -3.203     10.203     11.525
REMARK INTER + INTRA:          -3.297
REMARK INTER:                  -3.297
REMARK INTRA:                   0.000
REMARK UNBOUND:                 0.000
REMARK SMILES CC1(C)[C@H]2CC[C@](C)(C2)[C@H]1O
REMARK SMILES IDX 1 1 2 2 4 3 5 4 6 5 7 6 9 7 10 8 8 9 3 10 11 11
REMARK H PARENT 11 12
REMARK Flexibility Score: inf
ROOT
ATOM      1  C   UNL     1     107.545 110.378 104.150  1.00  0.00     0.014 C 
ATOM      2  C   UNL     1     108.395 109.824 105.324  1.00  0.00    -0.006 C 
ATOM      3  C   UNL     1     108.120 108.312 105.643  1.00  0.00    -0.002 C 
ATOM      4  C   UNL     1     108.164 107.447 104.365  1.00  0.00     0.005 C 
ATOM      5  C   UNL     1     109.653 107.469 103.988  1.00  0.00     0.010 C 
ATOM      6  C   UNL     1     110.291 108.289 105.136  1.00  0.00    -0.006 C 
ATOM      7  C   UNL     1     109.418 107.864 106.301  1.00  0.00     0.013 C 
ATOM      8  C   UNL     1     109.937 109.804 105.055  1.00  0.00     0.126 C 
ATOM      9  C   UNL     1     111.784 108.010 105.342  1.00  0.00     0.014 C 
ATOM     10  C   UNL     1     108.064 110.690 106.566  1.00  0.00     0.014 C 
ENDROOT
BRANCH   8  11
ATOM     11  O   UNL     1     110.362 110.451 103.876  1.00  0.00    -0.392 OA
ATOM     12  H   UNL     1     110.653 109.783 103.213  1.00  0.00     0.211 HD
ENDBRANCH   8  11
TORSDOF 1
ENDMDL
MODEL 7
REMARK VINA RESULT:    -3.099      9.855     11.354
REMARK INTER + INTRA:          -3.189
REMARK INTER:                  -3.189
REMARK INTRA:                   0.000
REMARK UNBOUND:                 0.000
REMARK SMILES CC1(C)[C@H]2CC[C@](C)(C2)[C@H]1O
REMARK SMILES IDX 1 1 2 2 4 3 5 4 6 5 7 6 9 7 10 8 8 9 3 10 11 11
REMARK H PARENT 11 12
REMARK Flexibility Score: inf
ROOT
ATOM      1  C   UNL     1     111.364 108.502 106.033  1.00  0.00     0.014 C 
ATOM      2  C   UNL     1     110.244 108.326 104.976  1.00  0.00    -0.006 C 
ATOM      3  C   UNL     1     108.916 107.722 105.558  1.00  0.00    -0.002 C 
ATOM      4  C   UNL     1     108.471 108.462 106.837  1.00  0.00     0.005 C 
ATOM      5  C   UNL     1     108.036 109.835 106.304  1.00  0.00     0.010 C 
ATOM      6  C   UNL     1     108.222 109.689 104.774  1.00  0.00    -0.006 C 
ATOM      7  C   UNL     1     107.860 108.229 104.586  1.00  0.00     0.013 C 
ATOM      8  C   UNL     1     109.722 109.666 104.356  1.00  0.00     0.126 C 
ATOM      9  C   UNL     1     107.362 110.655 103.950  1.00  0.00     0.014 C 
ATOM     10  C   UNL     1     110.806 107.392 103.875  1.00  0.00     0.014 C 
ENDROOT
BRANCH   8  11
ATOM     11  O   UNL     1     110.452 110.824 104.695  1.00  0.00    -0.392 OA
ATOM     12  H   UNL     1     111.216 110.930 104.080  1.00  0.00     0.211 HD
ENDBRANCH   8  11
TORSDOF 1
ENDMDL
MODEL 8
REMARK VINA RESULT:    -3.077      7.874      9.113
REMARK INTER + INTRA:          -3.167
REMARK INTER:                  -3.167
REMARK INTRA:                   0.000
REMARK UNBOUND:                 0.000
REMARK SMILES CC1(C)[C@H]2CC[C@](C)(C2)[C@H]1O
REMARK SMILES IDX 1 1 2 2 4 3 5 4 6 5 7 6 9 7 10 8 8 9 3 10 11 11
REMARK H PARENT 11 12
REMARK Flexibility Score: inf
ROOT
ATOM      1  C   UNL     1     108.751 111.614 105.985  1.00  0.00     0.014 C 
ATOM      2  C   UNL     1     109.896 111.802 104.957  1.00  0.00    -0.006 C 
ATOM      3  C   UNL     1     111.225 112.354 105.585  1.00  0.00    -0.002 C 
ATOM      4  C   UNL     1     111.628 111.557 106.845  1.00  0.00     0.005 C 
ATOM      5  C   UNL     1     112.043 110.194 106.270  1.00  0.00     0.010 C 
ATOM      6  C   UNL     1     111.890 110.400 104.742  1.00  0.00    -0.006 C 
ATOM      7  C   UNL     1     112.289 111.857 104.615  1.00  0.00     0.013 C 
ATOM      8  C   UNL     1     110.400 110.474 104.297  1.00  0.00     0.126 C 
ATOM      9  C   UNL     1     112.744 109.445 103.900  1.00  0.00     0.014 C 
ATOM     10  C   UNL     1     109.377 112.788 103.880  1.00  0.00     0.014 C 
ENDROOT
BRANCH   8  11
ATOM     11  O   UNL     1     109.637 109.322 104.579  1.00  0.00    -0.392 OA
ATOM     12  H   UNL     1     108.787 109.579 105.007  1.00  0.00     0.211 HD
ENDBRANCH   8  11
TORSDOF 1
ENDMDL
