MODEL 1
REMARK VINA RESULT:    -4.262      0.000      0.000
REMARK INTER + INTRA:          -7.023
REMARK INTER:                  -6.505
REMARK INTRA:                  -0.518
REMARK UNBOUND:                -0.518
REMARK SMILES CC1=CCC[C@@H](C)C(=O)C[C@@H](C(C)C)C(=O)C1
REMARK SMILES IDX 8 1 9 2 6 3 7 4 5 5 4 6 3 7 2 8 1 9 10 11 11 12 15 13 16 14
REMARK SMILES IDX 17 15 12 17 13 18 14 19
REMARK H PARENT
REMARK Flexibility Score: 70.00
ROOT
ATOM      1  C   UNL     1      37.883  21.160  25.943  1.00  0.00     0.136 C 
ATOM      2  O   UNL     1      38.799  21.923  25.667  1.00  0.00    -0.299 OA
ENDROOT
BRANCH   1   3
ATOM      3  C   UNL     1      37.200  21.273  27.292  1.00  0.00     0.053 C 
ATOM      4  C   UNL     1      36.698  22.707  27.488  1.00  0.00     0.016 C 
BRANCH   3   5
ATOM      5  C   UNL     1      38.134  20.871  28.460  1.00  0.00     0.015 C 
BRANCH   5   6
ATOM      6  C   UNL     1      38.087  19.378  28.822  1.00  0.00     0.028 C 
BRANCH   6   7
ATOM      7  C   UNL     1      39.151  18.596  28.089  1.00  0.00    -0.028 C 
ATOM      8  C   UNL     1      38.915  17.598  27.205  1.00  0.00    -0.070 CG0
ATOM      9  C   UNL     1      40.103  16.914  26.575  1.00  0.00     0.039 C 
ATOM     10  G   UNL     1      37.517  17.136  26.834  1.00  0.00     0.000 G0
ENDBRANCH   6   7
ENDBRANCH   5   6
ENDBRANCH   3   5
ENDBRANCH   1   3
BRANCH   1  11
ATOM     11  C   UNL     1      37.424  20.157  24.909  1.00  0.00     0.087 C 
BRANCH  11  12
ATOM     12  C   UNL     1      36.399  19.136  25.467  1.00  0.00     0.066 C 
BRANCH  12  13
ATOM     13  C   UNL     1      36.988  17.733  25.531  1.00  0.00     0.140 C 
ATOM     14  O   UNL     1      36.986  17.036  24.526  1.00  0.00    -0.299 OA
BRANCH  13  15
ATOM     15  C   UNL     1      37.516  17.132  26.815  1.00  0.00     0.106 CG0
ATOM     16  G   UNL     1      38.907  17.611  27.192  1.00  0.00     0.000 G0
ENDBRANCH  13  15
ENDBRANCH  12  13
BRANCH  12  17
ATOM     17  C   UNL     1      35.037  19.128  24.706  1.00  0.00    -0.006 C 
ATOM     18  C   UNL     1      34.661  20.478  24.072  1.00  0.00     0.008 C 
ATOM     19  C   UNL     1      33.888  18.630  25.598  1.00  0.00     0.008 C 
ENDBRANCH  12  17
ENDBRANCH  11  12
ENDBRANCH   1  11
TORSDOF 1
ENDMDL
MODEL 2
REMARK VINA RESULT:    -3.940      2.086      4.131
REMARK INTER + INTRA:          -6.531
REMARK INTER:                  -6.044
REMARK INTRA:                  -0.487
REMARK UNBOUND:                -0.518
REMARK SMILES CC1=CCC[C@@H](C)C(=O)C[C@@H](C(C)C)C(=O)C1
REMARK SMILES IDX 8 1 9 2 6 3 7 4 5 5 4 6 3 7 2 8 1 9 10 11 11 12 15 13 16 14
REMARK SMILES IDX 17 15 12 17 13 18 14 19
REMARK H PARENT
REMARK Flexibility Score: 70.00
ROOT
ATOM      1  C   UNL     1      37.438  17.475  26.502  1.00  0.00     0.136 C 
ATOM      2  O   UNL     1      37.488  16.491  27.227  1.00  0.00    -0.299 OA
ENDROOT
BRANCH   1   3
ATOM      3  C   UNL     1      38.224  17.490  25.206  1.00  0.00     0.053 C 
ATOM      4  C   UNL     1      37.976  16.183  24.448  1.00  0.00     0.016 C 
BRANCH   3   5
ATOM      5  C   UNL     1      39.742  17.689  25.442  1.00  0.00     0.015 C 
BRANCH   5   6
ATOM      6  C   UNL     1      40.262  19.086  25.069  1.00  0.00     0.028 C 
BRANCH   6   7
ATOM      7  C   UNL     1      40.533  19.923  26.297  1.00  0.00    -0.028 C 
ATOM      8  C   UNL     1      39.806  20.997  26.685  1.00  0.00    -0.070 CG0
ATOM      9  C   UNL     1      40.231  21.725  27.935  1.00  0.00     0.039 C 
ATOM     10  G   UNL     1      38.599  21.500  25.914  1.00  0.00     0.000 G0
ENDBRANCH   6   7
ENDBRANCH   5   6
ENDBRANCH   3   5
ENDBRANCH   1   3
BRANCH   1  11
ATOM     11  C   UNL     1      36.549  18.634  26.898  1.00  0.00     0.087 C 
BRANCH  11  12
ATOM     12  C   UNL     1      36.573  19.795  25.870  1.00  0.00     0.066 C 
BRANCH  12  13
ATOM     13  C   UNL     1      37.262  21.029  26.438  1.00  0.00     0.140 C 
ATOM     14  O   UNL     1      36.699  21.685  27.303  1.00  0.00    -0.299 OA
BRANCH  13  15
ATOM     15  C   UNL     1      38.597  21.521  25.924  1.00  0.00     0.106 CG0
ATOM     16  G   UNL     1      39.790  20.984  26.695  1.00  0.00     0.000 G0
ENDBRANCH  13  15
ENDBRANCH  12  13
BRANCH  12  17
ATOM     17  C   UNL     1      35.169  20.162  25.299  1.00  0.00    -0.006 C 
ATOM     18  C   UNL     1      34.129  19.033  25.407  1.00  0.00     0.008 C 
ATOM     19  C   UNL     1      35.254  20.658  23.847  1.00  0.00     0.008 C 
ENDBRANCH  12  17
ENDBRANCH  11  12
ENDBRANCH   1  11
TORSDOF 1
ENDMDL
MODEL 3
REMARK VINA RESULT:    -3.925      3.861      5.875
REMARK INTER + INTRA:          -6.509
REMARK INTER:                  -6.995
REMARK INTRA:                   0.487
REMARK UNBOUND:                -0.518
REMARK SMILES CC1=CCC[C@@H](C)C(=O)C[C@@H](C(C)C)C(=O)C1
REMARK SMILES IDX 8 1 9 2 6 3 7 4 5 5 4 6 3 7 2 8 1 9 10 11 11 12 15 13 16 14
REMARK SMILES IDX 17 15 12 17 13 18 14 19
REMARK H PARENT
REMARK Flexibility Score: 70.00
ROOT
ATOM      1  C   UNL     1      31.541  21.145  23.098  1.00  0.00     0.136 C 
ATOM      2  O   UNL     1      31.413  22.154  23.779  1.00  0.00    -0.299 OA
ENDROOT
BRANCH   1   3
ATOM      3  C   UNL     1      32.551  21.130  21.967  1.00  0.00     0.053 C 
ATOM      4  C   UNL     1      32.438  19.806  21.205  1.00  0.00     0.016 C 
BRANCH   3   5
ATOM      5  C   UNL     1      34.000  21.332  22.472  1.00  0.00     0.015 C 
BRANCH   5   6
ATOM      6  C   UNL     1      34.193  21.048  23.970  1.00  0.00     0.028 C 
BRANCH   6   7
ATOM      7  C   UNL     1      35.143  19.896  24.199  1.00  0.00    -0.028 C 
ATOM      8  C   UNL     1      34.864  18.787  24.923  1.00  0.00    -0.070 CG0
ATOM      9  C   UNL     1      35.940  17.739  25.058  1.00  0.00     0.039 C 
ATOM     10  G   UNL     1      33.527  18.562  25.607  1.00  0.00     0.000 G0
ENDBRANCH   6   7
ENDBRANCH   5   6
ENDBRANCH   3   5
ENDBRANCH   1   3
BRANCH   1  11
ATOM     11  C   UNL     1      30.719  19.922  23.437  1.00  0.00     0.087 C 
BRANCH  11  12
ATOM     12  C   UNL     1      31.110  19.286  24.797  1.00  0.00     0.066 C 
BRANCH  12  13
ATOM     13  C   UNL     1      32.360  18.426  24.672  1.00  0.00     0.140 C 
ATOM     14  O   UNL     1      32.406  17.557  23.812  1.00  0.00    -0.299 OA
BRANCH  13  15
ATOM     15  C   UNL     1      33.531  18.553  25.622  1.00  0.00     0.106 CG0
ATOM     16  G   UNL     1      34.861  18.799  24.930  1.00  0.00     0.000 G0
ENDBRANCH  13  15
ENDBRANCH  12  13
BRANCH  12  17
ATOM     17  C   UNL     1      29.955  18.486  25.476  1.00  0.00    -0.006 C 
ATOM     18  C   UNL     1      28.697  19.321  25.769  1.00  0.00     0.008 C 
ATOM     19  C   UNL     1      30.426  17.780  26.757  1.00  0.00     0.008 C 
ENDBRANCH  12  17
ENDBRANCH  11  12
ENDBRANCH   1  11
TORSDOF 1
ENDMDL
MODEL 4
REMARK VINA RESULT:    -3.852      1.429      1.729
REMARK INTER + INTRA:          -6.396
REMARK INTER:                  -5.924
REMARK INTRA:                  -0.472
REMARK UNBOUND:                -0.518
REMARK SMILES CC1=CCC[C@@H](C)C(=O)C[C@@H](C(C)C)C(=O)C1
REMARK SMILES IDX 8 1 9 2 6 3 7 4 5 5 4 6 3 7 2 8 1 9 10 11 11 12 15 13 16 14
REMARK SMILES IDX 17 15 12 17 13 18 14 19
REMARK H PARENT
REMARK Flexibility Score: 70.00
ROOT
ATOM      1  C   UNL     1      38.784  22.039  26.155  1.00  0.00     0.136 C 
ATOM      2  O   UNL     1      39.348  23.055  25.773  1.00  0.00    -0.299 OA
ENDROOT
BRANCH   1   3
ATOM      3  C   UNL     1      38.188  21.995  27.549  1.00  0.00     0.053 C 
ATOM      4  C   UNL     1      37.411  23.289  27.809  1.00  0.00     0.016 C 
BRANCH   3   5
ATOM      5  C   UNL     1      39.265  21.791  28.642  1.00  0.00     0.015 C 
BRANCH   5   6
ATOM      6  C   UNL     1      39.277  20.386  29.264  1.00  0.00     0.028 C 
BRANCH   6   7
ATOM      7  C   UNL     1      40.487  19.595  28.826  1.00  0.00    -0.028 C 
ATOM      8  C   UNL     1      40.460  18.520  28.005  1.00  0.00    -0.070 CG0
ATOM      9  C   UNL     1      41.768  17.841  27.683  1.00  0.00     0.039 C 
ATOM     10  G   UNL     1      39.178  17.966  27.409  1.00  0.00     0.000 G0
ENDBRANCH   6   7
ENDBRANCH   5   6
ENDBRANCH   3   5
ENDBRANCH   1   3
BRANCH   1  11
ATOM     11  C   UNL     1      38.652  20.870  25.205  1.00  0.00     0.087 C 
BRANCH  11  12
ATOM     12  C   UNL     1      37.900  19.664  25.826  1.00  0.00     0.066 C 
BRANCH  12  13
ATOM     13  C   UNL     1      38.828  18.476  26.040  1.00  0.00     0.140 C 
ATOM     14  O   UNL     1      39.276  17.884  25.068  1.00  0.00    -0.299 OA
BRANCH  13  15
ATOM     15  C   UNL     1      39.167  17.949  27.417  1.00  0.00     0.106 CG0
ATOM     16  G   UNL     1      40.451  18.518  27.995  1.00  0.00     0.000 G0
ENDBRANCH  13  15
ENDBRANCH  12  13
BRANCH  12  17
ATOM     17  C   UNL     1      36.628  19.235  25.030  1.00  0.00    -0.006 C 
ATOM     18  C   UNL     1      35.827  20.409  24.441  1.00  0.00     0.008 C 
ATOM     19  C   UNL     1      35.704  18.338  25.870  1.00  0.00     0.008 C 
ENDBRANCH  12  17
ENDBRANCH  11  12
ENDBRANCH   1  11
TORSDOF 1
ENDMDL
MODEL 5
REMARK VINA RESULT:    -3.836      2.067      4.172
REMARK INTER + INTRA:          -6.372
REMARK INTER:                  -5.899
REMARK INTRA:                  -0.473
REMARK UNBOUND:                -0.518
REMARK SMILES CC1=CCC[C@@H](C)C(=O)C[C@@H](C(C)C)C(=O)C1
REMARK SMILES IDX 8 1 9 2 6 3 7 4 5 5 4 6 3 7 2 8 1 9 10 11 11 12 15 13 16 14
REMARK SMILES IDX 17 15 12 17 13 18 14 19
REMARK H PARENT
REMARK Flexibility Score: 70.00
ROOT
ATOM      1  C   UNL     1      38.431  17.507  27.114  1.00  0.00     0.136 C 
ATOM      2  O   UNL     1      38.379  16.340  27.477  1.00  0.00    -0.299 OA
ENDROOT
BRANCH   1   3
ATOM      3  C   UNL     1      39.653  18.003  26.367  1.00  0.00     0.053 C 
ATOM      4  C   UNL     1      39.857  17.154  25.109  1.00  0.00     0.016 C 
BRANCH   3   5
ATOM      5  C   UNL     1      40.930  17.972  27.243  1.00  0.00     0.015 C 
BRANCH   5   6
ATOM      6  C   UNL     1      40.810  18.751  28.563  1.00  0.00     0.028 C 
BRANCH   6   7
ATOM      7  C   UNL     1      40.964  20.238  28.344  1.00  0.00    -0.028 C 
ATOM      8  C   UNL     1      39.973  21.151  28.474  1.00  0.00    -0.070 CG0
ATOM      9  C   UNL     1      40.303  22.598  28.203  1.00  0.00     0.039 C 
ATOM     10  G   UNL     1      38.554  20.781  28.867  1.00  0.00     0.000 G0
ENDBRANCH   6   7
ENDBRANCH   5   6
ENDBRANCH   3   5
ENDBRANCH   1   3
BRANCH   1  11
ATOM     11  C   UNL     1      37.248  18.412  27.378  1.00  0.00     0.087 C 
BRANCH  11  12
ATOM     12  C   UNL     1      37.380  19.798  26.695  1.00  0.00     0.066 C 
BRANCH  12  13
ATOM     13  C   UNL     1      37.564  20.910  27.718  1.00  0.00     0.140 C 
ATOM     14  O   UNL     1      36.943  21.955  27.586  1.00  0.00    -0.299 OA
BRANCH  13  15
ATOM     15  C   UNL     1      38.546  20.803  28.865  1.00  0.00     0.106 CG0
ATOM     16  G   UNL     1      39.976  21.147  28.485  1.00  0.00     0.000 G0
ENDBRANCH  13  15
ENDBRANCH  12  13
BRANCH  12  17
ATOM     17  C   UNL     1      36.210  20.135  25.719  1.00  0.00    -0.006 C 
ATOM     18  C   UNL     1      35.206  18.986  25.517  1.00  0.00     0.008 C 
ATOM     19  C   UNL     1      36.725  20.626  24.357  1.00  0.00     0.008 C 
ENDBRANCH  12  17
ENDBRANCH  11  12
ENDBRANCH   1  11
TORSDOF 1
ENDMDL
MODEL 6
REMARK VINA RESULT:    -3.784      4.041      6.996
REMARK INTER + INTRA:          -6.293
REMARK INTER:                  -5.933
REMARK INTRA:                  -0.360
REMARK UNBOUND:                -0.518
REMARK SMILES CC1=CCC[C@@H](C)C(=O)C[C@@H](C(C)C)C(=O)C1
REMARK SMILES IDX 8 1 9 2 6 3 7 4 5 5 4 6 3 7 2 8 1 9 10 11 11 12 15 13 16 14
REMARK SMILES IDX 17 15 12 17 13 18 14 19
REMARK H PARENT
REMARK Flexibility Score: 70.00
ROOT
ATOM      1  C   UNL     1      32.879  21.459  22.860  1.00  0.00     0.136 C 
ATOM      2  O   UNL     1      32.363  22.561  22.728  1.00  0.00    -0.299 OA
ENDROOT
BRANCH   1   3
ATOM      3  C   UNL     1      33.024  20.553  21.653  1.00  0.00     0.053 C 
ATOM      4  C   UNL     1      33.992  21.192  20.653  1.00  0.00     0.016 C 
BRANCH   3   5
ATOM      5  C   UNL     1      31.665  20.264  20.969  1.00  0.00     0.015 C 
BRANCH   5   6
ATOM      6  C   UNL     1      30.998  18.953  21.417  1.00  0.00     0.028 C 
BRANCH   6   7
ATOM      7  C   UNL     1      30.224  19.136  22.701  1.00  0.00    -0.028 C 
ATOM      8  C   UNL     1      30.608  18.677  23.915  1.00  0.00    -0.070 CG0
ATOM      9  C   UNL     1      29.701  18.940  25.091  1.00  0.00     0.039 C 
ATOM     10  G   UNL     1      31.897  17.906  24.137  1.00  0.00     0.000 G0
ENDBRANCH   6   7
ENDBRANCH   5   6
ENDBRANCH   3   5
ENDBRANCH   1   3
BRANCH   1  11
ATOM     11  C   UNL     1      33.405  21.053  24.218  1.00  0.00     0.087 C 
BRANCH  11  12
ATOM     12  C   UNL     1      33.943  19.598  24.250  1.00  0.00     0.066 C 
BRANCH  12  13
ATOM     13  C   UNL     1      32.956  18.653  24.922  1.00  0.00     0.140 C 
ATOM     14  O   UNL     1      33.044  18.450  26.125  1.00  0.00    -0.299 OA
BRANCH  13  15
ATOM     15  C   UNL     1      31.903  17.893  24.144  1.00  0.00     0.106 CG0
ATOM     16  G   UNL     1      30.621  18.674  23.918  1.00  0.00     0.000 G0
ENDBRANCH  13  15
ENDBRANCH  12  13
BRANCH  12  17
ATOM     17  C   UNL     1      35.359  19.462  24.890  1.00  0.00    -0.006 C 
ATOM     18  C   UNL     1      36.373  20.513  24.407  1.00  0.00     0.008 C 
ATOM     19  C   UNL     1      35.938  18.050  24.702  1.00  0.00     0.008 C 
ENDBRANCH  12  17
ENDBRANCH  11  12
ENDBRANCH   1  11
TORSDOF 1
ENDMDL
MODEL 7
REMARK VINA RESULT:    -3.722      3.802      7.071
REMARK INTER + INTRA:          -6.199
REMARK INTER:                  -6.880
REMARK INTRA:                   0.681
REMARK UNBOUND:                -0.518
REMARK SMILES CC1=CCC[C@@H](C)C(=O)C[C@@H](C(C)C)C(=O)C1
REMARK SMILES IDX 8 1 9 2 6 3 7 4 5 5 4 6 3 7 2 8 1 9 10 11 11 12 15 13 16 14
REMARK SMILES IDX 17 15 12 17 13 18 14 19
REMARK H PARENT
REMARK Flexibility Score: 70.00
ROOT
ATOM      1  C   UNL     1      31.746  18.495  25.095  1.00  0.00     0.136 C 
ATOM      2  O   UNL     1      31.344  17.976  26.128  1.00  0.00    -0.299 OA
ENDROOT
BRANCH   1   3
ATOM      3  C   UNL     1      30.817  19.389  24.297  1.00  0.00     0.053 C 
ATOM      4  C   UNL     1      29.464  19.479  25.009  1.00  0.00     0.016 C 
BRANCH   3   5
ATOM      5  C   UNL     1      30.623  18.887  22.845  1.00  0.00     0.015 C 
BRANCH   5   6
ATOM      6  C   UNL     1      31.848  19.086  21.938  1.00  0.00     0.028 C 
BRANCH   6   7
ATOM      7  C   UNL     1      32.062  20.544  21.608  1.00  0.00    -0.028 C 
ATOM      8  C   UNL     1      33.128  21.282  21.996  1.00  0.00    -0.070 CG0
ATOM      9  C   UNL     1      33.172  22.733  21.586  1.00  0.00     0.039 C 
ATOM     10  G   UNL     1      34.266  20.718  22.828  1.00  0.00     0.000 G0
ENDBRANCH   6   7
ENDBRANCH   5   6
ENDBRANCH   3   5
ENDBRANCH   1   3
BRANCH   1  11
ATOM     11  C   UNL     1      33.180  18.268  24.670  1.00  0.00     0.087 C 
BRANCH  11  12
ATOM     12  C   UNL     1      34.138  19.391  25.144  1.00  0.00     0.066 C 
BRANCH  12  13
ATOM     13  C   UNL     1      33.958  20.663  24.326  1.00  0.00     0.140 C 
ATOM     14  O   UNL     1      33.495  21.660  24.862  1.00  0.00    -0.299 OA
BRANCH  13  15
ATOM     15  C   UNL     1      34.265  20.725  22.846  1.00  0.00     0.106 CG0
ATOM     16  G   UNL     1      33.125  21.270  22.003  1.00  0.00     0.000 G0
ENDBRANCH  13  15
ENDBRANCH  12  13
BRANCH  12  17
ATOM     17  C   UNL     1      35.639  18.967  25.181  1.00  0.00    -0.006 C 
ATOM     18  C   UNL     1      35.999  18.021  26.339  1.00  0.00     0.008 C 
ATOM     19  C   UNL     1      36.577  20.185  25.188  1.00  0.00     0.008 C 
ENDBRANCH  12  17
ENDBRANCH  11  12
ENDBRANCH   1  11
TORSDOF 1
ENDMDL
MODEL 8
REMARK VINA RESULT:    -3.635      4.158      6.178
REMARK INTER + INTRA:          -6.065
REMARK INTER:                  -6.941
REMARK INTRA:                   0.877
REMARK UNBOUND:                -0.518
REMARK SMILES CC1=CCC[C@@H](C)C(=O)C[C@@H](C(C)C)C(=O)C1
REMARK SMILES IDX 8 1 9 2 6 3 7 4 5 5 4 6 3 7 2 8 1 9 10 11 11 12 15 13 16 14
REMARK SMILES IDX 17 15 12 17 13 18 14 19
REMARK H PARENT
REMARK Flexibility Score: 70.00
ROOT
ATOM      1  C   UNL     1      34.191  21.001  24.121  1.00  0.00     0.136 C 
ATOM      2  O   UNL     1      33.364  21.791  24.556  1.00  0.00    -0.299 OA
ENDROOT
BRANCH   1   3
ATOM      3  C   UNL     1      35.347  20.569  25.003  1.00  0.00     0.053 C 
ATOM      4  C   UNL     1      36.616  20.451  24.153  1.00  0.00     0.016 C 
BRANCH   3   5
ATOM      5  C   UNL     1      35.065  19.230  25.727  1.00  0.00     0.015 C 
BRANCH   5   6
ATOM      6  C   UNL     1      34.159  18.267  24.944  1.00  0.00     0.028 C 
BRANCH   6   7
ATOM      7  C   UNL     1      32.744  18.282  25.473  1.00  0.00    -0.028 C 
ATOM      8  C   UNL     1      31.631  18.435  24.718  1.00  0.00    -0.070 CG0
ATOM      9  C   UNL     1      30.295  18.439  25.418  1.00  0.00     0.039 C 
ATOM     10  G   UNL     1      31.672  18.611  23.210  1.00  0.00     0.000 G0
ENDBRANCH   6   7
ENDBRANCH   5   6
ENDBRANCH   3   5
ENDBRANCH   1   3
BRANCH   1  11
ATOM     11  C   UNL     1      34.008  20.438  22.730  1.00  0.00     0.087 C 
BRANCH  11  12
ATOM     12  C   UNL     1      32.642  20.812  22.098  1.00  0.00     0.066 C 
BRANCH  12  13
ATOM     13  C   UNL     1      31.503  20.017  22.722  1.00  0.00     0.140 C 
ATOM     14  O   UNL     1      30.420  20.559  22.898  1.00  0.00    -0.299 OA
BRANCH  13  15
ATOM     15  C   UNL     1      31.675  18.592  23.201  1.00  0.00     0.106 CG0
ATOM     16  G   UNL     1      31.624  18.441  24.711  1.00  0.00     0.000 G0
ENDBRANCH  13  15
ENDBRANCH  12  13
BRANCH  12  17
ATOM     17  C   UNL     1      32.611  20.693  20.543  1.00  0.00    -0.006 C 
ATOM     18  C   UNL     1      32.378  19.263  20.024  1.00  0.00     0.008 C 
ATOM     19  C   UNL     1      33.876  21.284  19.900  1.00  0.00     0.008 C 
ENDBRANCH  12  17
ENDBRANCH  11  12
ENDBRANCH   1  11
TORSDOF 1
ENDMDL
MODEL 9
REMARK VINA RESULT:    -3.428      2.449      4.690
REMARK INTER + INTRA:          -5.750
REMARK INTER:                  -5.255
REMARK INTRA:                  -0.495
REMARK UNBOUND:                -0.518
REMARK SMILES CC1=CCC[C@@H](C)C(=O)C[C@@H](C(C)C)C(=O)C1
REMARK SMILES IDX 8 1 9 2 6 3 7 4 5 5 4 6 3 7 2 8 1 9 10 11 11 12 15 13 16 14
REMARK SMILES IDX 17 15 12 17 13 18 14 19
REMARK H PARENT
REMARK Flexibility Score: 70.00
ROOT
ATOM      1  C   UNL     1      38.230  17.623  27.161  1.00  0.00     0.136 C 
ATOM      2  O   UNL     1      37.657  16.545  27.252  1.00  0.00    -0.299 OA
ENDROOT
BRANCH   1   3
ATOM      3  C   UNL     1      39.385  17.775  26.191  1.00  0.00     0.053 C 
ATOM      4  C   UNL     1      39.002  17.155  24.844  1.00  0.00     0.016 C 
BRANCH   3   5
ATOM      5  C   UNL     1      40.687  17.127  26.723  1.00  0.00     0.015 C 
BRANCH   5   6
ATOM      6  C   UNL     1      41.730  18.134  27.235  1.00  0.00     0.028 C 
BRANCH   6   7
ATOM      7  C   UNL     1      41.759  18.184  28.744  1.00  0.00    -0.028 C 
ATOM      8  C   UNL     1      41.353  19.232  29.497  1.00  0.00    -0.070 CG0
ATOM      9  C   UNL     1      41.465  19.114  30.997  1.00  0.00     0.039 C 
ATOM     10  G   UNL     1      40.803  20.516  28.900  1.00  0.00     0.000 G0
ENDBRANCH   6   7
ENDBRANCH   5   6
ENDBRANCH   3   5
ENDBRANCH   1   3
BRANCH   1  11
ATOM     11  C   UNL     1      37.733  18.790  27.984  1.00  0.00     0.087 C 
BRANCH  11  12
ATOM     12  C   UNL     1      38.482  20.113  27.674  1.00  0.00     0.066 C 
BRANCH  12  13
ATOM     13  C   UNL     1      39.290  20.590  28.873  1.00  0.00     0.140 C 
ATOM     14  O   UNL     1      38.710  21.092  29.826  1.00  0.00    -0.299 OA
BRANCH  13  15
ATOM     15  C   UNL     1      40.802  20.534  28.907  1.00  0.00     0.106 CG0
ATOM     16  G   UNL     1      41.357  19.246  29.487  1.00  0.00     0.000 G0
ENDBRANCH  13  15
ENDBRANCH  12  13
BRANCH  12  17
ATOM     17  C   UNL     1      37.558  21.252  27.143  1.00  0.00    -0.006 C 
ATOM     18  C   UNL     1      36.580  20.809  26.041  1.00  0.00     0.008 C 
ATOM     19  C   UNL     1      38.367  22.469  26.667  1.00  0.00     0.008 C 
ENDBRANCH  12  17
ENDBRANCH  11  12
ENDBRANCH   1  11
TORSDOF 1
ENDMDL
