MODEL 1
REMARK VINA RESULT:    -3.953      0.000      0.000
REMARK INTER + INTRA:          -5.156
REMARK INTER:                  -4.878
REMARK INTRA:                  -0.278
REMARK UNBOUND:                -0.278
REMARK SMILES CCCCC=CC(C)=O
REMARK SMILES IDX 4 1 3 2 2 3 1 4 5 5 6 6 7 7 9 8 8 9
REMARK H PARENT
REMARK Flexibility Score: inf
ROOT
ATOM      1  C   UNL     1      10.123  -9.824 -44.742  1.00  0.00     0.027 C 
ENDROOT
BRANCH   1   2
ATOM      2  C   UNL     1      10.776  -8.495 -44.322  1.00  0.00     0.004 C 
BRANCH   2   3
ATOM      3  C   UNL     1       9.983  -7.714 -43.258  1.00  0.00    -0.003 C 
ATOM      4  C   UNL     1      10.325  -8.140 -41.831  1.00  0.00     0.004 C 
ENDBRANCH   2   3
ENDBRANCH   1   2
BRANCH   1   5
ATOM      5  C   UNL     1      10.953 -11.019 -44.364  1.00  0.00    -0.023 C 
ATOM      6  C   UNL     1      12.161 -10.884 -43.806  1.00  0.00     0.042 C 
BRANCH   6   7
ATOM      7  C   UNL     1      12.988 -12.044 -43.424  1.00  0.00     0.152 C 
ATOM      8  O   UNL     1      12.455 -13.154 -43.151  1.00  0.00    -0.295 OA
ATOM      9  C   UNL     1      14.475 -11.905 -43.365  1.00  0.00     0.093 C 
ENDBRANCH   6   7
ENDBRANCH   1   5
TORSDOF 4
ENDMDL
MODEL 2
REMARK VINA RESULT:    -3.897      1.165      1.597
REMARK INTER + INTRA:          -5.087
REMARK INTER:                  -4.908
REMARK INTRA:                  -0.178
REMARK UNBOUND:                -0.278
REMARK SMILES CCCCC=CC(C)=O
REMARK SMILES IDX 4 1 3 2 2 3 1 4 5 5 6 6 7 7 9 8 8 9
REMARK H PARENT
REMARK Flexibility Score: inf
ROOT
ATOM      1  C   UNL     1      11.190 -10.547 -43.441  1.00  0.00     0.027 C 
ENDROOT
BRANCH   1   2
ATOM      2  C   UNL     1      11.659  -9.310 -44.228  1.00  0.00     0.004 C 
BRANCH   2   3
ATOM      3  C   UNL     1      10.622  -8.174 -44.289  1.00  0.00    -0.003 C 
ATOM      4  C   UNL     1      10.081  -7.790 -42.913  1.00  0.00     0.004 C 
ENDBRANCH   2   3
ENDBRANCH   1   2
BRANCH   1   5
ATOM      5  C   UNL     1      12.312 -11.502 -43.144  1.00  0.00    -0.023 C 
ATOM      6  C   UNL     1      13.475 -11.441 -43.802  1.00  0.00     0.042 C 
BRANCH   6   7
ATOM      7  C   UNL     1      14.589 -12.366 -43.522  1.00  0.00     0.152 C 
ATOM      8  O   UNL     1      14.491 -13.594 -43.788  1.00  0.00    -0.295 OA
ATOM      9  C   UNL     1      15.853 -11.840 -42.921  1.00  0.00     0.093 C 
ENDBRANCH   6   7
ENDBRANCH   1   5
TORSDOF 4
ENDMDL
MODEL 3
REMARK VINA RESULT:    -3.886      2.165      3.426
REMARK INTER + INTRA:          -5.073
REMARK INTER:                  -4.951
REMARK INTRA:                  -0.122
REMARK UNBOUND:                -0.278
REMARK SMILES CCCCC=CC(C)=O
REMARK SMILES IDX 4 1 3 2 2 3 1 4 5 5 6 6 7 7 9 8 8 9
REMARK H PARENT
REMARK Flexibility Score: inf
ROOT
ATOM      1  C   UNL     1      11.620  -9.460 -44.260  1.00  0.00     0.027 C 
ENDROOT
BRANCH   1   2
ATOM      2  C   UNL     1      10.875  -8.143 -44.536  1.00  0.00     0.004 C 
BRANCH   2   3
ATOM      3  C   UNL     1       9.922  -7.710 -43.407  1.00  0.00    -0.003 C 
ATOM      4  C   UNL     1      10.442  -8.078 -42.018  1.00  0.00     0.004 C 
ENDBRANCH   2   3
ENDBRANCH   1   2
BRANCH   1   5
ATOM      5  C   UNL     1      10.769 -10.671 -44.527  1.00  0.00    -0.023 C 
ATOM      6  C   UNL     1       9.674 -10.601 -45.292  1.00  0.00     0.042 C 
BRANCH   6   7
ATOM      7  C   UNL     1       8.830 -11.779 -45.569  1.00  0.00     0.152 C 
ATOM      8  O   UNL     1       9.268 -12.946 -45.381  1.00  0.00    -0.295 OA
ATOM      9  C   UNL     1       7.436 -11.586 -46.074  1.00  0.00     0.093 C 
ENDBRANCH   6   7
ENDBRANCH   1   5
TORSDOF 4
ENDMDL
MODEL 4
REMARK VINA RESULT:    -3.875      2.078      4.915
REMARK INTER + INTRA:          -5.059
REMARK INTER:                  -4.878
REMARK INTRA:                  -0.181
REMARK UNBOUND:                -0.278
REMARK SMILES CCCCC=CC(C)=O
REMARK SMILES IDX 4 1 3 2 2 3 1 4 5 5 6 6 7 7 9 8 8 9
REMARK H PARENT
REMARK Flexibility Score: inf
ROOT
ATOM      1  C   UNL     1      12.581 -11.936 -43.213  1.00  0.00     0.027 C 
ENDROOT
BRANCH   1   2
ATOM      2  C   UNL     1      13.694 -12.703 -43.949  1.00  0.00     0.004 C 
BRANCH   2   3
ATOM      3  C   UNL     1      14.993 -11.898 -44.138  1.00  0.00    -0.003 C 
ATOM      4  C   UNL     1      15.841 -11.833 -42.868  1.00  0.00     0.004 C 
ENDBRANCH   2   3
ENDBRANCH   1   2
BRANCH   1   5
ATOM      5  C   UNL     1      12.225 -10.643 -43.892  1.00  0.00    -0.023 C 
ATOM      6  C   UNL     1      11.271  -9.839 -43.409  1.00  0.00     0.042 C 
BRANCH   6   7
ATOM      7  C   UNL     1      10.911  -8.565 -44.059  1.00  0.00     0.152 C 
ATOM      8  O   UNL     1      11.552  -8.148 -45.061  1.00  0.00    -0.295 OA
ATOM      9  C   UNL     1       9.769  -7.761 -43.526  1.00  0.00     0.093 C 
ENDBRANCH   6   7
ENDBRANCH   1   5
TORSDOF 4
ENDMDL
MODEL 5
REMARK VINA RESULT:    -3.831      2.680      3.608
REMARK INTER + INTRA:          -5.005
REMARK INTER:                  -4.786
REMARK INTRA:                  -0.219
REMARK UNBOUND:                -0.278
REMARK SMILES CCCCC=CC(C)=O
REMARK SMILES IDX 4 1 3 2 2 3 1 4 5 5 6 6 7 7 9 8 8 9
REMARK H PARENT
REMARK Flexibility Score: inf
ROOT
ATOM      1  C   UNL     1      11.361  -9.850 -44.052  1.00  0.00     0.027 C 
ENDROOT
BRANCH   1   2
ATOM      2  C   UNL     1      10.898  -8.443 -44.470  1.00  0.00     0.004 C 
BRANCH   2   3
ATOM      3  C   UNL     1      10.034  -7.727 -43.417  1.00  0.00    -0.003 C 
ATOM      4  C   UNL     1      10.375  -8.142 -41.987  1.00  0.00     0.004 C 
ENDBRANCH   2   3
ENDBRANCH   1   2
BRANCH   1   5
ATOM      5  C   UNL     1      10.491 -10.937 -44.621  1.00  0.00    -0.023 C 
ATOM      6  C   UNL     1       9.395 -10.654 -45.334  1.00  0.00     0.042 C 
BRANCH   6   7
ATOM      7  C   UNL     1       8.532 -11.706 -45.904  1.00  0.00     0.152 C 
ATOM      8  O   UNL     1       7.728 -11.444 -46.838  1.00  0.00    -0.295 OA
ATOM      9  C   UNL     1       8.617 -13.100 -45.371  1.00  0.00     0.093 C 
ENDBRANCH   6   7
ENDBRANCH   1   5
TORSDOF 4
ENDMDL
MODEL 6
REMARK VINA RESULT:    -3.682      1.185      1.805
REMARK INTER + INTRA:          -4.822
REMARK INTER:                  -4.552
REMARK INTRA:                  -0.269
REMARK UNBOUND:                -0.278
REMARK SMILES CCCCC=CC(C)=O
REMARK SMILES IDX 4 1 3 2 2 3 1 4 5 5 6 6 7 7 9 8 8 9
REMARK H PARENT
REMARK Flexibility Score: inf
ROOT
ATOM      1  C   UNL     1      10.558  -8.094 -44.239  1.00  0.00     0.027 C 
ENDROOT
BRANCH   1   2
ATOM      2  C   UNL     1       9.957  -7.762 -42.862  1.00  0.00     0.004 C 
BRANCH   2   3
ATOM      3  C   UNL     1      10.861  -8.136 -41.674  1.00  0.00    -0.003 C 
ATOM      4  C   UNL     1      10.079  -8.688 -40.483  1.00  0.00     0.004 C 
ENDBRANCH   2   3
ENDBRANCH   1   2
BRANCH   1   5
ATOM      5  C   UNL     1      11.418  -9.327 -44.211  1.00  0.00    -0.023 C 
ATOM      6  C   UNL     1      10.910 -10.540 -44.453  1.00  0.00     0.042 C 
BRANCH   6   7
ATOM      7  C   UNL     1      11.738 -11.760 -44.435  1.00  0.00     0.152 C 
ATOM      8  O   UNL     1      11.659 -12.607 -45.365  1.00  0.00    -0.295 OA
ATOM      9  C   UNL     1      12.687 -11.993 -43.303  1.00  0.00     0.093 C 
ENDBRANCH   6   7
ENDBRANCH   1   5
TORSDOF 4
ENDMDL
MODEL 7
REMARK VINA RESULT:    -3.427      2.932      4.769
REMARK INTER + INTRA:          -4.507
REMARK INTER:                  -4.251
REMARK INTRA:                  -0.256
REMARK UNBOUND:                -0.278
REMARK SMILES CCCCC=CC(C)=O
REMARK SMILES IDX 4 1 3 2 2 3 1 4 5 5 6 6 7 7 9 8 8 9
REMARK H PARENT
REMARK Flexibility Score: inf
ROOT
ATOM      1  C   UNL     1       8.088 -11.120 -46.462  1.00  0.00     0.027 C 
ENDROOT
BRANCH   1   2
ATOM      2  C   UNL     1       7.044 -12.127 -45.947  1.00  0.00     0.004 C 
BRANCH   2   3
ATOM      3  C   UNL     1       7.496 -13.596 -46.026  1.00  0.00    -0.003 C 
ATOM      4  C   UNL     1       8.491 -13.971 -44.929  1.00  0.00     0.004 C 
ENDBRANCH   2   3
ENDBRANCH   1   2
BRANCH   1   5
ATOM      5  C   UNL     1       8.663 -10.272 -45.361  1.00  0.00    -0.023 C 
ATOM      6  C   UNL     1       9.963 -10.318 -45.049  1.00  0.00     0.042 C 
BRANCH   6   7
ATOM      7  C   UNL     1      10.546  -9.490 -43.977  1.00  0.00     0.152 C 
ATOM      8  O   UNL     1      11.286 -10.004 -43.095  1.00  0.00    -0.295 OA
ATOM      9  C   UNL     1      10.260  -8.023 -43.937  1.00  0.00     0.093 C 
ENDBRANCH   6   7
ENDBRANCH   1   5
TORSDOF 4
ENDMDL
MODEL 8
REMARK VINA RESULT:    -3.394      2.724      4.733
REMARK INTER + INTRA:          -4.466
REMARK INTER:                  -4.224
REMARK INTRA:                  -0.242
REMARK UNBOUND:                -0.278
REMARK SMILES CCCCC=CC(C)=O
REMARK SMILES IDX 4 1 3 2 2 3 1 4 5 5 6 6 7 7 9 8 8 9
REMARK H PARENT
REMARK Flexibility Score: inf
ROOT
ATOM      1  C   UNL     1      10.215 -12.522 -45.001  1.00  0.00     0.027 C 
ENDROOT
BRANCH   1   2
ATOM      2  C   UNL     1       9.921 -12.735 -46.496  1.00  0.00     0.004 C 
BRANCH   2   3
ATOM      3  C   UNL     1       8.443 -13.028 -46.811  1.00  0.00    -0.003 C 
ATOM      4  C   UNL     1       7.520 -11.859 -46.471  1.00  0.00     0.004 C 
ENDBRANCH   2   3
ENDBRANCH   1   2
BRANCH   1   5
ATOM      5  C   UNL     1      10.858 -11.192 -44.723  1.00  0.00    -0.023 C 
ATOM      6  C   UNL     1      10.131 -10.076 -44.596  1.00  0.00     0.042 C 
BRANCH   6   7
ATOM      7  C   UNL     1      10.743  -8.763 -44.319  1.00  0.00     0.152 C 
ATOM      8  O   UNL     1      11.914  -8.502 -44.708  1.00  0.00    -0.295 OA
ATOM      9  C   UNL     1       9.965  -7.728 -43.573  1.00  0.00     0.093 C 
ENDBRANCH   6   7
ENDBRANCH   1   5
TORSDOF 4
ENDMDL
MODEL 9
REMARK VINA RESULT:    -3.264     12.900     14.385
REMARK INTER + INTRA:          -4.305
REMARK INTER:                  -4.109
REMARK INTRA:                  -0.196
REMARK UNBOUND:                -0.278
REMARK SMILES CCCCC=CC(C)=O
REMARK SMILES IDX 4 1 3 2 2 3 1 4 5 5 6 6 7 7 9 8 8 9
REMARK H PARENT
REMARK Flexibility Score: inf
ROOT
ATOM      1  C   UNL     1       7.742 -22.175 -36.352  1.00  0.00     0.027 C 
ENDROOT
BRANCH   1   2
ATOM      2  C   UNL     1       8.312 -22.282 -34.927  1.00  0.00     0.004 C 
BRANCH   2   3
ATOM      3  C   UNL     1       9.718 -22.904 -34.857  1.00  0.00    -0.003 C 
ATOM      4  C   UNL     1       9.997 -23.872 -36.006  1.00  0.00     0.004 C 
ENDBRANCH   2   3
ENDBRANCH   1   2
BRANCH   1   5
ATOM      5  C   UNL     1       6.824 -20.996 -36.520  1.00  0.00    -0.023 C 
ATOM      6  C   UNL     1       7.126 -19.796 -36.010  1.00  0.00     0.042 C 
BRANCH   6   7
ATOM      7  C   UNL     1       6.241 -18.627 -36.168  1.00  0.00     0.152 C 
ATOM      8  O   UNL     1       5.991 -17.870 -35.192  1.00  0.00    -0.295 OA
ATOM      9  C   UNL     1       5.638 -18.332 -37.504  1.00  0.00     0.093 C 
ENDBRANCH   6   7
ENDBRANCH   1   5
TORSDOF 4
ENDMDL
