MODEL 1
REMARK VINA RESULT:    -4.356      0.000      0.000
REMARK INTER + INTRA:          -4.781
REMARK INTER:                  -4.738
REMARK INTRA:                  -0.043
REMARK UNBOUND:                -0.043
REMARK SMILES COc1ccccc1O
REMARK SMILES IDX 3 1 4 2 5 3 6 4 7 5 8 6 2 7 1 8 9 9
REMARK H PARENT 9 10
REMARK Flexibility Score: inf
ROOT
ATOM      1  C   UNL     1     -49.374 -14.151  12.402  1.00  0.00     0.160 A 
ATOM      2  C   UNL     1     -48.367 -15.120  12.588  1.00  0.00     0.050 A 
ATOM      3  C   UNL     1     -47.175 -15.048  11.862  1.00  0.00     0.004 A 
ATOM      4  C   UNL     1     -46.973 -14.013  10.948  1.00  0.00     0.004 A 
ATOM      5  C   UNL     1     -47.964 -13.047  10.755  1.00  0.00     0.050 A 
ATOM      6  C   UNL     1     -49.162 -13.110  11.477  1.00  0.00     0.157 A 
ENDROOT
BRANCH   1   7
ATOM      7  O   UNL     1     -50.584 -14.191  13.112  1.00  0.00    -0.493 OA
ATOM      8  C   UNL     1     -50.781 -13.625  14.404  1.00  0.00     0.278 C 
ENDBRANCH   1   7
BRANCH   6   9
ATOM      9  O   UNL     1     -50.129 -12.129  11.261  1.00  0.00    -0.504 OA
ATOM     10  H   UNL     1     -50.763 -12.162  10.472  1.00  0.00     0.293 HD
ENDBRANCH   6   9
TORSDOF 2
ENDMDL
MODEL 2
REMARK VINA RESULT:    -4.269      2.925      4.414
REMARK INTER + INTRA:          -4.687
REMARK INTER:                  -4.644
REMARK INTRA:                  -0.043
REMARK UNBOUND:                -0.043
REMARK SMILES COc1ccccc1O
REMARK SMILES IDX 3 1 4 2 5 3 6 4 7 5 8 6 2 7 1 8 9 9
REMARK H PARENT 9 10
REMARK Flexibility Score: inf
ROOT
ATOM      1  C   UNL     1     -46.337 -12.468  11.817  1.00  0.00     0.160 A 
ATOM      2  C   UNL     1     -47.402 -12.139  10.953  1.00  0.00     0.050 A 
ATOM      3  C   UNL     1     -48.455 -13.037  10.759  1.00  0.00     0.004 A 
ATOM      4  C   UNL     1     -48.459 -14.266  11.419  1.00  0.00     0.004 A 
ATOM      5  C   UNL     1     -47.408 -14.603  12.276  1.00  0.00     0.050 A 
ATOM      6  C   UNL     1     -46.348 -13.711  12.479  1.00  0.00     0.157 A 
ENDROOT
BRANCH   1   7
ATOM      7  O   UNL     1     -45.261 -11.592  12.037  1.00  0.00    -0.493 OA
ATOM      8  C   UNL     1     -44.101 -11.518  11.216  1.00  0.00     0.278 C 
ENDBRANCH   1   7
BRANCH   6   9
ATOM      9  O   UNL     1     -45.316 -14.078  13.342  1.00  0.00    -0.504 OA
ATOM     10  H   UNL     1     -44.515 -13.482  13.508  1.00  0.00     0.293 HD
ENDBRANCH   6   9
TORSDOF 2
ENDMDL
MODEL 3
REMARK VINA RESULT:    -4.259     11.325     12.100
REMARK INTER + INTRA:          -4.675
REMARK INTER:                  -4.650
REMARK INTRA:                  -0.025
REMARK UNBOUND:                -0.043
REMARK SMILES COc1ccccc1O
REMARK SMILES IDX 3 1 4 2 5 3 6 4 7 5 8 6 2 7 1 8 9 9
REMARK H PARENT 9 10
REMARK Flexibility Score: inf
ROOT
ATOM      1  C   UNL     1     -41.996  -9.856   3.509  1.00  0.00     0.160 A 
ATOM      2  C   UNL     1     -42.923  -9.060   4.213  1.00  0.00     0.050 A 
ATOM      3  C   UNL     1     -42.528  -8.365   5.359  1.00  0.00     0.004 A 
ATOM      4  C   UNL     1     -41.212  -8.454   5.814  1.00  0.00     0.004 A 
ATOM      5  C   UNL     1     -40.285  -9.240   5.125  1.00  0.00     0.050 A 
ATOM      6  C   UNL     1     -40.670  -9.941   3.975  1.00  0.00     0.157 A 
ENDROOT
BRANCH   1   7
ATOM      7  O   UNL     1     -42.356 -10.569   2.354  1.00  0.00    -0.493 OA
ATOM      8  C   UNL     1     -43.686 -10.682   1.857  1.00  0.00     0.278 C 
ENDBRANCH   1   7
BRANCH   6   9
ATOM      9  O   UNL     1     -39.720 -10.716   3.311  1.00  0.00    -0.504 OA
ATOM     10  H   UNL     1     -39.568 -11.692   3.534  1.00  0.00     0.293 HD
ENDBRANCH   6   9
TORSDOF 2
ENDMDL
MODEL 4
REMARK VINA RESULT:    -4.231     11.289     12.298
REMARK INTER + INTRA:          -4.645
REMARK INTER:                  -4.613
REMARK INTRA:                  -0.032
REMARK UNBOUND:                -0.043
REMARK SMILES COc1ccccc1O
REMARK SMILES IDX 3 1 4 2 5 3 6 4 7 5 8 6 2 7 1 8 9 9
REMARK H PARENT 9 10
REMARK Flexibility Score: inf
ROOT
ATOM      1  C   UNL     1     -41.623  -9.303   3.916  1.00  0.00     0.160 A 
ATOM      2  C   UNL     1     -42.978  -9.559   4.211  1.00  0.00     0.050 A 
ATOM      3  C   UNL     1     -43.810 -10.147   3.255  1.00  0.00     0.004 A 
ATOM      4  C   UNL     1     -43.303 -10.487   2.000  1.00  0.00     0.004 A 
ATOM      5  C   UNL     1     -41.963 -10.238   1.696  1.00  0.00     0.050 A 
ATOM      6  C   UNL     1     -41.120  -9.649   2.647  1.00  0.00     0.157 A 
ENDROOT
BRANCH   1   7
ATOM      7  O   UNL     1     -40.758  -8.713   4.851  1.00  0.00    -0.493 OA
ATOM      8  C   UNL     1     -40.649  -9.111   6.213  1.00  0.00     0.278 C 
ENDBRANCH   1   7
BRANCH   6   9
ATOM      9  O   UNL     1     -39.787  -9.415   2.311  1.00  0.00    -0.504 OA
ATOM     10  H   UNL     1     -39.058 -10.094   2.490  1.00  0.00     0.293 HD
ENDBRANCH   6   9
TORSDOF 2
ENDMDL
MODEL 5
REMARK VINA RESULT:    -4.144      1.628      1.770
REMARK INTER + INTRA:          -4.550
REMARK INTER:                  -4.504
REMARK INTRA:                  -0.046
REMARK UNBOUND:                -0.043
REMARK SMILES COc1ccccc1O
REMARK SMILES IDX 3 1 4 2 5 3 6 4 7 5 8 6 2 7 1 8 9 9
REMARK H PARENT 9 10
REMARK Flexibility Score: inf
ROOT
ATOM      1  C   UNL     1     -48.386 -13.532  12.722  1.00  0.00     0.160 A 
ATOM      2  C   UNL     1     -47.259 -12.801  13.150  1.00  0.00     0.050 A 
ATOM      3  C   UNL     1     -46.358 -12.281  12.217  1.00  0.00     0.004 A 
ATOM      4  C   UNL     1     -46.569 -12.483  10.852  1.00  0.00     0.004 A 
ATOM      5  C   UNL     1     -47.682 -13.206  10.416  1.00  0.00     0.050 A 
ATOM      6  C   UNL     1     -48.591 -13.731  11.343  1.00  0.00     0.157 A 
ENDROOT
BRANCH   1   7
ATOM      7  O   UNL     1     -49.312 -14.070  13.630  1.00  0.00    -0.493 OA
ATOM      8  C   UNL     1     -50.370 -13.333  14.234  1.00  0.00     0.278 C 
ENDBRANCH   1   7
BRANCH   6   9
ATOM      9  O   UNL     1     -49.691 -14.448  10.873  1.00  0.00    -0.504 OA
ATOM     10  H   UNL     1     -50.023 -15.287  11.332  1.00  0.00     0.293 HD
ENDBRANCH   6   9
TORSDOF 2
ENDMDL
MODEL 6
REMARK VINA RESULT:    -4.137      1.630      2.609
REMARK INTER + INTRA:          -4.542
REMARK INTER:                  -4.496
REMARK INTRA:                  -0.046
REMARK UNBOUND:                -0.043
REMARK SMILES COc1ccccc1O
REMARK SMILES IDX 3 1 4 2 5 3 6 4 7 5 8 6 2 7 1 8 9 9
REMARK H PARENT 9 10
REMARK Flexibility Score: inf
ROOT
ATOM      1  C   UNL     1     -48.374 -13.542  11.489  1.00  0.00     0.160 A 
ATOM      2  C   UNL     1     -47.695 -12.969  10.395  1.00  0.00     0.050 A 
ATOM      3  C   UNL     1     -46.316 -12.745  10.457  1.00  0.00     0.004 A 
ATOM      4  C   UNL     1     -45.603 -13.090  11.606  1.00  0.00     0.004 A 
ATOM      5  C   UNL     1     -46.265 -13.659  12.697  1.00  0.00     0.050 A 
ATOM      6  C   UNL     1     -47.646 -13.887  12.644  1.00  0.00     0.157 A 
ENDROOT
BRANCH   1   7
ATOM      7  O   UNL     1     -49.757 -13.781  11.462  1.00  0.00    -0.493 OA
ATOM      8  C   UNL     1     -50.751 -12.788  11.692  1.00  0.00     0.278 C 
ENDBRANCH   1   7
BRANCH   6   9
ATOM      9  O   UNL     1     -48.276 -14.457  13.750  1.00  0.00    -0.504 OA
ATOM     10  H   UNL     1     -49.092 -15.049  13.661  1.00  0.00     0.293 HD
ENDBRANCH   6   9
TORSDOF 2
ENDMDL
MODEL 7
REMARK VINA RESULT:    -4.134      2.060      3.247
REMARK INTER + INTRA:          -4.539
REMARK INTER:                  -4.494
REMARK INTRA:                  -0.046
REMARK UNBOUND:                -0.043
REMARK SMILES COc1ccccc1O
REMARK SMILES IDX 3 1 4 2 5 3 6 4 7 5 8 6 2 7 1 8 9 9
REMARK H PARENT 9 10
REMARK Flexibility Score: inf
ROOT
ATOM      1  C   UNL     1     -48.049 -13.680  12.442  1.00  0.00     0.160 A 
ATOM      2  C   UNL     1     -48.769 -13.750  13.652  1.00  0.00     0.050 A 
ATOM      3  C   UNL     1     -50.122 -13.404  13.689  1.00  0.00     0.004 A 
ATOM      4  C   UNL     1     -50.770 -12.986  12.526  1.00  0.00     0.004 A 
ATOM      5  C   UNL     1     -50.067 -12.911  11.322  1.00  0.00     0.050 A 
ATOM      6  C   UNL     1     -48.711 -13.256  11.273  1.00  0.00     0.157 A 
ENDROOT
BRANCH   1   7
ATOM      7  O   UNL     1     -46.688 -14.018  12.366  1.00  0.00    -0.493 OA
ATOM      8  C   UNL     1     -45.623 -13.186  12.813  1.00  0.00     0.278 C 
ENDBRANCH   1   7
BRANCH   6   9
ATOM      9  O   UNL     1     -48.038 -13.171  10.055  1.00  0.00    -0.504 OA
ATOM     10  H   UNL     1     -48.360 -12.575   9.302  1.00  0.00     0.293 HD
ENDBRANCH   6   9
TORSDOF 2
ENDMDL
MODEL 8
REMARK VINA RESULT:    -4.033      1.845      2.708
REMARK INTER + INTRA:          -4.429
REMARK INTER:                  -4.383
REMARK INTRA:                  -0.046
REMARK UNBOUND:                -0.043
REMARK SMILES COc1ccccc1O
REMARK SMILES IDX 3 1 4 2 5 3 6 4 7 5 8 6 2 7 1 8 9 9
REMARK H PARENT 9 10
REMARK Flexibility Score: inf
ROOT
ATOM      1  C   UNL     1     -50.550 -13.411  13.259  1.00  0.00     0.160 A 
ATOM      2  C   UNL     1     -50.700 -12.864  11.968  1.00  0.00     0.050 A 
ATOM      3  C   UNL     1     -49.580 -12.629  11.166  1.00  0.00     0.004 A 
ATOM      4  C   UNL     1     -48.303 -12.936  11.640  1.00  0.00     0.004 A 
ATOM      5  C   UNL     1     -48.143 -13.477  12.917  1.00  0.00     0.050 A 
ATOM      6  C   UNL     1     -49.258 -13.717  13.729  1.00  0.00     0.157 A 
ENDROOT
BRANCH   1   7
ATOM      7  O   UNL     1     -51.652 -13.659  14.093  1.00  0.00    -0.493 OA
ATOM      8  C   UNL     1     -52.498 -14.800  13.993  1.00  0.00     0.278 C 
ENDBRANCH   1   7
BRANCH   6   9
ATOM      9  O   UNL     1     -49.062 -14.258  14.998  1.00  0.00    -0.504 OA
ATOM     10  H   UNL     1     -48.467 -13.816  15.687  1.00  0.00     0.293 HD
ENDBRANCH   6   9
TORSDOF 2
ENDMDL
MODEL 9
REMARK VINA RESULT:    -4.009      2.170      3.925
REMARK INTER + INTRA:          -4.403
REMARK INTER:                  -4.361
REMARK INTRA:                  -0.042
REMARK UNBOUND:                -0.043
REMARK SMILES COc1ccccc1O
REMARK SMILES IDX 3 1 4 2 5 3 6 4 7 5 8 6 2 7 1 8 9 9
REMARK H PARENT 9 10
REMARK Flexibility Score: inf
ROOT
ATOM      1  C   UNL     1     -48.123 -12.789  11.849  1.00  0.00     0.160 A 
ATOM      2  C   UNL     1     -49.380 -12.660  11.225  1.00  0.00     0.050 A 
ATOM      3  C   UNL     1     -50.553 -12.914  11.941  1.00  0.00     0.004 A 
ATOM      4  C   UNL     1     -50.486 -13.297  13.281  1.00  0.00     0.004 A 
ATOM      5  C   UNL     1     -49.246 -13.429  13.910  1.00  0.00     0.050 A 
ATOM      6  C   UNL     1     -48.065 -13.176  13.203  1.00  0.00     0.157 A 
ENDROOT
BRANCH   1   7
ATOM      7  O   UNL     1     -46.923 -12.543  11.162  1.00  0.00    -0.493 OA
ATOM      8  C   UNL     1     -46.224 -13.511  10.387  1.00  0.00     0.278 C 
ENDBRANCH   1   7
BRANCH   6   9
ATOM      9  O   UNL     1     -46.844 -13.316  13.861  1.00  0.00    -0.504 OA
ATOM     10  H   UNL     1     -46.780 -13.651  14.814  1.00  0.00     0.293 HD
ENDBRANCH   6   9
TORSDOF 2
ENDMDL
