MODEL 1
REMARK VINA RESULT:    15.455      0.000      0.000
REMARK INTER + INTRA:          24.465
REMARK INTER:                  23.586
REMARK INTRA:                   0.879
REMARK UNBOUND:                 0.879
REMARK SMILES CC1=CCC[C@H](C)C(=O)C[C@@H](C(C)C)C(=O)C1
REMARK SMILES IDX 8 1 9 2 6 3 7 4 5 5 4 6 3 7 2 8 1 9 10 11 11 12 15 13 16 14
REMARK SMILES IDX 17 15 12 17 13 18 14 19
REMARK H PARENT
REMARK Flexibility Score: 70.00
ROOT
ATOM      1  C   UNL     1      20.752  16.542 -11.543  1.00  0.00     0.136 C 
ATOM      2  O   UNL     1      21.263  15.470 -11.836  1.00  0.00    -0.299 OA
ENDROOT
BRANCH   1   3
ATOM      3  C   UNL     1      21.629  17.757 -11.341  1.00  0.00     0.053 C 
ATOM      4  C   UNL     1      23.112  17.372 -11.298  1.00  0.00     0.016 C 
BRANCH   3   5
ATOM      5  C   UNL     1      21.339  18.780 -12.467  1.00  0.00     0.015 C 
BRANCH   5   6
ATOM      6  C   UNL     1      21.291  20.260 -12.038  1.00  0.00     0.028 C 
BRANCH   6   7
ATOM      7  C   UNL     1      20.080  21.063 -12.466  1.00  0.00    -0.028 C 
ATOM      8  C   UNL     1      18.788  20.657 -12.452  1.00  0.00    -0.070 CG0
ATOM      9  C   UNL     1      17.757  21.590 -13.038  1.00  0.00     0.039 C 
ATOM     10  G   UNL     1      18.304  19.368 -11.812  1.00  0.00     0.000 G0
ENDBRANCH   6   7
ENDBRANCH   5   6
ENDBRANCH   3   5
ENDBRANCH   1   3
BRANCH   1  11
ATOM     11  C   UNL     1      19.246  16.644 -11.463  1.00  0.00     0.087 C 
BRANCH  11  12
ATOM     12  C   UNL     1      18.593  16.936 -12.846  1.00  0.00     0.066 C 
BRANCH  12  13
ATOM     13  C   UNL     1      17.990  18.335 -12.884  1.00  0.00     0.140 C 
ATOM     14  O   UNL     1      17.265  18.647 -13.818  1.00  0.00    -0.299 OA
BRANCH  13  15
ATOM     15  C   UNL     1      18.287  19.370 -11.817  1.00  0.00     0.106 CG0
ATOM     16  G   UNL     1      18.783  20.663 -12.441  1.00  0.00     0.000 G0
ENDBRANCH  13  15
ENDBRANCH  12  13
BRANCH  12  17
ATOM     17  C   UNL     1      17.530  15.872 -13.270  1.00  0.00    -0.006 C 
ATOM     18  C   UNL     1      18.174  14.499 -13.521  1.00  0.00     0.008 C 
ATOM     19  C   UNL     1      16.354  15.729 -12.286  1.00  0.00     0.008 C 
ENDBRANCH  12  17
ENDBRANCH  11  12
ENDBRANCH   1  11
TORSDOF 1
ENDMDL
MODEL 2
REMARK VINA RESULT:    15.826      2.278      4.869
REMARK INTER + INTRA:          25.031
REMARK INTER:                  23.862
REMARK INTRA:                   1.169
REMARK UNBOUND:                 0.879
REMARK SMILES CC1=CCC[C@H](C)C(=O)C[C@@H](C(C)C)C(=O)C1
REMARK SMILES IDX 8 1 9 2 6 3 7 4 5 5 4 6 3 7 2 8 1 9 10 11 11 12 15 13 16 14
REMARK SMILES IDX 17 15 12 17 13 18 14 19
REMARK H PARENT
REMARK Flexibility Score: 70.00
ROOT
ATOM      1  C   UNL     1      18.871  15.995 -12.801  1.00  0.00     0.136 C 
ATOM      2  O   UNL     1      19.881  15.861 -12.124  1.00  0.00    -0.299 OA
ENDROOT
BRANCH   1   3
ATOM      3  C   UNL     1      18.232  14.782 -13.439  1.00  0.00     0.053 C 
ATOM      4  C   UNL     1      19.114  13.538 -13.275  1.00  0.00     0.016 C 
BRANCH   3   5
ATOM      5  C   UNL     1      16.828  14.570 -12.822  1.00  0.00     0.015 C 
BRANCH   5   6
ATOM      6  C   UNL     1      16.064  15.850 -12.427  1.00  0.00     0.028 C 
BRANCH   6   7
ATOM      7  C   UNL     1      15.514  15.916 -11.017  1.00  0.00    -0.028 C 
ATOM      8  C   UNL     1      16.196  16.231  -9.890  1.00  0.00    -0.070 CG0
ATOM      9  C   UNL     1      15.464  16.118  -8.576  1.00  0.00     0.039 C 
ATOM     10  G   UNL     1      17.616  16.770  -9.874  1.00  0.00     0.000 G0
ENDBRANCH   6   7
ENDBRANCH   5   6
ENDBRANCH   3   5
ENDBRANCH   1   3
BRANCH   1  11
ATOM     11  C   UNL     1      18.241  17.364 -12.924  1.00  0.00     0.087 C 
BRANCH  11  12
ATOM     12  C   UNL     1      18.650  18.315 -11.760  1.00  0.00     0.066 C 
BRANCH  12  13
ATOM     13  C   UNL     1      17.747  18.118 -10.549  1.00  0.00     0.140 C 
ATOM     14  O   UNL     1      17.125  19.075 -10.108  1.00  0.00    -0.299 OA
BRANCH  13  15
ATOM     15  C   UNL     1      17.619  16.781  -9.847  1.00  0.00     0.106 CG0
ATOM     16  G   UNL     1      16.190  16.271  -9.912  1.00  0.00     0.000 G0
ENDBRANCH  13  15
ENDBRANCH  12  13
BRANCH  12  17
ATOM     17  C   UNL     1      18.691  19.822 -12.172  1.00  0.00    -0.006 C 
ATOM     18  C   UNL     1      20.133  20.314 -12.373  1.00  0.00     0.008 C 
ATOM     19  C   UNL     1      17.843  20.159 -13.412  1.00  0.00     0.008 C 
ENDBRANCH  12  17
ENDBRANCH  11  12
ENDBRANCH   1  11
TORSDOF 1
ENDMDL
MODEL 3
REMARK VINA RESULT:    15.966      2.074      4.902
REMARK INTER + INTRA:          25.244
REMARK INTER:                  23.880
REMARK INTRA:                   1.365
REMARK UNBOUND:                 0.879
REMARK SMILES CC1=CCC[C@H](C)C(=O)C[C@@H](C(C)C)C(=O)C1
REMARK SMILES IDX 8 1 9 2 6 3 7 4 5 5 4 6 3 7 2 8 1 9 10 11 11 12 15 13 16 14
REMARK SMILES IDX 17 15 12 17 13 18 14 19
REMARK H PARENT
REMARK Flexibility Score: 70.00
ROOT
ATOM      1  C   UNL     1      17.118  16.285 -12.389  1.00  0.00     0.136 C 
ATOM      2  O   UNL     1      16.438  16.565 -11.411  1.00  0.00    -0.299 OA
ENDROOT
BRANCH   1   3
ATOM      3  C   UNL     1      17.235  14.843 -12.829  1.00  0.00     0.053 C 
ATOM      4  C   UNL     1      16.048  14.431 -13.708  1.00  0.00     0.016 C 
BRANCH   3   5
ATOM      5  C   UNL     1      18.583  14.650 -13.566  1.00  0.00     0.015 C 
BRANCH   5   6
ATOM      6  C   UNL     1      19.769  14.188 -12.696  1.00  0.00     0.028 C 
BRANCH   6   7
ATOM      7  C   UNL     1      20.895  15.178 -12.484  1.00  0.00    -0.028 C 
ATOM      8  C   UNL     1      20.908  16.225 -11.626  1.00  0.00    -0.070 CG0
ATOM      9  C   UNL     1      22.100  17.151 -11.671  1.00  0.00     0.039 C 
ATOM     10  G   UNL     1      19.847  16.477 -10.569  1.00  0.00     0.000 G0
ENDBRANCH   6   7
ENDBRANCH   5   6
ENDBRANCH   3   5
ENDBRANCH   1   3
BRANCH   1  11
ATOM     11  C   UNL     1      17.767  17.398 -13.180  1.00  0.00     0.087 C 
BRANCH  11  12
ATOM     12  C   UNL     1      18.841  18.167 -12.355  1.00  0.00     0.066 C 
BRANCH  12  13
ATOM     13  C   UNL     1      18.930  17.628 -10.933  1.00  0.00     0.140 C 
ATOM     14  O   UNL     1      18.270  18.160 -10.052  1.00  0.00    -0.299 OA
BRANCH  13  15
ATOM     15  C   UNL     1      19.840  16.473 -10.564  1.00  0.00     0.106 CG0
ATOM     16  G   UNL     1      20.896  16.254 -11.632  1.00  0.00     0.000 G0
ENDBRANCH  13  15
ENDBRANCH  12  13
BRANCH  12  17
ATOM     17  C   UNL     1      18.624  19.715 -12.340  1.00  0.00    -0.006 C 
ATOM     18  C   UNL     1      19.959  20.474 -12.411  1.00  0.00     0.008 C 
ATOM     19  C   UNL     1      17.669  20.228 -13.434  1.00  0.00     0.008 C 
ENDBRANCH  12  17
ENDBRANCH  11  12
ENDBRANCH   1  11
TORSDOF 1
ENDMDL
MODEL 4
REMARK VINA RESULT:    16.040      1.821      4.323
REMARK INTER + INTRA:          25.358
REMARK INTER:                  23.670
REMARK INTRA:                   1.688
REMARK UNBOUND:                 0.879
REMARK SMILES CC1=CCC[C@H](C)C(=O)C[C@@H](C(C)C)C(=O)C1
REMARK SMILES IDX 8 1 9 2 6 3 7 4 5 5 4 6 3 7 2 8 1 9 10 11 11 12 15 13 16 14
REMARK SMILES IDX 17 15 12 17 13 18 14 19
REMARK H PARENT
REMARK Flexibility Score: 70.00
ROOT
ATOM      1  C   UNL     1      21.544  17.552 -11.828  1.00  0.00     0.136 C 
ATOM      2  O   UNL     1      22.504  18.092 -11.295  1.00  0.00    -0.299 OA
ENDROOT
BRANCH   1   3
ATOM      3  C   UNL     1      21.332  16.066 -11.655  1.00  0.00     0.053 C 
ATOM      4  C   UNL     1      20.599  15.757 -10.344  1.00  0.00     0.016 C 
BRANCH   3   5
ATOM      5  C   UNL     1      20.559  15.521 -12.880  1.00  0.00     0.015 C 
BRANCH   5   6
ATOM      6  C   UNL     1      19.748  14.230 -12.649  1.00  0.00     0.028 C 
BRANCH   6   7
ATOM      7  C   UNL     1      18.253  14.306 -12.876  1.00  0.00    -0.028 C 
ATOM      8  C   UNL     1      17.510  15.426 -13.042  1.00  0.00    -0.070 CG0
ATOM      9  C   UNL     1      16.013  15.263 -13.137  1.00  0.00     0.039 C 
ATOM     10  G   UNL     1      18.091  16.817 -13.224  1.00  0.00     0.000 G0
ENDBRANCH   6   7
ENDBRANCH   5   6
ENDBRANCH   3   5
ENDBRANCH   1   3
BRANCH   1  11
ATOM     11  C   UNL     1      20.549  18.399 -12.588  1.00  0.00     0.087 C 
BRANCH  11  12
ATOM     12  C   UNL     1      19.260  18.689 -11.764  1.00  0.00     0.066 C 
BRANCH  12  13
ATOM     13  C   UNL     1      18.239  17.569 -11.932  1.00  0.00     0.140 C 
ATOM     14  O   UNL     1      17.574  17.220 -10.967  1.00  0.00    -0.299 OA
BRANCH  13  15
ATOM     15  C   UNL     1      18.045  16.846 -13.249  1.00  0.00     0.106 CG0
ATOM     16  G   UNL     1      17.527  15.437 -13.022  1.00  0.00     0.000 G0
ENDBRANCH  13  15
ENDBRANCH  12  13
BRANCH  12  17
ATOM     17  C   UNL     1      18.610  20.072 -12.089  1.00  0.00    -0.006 C 
ATOM     18  C   UNL     1      19.667  21.185 -12.183  1.00  0.00     0.008 C 
ATOM     19  C   UNL     1      17.732  20.075 -13.354  1.00  0.00     0.008 C 
ENDBRANCH  12  17
ENDBRANCH  11  12
ENDBRANCH   1  11
TORSDOF 1
ENDMDL
MODEL 5
REMARK VINA RESULT:    16.180      1.454      3.716
REMARK INTER + INTRA:          25.572
REMARK INTER:                  21.978
REMARK INTRA:                   3.594
REMARK UNBOUND:                 0.879
REMARK SMILES CC1=CCC[C@H](C)C(=O)C[C@@H](C(C)C)C(=O)C1
REMARK SMILES IDX 8 1 9 2 6 3 7 4 5 5 4 6 3 7 2 8 1 9 10 11 11 12 15 13 16 14
REMARK SMILES IDX 17 15 12 17 13 18 14 19
REMARK H PARENT
REMARK Flexibility Score: 70.00
ROOT
ATOM      1  C   UNL     1      17.974  19.544 -13.163  1.00  0.00     0.136 C 
ATOM      2  O   UNL     1      17.194  20.108 -13.918  1.00  0.00    -0.299 OA
ENDROOT
BRANCH   1   3
ATOM      3  C   UNL     1      18.208  20.101 -11.778  1.00  0.00     0.053 C 
ATOM      4  C   UNL     1      17.642  19.170 -10.699  1.00  0.00     0.016 C 
BRANCH   3   5
ATOM      5  C   UNL     1      19.724  20.343 -11.582  1.00  0.00     0.015 C 
BRANCH   5   6
ATOM      6  C   UNL     1      20.620  20.031 -12.798  1.00  0.00     0.028 C 
BRANCH   6   7
ATOM      7  C   UNL     1      21.764  19.063 -12.580  1.00  0.00    -0.028 C 
ATOM      8  C   UNL     1      21.767  17.974 -11.774  1.00  0.00    -0.070 CG0
ATOM      9  C   UNL     1      23.066  17.220 -11.625  1.00  0.00     0.039 C 
ATOM     10  G   UNL     1      20.534  17.419 -11.084  1.00  0.00     0.000 G0
ENDBRANCH   6   7
ENDBRANCH   5   6
ENDBRANCH   3   5
ENDBRANCH   1   3
BRANCH   1  11
ATOM     11  C   UNL     1      18.631  18.257 -13.608  1.00  0.00     0.087 C 
BRANCH  11  12
ATOM     12  C   UNL     1      18.373  17.082 -12.618  1.00  0.00     0.066 C 
BRANCH  12  13
ATOM     13  C   UNL     1      19.680  16.568 -12.025  1.00  0.00     0.140 C 
ATOM     14  O   UNL     1      20.048  15.433 -12.292  1.00  0.00    -0.299 OA
BRANCH  13  15
ATOM     15  C   UNL     1      20.524  17.405 -11.085  1.00  0.00     0.106 CG0
ATOM     16  G   UNL     1      21.734  17.972 -11.805  1.00  0.00     0.000 G0
ENDBRANCH  13  15
ENDBRANCH  12  13
BRANCH  12  17
ATOM     17  C   UNL     1      17.558  15.906 -13.246  1.00  0.00    -0.006 C 
ATOM     18  C   UNL     1      18.446  14.679 -13.506  1.00  0.00     0.008 C 
ATOM     19  C   UNL     1      16.318  15.493 -12.431  1.00  0.00     0.008 C 
ENDBRANCH  12  17
ENDBRANCH  11  12
ENDBRANCH   1  11
TORSDOF 1
ENDMDL
MODEL 6
REMARK VINA RESULT:    16.218      1.876      4.160
REMARK INTER + INTRA:          25.629
REMARK INTER:                  23.582
REMARK INTRA:                   2.047
REMARK UNBOUND:                 0.879
REMARK SMILES CC1=CCC[C@H](C)C(=O)C[C@@H](C(C)C)C(=O)C1
REMARK SMILES IDX 8 1 9 2 6 3 7 4 5 5 4 6 3 7 2 8 1 9 10 11 11 12 15 13 16 14
REMARK SMILES IDX 17 15 12 17 13 18 14 19
REMARK H PARENT
REMARK Flexibility Score: 70.00
ROOT
ATOM      1  C   UNL     1      21.155  18.653 -12.064  1.00  0.00     0.136 C 
ATOM      2  O   UNL     1      21.469  19.497 -12.893  1.00  0.00    -0.299 OA
ENDROOT
BRANCH   1   3
ATOM      3  C   UNL     1      21.798  17.286 -12.109  1.00  0.00     0.053 C 
ATOM      4  C   UNL     1      23.101  17.258 -11.300  1.00  0.00     0.016 C 
BRANCH   3   5
ATOM      5  C   UNL     1      20.785  16.236 -11.592  1.00  0.00     0.015 C 
BRANCH   5   6
ATOM      6  C   UNL     1      20.476  15.067 -12.550  1.00  0.00     0.028 C 
BRANCH   6   7
ATOM      7  C   UNL     1      19.017  14.747 -12.797  1.00  0.00    -0.028 C 
ATOM      8  C   UNL     1      18.002  15.631 -12.943  1.00  0.00    -0.070 CG0
ATOM      9  C   UNL     1      16.604  15.077 -13.064  1.00  0.00     0.039 C 
ATOM     10  G   UNL     1      18.190  17.132 -13.076  1.00  0.00     0.000 G0
ENDBRANCH   6   7
ENDBRANCH   5   6
ENDBRANCH   3   5
ENDBRANCH   1   3
BRANCH   1  11
ATOM     11  C   UNL     1      20.182  19.023 -10.967  1.00  0.00     0.087 C 
BRANCH  11  12
ATOM     12  C   UNL     1      18.725  19.189 -11.493  1.00  0.00     0.066 C 
BRANCH  12  13
ATOM     13  C   UNL     1      18.077  17.834 -11.751  1.00  0.00     0.140 C 
ATOM     14  O   UNL     1      17.493  17.270 -10.836  1.00  0.00    -0.299 OA
BRANCH  13  15
ATOM     15  C   UNL     1      18.162  17.142 -13.096  1.00  0.00     0.106 CG0
ATOM     16  G   UNL     1      18.002  15.640 -12.943  1.00  0.00     0.000 G0
ENDBRANCH  13  15
ENDBRANCH  12  13
BRANCH  12  17
ATOM     17  C   UNL     1      18.621  20.094 -12.763  1.00  0.00    -0.006 C 
ATOM     18  C   UNL     1      17.180  20.159 -13.294  1.00  0.00     0.008 C 
ATOM     19  C   UNL     1      19.174  21.518 -12.569  1.00  0.00     0.008 C 
ENDBRANCH  12  17
ENDBRANCH  11  12
ENDBRANCH   1  11
TORSDOF 1
ENDMDL
MODEL 7
REMARK VINA RESULT:    16.802      1.351      1.483
REMARK INTER + INTRA:          26.521
REMARK INTER:                  23.225
REMARK INTRA:                   3.296
REMARK UNBOUND:                 0.879
REMARK SMILES CC1=CCC[C@H](C)C(=O)C[C@@H](C(C)C)C(=O)C1
REMARK SMILES IDX 8 1 9 2 6 3 7 4 5 5 4 6 3 7 2 8 1 9 10 11 11 12 15 13 16 14
REMARK SMILES IDX 17 15 12 17 13 18 14 19
REMARK H PARENT
REMARK Flexibility Score: 70.00
ROOT
ATOM      1  C   UNL     1      19.816  17.478 -11.374  1.00  0.00     0.136 C 
ATOM      2  O   UNL     1      18.888  17.852 -10.670  1.00  0.00    -0.299 OA
ENDROOT
BRANCH   1   3
ATOM      3  C   UNL     1      21.090  18.290 -11.427  1.00  0.00     0.053 C 
ATOM      4  C   UNL     1      22.313  17.392 -11.646  1.00  0.00     0.016 C 
BRANCH   3   5
ATOM      5  C   UNL     1      20.961  19.357 -12.540  1.00  0.00     0.015 C 
BRANCH   5   6
ATOM      6  C   UNL     1      20.301  20.688 -12.126  1.00  0.00     0.028 C 
BRANCH   6   7
ATOM      7  C   UNL     1      18.804  20.807 -12.325  1.00  0.00    -0.028 C 
ATOM      8  C   UNL     1      18.037  20.088 -13.178  1.00  0.00    -0.070 CG0
ATOM      9  C   UNL     1      16.579  20.462 -13.290  1.00  0.00     0.039 C 
ATOM     10  G   UNL     1      18.528  18.883 -13.960  1.00  0.00     0.000 G0
ENDBRANCH   6   7
ENDBRANCH   5   6
ENDBRANCH   3   5
ENDBRANCH   1   3
BRANCH   1  11
ATOM     11  C   UNL     1      19.693  16.169 -12.121  1.00  0.00     0.087 C 
BRANCH  11  12
ATOM     12  C   UNL     1      18.800  16.288 -13.391  1.00  0.00     0.066 C 
BRANCH  12  13
ATOM     13  C   UNL     1      17.989  17.578 -13.372  1.00  0.00     0.140 C 
ATOM     14  O   UNL     1      16.872  17.571 -12.873  1.00  0.00    -0.299 OA
BRANCH  13  15
ATOM     15  C   UNL     1      18.505  18.865 -13.983  1.00  0.00     0.106 CG0
ATOM     16  G   UNL     1      18.008  20.070 -13.205  1.00  0.00     0.000 G0
ENDBRANCH  13  15
ENDBRANCH  12  13
BRANCH  12  17
ATOM     17  C   UNL     1      17.863  15.057 -13.612  1.00  0.00    -0.006 C 
ATOM     18  C   UNL     1      18.567  13.739 -13.250  1.00  0.00     0.008 C 
ATOM     19  C   UNL     1      16.514  15.151 -12.875  1.00  0.00     0.008 C 
ENDBRANCH  12  17
ENDBRANCH  11  12
ENDBRANCH   1  11
TORSDOF 1
ENDMDL
MODEL 8
REMARK VINA RESULT:    17.023      1.518      3.592
REMARK INTER + INTRA:          26.858
REMARK INTER:                  23.896
REMARK INTRA:                   2.962
REMARK UNBOUND:                 0.879
REMARK SMILES CC1=CCC[C@H](C)C(=O)C[C@@H](C(C)C)C(=O)C1
REMARK SMILES IDX 8 1 9 2 6 3 7 4 5 5 4 6 3 7 2 8 1 9 10 11 11 12 15 13 16 14
REMARK SMILES IDX 17 15 12 17 13 18 14 19
REMARK H PARENT
REMARK Flexibility Score: 70.00
ROOT
ATOM      1  C   UNL     1      17.928  18.734 -11.985  1.00  0.00     0.136 C 
ATOM      2  O   UNL     1      18.045  18.768 -10.768  1.00  0.00    -0.299 OA
ENDROOT
BRANCH   1   3
ATOM      3  C   UNL     1      18.263  19.960 -12.802  1.00  0.00     0.053 C 
ATOM      4  C   UNL     1      16.995  20.712 -13.224  1.00  0.00     0.016 C 
BRANCH   3   5
ATOM      5  C   UNL     1      19.216  20.865 -11.984  1.00  0.00     0.015 C 
BRANCH   5   6
ATOM      6  C   UNL     1      20.666  20.960 -12.499  1.00  0.00     0.028 C 
BRANCH   6   7
ATOM      7  C   UNL     1      21.649  19.929 -11.983  1.00  0.00    -0.028 C 
ATOM      8  C   UNL     1      21.539  18.582 -12.074  1.00  0.00    -0.070 CG0
ATOM      9  C   UNL     1      22.588  17.748 -11.381  1.00  0.00     0.039 C 
ATOM     10  G   UNL     1      20.482  17.865 -12.895  1.00  0.00     0.000 G0
ENDBRANCH   6   7
ENDBRANCH   5   6
ENDBRANCH   3   5
ENDBRANCH   1   3
BRANCH   1  11
ATOM     11  C   UNL     1      17.518  17.440 -12.651  1.00  0.00     0.087 C 
BRANCH  11  12
ATOM     12  C   UNL     1      18.434  16.246 -12.248  1.00  0.00     0.066 C 
BRANCH  12  13
ATOM     13  C   UNL     1      19.874  16.703 -12.049  1.00  0.00     0.140 C 
ATOM     14  O   UNL     1      20.551  16.177 -11.176  1.00  0.00    -0.299 OA
BRANCH  13  15
ATOM     15  C   UNL     1      20.489  17.815 -12.875  1.00  0.00     0.106 CG0
ATOM     16  G   UNL     1      21.539  18.566 -12.075  1.00  0.00     0.000 G0
ENDBRANCH  13  15
ENDBRANCH  12  13
BRANCH  12  17
ATOM     17  C   UNL     1      18.375  15.049 -13.251  1.00  0.00    -0.006 C 
ATOM     18  C   UNL     1      19.365  13.939 -12.865  1.00  0.00     0.008 C 
ATOM     19  C   UNL     1      16.967  14.455 -13.441  1.00  0.00     0.008 C 
ENDBRANCH  12  17
ENDBRANCH  11  12
ENDBRANCH   1  11
TORSDOF 1
ENDMDL
