MODEL 1
REMARK VINA RESULT:     3.209      0.000      0.000
REMARK INTER + INTRA:           4.053
REMARK INTER:                   4.429
REMARK INTRA:                  -0.375
REMARK UNBOUND:                -0.375
REMARK SMILES C=C(CC[C@H](C(=O)[O-])[C@@H]1CC[C@@]2(C)C3=C(CC[C@@]12C)[C@@]1(C)CC[C@H](O)C(C)(C)[C@H]1CC3)C(C)C
REMARK SMILES IDX 4 1 5 2 6 3 7 4 8 5 9 6 10 7 18 8 11 9 12 10 17 11 19 12
REMARK SMILES IDX 13 13 14 14 16 15 15 16 31 17 20 18 30 19 29 20 22 21 21 22
REMARK SMILES IDX 26 23 23 24 24 25 27 26 28 27 25 28 3 30 2 31 1 32 32 33
REMARK SMILES IDX 33 34 34 35
REMARK H PARENT 25 29
REMARK Flexibility Score: inf
ROOT
ATOM      1  C   UNL     1       1.848  41.340  13.118  1.00  0.00     0.014 C 
ENDROOT
BRANCH   1   2
ATOM      2  C   UNL     1       2.675  41.747  11.869  1.00  0.00     0.039 C 
BRANCH   2   3
ATOM      3  C   UNL     1       4.134  41.840  12.248  1.00  0.00     0.045 C 
ATOM      4  O   UNL     1       4.671  42.963  12.440  1.00  0.00    -0.550 OA
ATOM      5  O   UNL     1       4.895  40.686  12.388  1.00  0.00    -0.550 OA
ENDBRANCH   2   3
BRANCH   2   6
ATOM      6  C   UNL     1       2.215  43.061  11.141  1.00  0.00     0.004 C 
ATOM      7  C   UNL     1       0.890  43.681  11.609  1.00  0.00     0.006 C 
ATOM      8  C   UNL     1       2.142  43.037   9.579  1.00  0.00    -0.020 C 
ATOM      9  C   UNL     1       0.281  44.371  10.384  1.00  0.00     0.012 C 
ATOM     10  C   UNL     1       1.353  44.351   9.261  1.00  0.00    -0.006 C 
ATOM     11  C   UNL     1       3.522  43.052   8.893  1.00  0.00     0.012 C 
ATOM     12  C   UNL     1       1.400  41.768   9.068  1.00  0.00     0.012 C 
ATOM     13  C   UNL     1       0.688  44.345   7.860  1.00  0.00     0.017 C 
ATOM     14  C   UNL     1       2.246  45.618   9.358  1.00  0.00    -0.064 C 
ATOM     15  C   UNL     1       4.370  44.263   9.246  1.00  0.00     0.032 C 
ATOM     16  C   UNL     1       3.616  45.592   9.268  1.00  0.00    -0.064 C 
ATOM     17  C   UNL     1       1.565  46.970   9.408  1.00  0.00     0.032 C 
ATOM     18  C   UNL     1       4.444  46.907   9.451  1.00  0.00    -0.008 C 
ATOM     19  C   UNL     1       2.242  47.908   8.429  1.00  0.00     0.009 C 
ATOM     20  C   UNL     1       3.676  48.207   8.914  1.00  0.00     0.007 C 
ATOM     21  C   UNL     1       5.847  46.756   8.780  1.00  0.00     0.014 C 
ATOM     22  C   UNL     1       4.679  47.056  10.979  1.00  0.00     0.016 C 
ATOM     23  C   UNL     1       4.471  49.112   7.899  1.00  0.00    -0.006 C 
ATOM     24  C   UNL     1       6.695  48.032   8.707  1.00  0.00     0.033 C 
ATOM     25  C   UNL     1       5.914  49.332   8.442  1.00  0.00     0.120 C 
ATOM     26  C   UNL     1       4.497  48.513   6.460  1.00  0.00     0.014 C 
ATOM     27  C   UNL     1       3.804  50.514   7.787  1.00  0.00     0.014 C 
BRANCH  25  28
ATOM     28  O   UNL     1       5.861  50.072   9.642  1.00  0.00    -0.393 OA
ATOM     29  H   UNL     1       5.262  50.849   9.490  1.00  0.00     0.210 HD
ENDBRANCH  25  28
ENDBRANCH   2   6
ENDBRANCH   1   2
BRANCH   1  30
ATOM     30  C   UNL     1       1.444  39.851  13.123  1.00  0.00     0.031 C 
BRANCH  30  31
ATOM     31  C   UNL     1       0.050  39.603  13.683  1.00  0.00    -0.075 C 
ATOM     32  C   UNL     1      -0.650  38.540  13.246  1.00  0.00     0.008 C 
BRANCH  31  33
ATOM     33  C   UNL     1      -0.660  40.647  14.539  1.00  0.00     0.008 C 
ATOM     34  C   UNL     1       0.194  41.137  15.711  1.00  0.00     0.012 C 
ATOM     35  C   UNL     1      -1.121  41.821  13.666  1.00  0.00     0.012 C 
ENDBRANCH  31  33
ENDBRANCH  30  31
ENDBRANCH   1  30
TORSDOF 7
ENDMDL
MODEL 2
REMARK VINA RESULT:     4.616      1.050      2.018
REMARK INTER + INTRA:           5.995
REMARK INTER:                   6.186
REMARK INTRA:                  -0.191
REMARK UNBOUND:                -0.375
REMARK SMILES C=C(CC[C@H](C(=O)[O-])[C@@H]1CC[C@@]2(C)C3=C(CC[C@@]12C)[C@@]1(C)CC[C@H](O)C(C)(C)[C@H]1CC3)C(C)C
REMARK SMILES IDX 4 1 5 2 6 3 7 4 8 5 9 6 10 7 18 8 11 9 12 10 17 11 19 12
REMARK SMILES IDX 13 13 14 14 16 15 15 16 31 17 20 18 30 19 29 20 22 21 21 22
REMARK SMILES IDX 26 23 23 24 24 25 27 26 28 27 25 28 3 30 2 31 1 32 32 33
REMARK SMILES IDX 33 34 34 35
REMARK H PARENT 25 29
REMARK Flexibility Score: inf
ROOT
ATOM      1  C   UNL     1       2.047  41.359  13.175  1.00  0.00     0.014 C 
ENDROOT
BRANCH   1   2
ATOM      2  C   UNL     1       2.875  41.781  11.931  1.00  0.00     0.039 C 
BRANCH   2   3
ATOM      3  C   UNL     1       4.321  41.949  12.330  1.00  0.00     0.045 C 
ATOM      4  O   UNL     1       5.054  40.940  12.506  1.00  0.00    -0.550 OA
ATOM      5  O   UNL     1       4.854  43.221  12.506  1.00  0.00    -0.550 OA
ENDBRANCH   2   3
BRANCH   2   6
ATOM      6  C   UNL     1       2.365  43.059  11.172  1.00  0.00     0.004 C 
ATOM      7  C   UNL     1       1.016  43.637  11.623  1.00  0.00     0.006 C 
ATOM      8  C   UNL     1       2.297  42.996   9.611  1.00  0.00    -0.020 C 
ATOM      9  C   UNL     1       0.383  44.274  10.381  1.00  0.00     0.012 C 
ATOM     10  C   UNL     1       1.459  44.270   9.261  1.00  0.00    -0.006 C 
ATOM     11  C   UNL     1       3.678  43.049   8.927  1.00  0.00     0.012 C 
ATOM     12  C   UNL     1       1.607  41.687   9.128  1.00  0.00     0.012 C 
ATOM     13  C   UNL     1       0.798  44.206   7.859  1.00  0.00     0.017 C 
ATOM     14  C   UNL     1       2.302  45.572   9.329  1.00  0.00    -0.064 C 
ATOM     15  C   UNL     1       4.477  44.300   9.253  1.00  0.00     0.032 C 
ATOM     16  C   UNL     1       3.672  45.598   9.243  1.00  0.00    -0.064 C 
ATOM     17  C   UNL     1       1.569  46.898   9.346  1.00  0.00     0.032 C 
ATOM     18  C   UNL     1       4.448  46.949   9.397  1.00  0.00    -0.008 C 
ATOM     19  C   UNL     1       2.211  47.839   8.347  1.00  0.00     0.009 C 
ATOM     20  C   UNL     1       3.631  48.205   8.828  1.00  0.00     0.007 C 
ATOM     21  C   UNL     1       5.857  46.837   8.731  1.00  0.00     0.014 C 
ATOM     22  C   UNL     1       4.673  47.142  10.921  1.00  0.00     0.016 C 
ATOM     23  C   UNL     1       4.392  49.116   7.793  1.00  0.00    -0.006 C 
ATOM     24  C   UNL     1       6.655  48.143   8.630  1.00  0.00     0.033 C 
ATOM     25  C   UNL     1       5.825  49.405   8.333  1.00  0.00     0.120 C 
ATOM     26  C   UNL     1       4.446  48.486   6.369  1.00  0.00     0.014 C 
ATOM     27  C   UNL     1       3.671  50.488   7.648  1.00  0.00     0.014 C 
BRANCH  25  28
ATOM     28  O   UNL     1       5.740  50.170   9.516  1.00  0.00    -0.393 OA
ATOM     29  H   UNL     1       6.642  50.540   9.700  1.00  0.00     0.210 HD
ENDBRANCH  25  28
ENDBRANCH   2   6
ENDBRANCH   1   2
BRANCH   1  30
ATOM     30  C   UNL     1       1.407  39.961  13.035  1.00  0.00     0.031 C 
BRANCH  30  31
ATOM     31  C   UNL     1       2.425  38.843  12.859  1.00  0.00    -0.075 C 
ATOM     32  C   UNL     1       3.598  38.918  13.515  1.00  0.00     0.008 C 
BRANCH  31  33
ATOM     33  C   UNL     1       2.252  37.772  11.787  1.00  0.00     0.008 C 
ATOM     34  C   UNL     1       3.524  36.952  11.554  1.00  0.00     0.012 C 
ATOM     35  C   UNL     1       1.068  36.862  12.135  1.00  0.00     0.012 C 
ENDBRANCH  31  33
ENDBRANCH  30  31
ENDBRANCH   1  30
TORSDOF 7
ENDMDL
MODEL 3
REMARK VINA RESULT:     4.842      1.655      2.521
REMARK INTER + INTRA:           6.307
REMARK INTER:                   4.902
REMARK INTRA:                   1.405
REMARK UNBOUND:                -0.375
REMARK SMILES C=C(CC[C@H](C(=O)[O-])[C@@H]1CC[C@@]2(C)C3=C(CC[C@@]12C)[C@@]1(C)CC[C@H](O)C(C)(C)[C@H]1CC3)C(C)C
REMARK SMILES IDX 4 1 5 2 6 3 7 4 8 5 9 6 10 7 18 8 11 9 12 10 17 11 19 12
REMARK SMILES IDX 13 13 14 14 16 15 15 16 31 17 20 18 30 19 29 20 22 21 21 22
REMARK SMILES IDX 26 23 23 24 24 25 27 26 28 27 25 28 3 30 2 31 1 32 32 33
REMARK SMILES IDX 33 34 34 35
REMARK H PARENT 25 29
REMARK Flexibility Score: inf
ROOT
ATOM      1  C   UNL     1       2.953  41.217  11.466  1.00  0.00     0.014 C 
ENDROOT
BRANCH   1   2
ATOM      2  C   UNL     1       2.241  42.378  12.211  1.00  0.00     0.039 C 
BRANCH   2   3
ATOM      3  C   UNL     1       1.015  41.842  12.910  1.00  0.00     0.045 C 
ATOM      4  O   UNL     1      -0.101  42.406  12.760  1.00  0.00    -0.550 OA
ATOM      5  O   UNL     1       1.109  40.720  13.725  1.00  0.00    -0.550 OA
ENDBRANCH   2   3
BRANCH   2   6
ATOM      6  C   UNL     1       1.867  43.627  11.333  1.00  0.00     0.004 C 
ATOM      7  C   UNL     1       0.535  44.321  11.653  1.00  0.00     0.006 C 
ATOM      8  C   UNL     1       1.891  43.455   9.779  1.00  0.00    -0.020 C 
ATOM      9  C   UNL     1       0.025  44.905  10.331  1.00  0.00     0.012 C 
ATOM     10  C   UNL     1       1.165  44.751   9.288  1.00  0.00    -0.006 C 
ATOM     11  C   UNL     1       3.312  43.370   9.186  1.00  0.00     0.012 C 
ATOM     12  C   UNL     1       1.145  42.161   9.343  1.00  0.00     0.012 C 
ATOM     13  C   UNL     1       0.589  44.627   7.853  1.00  0.00     0.017 C 
ATOM     14  C   UNL     1       2.089  45.999   9.323  1.00  0.00    -0.064 C 
ATOM     15  C   UNL     1       4.173  44.588   9.478  1.00  0.00     0.032 C 
ATOM     16  C   UNL     1       3.460  45.931   9.326  1.00  0.00    -0.064 C 
ATOM     17  C   UNL     1       1.448  47.366   9.200  1.00  0.00     0.032 C 
ATOM     18  C   UNL     1       4.315  47.237   9.438  1.00  0.00    -0.008 C 
ATOM     19  C   UNL     1       2.213  48.189   8.184  1.00  0.00     0.009 C 
ATOM     20  C   UNL     1       3.622  48.498   8.732  1.00  0.00     0.007 C 
ATOM     21  C   UNL     1       5.752  46.987   8.877  1.00  0.00     0.014 C 
ATOM     22  C   UNL     1       4.458  47.526  10.957  1.00  0.00     0.016 C 
ATOM     23  C   UNL     1       4.507  49.281   7.689  1.00  0.00    -0.006 C 
ATOM     24  C   UNL     1       6.642  48.229   8.740  1.00  0.00     0.033 C 
ATOM     25  C   UNL     1       5.919  49.517   8.303  1.00  0.00     0.120 C 
ATOM     26  C   UNL     1       4.605  48.547   6.318  1.00  0.00     0.014 C 
ATOM     27  C   UNL     1       3.891  50.682   7.403  1.00  0.00     0.014 C 
BRANCH  25  28
ATOM     28  O   UNL     1       5.814  50.370   9.421  1.00  0.00    -0.393 OA
ATOM     29  H   UNL     1       6.728  50.500   9.787  1.00  0.00     0.210 HD
ENDBRANCH  25  28
ENDBRANCH   2   6
ENDBRANCH   1   2
BRANCH   1  30
ATOM     30  C   UNL     1       4.205  40.697  12.203  1.00  0.00     0.031 C 
BRANCH  30  31
ATOM     31  C   UNL     1       4.071  39.258  12.685  1.00  0.00    -0.075 C 
ATOM     32  C   UNL     1       4.923  38.801  13.621  1.00  0.00     0.008 C 
BRANCH  31  33
ATOM     33  C   UNL     1       3.163  38.262  11.972  1.00  0.00     0.008 C 
ATOM     34  C   UNL     1       3.885  36.967  11.588  1.00  0.00     0.012 C 
ATOM     35  C   UNL     1       1.926  37.967  12.829  1.00  0.00     0.012 C 
ENDBRANCH  31  33
ENDBRANCH  30  31
ENDBRANCH   1  30
TORSDOF 7
ENDMDL
