MODEL 1
REMARK VINA RESULT:    -2.941      0.000      0.000
REMARK INTER + INTRA:         -11.135
REMARK INTER:                  -6.724
REMARK INTRA:                  -4.410
REMARK UNBOUND:                -4.410
REMARK SMILES CCCCCCCCCCCCCCCCCCCCCCCC(=O)[O-]
REMARK SMILES IDX 13 1 14 2 15 3 16 4 17 5 18 6 19 7 20 8 21 9 22 10 23 11
REMARK SMILES IDX 24 12 25 13 26 14 12 15 11 16 10 17 9 18 8 19 7 20 6 21 5 22
REMARK SMILES IDX 4 23 3 24 2 25 1 26
REMARK H PARENT
REMARK Flexibility Score: inf
ROOT
ATOM      1  C   UNL     1     -18.887 -26.682  -2.507  1.00  0.00     0.000 C 
ENDROOT
BRANCH   1   2
ATOM      2  C   UNL     1     -17.607 -27.185  -1.817  1.00  0.00     0.000 C 
BRANCH   2   3
ATOM      3  C   UNL     1     -17.887 -28.252  -0.745  1.00  0.00     0.000 C 
BRANCH   3   4
ATOM      4  C   UNL     1     -19.369 -28.312  -0.346  1.00  0.00     0.000 C 
BRANCH   4   5
ATOM      5  C   UNL     1     -19.949 -29.737  -0.425  1.00  0.00     0.000 C 
BRANCH   5   6
ATOM      6  C   UNL     1     -21.473 -29.763  -0.231  1.00  0.00     0.000 C 
BRANCH   6   7
ATOM      7  C   UNL     1     -21.894 -29.360   1.194  1.00  0.00     0.000 C 
BRANCH   7   8
ATOM      8  C   UNL     1     -23.212 -28.570   1.222  1.00  0.00     0.000 C 
BRANCH   8   9
ATOM      9  C   UNL     1     -23.098 -27.260   2.020  1.00  0.00     0.000 C 
BRANCH   9  10
ATOM     10  C   UNL     1     -21.704 -26.617   1.913  1.00  0.00     0.006 C 
BRANCH  10  11
ATOM     11  C   UNL     1     -20.886 -26.656   3.214  1.00  0.00     0.053 C 
BRANCH  11  12
ATOM     12  C   UNL     1     -21.761 -26.638   4.429  1.00  0.00     0.041 C 
ATOM     13  O   UNL     1     -22.307 -25.565   4.801  1.00  0.00    -0.550 OA
ATOM     14  O   UNL     1     -21.988 -27.809   5.142  1.00  0.00    -0.550 OA
ENDBRANCH  11  12
ENDBRANCH  10  11
ENDBRANCH   9  10
ENDBRANCH   8   9
ENDBRANCH   7   8
ENDBRANCH   6   7
ENDBRANCH   5   6
ENDBRANCH   4   5
ENDBRANCH   3   4
ENDBRANCH   2   3
ENDBRANCH   1   2
BRANCH   1  15
ATOM     15  C   UNL     1     -18.834 -26.659  -4.049  1.00  0.00     0.000 C 
BRANCH  15  16
ATOM     16  C   UNL     1     -19.850 -27.580  -4.755  1.00  0.00     0.000 C 
BRANCH  16  17
ATOM     17  C   UNL     1     -20.292 -28.810  -3.943  1.00  0.00     0.000 C 
BRANCH  17  18
ATOM     18  C   UNL     1     -21.821 -28.959  -3.874  1.00  0.00    -0.000 C 
BRANCH  18  19
ATOM     19  C   UNL     1     -22.565 -27.647  -4.186  1.00  0.00    -0.000 C 
BRANCH  19  20
ATOM     20  C   UNL     1     -23.297 -27.008  -2.989  1.00  0.00    -0.000 C 
BRANCH  20  21
ATOM     21  C   UNL     1     -22.401 -26.651  -1.787  1.00  0.00    -0.000 C 
BRANCH  21  22
ATOM     22  C   UNL     1     -22.495 -25.186  -1.316  1.00  0.00    -0.000 C 
BRANCH  22  23
ATOM     23  C   UNL     1     -22.832 -24.170  -2.422  1.00  0.00    -0.000 C 
BRANCH  23  24
ATOM     24  C   UNL     1     -21.692 -23.168  -2.677  1.00  0.00    -0.000 C 
BRANCH  24  25
ATOM     25  C   UNL     1     -20.771 -23.605  -3.828  1.00  0.00    -0.003 C 
ATOM     26  C   UNL     1     -21.542 -24.202  -5.005  1.00  0.00     0.004 C 
ENDBRANCH  24  25
ENDBRANCH  23  24
ENDBRANCH  22  23
ENDBRANCH  21  22
ENDBRANCH  20  21
ENDBRANCH  19  20
ENDBRANCH  18  19
ENDBRANCH  17  18
ENDBRANCH  16  17
ENDBRANCH  15  16
ENDBRANCH   1  15
TORSDOF 22
ENDMDL
MODEL 2
REMARK VINA RESULT:    -2.838      3.008      4.247
REMARK INTER + INTRA:         -10.898
REMARK INTER:                  -8.269
REMARK INTRA:                  -2.629
REMARK UNBOUND:                -4.410
REMARK SMILES CCCCCCCCCCCCCCCCCCCCCCCC(=O)[O-]
REMARK SMILES IDX 13 1 14 2 15 3 16 4 17 5 18 6 19 7 20 8 21 9 22 10 23 11
REMARK SMILES IDX 24 12 25 13 26 14 12 15 11 16 10 17 9 18 8 19 7 20 6 21 5 22
REMARK SMILES IDX 4 23 3 24 2 25 1 26
REMARK H PARENT
REMARK Flexibility Score: inf
ROOT
ATOM      1  C   UNL     1     -19.057 -26.059  -2.432  1.00  0.00     0.000 C 
ENDROOT
BRANCH   1   2
ATOM      2  C   UNL     1     -18.618 -27.515  -2.195  1.00  0.00     0.000 C 
BRANCH   2   3
ATOM      3  C   UNL     1     -18.691 -27.926  -0.714  1.00  0.00     0.000 C 
BRANCH   3   4
ATOM      4  C   UNL     1     -19.251 -29.344  -0.522  1.00  0.00     0.000 C 
BRANCH   4   5
ATOM      5  C   UNL     1     -20.367 -29.685  -1.527  1.00  0.00     0.000 C 
BRANCH   5   6
ATOM      6  C   UNL     1     -21.770 -29.406  -0.964  1.00  0.00     0.000 C 
BRANCH   6   7
ATOM      7  C   UNL     1     -21.851 -29.634   0.556  1.00  0.00     0.000 C 
BRANCH   7   8
ATOM      8  C   UNL     1     -22.613 -28.514   1.283  1.00  0.00     0.000 C 
BRANCH   8   9
ATOM      9  C   UNL     1     -22.092 -27.113   0.919  1.00  0.00     0.000 C 
BRANCH   9  10
ATOM     10  C   UNL     1     -21.313 -26.450   2.069  1.00  0.00     0.006 C 
BRANCH  10  11
ATOM     11  C   UNL     1     -21.247 -27.288   3.356  1.00  0.00     0.053 C 
BRANCH  11  12
ATOM     12  C   UNL     1     -21.988 -26.642   4.485  1.00  0.00     0.041 C 
ATOM     13  O   UNL     1     -23.004 -25.933   4.254  1.00  0.00    -0.550 OA
ATOM     14  O   UNL     1     -21.568 -26.837   5.796  1.00  0.00    -0.550 OA
ENDBRANCH  11  12
ENDBRANCH  10  11
ENDBRANCH   9  10
ENDBRANCH   8   9
ENDBRANCH   7   8
ENDBRANCH   6   7
ENDBRANCH   5   6
ENDBRANCH   4   5
ENDBRANCH   3   4
ENDBRANCH   2   3
ENDBRANCH   1   2
BRANCH   1  15
ATOM     15  C   UNL     1     -20.471 -25.710  -1.922  1.00  0.00     0.000 C 
BRANCH  15  16
ATOM     16  C   UNL     1     -21.611 -25.948  -2.933  1.00  0.00     0.000 C 
BRANCH  16  17
ATOM     17  C   UNL     1     -22.560 -24.754  -3.140  1.00  0.00     0.000 C 
BRANCH  17  18
ATOM     18  C   UNL     1     -21.934 -23.415  -2.717  1.00  0.00    -0.000 C 
BRANCH  18  19
ATOM     19  C   UNL     1     -21.188 -22.713  -3.866  1.00  0.00    -0.000 C 
BRANCH  19  20
ATOM     20  C   UNL     1     -19.793 -22.165  -3.505  1.00  0.00    -0.000 C 
BRANCH  20  21
ATOM     21  C   UNL     1     -19.370 -20.895  -4.270  1.00  0.00    -0.000 C 
BRANCH  21  22
ATOM     22  C   UNL     1     -19.814 -19.567  -3.623  1.00  0.00    -0.000 C 
BRANCH  22  23
ATOM     23  C   UNL     1     -18.684 -18.549  -3.392  1.00  0.00    -0.000 C 
BRANCH  23  24
ATOM     24  C   UNL     1     -17.672 -18.509  -4.550  1.00  0.00    -0.000 C 
BRANCH  24  25
ATOM     25  C   UNL     1     -16.608 -17.415  -4.364  1.00  0.00    -0.003 C 
ATOM     26  C   UNL     1     -16.709 -16.720  -3.007  1.00  0.00     0.004 C 
ENDBRANCH  24  25
ENDBRANCH  23  24
ENDBRANCH  22  23
ENDBRANCH  21  22
ENDBRANCH  20  21
ENDBRANCH  19  20
ENDBRANCH  18  19
ENDBRANCH  17  18
ENDBRANCH  16  17
ENDBRANCH  15  16
ENDBRANCH   1  15
TORSDOF 22
ENDMDL
MODEL 3
REMARK VINA RESULT:    -2.806      4.815      8.083
REMARK INTER + INTRA:         -10.826
REMARK INTER:                  -8.056
REMARK INTRA:                  -2.770
REMARK UNBOUND:                -4.410
REMARK SMILES CCCCCCCCCCCCCCCCCCCCCCCC(=O)[O-]
REMARK SMILES IDX 13 1 14 2 15 3 16 4 17 5 18 6 19 7 20 8 21 9 22 10 23 11
REMARK SMILES IDX 24 12 25 13 26 14 12 15 11 16 10 17 9 18 8 19 7 20 6 21 5 22
REMARK SMILES IDX 4 23 3 24 2 25 1 26
REMARK H PARENT
REMARK Flexibility Score: inf
ROOT
ATOM      1  C   UNL     1     -21.546 -26.807  -3.072  1.00  0.00     0.000 C 
ENDROOT
BRANCH   1   2
ATOM      2  C   UNL     1     -22.274 -25.463  -3.251  1.00  0.00     0.000 C 
BRANCH   2   3
ATOM      3  C   UNL     1     -21.755 -24.372  -2.299  1.00  0.00     0.000 C 
BRANCH   3   4
ATOM      4  C   UNL     1     -20.534 -23.629  -2.863  1.00  0.00     0.000 C 
BRANCH   4   5
ATOM      5  C   UNL     1     -20.764 -23.109  -4.294  1.00  0.00     0.000 C 
BRANCH   5   6
ATOM      6  C   UNL     1     -20.018 -21.793  -4.568  1.00  0.00     0.000 C 
BRANCH   6   7
ATOM      7  C   UNL     1     -20.975 -20.617  -4.834  1.00  0.00     0.000 C 
BRANCH   7   8
ATOM      8  C   UNL     1     -20.337 -19.252  -4.527  1.00  0.00     0.000 C 
BRANCH   8   9
ATOM      9  C   UNL     1     -19.010 -19.381  -3.760  1.00  0.00     0.000 C 
BRANCH   9  10
ATOM     10  C   UNL     1     -17.840 -18.677  -4.471  1.00  0.00     0.006 C 
BRANCH  10  11
ATOM     11  C   UNL     1     -17.582 -17.239  -3.994  1.00  0.00     0.053 C 
BRANCH  11  12
ATOM     12  C   UNL     1     -16.182 -17.055  -3.493  1.00  0.00     0.041 C 
ATOM     13  O   UNL     1     -15.203 -17.311  -4.242  1.00  0.00    -0.550 OA
ATOM     14  O   UNL     1     -15.960 -16.585  -2.205  1.00  0.00    -0.550 OA
ENDBRANCH  11  12
ENDBRANCH  10  11
ENDBRANCH   9  10
ENDBRANCH   8   9
ENDBRANCH   7   8
ENDBRANCH   6   7
ENDBRANCH   5   6
ENDBRANCH   4   5
ENDBRANCH   3   4
ENDBRANCH   2   3
ENDBRANCH   1   2
BRANCH   1  15
ATOM     15  C   UNL     1     -20.506 -27.138  -4.164  1.00  0.00     0.000 C 
BRANCH  15  16
ATOM     16  C   UNL     1     -19.034 -27.062  -3.713  1.00  0.00     0.000 C 
BRANCH  16  17
ATOM     17  C   UNL     1     -18.819 -26.655  -2.244  1.00  0.00     0.000 C 
BRANCH  17  18
ATOM     18  C   UNL     1     -17.825 -27.573  -1.513  1.00  0.00    -0.000 C 
BRANCH  18  19
ATOM     19  C   UNL     1     -18.489 -28.417  -0.410  1.00  0.00    -0.000 C 
BRANCH  19  20
ATOM     20  C   UNL     1     -19.588 -29.383  -0.895  1.00  0.00    -0.000 C 
BRANCH  20  21
ATOM     21  C   UNL     1     -20.915 -29.311  -0.112  1.00  0.00    -0.000 C 
BRANCH  21  22
ATOM     22  C   UNL     1     -20.997 -28.175   0.927  1.00  0.00    -0.000 C 
BRANCH  22  23
ATOM     23  C   UNL     1     -21.612 -26.864   0.406  1.00  0.00    -0.000 C 
BRANCH  23  24
ATOM     24  C   UNL     1     -23.057 -26.650   0.891  1.00  0.00    -0.000 C 
BRANCH  24  25
ATOM     25  C   UNL     1     -23.466 -25.169   0.884  1.00  0.00    -0.003 C 
ATOM     26  C   UNL     1     -24.654 -24.890  -0.036  1.00  0.00     0.004 C 
ENDBRANCH  24  25
ENDBRANCH  23  24
ENDBRANCH  22  23
ENDBRANCH  21  22
ENDBRANCH  20  21
ENDBRANCH  19  20
ENDBRANCH  18  19
ENDBRANCH  17  18
ENDBRANCH  16  17
ENDBRANCH  15  16
ENDBRANCH   1  15
TORSDOF 22
ENDMDL
MODEL 4
REMARK VINA RESULT:    -2.781      1.801      3.196
REMARK INTER + INTRA:         -10.768
REMARK INTER:                  -6.358
REMARK INTRA:                  -4.410
REMARK UNBOUND:                -4.410
REMARK SMILES CCCCCCCCCCCCCCCCCCCCCCCC(=O)[O-]
REMARK SMILES IDX 13 1 14 2 15 3 16 4 17 5 18 6 19 7 20 8 21 9 22 10 23 11
REMARK SMILES IDX 24 12 25 13 26 14 12 15 11 16 10 17 9 18 8 19 7 20 6 21 5 22
REMARK SMILES IDX 4 23 3 24 2 25 1 26
REMARK H PARENT
REMARK Flexibility Score: inf
ROOT
ATOM      1  C   UNL     1     -17.687 -28.170  -0.738  1.00  0.00     0.000 C 
ENDROOT
BRANCH   1   2
ATOM      2  C   UNL     1     -19.166 -28.277  -0.326  1.00  0.00     0.000 C 
BRANCH   2   3
ATOM      3  C   UNL     1     -19.804 -29.616  -0.734  1.00  0.00     0.000 C 
BRANCH   3   4
ATOM      4  C   UNL     1     -20.140 -29.678  -2.231  1.00  0.00     0.000 C 
BRANCH   4   5
ATOM      5  C   UNL     1     -21.652 -29.805  -2.497  1.00  0.00     0.000 C 
BRANCH   5   6
ATOM      6  C   UNL     1     -22.500 -29.276  -1.330  1.00  0.00     0.000 C 
BRANCH   6   7
ATOM      7  C   UNL     1     -23.557 -28.253  -1.784  1.00  0.00     0.000 C 
BRANCH   7   8
ATOM      8  C   UNL     1     -23.626 -27.024  -0.865  1.00  0.00     0.000 C 
BRANCH   8   9
ATOM      9  C   UNL     1     -22.239 -26.575  -0.375  1.00  0.00     0.000 C 
BRANCH   9  10
ATOM     10  C   UNL     1     -22.185 -26.365   1.149  1.00  0.00     0.006 C 
BRANCH  10  11
ATOM     11  C   UNL     1     -23.305 -27.074   1.927  1.00  0.00     0.053 C 
BRANCH  11  12
ATOM     12  C   UNL     1     -22.813 -28.303   2.628  1.00  0.00     0.041 C 
ATOM     13  O   UNL     1     -21.954 -29.044   2.080  1.00  0.00    -0.550 OA
ATOM     14  O   UNL     1     -23.289 -28.621   3.894  1.00  0.00    -0.550 OA
ENDBRANCH  11  12
ENDBRANCH  10  11
ENDBRANCH   9  10
ENDBRANCH   8   9
ENDBRANCH   7   8
ENDBRANCH   6   7
ENDBRANCH   5   6
ENDBRANCH   4   5
ENDBRANCH   3   4
ENDBRANCH   2   3
ENDBRANCH   1   2
BRANCH   1  15
ATOM     15  C   UNL     1     -17.387 -27.127  -1.835  1.00  0.00     0.000 C 
BRANCH  15  16
ATOM     16  C   UNL     1     -18.626 -26.447  -2.452  1.00  0.00     0.000 C 
BRANCH  16  17
ATOM     17  C   UNL     1     -18.507 -26.102  -3.947  1.00  0.00     0.000 C 
BRANCH  17  18
ATOM     18  C   UNL     1     -19.846 -26.220  -4.693  1.00  0.00    -0.000 C 
BRANCH  18  19
ATOM     19  C   UNL     1     -21.050 -26.369  -3.745  1.00  0.00    -0.000 C 
BRANCH  19  20
ATOM     20  C   UNL     1     -22.225 -25.410  -4.019  1.00  0.00    -0.000 C 
BRANCH  20  21
ATOM     21  C   UNL     1     -22.140 -24.048  -3.301  1.00  0.00    -0.000 C 
BRANCH  21  22
ATOM     22  C   UNL     1     -23.407 -23.643  -2.521  1.00  0.00    -0.000 C 
BRANCH  22  23
ATOM     23  C   UNL     1     -23.148 -23.066  -1.118  1.00  0.00    -0.000 C 
BRANCH  23  24
ATOM     24  C   UNL     1     -24.445 -22.713  -0.370  1.00  0.00    -0.000 C 
BRANCH  24  25
ATOM     25  C   UNL     1     -24.639 -23.555   0.901  1.00  0.00    -0.003 C 
ATOM     26  C   UNL     1     -25.798 -24.544   0.781  1.00  0.00     0.004 C 
ENDBRANCH  24  25
ENDBRANCH  23  24
ENDBRANCH  22  23
ENDBRANCH  21  22
ENDBRANCH  20  21
ENDBRANCH  19  20
ENDBRANCH  18  19
ENDBRANCH  17  18
ENDBRANCH  16  17
ENDBRANCH  15  16
ENDBRANCH   1  15
TORSDOF 22
ENDMDL
MODEL 5
REMARK VINA RESULT:    -2.757      2.613      3.583
REMARK INTER + INTRA:         -10.712
REMARK INTER:                  -6.679
REMARK INTRA:                  -4.033
REMARK UNBOUND:                -4.410
REMARK SMILES CCCCCCCCCCCCCCCCCCCCCCCC(=O)[O-]
REMARK SMILES IDX 13 1 14 2 15 3 16 4 17 5 18 6 19 7 20 8 21 9 22 10 23 11
REMARK SMILES IDX 24 12 25 13 26 14 12 15 11 16 10 17 9 18 8 19 7 20 6 21 5 22
REMARK SMILES IDX 4 23 3 24 2 25 1 26
REMARK H PARENT
REMARK Flexibility Score: inf
ROOT
ATOM      1  C   UNL     1     -18.997 -26.545  -2.171  1.00  0.00     0.000 C 
ENDROOT
BRANCH   1   2
ATOM      2  C   UNL     1     -17.948 -27.499  -1.572  1.00  0.00     0.000 C 
BRANCH   2   3
ATOM      3  C   UNL     1     -18.479 -28.282  -0.359  1.00  0.00     0.000 C 
BRANCH   3   4
ATOM      4  C   UNL     1     -19.170 -29.594  -0.760  1.00  0.00     0.000 C 
BRANCH   4   5
ATOM      5  C   UNL     1     -20.651 -29.639  -0.341  1.00  0.00     0.000 C 
BRANCH   5   6
ATOM      6  C   UNL     1     -21.097 -28.358   0.382  1.00  0.00     0.000 C 
BRANCH   6   7
ATOM      7  C   UNL     1     -22.135 -27.557  -0.424  1.00  0.00     0.000 C 
BRANCH   7   8
ATOM      8  C   UNL     1     -22.232 -26.090   0.027  1.00  0.00     0.000 C 
BRANCH   8   9
ATOM      9  C   UNL     1     -23.141 -25.911   1.256  1.00  0.00     0.000 C 
BRANCH   9  10
ATOM     10  C   UNL     1     -23.962 -24.610   1.205  1.00  0.00     0.006 C 
BRANCH  10  11
ATOM     11  C   UNL     1     -24.745 -24.405  -0.102  1.00  0.00     0.053 C 
BRANCH  11  12
ATOM     12  C   UNL     1     -24.505 -23.051  -0.694  1.00  0.00     0.041 C 
ATOM     13  O   UNL     1     -23.694 -22.256  -0.150  1.00  0.00    -0.550 OA
ATOM     14  O   UNL     1     -25.164 -22.673  -1.858  1.00  0.00    -0.550 OA
ENDBRANCH  11  12
ENDBRANCH  10  11
ENDBRANCH   9  10
ENDBRANCH   8   9
ENDBRANCH   7   8
ENDBRANCH   6   7
ENDBRANCH   5   6
ENDBRANCH   4   5
ENDBRANCH   3   4
ENDBRANCH   2   3
ENDBRANCH   1   2
BRANCH   1  15
ATOM     15  C   UNL     1     -19.400 -26.848  -3.629  1.00  0.00     0.000 C 
BRANCH  15  16
ATOM     16  C   UNL     1     -20.652 -27.733  -3.795  1.00  0.00     0.000 C 
BRANCH  16  17
ATOM     17  C   UNL     1     -21.786 -27.113  -4.630  1.00  0.00     0.000 C 
BRANCH  17  18
ATOM     18  C   UNL     1     -23.112 -27.020  -3.856  1.00  0.00    -0.000 C 
BRANCH  18  19
ATOM     19  C   UNL     1     -23.462 -25.579  -3.439  1.00  0.00    -0.000 C 
BRANCH  19  20
ATOM     20  C   UNL     1     -23.075 -24.488  -4.458  1.00  0.00    -0.000 C 
BRANCH  20  21
ATOM     21  C   UNL     1     -22.386 -23.247  -3.857  1.00  0.00    -0.000 C 
BRANCH  21  22
ATOM     22  C   UNL     1     -21.370 -23.544  -2.736  1.00  0.00    -0.000 C 
BRANCH  22  23
ATOM     23  C   UNL     1     -19.931 -23.084  -3.028  1.00  0.00    -0.000 C 
BRANCH  23  24
ATOM     24  C   UNL     1     -19.867 -21.944  -4.059  1.00  0.00    -0.000 C 
BRANCH  24  25
ATOM     25  C   UNL     1     -19.962 -20.555  -3.408  1.00  0.00    -0.003 C 
ATOM     26  C   UNL     1     -20.153 -19.436  -4.431  1.00  0.00     0.004 C 
ENDBRANCH  24  25
ENDBRANCH  23  24
ENDBRANCH  22  23
ENDBRANCH  21  22
ENDBRANCH  20  21
ENDBRANCH  19  20
ENDBRANCH  18  19
ENDBRANCH  17  18
ENDBRANCH  16  17
ENDBRANCH  15  16
ENDBRANCH   1  15
TORSDOF 22
ENDMDL
MODEL 6
REMARK VINA RESULT:    -2.745      1.473      2.480
REMARK INTER + INTRA:         -10.687
REMARK INTER:                  -5.753
REMARK INTRA:                  -4.934
REMARK UNBOUND:                -4.410
REMARK SMILES CCCCCCCCCCCCCCCCCCCCCCCC(=O)[O-]
REMARK SMILES IDX 13 1 14 2 15 3 16 4 17 5 18 6 19 7 20 8 21 9 22 10 23 11
REMARK SMILES IDX 24 12 25 13 26 14 12 15 11 16 10 17 9 18 8 19 7 20 6 21 5 22
REMARK SMILES IDX 4 23 3 24 2 25 1 26
REMARK H PARENT
REMARK Flexibility Score: inf
ROOT
ATOM      1  C   UNL     1     -18.299 -27.679  -1.997  1.00  0.00     0.000 C 
ENDROOT
BRANCH   1   2
ATOM      2  C   UNL     1     -18.481 -28.225  -0.569  1.00  0.00     0.000 C 
BRANCH   2   3
ATOM      3  C   UNL     1     -19.375 -29.476  -0.518  1.00  0.00     0.000 C 
BRANCH   3   4
ATOM      4  C   UNL     1     -20.179 -29.680  -1.811  1.00  0.00     0.000 C 
BRANCH   4   5
ATOM      5  C   UNL     1     -21.693 -29.798  -1.558  1.00  0.00     0.000 C 
BRANCH   5   6
ATOM      6  C   UNL     1     -22.509 -28.809  -2.406  1.00  0.00     0.000 C 
BRANCH   6   7
ATOM      7  C   UNL     1     -22.378 -27.358  -1.910  1.00  0.00     0.000 C 
BRANCH   7   8
ATOM      8  C   UNL     1     -22.741 -27.204  -0.424  1.00  0.00     0.000 C 
BRANCH   8   9
ATOM      9  C   UNL     1     -21.668 -26.439   0.369  1.00  0.00     0.000 C 
BRANCH   9  10
ATOM     10  C   UNL     1     -21.253 -27.164   1.661  1.00  0.00     0.006 C 
BRANCH  10  11
ATOM     11  C   UNL     1     -22.035 -28.457   1.942  1.00  0.00     0.053 C 
BRANCH  11  12
ATOM     12  C   UNL     1     -22.326 -28.633   3.401  1.00  0.00     0.041 C 
ATOM     13  O   UNL     1     -23.179 -29.479   3.779  1.00  0.00    -0.550 OA
ATOM     14  O   UNL     1     -21.642 -27.875   4.343  1.00  0.00    -0.550 OA
ENDBRANCH  11  12
ENDBRANCH  10  11
ENDBRANCH   9  10
ENDBRANCH   8   9
ENDBRANCH   7   8
ENDBRANCH   6   7
ENDBRANCH   5   6
ENDBRANCH   4   5
ENDBRANCH   3   4
ENDBRANCH   2   3
ENDBRANCH   1   2
BRANCH   1  15
ATOM     15  C   UNL     1     -18.956 -26.309  -2.263  1.00  0.00     0.000 C 
BRANCH  15  16
ATOM     16  C   UNL     1     -19.359 -26.047  -3.728  1.00  0.00     0.000 C 
BRANCH  16  17
ATOM     17  C   UNL     1     -19.593 -27.310  -4.578  1.00  0.00     0.000 C 
BRANCH  17  18
ATOM     18  C   UNL     1     -20.795 -27.173  -5.528  1.00  0.00    -0.000 C 
BRANCH  18  19
ATOM     19  C   UNL     1     -21.614 -25.893  -5.277  1.00  0.00    -0.000 C 
BRANCH  19  20
ATOM     20  C   UNL     1     -23.144 -26.081  -5.285  1.00  0.00    -0.000 C 
BRANCH  20  21
ATOM     21  C   UNL     1     -23.957 -24.814  -5.616  1.00  0.00    -0.000 C 
BRANCH  21  22
ATOM     22  C   UNL     1     -24.765 -24.232  -4.439  1.00  0.00    -0.000 C 
BRANCH  22  23
ATOM     23  C   UNL     1     -24.041 -23.140  -3.633  1.00  0.00    -0.000 C 
BRANCH  23  24
ATOM     24  C   UNL     1     -23.493 -23.655  -2.290  1.00  0.00    -0.000 C 
BRANCH  24  25
ATOM     25  C   UNL     1     -21.960 -23.766  -2.283  1.00  0.00    -0.003 C 
ATOM     26  C   UNL     1     -21.294 -22.789  -3.251  1.00  0.00     0.004 C 
ENDBRANCH  24  25
ENDBRANCH  23  24
ENDBRANCH  22  23
ENDBRANCH  21  22
ENDBRANCH  20  21
ENDBRANCH  19  20
ENDBRANCH  18  19
ENDBRANCH  17  18
ENDBRANCH  16  17
ENDBRANCH  15  16
ENDBRANCH   1  15
TORSDOF 22
ENDMDL
MODEL 7
REMARK VINA RESULT:    -2.744      1.467      3.997
REMARK INTER + INTRA:         -10.684
REMARK INTER:                  -5.837
REMARK INTRA:                  -4.847
REMARK UNBOUND:                -4.410
REMARK SMILES CCCCCCCCCCCCCCCCCCCCCCCC(=O)[O-]
REMARK SMILES IDX 13 1 14 2 15 3 16 4 17 5 18 6 19 7 20 8 21 9 22 10 23 11
REMARK SMILES IDX 24 12 25 13 26 14 12 15 11 16 10 17 9 18 8 19 7 20 6 21 5 22
REMARK SMILES IDX 4 23 3 24 2 25 1 26
REMARK H PARENT
REMARK Flexibility Score: inf
ROOT
ATOM      1  C   UNL     1     -23.827 -26.164  -1.920  1.00  0.00     0.000 C 
ENDROOT
BRANCH   1   2
ATOM      2  C   UNL     1     -22.783 -25.670  -0.902  1.00  0.00     0.000 C 
BRANCH   2   3
ATOM      3  C   UNL     1     -23.411 -24.888   0.264  1.00  0.00     0.000 C 
BRANCH   3   4
ATOM      4  C   UNL     1     -24.859 -25.316   0.550  1.00  0.00     0.000 C 
BRANCH   4   5
ATOM      5  C   UNL     1     -25.136 -25.512   2.052  1.00  0.00     0.000 C 
BRANCH   5   6
ATOM      6  C   UNL     1     -25.204 -26.996   2.448  1.00  0.00     0.000 C 
BRANCH   6   7
ATOM      7  C   UNL     1     -25.200 -27.933   1.227  1.00  0.00     0.000 C 
BRANCH   7   8
ATOM      8  C   UNL     1     -23.949 -28.824   1.167  1.00  0.00     0.000 C 
BRANCH   8   9
ATOM      9  C   UNL     1     -22.962 -28.532   2.310  1.00  0.00     0.000 C 
BRANCH   9  10
ATOM     10  C   UNL     1     -21.634 -27.934   1.813  1.00  0.00     0.006 C 
BRANCH  10  11
ATOM     11  C   UNL     1     -21.268 -26.584   2.450  1.00  0.00     0.053 C 
BRANCH  11  12
ATOM     12  C   UNL     1     -21.515 -26.573   3.927  1.00  0.00     0.041 C 
ATOM     13  O   UNL     1     -20.820 -27.295   4.690  1.00  0.00    -0.550 OA
ATOM     14  O   UNL     1     -22.501 -25.754   4.462  1.00  0.00    -0.550 OA
ENDBRANCH  11  12
ENDBRANCH  10  11
ENDBRANCH   9  10
ENDBRANCH   8   9
ENDBRANCH   7   8
ENDBRANCH   6   7
ENDBRANCH   5   6
ENDBRANCH   4   5
ENDBRANCH   3   4
ENDBRANCH   2   3
ENDBRANCH   1   2
BRANCH   1  15
ATOM     15  C   UNL     1     -23.745 -27.666  -2.265  1.00  0.00     0.000 C 
BRANCH  15  16
ATOM     16  C   UNL     1     -22.332 -28.188  -2.596  1.00  0.00     0.000 C 
BRANCH  16  17
ATOM     17  C   UNL     1     -21.893 -29.434  -1.805  1.00  0.00     0.000 C 
BRANCH  17  18
ATOM     18  C   UNL     1     -20.409 -29.778  -2.014  1.00  0.00    -0.000 C 
BRANCH  18  19
ATOM     19  C   UNL     1     -19.597 -29.747  -0.706  1.00  0.00    -0.000 C 
BRANCH  19  20
ATOM     20  C   UNL     1     -18.548 -28.622  -0.611  1.00  0.00    -0.000 C 
BRANCH  20  21
ATOM     21  C   UNL     1     -19.006 -27.252  -1.148  1.00  0.00    -0.000 C 
BRANCH  21  22
ATOM     22  C   UNL     1     -18.289 -26.781  -2.429  1.00  0.00    -0.000 C 
BRANCH  22  23
ATOM     23  C   UNL     1     -19.205 -26.141  -3.487  1.00  0.00    -0.000 C 
BRANCH  23  24
ATOM     24  C   UNL     1     -19.791 -24.794  -3.031  1.00  0.00    -0.000 C 
BRANCH  24  25
ATOM     25  C   UNL     1     -21.042 -24.396  -3.830  1.00  0.00    -0.003 C 
ATOM     26  C   UNL     1     -21.417 -25.429  -4.892  1.00  0.00     0.004 C 
ENDBRANCH  24  25
ENDBRANCH  23  24
ENDBRANCH  22  23
ENDBRANCH  21  22
ENDBRANCH  20  21
ENDBRANCH  19  20
ENDBRANCH  18  19
ENDBRANCH  17  18
ENDBRANCH  16  17
ENDBRANCH  15  16
ENDBRANCH   1  15
TORSDOF 22
ENDMDL
MODEL 8
REMARK VINA RESULT:    -2.730      3.597      6.363
REMARK INTER + INTRA:         -10.652
REMARK INTER:                  -6.442
REMARK INTRA:                  -4.209
REMARK UNBOUND:                -4.410
REMARK SMILES CCCCCCCCCCCCCCCCCCCCCCCC(=O)[O-]
REMARK SMILES IDX 13 1 14 2 15 3 16 4 17 5 18 6 19 7 20 8 21 9 22 10 23 11
REMARK SMILES IDX 24 12 25 13 26 14 12 15 11 16 10 17 9 18 8 19 7 20 6 21 5 22
REMARK SMILES IDX 4 23 3 24 2 25 1 26
REMARK H PARENT
REMARK Flexibility Score: inf
ROOT
ATOM      1  C   UNL     1     -17.951 -27.509  -1.513  1.00  0.00     0.000 C 
ENDROOT
BRANCH   1   2
ATOM      2  C   UNL     1     -18.952 -26.599  -2.247  1.00  0.00     0.000 C 
BRANCH   2   3
ATOM      3  C   UNL     1     -18.466 -26.185  -3.646  1.00  0.00     0.000 C 
BRANCH   3   4
ATOM      4  C   UNL     1     -19.288 -26.832  -4.772  1.00  0.00     0.000 C 
BRANCH   4   5
ATOM      5  C   UNL     1     -19.839 -25.802  -5.775  1.00  0.00     0.000 C 
BRANCH   5   6
ATOM      6  C   UNL     1     -21.375 -25.749  -5.778  1.00  0.00     0.000 C 
BRANCH   6   7
ATOM      7  C   UNL     1     -21.922 -24.437  -5.188  1.00  0.00     0.000 C 
BRANCH   7   8
ATOM      8  C   UNL     1     -21.994 -24.463  -3.653  1.00  0.00     0.000 C 
BRANCH   8   9
ATOM      9  C   UNL     1     -21.064 -23.424  -3.002  1.00  0.00     0.000 C 
BRANCH   9  10
ATOM     10  C   UNL     1     -20.354 -22.530  -4.034  1.00  0.00     0.006 C 
BRANCH  10  11
ATOM     11  C   UNL     1     -19.683 -21.283  -3.438  1.00  0.00     0.053 C 
BRANCH  11  12
ATOM     12  C   UNL     1     -19.731 -20.116  -4.374  1.00  0.00     0.041 C 
ATOM     13  O   UNL     1     -18.675 -19.497  -4.672  1.00  0.00    -0.550 OA
ATOM     14  O   UNL     1     -20.941 -19.721  -4.934  1.00  0.00    -0.550 OA
ENDBRANCH  11  12
ENDBRANCH  10  11
ENDBRANCH   9  10
ENDBRANCH   8   9
ENDBRANCH   7   8
ENDBRANCH   6   7
ENDBRANCH   5   6
ENDBRANCH   4   5
ENDBRANCH   3   4
ENDBRANCH   2   3
ENDBRANCH   1   2
BRANCH   1  15
ATOM     15  C   UNL     1     -18.549 -28.347  -0.364  1.00  0.00     0.000 C 
BRANCH  15  16
ATOM     16  C   UNL     1     -19.272 -29.637  -0.799  1.00  0.00     0.000 C 
BRANCH  16  17
ATOM     17  C   UNL     1     -20.746 -29.738  -0.368  1.00  0.00     0.000 C 
BRANCH  17  18
ATOM     18  C   UNL     1     -21.690 -30.044  -1.543  1.00  0.00    -0.000 C 
BRANCH  18  19
ATOM     19  C   UNL     1     -21.361 -29.223  -2.804  1.00  0.00    -0.000 C 
BRANCH  19  20
ATOM     20  C   UNL     1     -22.410 -28.162  -3.189  1.00  0.00    -0.000 C 
BRANCH  20  21
ATOM     21  C   UNL     1     -23.632 -28.079  -2.252  1.00  0.00    -0.000 C 
BRANCH  21  22
ATOM     22  C   UNL     1     -23.772 -26.752  -1.480  1.00  0.00    -0.000 C 
BRANCH  22  23
ATOM     23  C   UNL     1     -23.365 -26.819   0.003  1.00  0.00    -0.000 C 
BRANCH  23  24
ATOM     24  C   UNL     1     -21.971 -26.224   0.266  1.00  0.00    -0.000 C 
BRANCH  24  25
ATOM     25  C   UNL     1     -21.314 -26.800   1.530  1.00  0.00    -0.003 C 
ATOM     26  C   UNL     1     -22.309 -27.531   2.430  1.00  0.00     0.004 C 
ENDBRANCH  24  25
ENDBRANCH  23  24
ENDBRANCH  22  23
ENDBRANCH  21  22
ENDBRANCH  20  21
ENDBRANCH  19  20
ENDBRANCH  18  19
ENDBRANCH  17  18
ENDBRANCH  16  17
ENDBRANCH  15  16
ENDBRANCH   1  15
TORSDOF 22
ENDMDL
MODEL 9
REMARK VINA RESULT:    -2.708      3.333      5.894
REMARK INTER + INTRA:         -10.601
REMARK INTER:                  -5.939
REMARK INTRA:                  -4.661
REMARK UNBOUND:                -4.410
REMARK SMILES CCCCCCCCCCCCCCCCCCCCCCCC(=O)[O-]
REMARK SMILES IDX 13 1 14 2 15 3 16 4 17 5 18 6 19 7 20 8 21 9 22 10 23 11
REMARK SMILES IDX 24 12 25 13 26 14 12 15 11 16 10 17 9 18 8 19 7 20 6 21 5 22
REMARK SMILES IDX 4 23 3 24 2 25 1 26
REMARK H PARENT
REMARK Flexibility Score: inf
ROOT
ATOM      1  C   UNL     1     -19.391 -29.544  -0.619  1.00  0.00     0.000 C 
ENDROOT
BRANCH   1   2
ATOM      2  C   UNL     1     -20.837 -29.499  -0.093  1.00  0.00     0.000 C 
BRANCH   2   3
ATOM      3  C   UNL     1     -21.135 -28.229   0.722  1.00  0.00     0.000 C 
BRANCH   3   4
ATOM      4  C   UNL     1     -22.330 -27.439   0.167  1.00  0.00     0.000 C 
BRANCH   4   5
ATOM      5  C   UNL     1     -21.918 -26.084  -0.438  1.00  0.00     0.000 C 
BRANCH   5   6
ATOM      6  C   UNL     1     -23.091 -25.094  -0.517  1.00  0.00     0.000 C 
BRANCH   6   7
ATOM      7  C   UNL     1     -22.920 -24.065  -1.649  1.00  0.00     0.000 C 
BRANCH   7   8
ATOM      8  C   UNL     1     -21.601 -24.245  -2.419  1.00  0.00     0.000 C 
BRANCH   8   9
ATOM      9  C   UNL     1     -21.783 -24.100  -3.940  1.00  0.00     0.000 C 
BRANCH   9  10
ATOM     10  C   UNL     1     -20.850 -23.041  -4.553  1.00  0.00     0.006 C 
BRANCH  10  11
ATOM     11  C   UNL     1     -19.917 -22.356  -3.542  1.00  0.00     0.053 C 
BRANCH  11  12
ATOM     12  C   UNL     1     -19.617 -20.939  -3.923  1.00  0.00     0.041 C 
ATOM     13  O   UNL     1     -19.807 -20.007  -3.097  1.00  0.00    -0.550 OA
ATOM     14  O   UNL     1     -19.112 -20.649  -5.184  1.00  0.00    -0.550 OA
ENDBRANCH  11  12
ENDBRANCH  10  11
ENDBRANCH   9  10
ENDBRANCH   8   9
ENDBRANCH   7   8
ENDBRANCH   6   7
ENDBRANCH   5   6
ENDBRANCH   4   5
ENDBRANCH   3   4
ENDBRANCH   2   3
ENDBRANCH   1   2
BRANCH   1  15
ATOM     15  C   UNL     1     -18.564 -28.265  -0.374  1.00  0.00     0.000 C 
BRANCH  15  16
ATOM     16  C   UNL     1     -17.942 -27.632  -1.634  1.00  0.00     0.000 C 
BRANCH  16  17
ATOM     17  C   UNL     1     -18.721 -26.442  -2.222  1.00  0.00     0.000 C 
BRANCH  17  18
ATOM     18  C   UNL     1     -18.870 -26.524  -3.750  1.00  0.00    -0.000 C 
BRANCH  18  19
ATOM     19  C   UNL     1     -19.744 -27.708  -4.204  1.00  0.00    -0.000 C 
BRANCH  19  20
ATOM     20  C   UNL     1     -21.147 -27.770  -3.569  1.00  0.00    -0.000 C 
BRANCH  20  21
ATOM     21  C   UNL     1     -21.790 -29.170  -3.536  1.00  0.00    -0.000 C 
BRANCH  21  22
ATOM     22  C   UNL     1     -23.299 -29.202  -3.852  1.00  0.00    -0.000 C 
BRANCH  22  23
ATOM     23  C   UNL     1     -24.219 -28.922  -2.651  1.00  0.00    -0.000 C 
BRANCH  23  24
ATOM     24  C   UNL     1     -24.753 -27.480  -2.634  1.00  0.00    -0.000 C 
BRANCH  24  25
ATOM     25  C   UNL     1     -24.657 -26.800  -4.008  1.00  0.00    -0.003 C 
ATOM     26  C   UNL     1     -25.334 -25.430  -4.038  1.00  0.00     0.004 C 
ENDBRANCH  24  25
ENDBRANCH  23  24
ENDBRANCH  22  23
ENDBRANCH  21  22
ENDBRANCH  20  21
ENDBRANCH  19  20
ENDBRANCH  18  19
ENDBRANCH  17  18
ENDBRANCH  16  17
ENDBRANCH  15  16
ENDBRANCH   1  15
TORSDOF 22
ENDMDL
