MODEL 1
REMARK VINA RESULT:    -1.838      0.000      0.000
REMARK INTER + INTRA:          -4.109
REMARK INTER:                  -3.396
REMARK INTRA:                  -0.713
REMARK UNBOUND:                -0.713
REMARK SMILES CCCCCCCCCCCCCCCCO
REMARK SMILES IDX 9 1 8 2 7 3 6 4 5 5 4 6 3 7 2 8 1 9 10 10 11 11 12 12 13 13
REMARK SMILES IDX 14 14 15 15 16 16 17 17
REMARK H PARENT 17 18
REMARK Flexibility Score: inf
ROOT
ATOM      1  C   UNL     1      33.954 -16.616 -27.997  1.00  0.00     0.000 C 
ENDROOT
BRANCH   1   2
ATOM      2  C   UNL     1      34.003 -18.154 -27.965  1.00  0.00    -0.000 C 
BRANCH   2   3
ATOM      3  C   UNL     1      32.612 -18.786 -27.801  1.00  0.00    -0.000 C 
BRANCH   3   4
ATOM      4  C   UNL     1      31.486 -17.895 -28.351  1.00  0.00    -0.000 C 
BRANCH   4   5
ATOM      5  C   UNL     1      31.066 -18.347 -29.755  1.00  0.00    -0.000 C 
BRANCH   5   6
ATOM      6  C   UNL     1      30.793 -19.858 -29.788  1.00  0.00    -0.000 C 
BRANCH   6   7
ATOM      7  C   UNL     1      31.943 -20.662 -30.422  1.00  0.00    -0.000 C 
BRANCH   7   8
ATOM      8  C   UNL     1      32.886 -19.842 -31.321  1.00  0.00    -0.003 C 
ATOM      9  C   UNL     1      34.332 -19.839 -30.826  1.00  0.00     0.004 C 
ENDBRANCH   7   8
ENDBRANCH   6   7
ENDBRANCH   5   6
ENDBRANCH   4   5
ENDBRANCH   3   4
ENDBRANCH   2   3
ENDBRANCH   1   2
BRANCH   1  10
ATOM     10  C   UNL     1      35.012 -16.011 -28.935  1.00  0.00     0.000 C 
BRANCH  10  11
ATOM     11  C   UNL     1      36.157 -16.992 -29.244  1.00  0.00     0.000 C 
BRANCH  11  12
ATOM     12  C   UNL     1      36.948 -16.596 -30.501  1.00  0.00     0.000 C 
BRANCH  12  13
ATOM     13  C   UNL     1      36.631 -17.493 -31.710  1.00  0.00     0.000 C 
BRANCH  13  14
ATOM     14  C   UNL     1      37.347 -18.852 -31.640  1.00  0.00     0.002 C 
BRANCH  14  15
ATOM     15  C   UNL     1      38.264 -18.974 -30.413  1.00  0.00     0.028 C 
BRANCH  15  16
ATOM     16  C   UNL     1      38.362 -20.418 -29.913  1.00  0.00     0.156 C 
BRANCH  16  17
ATOM     17  O   UNL     1      39.294 -21.143 -30.672  1.00  0.00    -0.396 OA
ATOM     18  H   UNL     1      39.470 -20.616 -31.494  1.00  0.00     0.210 HD
ENDBRANCH  16  17
ENDBRANCH  15  16
ENDBRANCH  14  15
ENDBRANCH  13  14
ENDBRANCH  12  13
ENDBRANCH  11  12
ENDBRANCH  10  11
ENDBRANCH   1  10
TORSDOF 15
ENDMDL
MODEL 2
REMARK VINA RESULT:    -1.362      1.048      3.619
REMARK INTER + INTRA:          -3.229
REMARK INTER:                  -1.966
REMARK INTRA:                  -1.263
REMARK UNBOUND:                -0.713
REMARK SMILES CCCCCCCCCCCCCCCCO
REMARK SMILES IDX 9 1 8 2 7 3 6 4 5 5 4 6 3 7 2 8 1 9 10 10 11 11 12 12 13 13
REMARK SMILES IDX 14 14 15 15 16 16 17 17
REMARK H PARENT 17 18
REMARK Flexibility Score: inf
ROOT
ATOM      1  C   UNL     1      32.824 -20.609 -30.689  1.00  0.00     0.000 C 
ENDROOT
BRANCH   1   2
ATOM      2  C   UNL     1      31.387 -20.065 -30.596  1.00  0.00    -0.000 C 
BRANCH   2   3
ATOM      3  C   UNL     1      31.238 -18.971 -29.527  1.00  0.00    -0.000 C 
BRANCH   3   4
ATOM      4  C   UNL     1      31.710 -19.430 -28.138  1.00  0.00    -0.000 C 
BRANCH   4   5
ATOM      5  C   UNL     1      32.880 -18.570 -27.644  1.00  0.00    -0.000 C 
BRANCH   5   6
ATOM      6  C   UNL     1      32.927 -17.226 -28.389  1.00  0.00    -0.000 C 
BRANCH   6   7
ATOM      7  C   UNL     1      33.998 -16.270 -27.833  1.00  0.00    -0.000 C 
BRANCH   7   8
ATOM      8  C   UNL     1      34.835 -15.545 -28.902  1.00  0.00    -0.003 C 
ATOM      9  C   UNL     1      34.483 -14.064 -29.035  1.00  0.00     0.004 C 
ENDBRANCH   7   8
ENDBRANCH   6   7
ENDBRANCH   5   6
ENDBRANCH   4   5
ENDBRANCH   3   4
ENDBRANCH   2   3
ENDBRANCH   1   2
BRANCH   1  10
ATOM     10  C   UNL     1      33.664 -19.874 -31.748  1.00  0.00     0.000 C 
BRANCH  10  11
ATOM     11  C   UNL     1      34.748 -18.978 -31.124  1.00  0.00     0.000 C 
BRANCH  11  12
ATOM     12  C   UNL     1      35.128 -19.418 -29.701  1.00  0.00     0.000 C 
BRANCH  12  13
ATOM     13  C   UNL     1      36.321 -18.630 -29.133  1.00  0.00     0.000 C 
BRANCH  13  14
ATOM     14  C   UNL     1      37.176 -17.980 -30.233  1.00  0.00     0.002 C 
BRANCH  14  15
ATOM     15  C   UNL     1      38.126 -18.980 -30.910  1.00  0.00     0.028 C 
BRANCH  15  16
ATOM     16  C   UNL     1      38.621 -20.051 -29.934  1.00  0.00     0.156 C 
BRANCH  16  17
ATOM     17  O   UNL     1      39.242 -21.104 -30.624  1.00  0.00    -0.396 OA
ATOM     18  H   UNL     1      38.619 -21.875 -30.594  1.00  0.00     0.210 HD
ENDBRANCH  16  17
ENDBRANCH  15  16
ENDBRANCH  14  15
ENDBRANCH  13  14
ENDBRANCH  12  13
ENDBRANCH  11  12
ENDBRANCH  10  11
ENDBRANCH   1  10
TORSDOF 15
ENDMDL
MODEL 3
REMARK VINA RESULT:    -1.331      0.493      1.404
REMARK INTER + INTRA:          -3.173
REMARK INTER:                  -2.364
REMARK INTRA:                  -0.809
REMARK UNBOUND:                -0.713
REMARK SMILES CCCCCCCCCCCCCCCCO
REMARK SMILES IDX 9 1 8 2 7 3 6 4 5 5 4 6 3 7 2 8 1 9 10 10 11 11 12 12 13 13
REMARK SMILES IDX 14 14 15 15 16 16 17 17
REMARK H PARENT 17 18
REMARK Flexibility Score: inf
ROOT
ATOM      1  C   UNL     1      33.898 -18.018 -27.815  1.00  0.00     0.000 C 
ENDROOT
BRANCH   1   2
ATOM      2  C   UNL     1      32.420 -18.442 -27.851  1.00  0.00    -0.000 C 
BRANCH   2   3
ATOM      3  C   UNL     1      31.588 -17.601 -28.832  1.00  0.00    -0.000 C 
BRANCH   3   4
ATOM      4  C   UNL     1      30.908 -18.452 -29.916  1.00  0.00    -0.000 C 
BRANCH   4   5
ATOM      5  C   UNL     1      30.910 -19.936 -29.530  1.00  0.00    -0.000 C 
BRANCH   5   6
ATOM      6  C   UNL     1      31.966 -20.712 -30.333  1.00  0.00    -0.000 C 
BRANCH   6   7
ATOM      7  C   UNL     1      32.519 -19.912 -31.526  1.00  0.00    -0.000 C 
BRANCH   7   8
ATOM      8  C   UNL     1      34.010 -19.544 -31.423  1.00  0.00    -0.003 C 
ATOM      9  C   UNL     1      34.642 -19.974 -30.100  1.00  0.00     0.004 C 
ENDBRANCH   7   8
ENDBRANCH   6   7
ENDBRANCH   5   6
ENDBRANCH   4   5
ENDBRANCH   3   4
ENDBRANCH   2   3
ENDBRANCH   1   2
BRANCH   1  10
ATOM     10  C   UNL     1      34.084 -16.507 -28.036  1.00  0.00     0.000 C 
BRANCH  10  11
ATOM     11  C   UNL     1      35.158 -16.193 -29.093  1.00  0.00     0.000 C 
BRANCH  11  12
ATOM     12  C   UNL     1      36.264 -17.258 -29.142  1.00  0.00     0.000 C 
BRANCH  12  13
ATOM     13  C   UNL     1      37.281 -17.008 -30.270  1.00  0.00     0.000 C 
BRANCH  13  14
ATOM     14  C   UNL     1      36.977 -17.832 -31.532  1.00  0.00     0.002 C 
BRANCH  14  15
ATOM     15  C   UNL     1      37.721 -19.176 -31.552  1.00  0.00     0.028 C 
BRANCH  15  16
ATOM     16  C   UNL     1      38.290 -19.536 -30.177  1.00  0.00     0.156 C 
BRANCH  16  17
ATOM     17  O   UNL     1      39.064 -20.705 -30.251  1.00  0.00    -0.396 OA
ATOM     18  H   UNL     1      40.014 -20.427 -30.183  1.00  0.00     0.210 HD
ENDBRANCH  16  17
ENDBRANCH  15  16
ENDBRANCH  14  15
ENDBRANCH  13  14
ENDBRANCH  12  13
ENDBRANCH  11  12
ENDBRANCH  10  11
ENDBRANCH   1  10
TORSDOF 15
ENDMDL
MODEL 4
REMARK VINA RESULT:    -1.308      0.815      3.349
REMARK INTER + INTRA:          -3.130
REMARK INTER:                  -1.803
REMARK INTRA:                  -1.327
REMARK UNBOUND:                -0.713
REMARK SMILES CCCCCCCCCCCCCCCCO
REMARK SMILES IDX 9 1 8 2 7 3 6 4 5 5 4 6 3 7 2 8 1 9 10 10 11 11 12 12 13 13
REMARK SMILES IDX 14 14 15 15 16 16 17 17
REMARK H PARENT 17 18
REMARK Flexibility Score: inf
ROOT
ATOM      1  C   UNL     1      32.900 -20.620 -30.749  1.00  0.00     0.000 C 
ENDROOT
BRANCH   1   2
ATOM      2  C   UNL     1      31.486 -20.244 -30.273  1.00  0.00    -0.000 C 
BRANCH   2   3
ATOM      3  C   UNL     1      31.318 -18.731 -30.059  1.00  0.00    -0.000 C 
BRANCH   3   4
ATOM      4  C   UNL     1      31.477 -18.318 -28.587  1.00  0.00    -0.000 C 
BRANCH   4   5
ATOM      5  C   UNL     1      32.591 -19.125 -27.909  1.00  0.00    -0.000 C 
BRANCH   5   6
ATOM      6  C   UNL     1      33.885 -18.302 -27.810  1.00  0.00    -0.000 C 
BRANCH   6   7
ATOM      7  C   UNL     1      33.658 -16.798 -28.043  1.00  0.00    -0.000 C 
BRANCH   7   8
ATOM      8  C   UNL     1      34.937 -15.984 -28.313  1.00  0.00    -0.003 C 
ATOM      9  C   UNL     1      34.668 -14.677 -29.057  1.00  0.00     0.004 C 
ENDBRANCH   7   8
ENDBRANCH   6   7
ENDBRANCH   5   6
ENDBRANCH   4   5
ENDBRANCH   3   4
ENDBRANCH   2   3
ENDBRANCH   1   2
BRANCH   1  10
ATOM     10  C   UNL     1      33.603 -19.464 -31.481  1.00  0.00     0.000 C 
BRANCH  10  11
ATOM     11  C   UNL     1      34.968 -19.115 -30.861  1.00  0.00     0.000 C 
BRANCH  11  12
ATOM     12  C   UNL     1      35.767 -18.122 -31.720  1.00  0.00     0.000 C 
BRANCH  12  13
ATOM     13  C   UNL     1      36.664 -17.197 -30.879  1.00  0.00     0.000 C 
BRANCH  13  14
ATOM     14  C   UNL     1      37.480 -17.965 -29.826  1.00  0.00     0.002 C 
BRANCH  14  15
ATOM     15  C   UNL     1      38.502 -18.924 -30.456  1.00  0.00     0.028 C 
BRANCH  15  16
ATOM     16  C   UNL     1      38.340 -20.355 -29.936  1.00  0.00     0.156 C 
BRANCH  16  17
ATOM     17  O   UNL     1      39.258 -21.216 -30.557  1.00  0.00    -0.396 OA
ATOM     18  H   UNL     1      39.066 -21.190 -31.530  1.00  0.00     0.210 HD
ENDBRANCH  16  17
ENDBRANCH  15  16
ENDBRANCH  14  15
ENDBRANCH  13  14
ENDBRANCH  12  13
ENDBRANCH  11  12
ENDBRANCH  10  11
ENDBRANCH   1  10
TORSDOF 15
ENDMDL
MODEL 5
REMARK VINA RESULT:    -1.039      1.212      5.127
REMARK INTER + INTRA:          -2.634
REMARK INTER:                  -2.132
REMARK INTRA:                  -0.502
REMARK UNBOUND:                -0.713
REMARK SMILES CCCCCCCCCCCCCCCCO
REMARK SMILES IDX 9 1 8 2 7 3 6 4 5 5 4 6 3 7 2 8 1 9 10 10 11 11 12 12 13 13
REMARK SMILES IDX 14 14 15 15 16 16 17 17
REMARK H PARENT 17 18
REMARK Flexibility Score: inf
ROOT
ATOM      1  C   UNL     1      34.030 -18.159 -27.866  1.00  0.00     0.000 C 
ENDROOT
BRANCH   1   2
ATOM      2  C   UNL     1      34.024 -16.630 -28.037  1.00  0.00    -0.000 C 
BRANCH   2   3
ATOM      3  C   UNL     1      35.201 -16.127 -28.888  1.00  0.00    -0.000 C 
BRANCH   3   4
ATOM      4  C   UNL     1      36.165 -17.253 -29.293  1.00  0.00    -0.000 C 
BRANCH   4   5
ATOM      5  C   UNL     1      37.053 -16.818 -30.466  1.00  0.00    -0.000 C 
BRANCH   5   6
ATOM      6  C   UNL     1      36.833 -17.723 -31.688  1.00  0.00    -0.000 C 
BRANCH   6   7
ATOM      7  C   UNL     1      37.673 -19.012 -31.638  1.00  0.00    -0.000 C 
BRANCH   7   8
ATOM      8  C   UNL     1      38.264 -19.347 -30.256  1.00  0.00    -0.003 C 
ATOM      9  C   UNL     1      39.008 -20.680 -30.231  1.00  0.00     0.004 C 
ENDBRANCH   7   8
ENDBRANCH   6   7
ENDBRANCH   5   6
ENDBRANCH   4   5
ENDBRANCH   3   4
ENDBRANCH   2   3
ENDBRANCH   1   2
BRANCH   1  10
ATOM     10  C   UNL     1      32.612 -18.748 -27.772  1.00  0.00     0.000 C 
BRANCH  10  11
ATOM     11  C   UNL     1      31.552 -17.842 -28.423  1.00  0.00     0.000 C 
BRANCH  11  12
ATOM     12  C   UNL     1      30.967 -18.452 -29.707  1.00  0.00     0.000 C 
BRANCH  12  13
ATOM     13  C   UNL     1      30.914 -19.989 -29.665  1.00  0.00     0.000 C 
BRANCH  13  14
ATOM     14  C   UNL     1      32.013 -20.640 -30.521  1.00  0.00     0.002 C 
BRANCH  14  15
ATOM     15  C   UNL     1      32.630 -19.662 -31.533  1.00  0.00     0.028 C 
BRANCH  15  16
ATOM     16  C   UNL     1      34.158 -19.755 -31.560  1.00  0.00     0.156 C 
BRANCH  16  17
ATOM     17  O   UNL     1      34.666 -19.961 -30.267  1.00  0.00    -0.396 OA
ATOM     18  H   UNL     1      34.075 -20.626 -29.828  1.00  0.00     0.210 HD
ENDBRANCH  16  17
ENDBRANCH  15  16
ENDBRANCH  14  15
ENDBRANCH  13  14
ENDBRANCH  12  13
ENDBRANCH  11  12
ENDBRANCH  10  11
ENDBRANCH   1  10
TORSDOF 15
ENDMDL
MODEL 6
REMARK VINA RESULT:    -1.001      0.815      2.051
REMARK INTER + INTRA:          -2.562
REMARK INTER:                  -1.260
REMARK INTRA:                  -1.303
REMARK UNBOUND:                -0.713
REMARK SMILES CCCCCCCCCCCCCCCCO
REMARK SMILES IDX 9 1 8 2 7 3 6 4 5 5 4 6 3 7 2 8 1 9 10 10 11 11 12 12 13 13
REMARK SMILES IDX 14 14 15 15 16 16 17 17
REMARK H PARENT 17 18
REMARK Flexibility Score: inf
ROOT
ATOM      1  C   UNL     1      33.958 -17.366 -28.281  1.00  0.00     0.000 C 
ENDROOT
BRANCH   1   2
ATOM      2  C   UNL     1      34.672 -18.700 -27.999  1.00  0.00    -0.000 C 
BRANCH   2   3
ATOM      3  C   UNL     1      34.938 -19.508 -29.279  1.00  0.00    -0.000 C 
BRANCH   3   4
ATOM      4  C   UNL     1      34.069 -19.052 -30.461  1.00  0.00    -0.000 C 
BRANCH   4   5
ATOM      5  C   UNL     1      33.245 -20.219 -31.018  1.00  0.00    -0.000 C 
BRANCH   5   6
ATOM      6  C   UNL     1      31.825 -20.220 -30.431  1.00  0.00    -0.000 C 
BRANCH   6   7
ATOM      7  C   UNL     1      31.286 -18.803 -30.165  1.00  0.00    -0.000 C 
BRANCH   7   8
ATOM      8  C   UNL     1      31.074 -18.460 -28.679  1.00  0.00    -0.003 C 
ATOM      9  C   UNL     1      31.282 -19.658 -27.753  1.00  0.00     0.004 C 
ENDBRANCH   7   8
ENDBRANCH   6   7
ENDBRANCH   5   6
ENDBRANCH   4   5
ENDBRANCH   3   4
ENDBRANCH   2   3
ENDBRANCH   1   2
BRANCH   1  10
ATOM     10  C   UNL     1      34.928 -16.172 -28.301  1.00  0.00     0.000 C 
BRANCH  10  11
ATOM     11  C   UNL     1      35.469 -15.874 -29.711  1.00  0.00     0.000 C 
BRANCH  11  12
ATOM     12  C   UNL     1      36.823 -16.551 -29.977  1.00  0.00     0.000 C 
BRANCH  12  13
ATOM     13  C   UNL     1      36.917 -17.160 -31.387  1.00  0.00     0.000 C 
BRANCH  13  14
ATOM     14  C   UNL     1      37.402 -18.618 -31.369  1.00  0.00     0.002 C 
BRANCH  14  15
ATOM     15  C   UNL     1      38.362 -18.906 -30.204  1.00  0.00     0.028 C 
BRANCH  15  16
ATOM     16  C   UNL     1      38.448 -20.402 -29.890  1.00  0.00     0.156 C 
BRANCH  16  17
ATOM     17  O   UNL     1      39.221 -21.069 -30.853  1.00  0.00    -0.396 OA
ATOM     18  H   UNL     1      40.130 -21.176 -30.470  1.00  0.00     0.210 HD
ENDBRANCH  16  17
ENDBRANCH  15  16
ENDBRANCH  14  15
ENDBRANCH  13  14
ENDBRANCH  12  13
ENDBRANCH  11  12
ENDBRANCH  10  11
ENDBRANCH   1  10
TORSDOF 15
ENDMDL
MODEL 7
REMARK VINA RESULT:    -0.797      2.195      5.592
REMARK INTER + INTRA:          -2.186
REMARK INTER:                  -1.052
REMARK INTRA:                  -1.135
REMARK UNBOUND:                -0.713
REMARK SMILES CCCCCCCCCCCCCCCCO
REMARK SMILES IDX 9 1 8 2 7 3 6 4 5 5 4 6 3 7 2 8 1 9 10 10 11 11 12 12 13 13
REMARK SMILES IDX 14 14 15 15 16 16 17 17
REMARK H PARENT 17 18
REMARK Flexibility Score: inf
ROOT
ATOM      1  C   UNL     1      32.431 -20.631 -30.510  1.00  0.00     0.000 C 
ENDROOT
BRANCH   1   2
ATOM      2  C   UNL     1      33.140 -19.739 -31.545  1.00  0.00    -0.000 C 
BRANCH   2   3
ATOM      3  C   UNL     1      34.641 -19.579 -31.255  1.00  0.00    -0.000 C 
BRANCH   3   4
ATOM      4  C   UNL     1      35.149 -18.154 -31.528  1.00  0.00    -0.000 C 
BRANCH   4   5
ATOM      5  C   UNL     1      36.640 -18.164 -31.892  1.00  0.00    -0.000 C 
BRANCH   5   6
ATOM      6  C   UNL     1      37.479 -17.501 -30.789  1.00  0.00    -0.000 C 
BRANCH   6   7
ATOM      7  C   UNL     1      37.433 -18.270 -29.456  1.00  0.00    -0.000 C 
BRANCH   7   8
ATOM      8  C   UNL     1      37.518 -19.801 -29.589  1.00  0.00    -0.003 C 
ATOM      9  C   UNL     1      38.850 -20.278 -30.166  1.00  0.00     0.004 C 
ENDBRANCH   7   8
ENDBRANCH   6   7
ENDBRANCH   5   6
ENDBRANCH   4   5
ENDBRANCH   3   4
ENDBRANCH   2   3
ENDBRANCH   1   2
BRANCH   1  10
ATOM     10  C   UNL     1      31.152 -19.983 -29.951  1.00  0.00     0.000 C 
BRANCH  10  11
ATOM     11  C   UNL     1      31.298 -18.464 -29.752  1.00  0.00     0.000 C 
BRANCH  11  12
ATOM     12  C   UNL     1      31.733 -18.097 -28.324  1.00  0.00     0.000 C 
BRANCH  12  13
ATOM     13  C   UNL     1      33.003 -18.843 -27.879  1.00  0.00     0.000 C 
BRANCH  13  14
ATOM     14  C   UNL     1      34.282 -18.027 -28.122  1.00  0.00     0.002 C 
BRANCH  14  15
ATOM     15  C   UNL     1      34.064 -16.517 -27.934  1.00  0.00     0.028 C 
BRANCH  15  16
ATOM     16  C   UNL     1      34.925 -15.690 -28.892  1.00  0.00     0.156 C 
BRANCH  16  17
ATOM     17  O   UNL     1      34.454 -14.371 -28.972  1.00  0.00    -0.396 OA
ATOM     18  H   UNL     1      33.657 -14.384 -29.564  1.00  0.00     0.210 HD
ENDBRANCH  16  17
ENDBRANCH  15  16
ENDBRANCH  14  15
ENDBRANCH  13  14
ENDBRANCH  12  13
ENDBRANCH  11  12
ENDBRANCH  10  11
ENDBRANCH   1  10
TORSDOF 15
ENDMDL
MODEL 8
REMARK VINA RESULT:     0.073      2.300      5.623
REMARK INTER + INTRA:          -0.579
REMARK INTER:                   0.009
REMARK INTRA:                  -0.589
REMARK UNBOUND:                -0.713
REMARK SMILES CCCCCCCCCCCCCCCCO
REMARK SMILES IDX 9 1 8 2 7 3 6 4 5 5 4 6 3 7 2 8 1 9 10 10 11 11 12 12 13 13
REMARK SMILES IDX 14 14 15 15 16 16 17 17
REMARK H PARENT 17 18
REMARK Flexibility Score: inf
ROOT
ATOM      1  C   UNL     1      35.318 -18.581 -28.323  1.00  0.00     0.000 C 
ENDROOT
BRANCH   1   2
ATOM      2  C   UNL     1      34.650 -17.207 -28.507  1.00  0.00    -0.000 C 
BRANCH   2   3
ATOM      3  C   UNL     1      35.526 -16.226 -29.302  1.00  0.00    -0.000 C 
BRANCH   3   4
ATOM      4  C   UNL     1      36.949 -16.758 -29.537  1.00  0.00    -0.000 C 
BRANCH   4   5
ATOM      5  C   UNL     1      37.355 -16.606 -31.009  1.00  0.00    -0.000 C 
BRANCH   5   6
ATOM      6  C   UNL     1      36.747 -17.727 -31.866  1.00  0.00    -0.000 C 
BRANCH   6   7
ATOM      7  C   UNL     1      37.472 -19.074 -31.692  1.00  0.00    -0.000 C 
BRANCH   7   8
ATOM      8  C   UNL     1      38.243 -19.228 -30.368  1.00  0.00    -0.003 C 
ATOM      9  C   UNL     1      38.903 -20.597 -30.216  1.00  0.00     0.004 C 
ENDBRANCH   7   8
ENDBRANCH   6   7
ENDBRANCH   5   6
ENDBRANCH   4   5
ENDBRANCH   3   4
ENDBRANCH   2   3
ENDBRANCH   1   2
BRANCH   1  10
ATOM     10  C   UNL     1      34.788 -19.632 -29.314  1.00  0.00     0.000 C 
BRANCH  10  11
ATOM     11  C   UNL     1      34.060 -18.998 -30.513  1.00  0.00     0.000 C 
BRANCH  11  12
ATOM     12  C   UNL     1      33.279 -20.032 -31.340  1.00  0.00     0.000 C 
BRANCH  12  13
ATOM     13  C   UNL     1      32.075 -20.614 -30.579  1.00  0.00     0.000 C 
BRANCH  13  14
ATOM     14  C   UNL     1      31.293 -19.543 -29.803  1.00  0.00     0.002 C 
BRANCH  14  15
ATOM     15  C   UNL     1      31.348 -19.756 -28.282  1.00  0.00     0.028 C 
BRANCH  15  16
ATOM     16  C   UNL     1      31.717 -18.471 -27.537  1.00  0.00     0.156 C 
BRANCH  16  17
ATOM     17  O   UNL     1      31.705 -17.371 -28.408  1.00  0.00    -0.396 OA
ATOM     18  H   UNL     1      32.173 -16.630 -27.943  1.00  0.00     0.210 HD
ENDBRANCH  16  17
ENDBRANCH  15  16
ENDBRANCH  14  15
ENDBRANCH  13  14
ENDBRANCH  12  13
ENDBRANCH  11  12
ENDBRANCH  10  11
ENDBRANCH   1  10
TORSDOF 15
ENDMDL
MODEL 9
REMARK VINA RESULT:     0.267      0.837      3.793
REMARK INTER + INTRA:          -0.221
REMARK INTER:                   0.406
REMARK INTRA:                  -0.626
REMARK UNBOUND:                -0.713
REMARK SMILES CCCCCCCCCCCCCCCCO
REMARK SMILES IDX 9 1 8 2 7 3 6 4 5 5 4 6 3 7 2 8 1 9 10 10 11 11 12 12 13 13
REMARK SMILES IDX 14 14 15 15 16 16 17 17
REMARK H PARENT 17 18
REMARK Flexibility Score: inf
ROOT
ATOM      1  C   UNL     1      31.285 -18.733 -29.969  1.00  0.00     0.000 C 
ENDROOT
BRANCH   1   2
ATOM      2  C   UNL     1      31.425 -18.271 -28.507  1.00  0.00    -0.000 C 
BRANCH   2   3
ATOM      3  C   UNL     1      32.652 -18.881 -27.811  1.00  0.00    -0.000 C 
BRANCH   3   4
ATOM      4  C   UNL     1      33.899 -17.989 -27.916  1.00  0.00    -0.000 C 
BRANCH   4   5
ATOM      5  C   UNL     1      33.528 -16.508 -27.771  1.00  0.00    -0.000 C 
BRANCH   5   6
ATOM      6  C   UNL     1      34.646 -15.604 -28.313  1.00  0.00    -0.000 C 
BRANCH   6   7
ATOM      7  C   UNL     1      35.214 -16.094 -29.657  1.00  0.00    -0.000 C 
BRANCH   7   8
ATOM      8  C   UNL     1      36.696 -16.511 -29.619  1.00  0.00    -0.003 C 
ATOM      9  C   UNL     1      37.306 -16.678 -31.010  1.00  0.00     0.004 C 
ENDBRANCH   7   8
ENDBRANCH   6   7
ENDBRANCH   5   6
ENDBRANCH   4   5
ENDBRANCH   3   4
ENDBRANCH   2   3
ENDBRANCH   1   2
BRANCH   1  10
ATOM     10  C   UNL     1      31.794 -20.169 -30.184  1.00  0.00     0.000 C 
BRANCH  10  11
ATOM     11  C   UNL     1      32.891 -20.251 -31.261  1.00  0.00     0.000 C 
BRANCH  11  12
ATOM     12  C   UNL     1      33.939 -19.136 -31.120  1.00  0.00     0.000 C 
BRANCH  12  13
ATOM     13  C   UNL     1      35.371 -19.681 -30.980  1.00  0.00     0.000 C 
BRANCH  13  14
ATOM     14  C   UNL     1      35.976 -19.401 -29.595  1.00  0.00     0.002 C 
BRANCH  14  15
ATOM     15  C   UNL     1      37.233 -20.241 -29.320  1.00  0.00     0.028 C 
BRANCH  15  16
ATOM     16  C   UNL     1      38.376 -19.890 -30.277  1.00  0.00     0.156 C 
BRANCH  16  17
ATOM     17  O   UNL     1      39.171 -21.018 -30.535  1.00  0.00    -0.396 OA
ATOM     18  H   UNL     1      39.520 -21.332 -29.661  1.00  0.00     0.210 HD
ENDBRANCH  16  17
ENDBRANCH  15  16
ENDBRANCH  14  15
ENDBRANCH  13  14
ENDBRANCH  12  13
ENDBRANCH  11  12
ENDBRANCH  10  11
ENDBRANCH   1  10
TORSDOF 15
ENDMDL
