MODEL 1
REMARK VINA RESULT:    45.288      0.000      0.000
REMARK INTER + INTRA:          49.216
REMARK INTER:                  49.259
REMARK INTRA:                  -0.043
REMARK UNBOUND:                -0.043
REMARK SMILES CC(=O)[C@@H]1CC[C@H]2[C@@H]3CC=C4C[C@H](O)CC[C@@]4(C)[C@H]3CC[C@@]12C
REMARK SMILES IDX 4 1 5 2 6 3 7 4 22 5 21 6 20 7 19 8 8 9 9 10 10 11 11 12
REMARK SMILES IDX 17 13 16 14 15 15 13 16 12 17 18 18 23 19 2 20 1 21 3 22
REMARK SMILES IDX 14 23
REMARK H PARENT 14 24
REMARK Flexibility Score: inf
ROOT
ATOM      1  C   UNL     1      29.996  22.951  30.094  1.00  0.00     0.062 C 
ATOM      2  C   UNL     1      28.601  23.534  30.342  1.00  0.00     0.012 C 
ATOM      3  C   UNL     1      28.791  24.716  31.298  1.00  0.00     0.005 C 
ATOM      4  C   UNL     1      30.296  24.790  31.640  1.00  0.00    -0.001 C 
ATOM      5  C   UNL     1      30.983  24.096  30.433  1.00  0.00    -0.020 C 
ATOM      6  C   UNL     1      32.417  23.597  30.748  1.00  0.00     0.008 C 
ATOM      7  C   UNL     1      32.534  22.853  32.073  1.00  0.00     0.005 C 
ATOM      8  C   UNL     1      32.048  23.730  33.247  1.00  0.00     0.003 C 
ATOM      9  C   UNL     1      30.569  24.127  33.035  1.00  0.00     0.000 C 
ATOM     10  C   UNL     1      30.184  25.118  34.149  1.00  0.00     0.031 C 
ATOM     11  C   UNL     1      30.409  24.534  35.505  1.00  0.00    -0.027 C 
ATOM     12  C   UNL     1      31.400  23.658  35.768  1.00  0.00    -0.065 C 
ATOM     13  C   UNL     1      32.310  23.073  34.672  1.00  0.00    -0.008 C 
ATOM     14  C   UNL     1      32.058  21.529  34.651  1.00  0.00     0.014 C 
ATOM     15  C   UNL     1      32.117  20.857  36.037  1.00  0.00     0.033 C 
ATOM     16  C   UNL     1      31.173  21.538  37.044  1.00  0.00     0.118 C 
ATOM     17  C   UNL     1      31.466  23.041  37.149  1.00  0.00     0.063 C 
ATOM     18  C   UNL     1      33.787  23.357  35.054  1.00  0.00     0.016 C 
ATOM     19  C   UNL     1      31.097  25.113  29.260  1.00  0.00     0.012 C 
ENDROOT
BRANCH   1  20
ATOM     20  C   UNL     1      30.163  22.338  28.713  1.00  0.00     0.133 C 
ATOM     21  C   UNL     1      31.442  21.660  28.321  1.00  0.00     0.088 C 
ATOM     22  O   UNL     1      29.251  22.387  27.900  1.00  0.00    -0.300 OA
ENDBRANCH   1  20
BRANCH  16  23
ATOM     23  O   UNL     1      31.264  20.923  38.304  1.00  0.00    -0.393 OA
ATOM     24  H   UNL     1      31.094  19.952  38.179  1.00  0.00     0.210 HD
ENDBRANCH  16  23
TORSDOF 2
ENDMDL
MODEL 2
REMARK VINA RESULT:    45.880     12.881     15.474
REMARK INTER + INTRA:          49.860
REMARK INTER:                  50.015
REMARK INTRA:                  -0.156
REMARK UNBOUND:                -0.043
REMARK SMILES CC(=O)[C@@H]1CC[C@H]2[C@@H]3CC=C4C[C@H](O)CC[C@@]4(C)[C@H]3CC[C@@]12C
REMARK SMILES IDX 4 1 5 2 6 3 7 4 22 5 21 6 20 7 19 8 8 9 9 10 10 11 11 12
REMARK SMILES IDX 17 13 16 14 15 15 13 16 12 17 18 18 23 19 2 20 1 21 3 22
REMARK SMILES IDX 14 23
REMARK H PARENT 14 24
REMARK Flexibility Score: inf
ROOT
ATOM      1  C   UNL     1      33.763   8.314  40.743  1.00  0.00     0.062 C 
ATOM      2  C   UNL     1      32.249   8.530  40.655  1.00  0.00     0.012 C 
ATOM      3  C   UNL     1      32.038   9.735  39.733  1.00  0.00     0.005 C 
ATOM      4  C   UNL     1      33.437  10.246  39.320  1.00  0.00    -0.001 C 
ATOM      5  C   UNL     1      34.347   8.999  39.483  1.00  0.00    -0.020 C 
ATOM      6  C   UNL     1      35.851   9.351  39.617  1.00  0.00     0.008 C 
ATOM      7  C   UNL     1      36.134  10.488  40.592  1.00  0.00     0.005 C 
ATOM      8  C   UNL     1      35.361  11.765  40.196  1.00  0.00     0.003 C 
ATOM      9  C   UNL     1      33.841  11.485  40.194  1.00  0.00     0.000 C 
ATOM     10  C   UNL     1      33.133  12.739  39.648  1.00  0.00     0.031 C 
ATOM     11  C   UNL     1      33.469  13.951  40.453  1.00  0.00    -0.027 C 
ATOM     12  C   UNL     1      34.666  14.124  41.050  1.00  0.00    -0.065 C 
ATOM     13  C   UNL     1      35.751  13.032  41.074  1.00  0.00    -0.008 C 
ATOM     14  C   UNL     1      35.975  12.649  42.575  1.00  0.00     0.014 C 
ATOM     15  C   UNL     1      36.178  13.854  43.514  1.00  0.00     0.033 C 
ATOM     16  C   UNL     1      35.034  14.876  43.389  1.00  0.00     0.118 C 
ATOM     17  C   UNL     1      34.859  15.337  41.936  1.00  0.00     0.063 C 
ATOM     18  C   UNL     1      37.059  13.624  40.485  1.00  0.00     0.016 C 
ATOM     19  C   UNL     1      34.198   8.094  38.224  1.00  0.00     0.012 C 
ENDROOT
BRANCH   1  20
ATOM     20  C   UNL     1      34.160   6.859  40.935  1.00  0.00     0.133 C 
ATOM     21  C   UNL     1      35.492   6.496  41.522  1.00  0.00     0.088 C 
ATOM     22  O   UNL     1      33.395   5.961  40.614  1.00  0.00    -0.300 OA
ENDBRANCH   1  20
BRANCH  16  23
ATOM     23  O   UNL     1      35.256  15.975  44.237  1.00  0.00    -0.393 OA
ATOM     24  H   UNL     1      34.650  15.880  45.018  1.00  0.00     0.210 HD
ENDBRANCH  16  23
TORSDOF 2
ENDMDL
MODEL 3
REMARK VINA RESULT:    46.708     12.059     14.244
REMARK INTER + INTRA:          50.761
REMARK INTER:                  49.924
REMARK INTRA:                   0.837
REMARK UNBOUND:                -0.043
REMARK SMILES CC(=O)[C@@H]1CC[C@H]2[C@@H]3CC=C4C[C@H](O)CC[C@@]4(C)[C@H]3CC[C@@]12C
REMARK SMILES IDX 4 1 5 2 6 3 7 4 22 5 21 6 20 7 19 8 8 9 9 10 10 11 11 12
REMARK SMILES IDX 17 13 16 14 15 15 13 16 12 17 18 18 23 19 2 20 1 21 3 22
REMARK SMILES IDX 14 23
REMARK H PARENT 14 24
REMARK Flexibility Score: inf
ROOT
ATOM      1  C   UNL     1      34.025  11.972  40.161  1.00  0.00     0.062 C 
ATOM      2  C   UNL     1      35.406  11.812  39.518  1.00  0.00     0.012 C 
ATOM      3  C   UNL     1      36.426  11.914  40.657  1.00  0.00     0.005 C 
ATOM      4  C   UNL     1      35.635  12.178  41.958  1.00  0.00    -0.001 C 
ATOM      5  C   UNL     1      34.224  11.607  41.653  1.00  0.00    -0.020 C 
ATOM      6  C   UNL     1      33.118  12.178  42.578  1.00  0.00     0.008 C 
ATOM      7  C   UNL     1      33.179  13.691  42.749  1.00  0.00     0.005 C 
ATOM      8  C   UNL     1      34.554  14.134  43.292  1.00  0.00     0.003 C 
ATOM      9  C   UNL     1      35.673  13.705  42.315  1.00  0.00     0.000 C 
ATOM     10  C   UNL     1      37.025  14.034  42.975  1.00  0.00     0.031 C 
ATOM     11  C   UNL     1      37.125  15.483  43.325  1.00  0.00    -0.027 C 
ATOM     12  C   UNL     1      36.059  16.222  43.692  1.00  0.00    -0.065 C 
ATOM     13  C   UNL     1      34.617  15.681  43.656  1.00  0.00    -0.008 C 
ATOM     14  C   UNL     1      33.833  16.551  42.617  1.00  0.00     0.014 C 
ATOM     15  C   UNL     1      34.003  18.072  42.807  1.00  0.00     0.033 C 
ATOM     16  C   UNL     1      35.485  18.483  42.836  1.00  0.00     0.118 C 
ATOM     17  C   UNL     1      36.255  17.707  43.914  1.00  0.00     0.063 C 
ATOM     18  C   UNL     1      33.989  15.857  45.064  1.00  0.00     0.016 C 
ATOM     19  C   UNL     1      34.245  10.064  41.862  1.00  0.00     0.012 C 
ENDROOT
BRANCH   1  20
ATOM     20  C   UNL     1      32.927  11.202  39.445  1.00  0.00     0.133 C 
ATOM     21  C   UNL     1      32.662   9.761  39.766  1.00  0.00     0.088 C 
ATOM     22  O   UNL     1      32.240  11.750  38.594  1.00  0.00    -0.300 OA
ENDBRANCH   1  20
BRANCH  16  23
ATOM     23  O   UNL     1      35.612  19.869  43.033  1.00  0.00    -0.393 OA
ATOM     24  H   UNL     1      34.700  20.239  43.164  1.00  0.00     0.210 HD
ENDBRANCH  16  23
TORSDOF 2
ENDMDL
