MODEL 1
REMARK VINA RESULT:    -3.335      0.000      0.000
REMARK INTER + INTRA:          -4.022
REMARK INTER:                  -3.920
REMARK INTRA:                  -0.102
REMARK UNBOUND:                -0.102
REMARK SMILES CCCCC(=O)[O-]
REMARK SMILES IDX 4 1 5 2 6 3 7 4 3 5 2 6 1 7
REMARK H PARENT
REMARK Flexibility Score: inf
ROOT
ATOM      1  C   UNL     1      30.781  -7.757  31.877  1.00  0.00     0.053 C 
ENDROOT
BRANCH   1   2
ATOM      2  C   UNL     1      31.873  -8.455  31.127  1.00  0.00     0.041 C 
ATOM      3  O   UNL     1      32.809  -7.790  30.607  1.00  0.00    -0.550 OA
ATOM      4  O   UNL     1      31.877  -9.840  31.029  1.00  0.00    -0.550 OA
ENDBRANCH   1   2
BRANCH   1   5
ATOM      5  C   UNL     1      31.313  -7.048  33.129  1.00  0.00     0.006 C 
BRANCH   5   6
ATOM      6  C   UNL     1      31.964  -8.026  34.119  1.00  0.00    -0.003 C 
ATOM      7  C   UNL     1      33.042  -7.335  34.948  1.00  0.00     0.004 C 
ENDBRANCH   5   6
ENDBRANCH   1   5
TORSDOF 3
ENDMDL
MODEL 2
REMARK VINA RESULT:    -3.159      1.099      1.393
REMARK INTER + INTRA:          -3.815
REMARK INTER:                  -3.730
REMARK INTRA:                  -0.085
REMARK UNBOUND:                -0.102
REMARK SMILES CCCCC(=O)[O-]
REMARK SMILES IDX 4 1 5 2 6 3 7 4 3 5 2 6 1 7
REMARK H PARENT
REMARK Flexibility Score: inf
ROOT
ATOM      1  C   UNL     1      31.653  -7.625  31.489  1.00  0.00     0.053 C 
ENDROOT
BRANCH   1   2
ATOM      2  C   UNL     1      31.030  -8.975  31.306  1.00  0.00     0.041 C 
ATOM      3  O   UNL     1      29.777  -9.104  31.328  1.00  0.00    -0.550 OA
ATOM      4  O   UNL     1      31.832 -10.087  31.078  1.00  0.00    -0.550 OA
ENDBRANCH   1   2
BRANCH   1   5
ATOM      5  C   UNL     1      31.365  -7.051  32.883  1.00  0.00     0.006 C 
BRANCH   5   6
ATOM      6  C   UNL     1      31.797  -8.007  34.006  1.00  0.00    -0.003 C 
ATOM      7  C   UNL     1      32.893  -7.387  34.866  1.00  0.00     0.004 C 
ENDBRANCH   5   6
ENDBRANCH   1   5
TORSDOF 3
ENDMDL
MODEL 3
REMARK VINA RESULT:    -3.119      2.122      3.472
REMARK INTER + INTRA:          -3.769
REMARK INTER:                  -3.676
REMARK INTRA:                  -0.092
REMARK UNBOUND:                -0.102
REMARK SMILES CCCCC(=O)[O-]
REMARK SMILES IDX 4 1 5 2 6 3 7 4 3 5 2 6 1 7
REMARK H PARENT
REMARK Flexibility Score: inf
ROOT
ATOM      1  C   UNL     1      31.484  -6.764  32.900  1.00  0.00     0.053 C 
ENDROOT
BRANCH   1   2
ATOM      2  C   UNL     1      31.930  -7.706  33.975  1.00  0.00     0.041 C 
ATOM      3  O   UNL     1      31.433  -8.862  34.051  1.00  0.00    -0.550 OA
ATOM      4  O   UNL     1      32.916  -7.321  34.874  1.00  0.00    -0.550 OA
ENDBRANCH   1   2
BRANCH   1   5
ATOM      5  C   UNL     1      31.169  -7.501  31.592  1.00  0.00     0.006 C 
BRANCH   5   6
ATOM      6  C   UNL     1      32.440  -7.980  30.873  1.00  0.00    -0.003 C 
ATOM      7  C   UNL     1      32.461  -9.500  30.745  1.00  0.00     0.004 C 
ENDBRANCH   5   6
ENDBRANCH   1   5
TORSDOF 3
ENDMDL
MODEL 4
REMARK VINA RESULT:    -3.101     15.786     16.729
REMARK INTER + INTRA:          -3.747
REMARK INTER:                  -3.714
REMARK INTRA:                  -0.033
REMARK UNBOUND:                -0.102
REMARK SMILES CCCCC(=O)[O-]
REMARK SMILES IDX 4 1 5 2 6 3 7 4 3 5 2 6 1 7
REMARK H PARENT
REMARK Flexibility Score: inf
ROOT
ATOM      1  C   UNL     1      37.567   5.456  40.549  1.00  0.00     0.053 C 
ENDROOT
BRANCH   1   2
ATOM      2  C   UNL     1      36.507   6.489  40.319  1.00  0.00     0.041 C 
ATOM      3  O   UNL     1      35.289   6.169  40.367  1.00  0.00    -0.550 OA
ATOM      4  O   UNL     1      36.862   7.811  40.082  1.00  0.00    -0.550 OA
ENDBRANCH   1   2
BRANCH   1   5
ATOM      5  C   UNL     1      37.591   4.407  39.429  1.00  0.00     0.006 C 
BRANCH   5   6
ATOM      6  C   UNL     1      38.773   3.434  39.569  1.00  0.00    -0.003 C 
ATOM      7  C   UNL     1      39.657   3.808  40.755  1.00  0.00     0.004 C 
ENDBRANCH   5   6
ENDBRANCH   1   5
TORSDOF 3
ENDMDL
MODEL 5
REMARK VINA RESULT:    -2.922     15.641     16.197
REMARK INTER + INTRA:          -3.536
REMARK INTER:                  -3.441
REMARK INTRA:                  -0.095
REMARK UNBOUND:                -0.102
REMARK SMILES CCCCC(=O)[O-]
REMARK SMILES IDX 4 1 5 2 6 3 7 4 3 5 2 6 1 7
REMARK H PARENT
REMARK Flexibility Score: inf
ROOT
ATOM      1  C   UNL     1      21.357  -2.436  42.428  1.00  0.00     0.053 C 
ENDROOT
BRANCH   1   2
ATOM      2  C   UNL     1      20.983  -1.593  43.608  1.00  0.00     0.041 C 
ATOM      3  O   UNL     1      20.218  -0.603  43.462  1.00  0.00    -0.550 OA
ATOM      4  O   UNL     1      21.454  -1.918  44.874  1.00  0.00    -0.550 OA
ENDBRANCH   1   2
BRANCH   1   5
ATOM      5  C   UNL     1      22.668  -1.965  41.784  1.00  0.00     0.006 C 
BRANCH   5   6
ATOM      6  C   UNL     1      22.475  -1.528  40.324  1.00  0.00    -0.003 C 
ATOM      7  C   UNL     1      22.049  -0.066  40.238  1.00  0.00     0.004 C 
ENDBRANCH   5   6
ENDBRANCH   1   5
TORSDOF 3
ENDMDL
MODEL 6
REMARK VINA RESULT:    -2.851     14.733     15.318
REMARK INTER + INTRA:          -3.453
REMARK INTER:                  -3.358
REMARK INTRA:                  -0.095
REMARK UNBOUND:                -0.102
REMARK SMILES CCCCC(=O)[O-]
REMARK SMILES IDX 4 1 5 2 6 3 7 4 3 5 2 6 1 7
REMARK H PARENT
REMARK Flexibility Score: inf
ROOT
ATOM      1  C   UNL     1      22.961  -1.996  41.542  1.00  0.00     0.053 C 
ENDROOT
BRANCH   1   2
ATOM      2  C   UNL     1      22.463  -2.631  42.804  1.00  0.00     0.041 C 
ATOM      3  O   UNL     1      22.979  -3.703  43.220  1.00  0.00    -0.550 OA
ATOM      4  O   UNL     1      21.453  -2.024  43.538  1.00  0.00    -0.550 OA
ENDBRANCH   1   2
BRANCH   1   5
ATOM      5  C   UNL     1      21.810  -1.645  40.590  1.00  0.00     0.006 C 
BRANCH   5   6
ATOM      6  C   UNL     1      21.864  -0.180  40.128  1.00  0.00    -0.003 C 
ATOM      7  C   UNL     1      22.229   0.748  41.282  1.00  0.00     0.004 C 
ENDBRANCH   5   6
ENDBRANCH   1   5
TORSDOF 3
ENDMDL
MODEL 7
REMARK VINA RESULT:    -2.841      2.389      3.614
REMARK INTER + INTRA:          -3.441
REMARK INTER:                  -3.327
REMARK INTRA:                  -0.113
REMARK UNBOUND:                -0.102
REMARK SMILES CCCCC(=O)[O-]
REMARK SMILES IDX 4 1 5 2 6 3 7 4 3 5 2 6 1 7
REMARK H PARENT
REMARK Flexibility Score: inf
ROOT
ATOM      1  C   UNL     1      31.517  -7.847  31.313  1.00  0.00     0.053 C 
ENDROOT
BRANCH   1   2
ATOM      2  C   UNL     1      31.082  -7.401  32.675  1.00  0.00     0.041 C 
ATOM      3  O   UNL     1      29.993  -6.783  32.821  1.00  0.00    -0.550 OA
ATOM      4  O   UNL     1      31.861  -7.694  33.786  1.00  0.00    -0.550 OA
ENDBRANCH   1   2
BRANCH   1   5
ATOM      5  C   UNL     1      31.746  -9.363  31.256  1.00  0.00     0.006 C 
BRANCH   5   6
ATOM      6  C   UNL     1      30.495 -10.156  31.667  1.00  0.00    -0.003 C 
ATOM      7  C   UNL     1      29.355  -9.937  30.678  1.00  0.00     0.004 C 
ENDBRANCH   5   6
ENDBRANCH   1   5
TORSDOF 3
ENDMDL
MODEL 8
REMARK VINA RESULT:    -2.787     14.849     15.275
REMARK INTER + INTRA:          -3.378
REMARK INTER:                  -3.295
REMARK INTRA:                  -0.083
REMARK UNBOUND:                -0.102
REMARK SMILES CCCCC(=O)[O-]
REMARK SMILES IDX 4 1 5 2 6 3 7 4 3 5 2 6 1 7
REMARK H PARENT
REMARK Flexibility Score: inf
ROOT
ATOM      1  C   UNL     1      21.069  -1.914  41.618  1.00  0.00     0.053 C 
ENDROOT
BRANCH   1   2
ATOM      2  C   UNL     1      22.098  -1.109  40.887  1.00  0.00     0.041 C 
ATOM      3  O   UNL     1      22.272   0.106  41.171  1.00  0.00    -0.550 OA
ATOM      4  O   UNL     1      22.888  -1.707  39.913  1.00  0.00    -0.550 OA
ENDBRANCH   1   2
BRANCH   1   5
ATOM      5  C   UNL     1      21.336  -1.942  43.129  1.00  0.00     0.006 C 
BRANCH   5   6
ATOM      6  C   UNL     1      22.622  -2.707  43.478  1.00  0.00    -0.003 C 
ATOM      7  C   UNL     1      22.868  -2.714  44.983  1.00  0.00     0.004 C 
ENDBRANCH   5   6
ENDBRANCH   1   5
TORSDOF 3
ENDMDL
MODEL 9
REMARK VINA RESULT:    -2.766     14.988     15.489
REMARK INTER + INTRA:          -3.353
REMARK INTER:                  -3.258
REMARK INTRA:                  -0.095
REMARK UNBOUND:                -0.102
REMARK SMILES CCCCC(=O)[O-]
REMARK SMILES IDX 4 1 5 2 6 3 7 4 3 5 2 6 1 7
REMARK H PARENT
REMARK Flexibility Score: inf
ROOT
ATOM      1  C   UNL     1      22.532  -1.373  41.864  1.00  0.00     0.053 C 
ENDROOT
BRANCH   1   2
ATOM      2  C   UNL     1      22.431  -1.125  40.390  1.00  0.00     0.041 C 
ATOM      3  O   UNL     1      21.804  -0.122  39.957  1.00  0.00    -0.550 OA
ATOM      4  O   UNL     1      23.057  -1.984  39.496  1.00  0.00    -0.550 OA
ENDBRANCH   1   2
BRANCH   1   5
ATOM      5  C   UNL     1      21.271  -2.054  42.414  1.00  0.00     0.006 C 
BRANCH   5   6
ATOM      6  C   UNL     1      20.702  -1.322  43.639  1.00  0.00    -0.003 C 
ATOM      7  C   UNL     1      20.178   0.060  43.261  1.00  0.00     0.004 C 
ENDBRANCH   5   6
ENDBRANCH   1   5
TORSDOF 3
ENDMDL
