MODEL 1
REMARK VINA RESULT:    -5.399      0.000      0.000
REMARK INTER + INTRA:         -13.780
REMARK INTER:                 -12.344
REMARK INTRA:                  -1.437
REMARK UNBOUND:                -1.437
REMARK SMILES CCCCCCCCCCCCCCCCCCCCCCCC(=O)[O-]
REMARK SMILES IDX 13 1 14 2 15 3 16 4 17 5 18 6 19 7 20 8 21 9 22 10 23 11
REMARK SMILES IDX 24 12 25 13 26 14 12 15 11 16 10 17 9 18 8 19 7 20 6 21 5 22
REMARK SMILES IDX 4 23 3 24 2 25 1 26
REMARK H PARENT
REMARK Flexibility Score: inf
ROOT
ATOM      1  C   UNL     1       0.065  -5.710  -1.356  1.00  0.00     0.000 C 
ENDROOT
BRANCH   1   2
ATOM      2  C   UNL     1       0.369  -4.677  -2.456  1.00  0.00     0.000 C 
BRANCH   2   3
ATOM      3  C   UNL     1       0.899  -3.349  -1.898  1.00  0.00     0.000 C 
BRANCH   3   4
ATOM      4  C   UNL     1       0.836  -3.335  -0.363  1.00  0.00     0.000 C 
BRANCH   4   5
ATOM      5  C   UNL     1       0.113  -2.097   0.191  1.00  0.00     0.000 C 
BRANCH   5   6
ATOM      6  C   UNL     1       1.018  -1.227   1.076  1.00  0.00     0.000 C 
BRANCH   6   7
ATOM      7  C   UNL     1       0.509   0.221   1.126  1.00  0.00     0.000 C 
BRANCH   7   8
ATOM      8  C   UNL     1      -0.265   0.629  -0.141  1.00  0.00     0.000 C 
BRANCH   8   9
ATOM      9  C   UNL     1      -1.113   1.909  -0.004  1.00  0.00     0.000 C 
BRANCH   9  10
ATOM     10  C   UNL     1      -0.862   2.980  -1.084  1.00  0.00     0.006 C 
BRANCH  10  11
ATOM     11  C   UNL     1      -0.659   2.418  -2.499  1.00  0.00     0.053 C 
BRANCH  11  12
ATOM     12  C   UNL     1       0.519   3.038  -3.185  1.00  0.00     0.041 C 
ATOM     13  O   UNL     1       0.932   4.174  -2.832  1.00  0.00    -0.550 OA
ATOM     14  O   UNL     1       1.181   2.348  -4.192  1.00  0.00    -0.550 OA
ENDBRANCH  11  12
ENDBRANCH  10  11
ENDBRANCH   9  10
ENDBRANCH   8   9
ENDBRANCH   7   8
ENDBRANCH   6   7
ENDBRANCH   5   6
ENDBRANCH   4   5
ENDBRANCH   3   4
ENDBRANCH   2   3
ENDBRANCH   1   2
BRANCH   1  15
ATOM     15  C   UNL     1      -0.642  -6.991  -1.844  1.00  0.00     0.000 C 
BRANCH  15  16
ATOM     16  C   UNL     1      -1.290  -7.840  -0.734  1.00  0.00     0.000 C 
BRANCH  16  17
ATOM     17  C   UNL     1      -1.128  -9.365  -0.898  1.00  0.00     0.000 C 
BRANCH  17  18
ATOM     18  C   UNL     1       0.140  -9.961  -0.261  1.00  0.00    -0.000 C 
BRANCH  18  19
ATOM     19  C   UNL     1       1.434  -9.338  -0.808  1.00  0.00    -0.000 C 
BRANCH  19  20
ATOM     20  C   UNL     1       1.925 -10.015  -2.100  1.00  0.00    -0.000 C 
BRANCH  20  21
ATOM     21  C   UNL     1       2.351  -9.050  -3.225  1.00  0.00    -0.000 C 
BRANCH  21  22
ATOM     22  C   UNL     1       3.862  -9.027  -3.532  1.00  0.00    -0.000 C 
BRANCH  22  23
ATOM     23  C   UNL     1       4.251  -8.251  -4.803  1.00  0.00    -0.000 C 
BRANCH  23  24
ATOM     24  C   UNL     1       3.044  -7.588  -5.488  1.00  0.00    -0.000 C 
BRANCH  24  25
ATOM     25  C   UNL     1       3.023  -7.828  -7.006  1.00  0.00    -0.003 C 
ATOM     26  C   UNL     1       3.972  -8.946  -7.438  1.00  0.00     0.004 C 
ENDBRANCH  24  25
ENDBRANCH  23  24
ENDBRANCH  22  23
ENDBRANCH  21  22
ENDBRANCH  20  21
ENDBRANCH  19  20
ENDBRANCH  18  19
ENDBRANCH  17  18
ENDBRANCH  16  17
ENDBRANCH  15  16
ENDBRANCH   1  15
TORSDOF 22
ENDMDL
MODEL 2
REMARK VINA RESULT:    -5.357      0.710      1.609
REMARK INTER + INTRA:         -13.684
REMARK INTER:                 -12.374
REMARK INTRA:                  -1.310
REMARK UNBOUND:                -1.437
REMARK SMILES CCCCCCCCCCCCCCCCCCCCCCCC(=O)[O-]
REMARK SMILES IDX 13 1 14 2 15 3 16 4 17 5 18 6 19 7 20 8 21 9 22 10 23 11
REMARK SMILES IDX 24 12 25 13 26 14 12 15 11 16 10 17 9 18 8 19 7 20 6 21 5 22
REMARK SMILES IDX 4 23 3 24 2 25 1 26
REMARK H PARENT
REMARK Flexibility Score: inf
ROOT
ATOM      1  C   UNL     1       0.006  -4.980  -2.029  1.00  0.00     0.000 C 
ENDROOT
BRANCH   1   2
ATOM      2  C   UNL     1       0.941  -3.862  -1.534  1.00  0.00     0.000 C 
BRANCH   2   3
ATOM      3  C   UNL     1       0.681  -3.470  -0.072  1.00  0.00     0.000 C 
BRANCH   3   4
ATOM      4  C   UNL     1       0.289  -1.989   0.037  1.00  0.00     0.000 C 
BRANCH   4   5
ATOM      5  C   UNL     1       1.089  -1.240   1.115  1.00  0.00     0.000 C 
BRANCH   5   6
ATOM      6  C   UNL     1       0.379   0.030   1.607  1.00  0.00     0.000 C 
BRANCH   6   7
ATOM      7  C   UNL     1       0.282   1.075   0.486  1.00  0.00     0.000 C 
BRANCH   7   8
ATOM      8  C   UNL     1      -1.089   1.078  -0.213  1.00  0.00     0.000 C 
BRANCH   8   9
ATOM      9  C   UNL     1      -1.752   2.464  -0.344  1.00  0.00     0.000 C 
BRANCH   9  10
ATOM     10  C   UNL     1      -1.185   3.358  -1.466  1.00  0.00     0.006 C 
BRANCH  10  11
ATOM     11  C   UNL     1      -0.832   2.606  -2.758  1.00  0.00     0.053 C 
BRANCH  11  12
ATOM     12  C   UNL     1       0.430   3.120  -3.378  1.00  0.00     0.041 C 
ATOM     13  O   UNL     1       1.016   4.120  -2.886  1.00  0.00    -0.550 OA
ATOM     14  O   UNL     1       0.978   2.474  -4.480  1.00  0.00    -0.550 OA
ENDBRANCH  11  12
ENDBRANCH  10  11
ENDBRANCH   9  10
ENDBRANCH   8   9
ENDBRANCH   7   8
ENDBRANCH   6   7
ENDBRANCH   5   6
ENDBRANCH   4   5
ENDBRANCH   3   4
ENDBRANCH   2   3
ENDBRANCH   1   2
BRANCH   1  15
ATOM     15  C   UNL     1       0.037  -6.272  -1.189  1.00  0.00     0.000 C 
BRANCH  15  16
ATOM     16  C   UNL     1      -1.047  -7.308  -1.548  1.00  0.00     0.000 C 
BRANCH  16  17
ATOM     17  C   UNL     1      -1.642  -8.073  -0.349  1.00  0.00     0.000 C 
BRANCH  17  18
ATOM     18  C   UNL     1      -1.452  -9.600  -0.387  1.00  0.00    -0.000 C 
BRANCH  18  19
ATOM     19  C   UNL     1      -0.412 -10.099   0.630  1.00  0.00    -0.000 C 
BRANCH  19  20
ATOM     20  C   UNL     1       1.029 -10.028   0.095  1.00  0.00    -0.000 C 
BRANCH  20  21
ATOM     21  C   UNL     1       1.160 -10.040  -1.442  1.00  0.00    -0.000 C 
BRANCH  21  22
ATOM     22  C   UNL     1       2.319  -9.194  -2.008  1.00  0.00    -0.000 C 
BRANCH  22  23
ATOM     23  C   UNL     1       2.666  -9.477  -3.481  1.00  0.00    -0.000 C 
BRANCH  23  24
ATOM     24  C   UNL     1       4.135  -9.171  -3.814  1.00  0.00    -0.000 C 
BRANCH  24  25
ATOM     25  C   UNL     1       4.280  -8.061  -4.869  1.00  0.00    -0.003 C 
ATOM     26  C   UNL     1       3.398  -8.296  -6.094  1.00  0.00     0.004 C 
ENDBRANCH  24  25
ENDBRANCH  23  24
ENDBRANCH  22  23
ENDBRANCH  21  22
ENDBRANCH  20  21
ENDBRANCH  19  20
ENDBRANCH  18  19
ENDBRANCH  17  18
ENDBRANCH  16  17
ENDBRANCH  15  16
ENDBRANCH   1  15
TORSDOF 22
ENDMDL
MODEL 3
REMARK VINA RESULT:    -5.328      3.294     10.054
REMARK INTER + INTRA:         -13.617
REMARK INTER:                 -11.851
REMARK INTRA:                  -1.766
REMARK UNBOUND:                -1.437
REMARK SMILES CCCCCCCCCCCCCCCCCCCCCCCC(=O)[O-]
REMARK SMILES IDX 13 1 14 2 15 3 16 4 17 5 18 6 19 7 20 8 21 9 22 10 23 11
REMARK SMILES IDX 24 12 25 13 26 14 12 15 11 16 10 17 9 18 8 19 7 20 6 21 5 22
REMARK SMILES IDX 4 23 3 24 2 25 1 26
REMARK H PARENT
REMARK Flexibility Score: inf
ROOT
ATOM      1  C   UNL     1       0.367  -5.484  -2.249  1.00  0.00     0.000 C 
ENDROOT
BRANCH   1   2
ATOM      2  C   UNL     1      -0.012  -6.374  -1.052  1.00  0.00     0.000 C 
BRANCH   2   3
ATOM      3  C   UNL     1      -0.966  -7.514  -1.434  1.00  0.00     0.000 C 
BRANCH   3   4
ATOM      4  C   UNL     1      -1.970  -7.791  -0.304  1.00  0.00     0.000 C 
BRANCH   4   5
ATOM      5  C   UNL     1      -2.069  -9.282   0.052  1.00  0.00     0.000 C 
BRANCH   5   6
ATOM      6  C   UNL     1      -0.937 -10.117  -0.566  1.00  0.00     0.000 C 
BRANCH   6   7
ATOM      7  C   UNL     1       0.324 -10.066   0.308  1.00  0.00     0.000 C 
BRANCH   7   8
ATOM      8  C   UNL     1       1.619  -9.948  -0.516  1.00  0.00     0.000 C 
BRANCH   8   9
ATOM      9  C   UNL     1       1.427  -9.998  -2.045  1.00  0.00     0.000 C 
BRANCH   9  10
ATOM     10  C   UNL     1       2.266  -8.982  -2.845  1.00  0.00     0.006 C 
BRANCH  10  11
ATOM     11  C   UNL     1       3.344  -9.613  -3.739  1.00  0.00     0.053 C 
BRANCH  11  12
ATOM     12  C   UNL     1       3.343  -9.027  -5.117  1.00  0.00     0.041 C 
ATOM     13  O   UNL     1       3.743  -9.710  -6.096  1.00  0.00    -0.550 OA
ATOM     14  O   UNL     1       2.867  -7.738  -5.325  1.00  0.00    -0.550 OA
ENDBRANCH  11  12
ENDBRANCH  10  11
ENDBRANCH   9  10
ENDBRANCH   8   9
ENDBRANCH   7   8
ENDBRANCH   6   7
ENDBRANCH   5   6
ENDBRANCH   4   5
ENDBRANCH   3   4
ENDBRANCH   2   3
ENDBRANCH   1   2
BRANCH   1  15
ATOM     15  C   UNL     1       0.370  -3.970  -1.958  1.00  0.00     0.000 C 
BRANCH  15  16
ATOM     16  C   UNL     1       0.860  -3.580  -0.550  1.00  0.00     0.000 C 
BRANCH  16  17
ATOM     17  C   UNL     1       0.283  -2.260   0.002  1.00  0.00     0.000 C 
BRANCH  17  18
ATOM     18  C   UNL     1       1.064  -1.644   1.176  1.00  0.00    -0.000 C 
BRANCH  18  19
ATOM     19  C   UNL     1       0.585  -0.228   1.535  1.00  0.00    -0.000 C 
BRANCH  19  20
ATOM     20  C   UNL     1       0.486   0.699   0.310  1.00  0.00    -0.000 C 
BRANCH  20  21
ATOM     21  C   UNL     1      -0.836   1.483   0.185  1.00  0.00    -0.000 C 
BRANCH  21  22
ATOM     22  C   UNL     1      -1.642   1.211  -1.100  1.00  0.00    -0.000 C 
BRANCH  22  23
ATOM     23  C   UNL     1      -1.562   2.323  -2.161  1.00  0.00    -0.000 C 
BRANCH  23  24
ATOM     24  C   UNL     1      -0.630   3.474  -1.746  1.00  0.00    -0.000 C 
BRANCH  24  25
ATOM     25  C   UNL     1       0.411   3.807  -2.828  1.00  0.00    -0.003 C 
ATOM     26  C   UNL     1       0.693   2.627  -3.757  1.00  0.00     0.004 C 
ENDBRANCH  24  25
ENDBRANCH  23  24
ENDBRANCH  22  23
ENDBRANCH  21  22
ENDBRANCH  20  21
ENDBRANCH  19  20
ENDBRANCH  18  19
ENDBRANCH  17  18
ENDBRANCH  16  17
ENDBRANCH  15  16
ENDBRANCH   1  15
TORSDOF 22
ENDMDL
MODEL 4
REMARK VINA RESULT:    -5.301      0.922      2.564
REMARK INTER + INTRA:         -13.555
REMARK INTER:                 -11.953
REMARK INTRA:                  -1.602
REMARK UNBOUND:                -1.437
REMARK SMILES CCCCCCCCCCCCCCCCCCCCCCCC(=O)[O-]
REMARK SMILES IDX 13 1 14 2 15 3 16 4 17 5 18 6 19 7 20 8 21 9 22 10 23 11
REMARK SMILES IDX 24 12 25 13 26 14 12 15 11 16 10 17 9 18 8 19 7 20 6 21 5 22
REMARK SMILES IDX 4 23 3 24 2 25 1 26
REMARK H PARENT
REMARK Flexibility Score: inf
ROOT
ATOM      1  C   UNL     1       0.879  -3.580  -0.369  1.00  0.00     0.000 C 
ENDROOT
BRANCH   1   2
ATOM      2  C   UNL     1       0.246  -2.272   0.140  1.00  0.00     0.000 C 
BRANCH   2   3
ATOM      3  C   UNL     1       1.130  -1.537   1.157  1.00  0.00     0.000 C 
BRANCH   3   4
ATOM      4  C   UNL     1       0.728  -0.058   1.267  1.00  0.00     0.000 C 
BRANCH   4   5
ATOM      5  C   UNL     1      -0.149   0.408   0.094  1.00  0.00     0.000 C 
BRANCH   5   6
ATOM      6  C   UNL     1      -0.818   1.765   0.355  1.00  0.00     0.000 C 
BRANCH   6   7
ATOM      7  C   UNL     1      -2.211   1.823  -0.289  1.00  0.00     0.000 C 
BRANCH   7   8
ATOM      8  C   UNL     1      -2.640   3.254  -0.660  1.00  0.00     0.000 C 
BRANCH   8   9
ATOM      9  C   UNL     1      -1.520   4.312  -0.584  1.00  0.00     0.000 C 
BRANCH   9  10
ATOM     10  C   UNL     1      -0.806   4.607  -1.919  1.00  0.00     0.006 C 
BRANCH  10  11
ATOM     11  C   UNL     1       0.543   3.892  -2.087  1.00  0.00     0.053 C 
BRANCH  11  12
ATOM     12  C   UNL     1       0.536   2.947  -3.247  1.00  0.00     0.041 C 
ATOM     13  O   UNL     1      -0.294   2.001  -3.290  1.00  0.00    -0.550 OA
ATOM     14  O   UNL     1       1.424   3.130  -4.300  1.00  0.00    -0.550 OA
ENDBRANCH  11  12
ENDBRANCH  10  11
ENDBRANCH   9  10
ENDBRANCH   8   9
ENDBRANCH   7   8
ENDBRANCH   6   7
ENDBRANCH   5   6
ENDBRANCH   4   5
ENDBRANCH   3   4
ENDBRANCH   2   3
ENDBRANCH   1   2
BRANCH   1  15
ATOM     15  C   UNL     1       0.748  -3.817  -1.887  1.00  0.00     0.000 C 
BRANCH  15  16
ATOM     16  C   UNL     1       0.001  -5.104  -2.282  1.00  0.00     0.000 C 
BRANCH  16  17
ATOM     17  C   UNL     1       0.352  -6.349  -1.442  1.00  0.00     0.000 C 
BRANCH  17  18
ATOM     18  C   UNL     1      -0.697  -7.475  -1.470  1.00  0.00    -0.000 C 
BRANCH  18  19
ATOM     19  C   UNL     1      -0.158  -8.809  -0.926  1.00  0.00    -0.000 C 
BRANCH  19  20
ATOM     20  C   UNL     1       1.369  -8.938  -1.067  1.00  0.00    -0.000 C 
BRANCH  20  21
ATOM     21  C   UNL     1       1.848  -9.785  -2.264  1.00  0.00    -0.000 C 
BRANCH  21  22
ATOM     22  C   UNL     1       2.328  -8.979  -3.488  1.00  0.00    -0.000 C 
BRANCH  22  23
ATOM     23  C   UNL     1       3.851  -8.988  -3.711  1.00  0.00    -0.000 C 
BRANCH  23  24
ATOM     24  C   UNL     1       4.266  -8.263  -5.002  1.00  0.00    -0.000 C 
BRANCH  24  25
ATOM     25  C   UNL     1       4.395  -9.220  -6.199  1.00  0.00    -0.003 C 
ATOM     26  C   UNL     1       3.797  -8.642  -7.481  1.00  0.00     0.004 C 
ENDBRANCH  24  25
ENDBRANCH  23  24
ENDBRANCH  22  23
ENDBRANCH  21  22
ENDBRANCH  20  21
ENDBRANCH  19  20
ENDBRANCH  18  19
ENDBRANCH  17  18
ENDBRANCH  16  17
ENDBRANCH  15  16
ENDBRANCH   1  15
TORSDOF 22
ENDMDL
MODEL 5
REMARK VINA RESULT:    -5.270      3.723     10.147
REMARK INTER + INTRA:         -13.484
REMARK INTER:                 -11.710
REMARK INTRA:                  -1.774
REMARK UNBOUND:                -1.437
REMARK SMILES CCCCCCCCCCCCCCCCCCCCCCCC(=O)[O-]
REMARK SMILES IDX 13 1 14 2 15 3 16 4 17 5 18 6 19 7 20 8 21 9 22 10 23 11
REMARK SMILES IDX 24 12 25 13 26 14 12 15 11 16 10 17 9 18 8 19 7 20 6 21 5 22
REMARK SMILES IDX 4 23 3 24 2 25 1 26
REMARK H PARENT
REMARK Flexibility Score: inf
ROOT
ATOM      1  C   UNL     1       0.567  -4.056  -2.089  1.00  0.00     0.000 C 
ENDROOT
BRANCH   1   2
ATOM      2  C   UNL     1       0.014  -5.449  -2.439  1.00  0.00     0.000 C 
BRANCH   2   3
ATOM      3  C   UNL     1       0.032  -6.416  -1.247  1.00  0.00     0.000 C 
BRANCH   3   4
ATOM      4  C   UNL     1      -1.023  -7.520  -1.420  1.00  0.00     0.000 C 
BRANCH   4   5
ATOM      5  C   UNL     1      -0.875  -8.650  -0.389  1.00  0.00     0.000 C 
BRANCH   5   6
ATOM      6  C   UNL     1      -0.814 -10.041  -1.037  1.00  0.00     0.000 C 
BRANCH   6   7
ATOM      7  C   UNL     1       0.116 -10.038  -2.259  1.00  0.00     0.000 C 
BRANCH   7   8
ATOM      8  C   UNL     1       1.606  -9.956  -1.878  1.00  0.00     0.000 C 
BRANCH   8   9
ATOM      9  C   UNL     1       2.450  -8.999  -2.743  1.00  0.00     0.000 C 
BRANCH   9  10
ATOM     10  C   UNL     1       2.430  -9.295  -4.256  1.00  0.00     0.006 C 
BRANCH  10  11
ATOM     11  C   UNL     1       3.072  -8.201  -5.124  1.00  0.00     0.053 C 
BRANCH  11  12
ATOM     12  C   UNL     1       4.224  -8.725  -5.923  1.00  0.00     0.041 C 
ATOM     13  O   UNL     1       5.231  -9.208  -5.341  1.00  0.00    -0.550 OA
ATOM     14  O   UNL     1       4.173  -8.711  -7.312  1.00  0.00    -0.550 OA
ENDBRANCH  11  12
ENDBRANCH  10  11
ENDBRANCH   9  10
ENDBRANCH   8   9
ENDBRANCH   7   8
ENDBRANCH   6   7
ENDBRANCH   5   6
ENDBRANCH   4   5
ENDBRANCH   3   4
ENDBRANCH   2   3
ENDBRANCH   1   2
BRANCH   1  15
ATOM     15  C   UNL     1       0.724  -3.780  -0.580  1.00  0.00     0.000 C 
BRANCH  15  16
ATOM     16  C   UNL     1       0.392  -2.340  -0.144  1.00  0.00     0.000 C 
BRANCH  16  17
ATOM     17  C   UNL     1       1.103  -1.865   1.139  1.00  0.00     0.000 C 
BRANCH  17  18
ATOM     18  C   UNL     1       0.833  -0.402   1.534  1.00  0.00    -0.000 C 
BRANCH  18  19
ATOM     19  C   UNL     1       0.330   0.452   0.359  1.00  0.00    -0.000 C 
BRANCH  19  20
ATOM     20  C   UNL     1      -0.554   1.629   0.809  1.00  0.00    -0.000 C 
BRANCH  20  21
ATOM     21  C   UNL     1      -1.754   1.937  -0.110  1.00  0.00    -0.000 C 
BRANCH  21  22
ATOM     22  C   UNL     1      -1.726   1.236  -1.483  1.00  0.00    -0.000 C 
BRANCH  22  23
ATOM     23  C   UNL     1      -1.438   2.165  -2.676  1.00  0.00    -0.000 C 
BRANCH  23  24
ATOM     24  C   UNL     1      -0.496   3.325  -2.313  1.00  0.00    -0.000 C 
BRANCH  24  25
ATOM     25  C   UNL     1       0.593   3.553  -3.373  1.00  0.00    -0.003 C 
ATOM     26  C   UNL     1       0.972   2.271  -4.113  1.00  0.00     0.004 C 
ENDBRANCH  24  25
ENDBRANCH  23  24
ENDBRANCH  22  23
ENDBRANCH  21  22
ENDBRANCH  20  21
ENDBRANCH  19  20
ENDBRANCH  18  19
ENDBRANCH  17  18
ENDBRANCH  16  17
ENDBRANCH  15  16
ENDBRANCH   1  15
TORSDOF 22
ENDMDL
MODEL 6
REMARK VINA RESULT:    -5.249      3.793     10.343
REMARK INTER + INTRA:         -13.435
REMARK INTER:                 -11.931
REMARK INTRA:                  -1.504
REMARK UNBOUND:                -1.437
REMARK SMILES CCCCCCCCCCCCCCCCCCCCCCCC(=O)[O-]
REMARK SMILES IDX 13 1 14 2 15 3 16 4 17 5 18 6 19 7 20 8 21 9 22 10 23 11
REMARK SMILES IDX 24 12 25 13 26 14 12 15 11 16 10 17 9 18 8 19 7 20 6 21 5 22
REMARK SMILES IDX 4 23 3 24 2 25 1 26
REMARK H PARENT
REMARK Flexibility Score: inf
ROOT
ATOM      1  C   UNL     1       0.295  -4.532  -3.015  1.00  0.00     0.000 C 
ENDROOT
BRANCH   1   2
ATOM      2  C   UNL     1       0.330  -4.472  -4.553  1.00  0.00     0.000 C 
BRANCH   2   3
ATOM      3  C   UNL     1       1.753  -4.572  -5.122  1.00  0.00     0.000 C 
BRANCH   3   4
ATOM      4  C   UNL     1       1.875  -5.762  -6.087  1.00  0.00     0.000 C 
BRANCH   4   5
ATOM      5  C   UNL     1       2.334  -7.051  -5.387  1.00  0.00     0.000 C 
BRANCH   5   6
ATOM      6  C   UNL     1       3.397  -7.816  -6.189  1.00  0.00     0.000 C 
BRANCH   6   7
ATOM      7  C   UNL     1       4.511  -8.337  -5.269  1.00  0.00     0.000 C 
BRANCH   7   8
ATOM      8  C   UNL     1       3.974  -8.919  -3.949  1.00  0.00     0.000 C 
BRANCH   8   9
ATOM      9  C   UNL     1       2.995 -10.099  -4.106  1.00  0.00     0.000 C 
BRANCH   9  10
ATOM     10  C   UNL     1       1.741 -10.035  -3.210  1.00  0.00     0.006 C 
BRANCH  10  11
ATOM     11  C   UNL     1       1.798  -8.956  -2.118  1.00  0.00     0.053 C 
BRANCH  11  12
ATOM     12  C   UNL     1       0.793  -9.202  -1.036  1.00  0.00     0.041 C 
ATOM     13  O   UNL     1      -0.400  -9.476  -1.329  1.00  0.00    -0.550 OA
ATOM     14  O   UNL     1       1.182  -9.161   0.298  1.00  0.00    -0.550 OA
ENDBRANCH  11  12
ENDBRANCH  10  11
ENDBRANCH   9  10
ENDBRANCH   8   9
ENDBRANCH   7   8
ENDBRANCH   6   7
ENDBRANCH   5   6
ENDBRANCH   4   5
ENDBRANCH   3   4
ENDBRANCH   2   3
ENDBRANCH   1   2
BRANCH   1  15
ATOM     15  C   UNL     1       0.981  -3.348  -2.304  1.00  0.00     0.000 C 
BRANCH  15  16
ATOM     16  C   UNL     1       0.917  -3.389  -0.765  1.00  0.00     0.000 C 
BRANCH  16  17
ATOM     17  C   UNL     1       0.223  -2.179  -0.106  1.00  0.00     0.000 C 
BRANCH  17  18
ATOM     18  C   UNL     1       0.969  -1.569   1.094  1.00  0.00    -0.000 C 
BRANCH  18  19
ATOM     19  C   UNL     1       0.660  -0.077   1.296  1.00  0.00    -0.000 C 
BRANCH  19  20
ATOM     20  C   UNL     1       0.047   0.581   0.046  1.00  0.00    -0.000 C 
BRANCH  20  21
ATOM     21  C   UNL     1      -0.897   1.768   0.327  1.00  0.00    -0.000 C 
BRANCH  21  22
ATOM     22  C   UNL     1      -1.999   1.995  -0.728  1.00  0.00    -0.000 C 
BRANCH  22  23
ATOM     23  C   UNL     1      -1.496   2.516  -2.086  1.00  0.00    -0.000 C 
BRANCH  23  24
ATOM     24  C   UNL     1      -0.658   3.799  -1.956  1.00  0.00    -0.000 C 
BRANCH  24  25
ATOM     25  C   UNL     1       0.564   3.801  -2.889  1.00  0.00    -0.003 C 
ATOM     26  C   UNL     1       0.528   2.663  -3.908  1.00  0.00     0.004 C 
ENDBRANCH  24  25
ENDBRANCH  23  24
ENDBRANCH  22  23
ENDBRANCH  21  22
ENDBRANCH  20  21
ENDBRANCH  19  20
ENDBRANCH  18  19
ENDBRANCH  17  18
ENDBRANCH  16  17
ENDBRANCH  15  16
ENDBRANCH   1  15
TORSDOF 22
ENDMDL
MODEL 7
REMARK VINA RESULT:    -5.220      3.258     10.284
REMARK INTER + INTRA:         -13.369
REMARK INTER:                 -11.571
REMARK INTRA:                  -1.799
REMARK UNBOUND:                -1.437
REMARK SMILES CCCCCCCCCCCCCCCCCCCCCCCC(=O)[O-]
REMARK SMILES IDX 13 1 14 2 15 3 16 4 17 5 18 6 19 7 20 8 21 9 22 10 23 11
REMARK SMILES IDX 24 12 25 13 26 14 12 15 11 16 10 17 9 18 8 19 7 20 6 21 5 22
REMARK SMILES IDX 4 23 3 24 2 25 1 26
REMARK H PARENT
REMARK Flexibility Score: inf
ROOT
ATOM      1  C   UNL     1       0.750  -3.684  -0.391  1.00  0.00     0.000 C 
ENDROOT
BRANCH   1   2
ATOM      2  C   UNL     1       0.750  -3.969  -1.904  1.00  0.00     0.000 C 
BRANCH   2   3
ATOM      3  C   UNL     1       0.003  -5.260  -2.268  1.00  0.00     0.000 C 
BRANCH   3   4
ATOM      4  C   UNL     1       0.124  -6.300  -1.143  1.00  0.00     0.000 C 
BRANCH   4   5
ATOM      5  C   UNL     1      -0.832  -7.489  -1.327  1.00  0.00     0.000 C 
BRANCH   5   6
ATOM      6  C   UNL     1      -0.566  -8.625  -0.329  1.00  0.00     0.000 C 
BRANCH   6   7
ATOM      7  C   UNL     1       0.900  -9.077  -0.388  1.00  0.00     0.000 C 
BRANCH   7   8
ATOM      8  C   UNL     1       1.248  -9.816  -1.693  1.00  0.00     0.000 C 
BRANCH   8   9
ATOM      9  C   UNL     1       2.221  -9.069  -2.627  1.00  0.00     0.000 C 
BRANCH   9  10
ATOM     10  C   UNL     1       3.132  -9.973  -3.481  1.00  0.00     0.006 C 
BRANCH  10  11
ATOM     11  C   UNL     1       3.129  -9.640  -4.981  1.00  0.00     0.053 C 
BRANCH  11  12
ATOM     12  C   UNL     1       3.630  -8.255  -5.248  1.00  0.00     0.041 C 
ATOM     13  O   UNL     1       2.930  -7.444  -5.909  1.00  0.00    -0.550 OA
ATOM     14  O   UNL     1       4.857  -7.848  -4.739  1.00  0.00    -0.550 OA
ENDBRANCH  11  12
ENDBRANCH  10  11
ENDBRANCH   9  10
ENDBRANCH   8   9
ENDBRANCH   7   8
ENDBRANCH   6   7
ENDBRANCH   5   6
ENDBRANCH   4   5
ENDBRANCH   3   4
ENDBRANCH   2   3
ENDBRANCH   1   2
BRANCH   1  15
ATOM     15  C   UNL     1       0.341  -2.250  -0.001  1.00  0.00     0.000 C 
BRANCH  15  16
ATOM     16  C   UNL     1       1.101  -1.661   1.203  1.00  0.00     0.000 C 
BRANCH  16  17
ATOM     17  C   UNL     1       0.666  -0.242   1.622  1.00  0.00     0.000 C 
BRANCH  17  18
ATOM     18  C   UNL     1       0.525   0.767   0.469  1.00  0.00    -0.000 C 
BRANCH  18  19
ATOM     19  C   UNL     1      -0.855   1.444   0.431  1.00  0.00    -0.000 C 
BRANCH  19  20
ATOM     20  C   UNL     1      -1.653   1.104  -0.841  1.00  0.00    -0.000 C 
BRANCH  20  21
ATOM     21  C   UNL     1      -2.011   2.310  -1.733  1.00  0.00    -0.000 C 
BRANCH  21  22
ATOM     22  C   UNL     1      -1.752   3.693  -1.102  1.00  0.00    -0.000 C 
BRANCH  22  23
ATOM     23  C   UNL     1      -0.655   4.523  -1.792  1.00  0.00    -0.000 C 
BRANCH  23  24
ATOM     24  C   UNL     1       0.598   3.696  -2.121  1.00  0.00    -0.000 C 
BRANCH  24  25
ATOM     25  C   UNL     1       0.978   3.769  -3.609  1.00  0.00    -0.003 C 
ATOM     26  C   UNL     1       0.900   2.410  -4.304  1.00  0.00     0.004 C 
ENDBRANCH  24  25
ENDBRANCH  23  24
ENDBRANCH  22  23
ENDBRANCH  21  22
ENDBRANCH  20  21
ENDBRANCH  19  20
ENDBRANCH  18  19
ENDBRANCH  17  18
ENDBRANCH  16  17
ENDBRANCH  15  16
ENDBRANCH   1  15
TORSDOF 22
ENDMDL
MODEL 8
REMARK VINA RESULT:    -5.007      1.053      3.992
REMARK INTER + INTRA:         -12.882
REMARK INTER:                 -11.605
REMARK INTRA:                  -1.277
REMARK UNBOUND:                -1.437
REMARK SMILES CCCCCCCCCCCCCCCCCCCCCCCC(=O)[O-]
REMARK SMILES IDX 13 1 14 2 15 3 16 4 17 5 18 6 19 7 20 8 21 9 22 10 23 11
REMARK SMILES IDX 24 12 25 13 26 14 12 15 11 16 10 17 9 18 8 19 7 20 6 21 5 22
REMARK SMILES IDX 4 23 3 24 2 25 1 26
REMARK H PARENT
REMARK Flexibility Score: inf
ROOT
ATOM      1  C   UNL     1       0.376  -4.854  -3.661  1.00  0.00     0.000 C 
ENDROOT
BRANCH   1   2
ATOM      2  C   UNL     1       0.742  -3.730  -2.675  1.00  0.00     0.000 C 
BRANCH   2   3
ATOM      3  C   UNL     1       0.361  -4.060  -1.224  1.00  0.00     0.000 C 
BRANCH   3   4
ATOM      4  C   UNL     1       1.099  -3.139  -0.240  1.00  0.00     0.000 C 
BRANCH   4   5
ATOM      5  C   UNL     1       0.273  -1.902   0.150  1.00  0.00     0.000 C 
BRANCH   5   6
ATOM      6  C   UNL     1       0.987  -1.010   1.176  1.00  0.00     0.000 C 
BRANCH   6   7
ATOM      7  C   UNL     1       0.473   0.434   1.100  1.00  0.00     0.000 C 
BRANCH   7   8
ATOM      8  C   UNL     1      -0.509   0.661  -0.064  1.00  0.00     0.000 C 
BRANCH   8   9
ATOM      9  C   UNL     1      -1.121   2.074  -0.136  1.00  0.00     0.000 C 
BRANCH   9  10
ATOM     10  C   UNL     1      -1.784   2.433  -1.481  1.00  0.00     0.006 C 
BRANCH  10  11
ATOM     11  C   UNL     1      -0.936   2.093  -2.716  1.00  0.00     0.053 C 
BRANCH  11  12
ATOM     12  C   UNL     1       0.136   3.110  -2.957  1.00  0.00     0.041 C 
ATOM     13  O   UNL     1       1.152   2.811  -3.639  1.00  0.00    -0.550 OA
ATOM     14  O   UNL     1      -0.001   4.399  -2.456  1.00  0.00    -0.550 OA
ENDBRANCH  11  12
ENDBRANCH  10  11
ENDBRANCH   9  10
ENDBRANCH   8   9
ENDBRANCH   7   8
ENDBRANCH   6   7
ENDBRANCH   5   6
ENDBRANCH   4   5
ENDBRANCH   3   4
ENDBRANCH   2   3
ENDBRANCH   1   2
BRANCH   1  15
ATOM     15  C   UNL     1       0.409  -4.449  -5.148  1.00  0.00     0.000 C 
BRANCH  15  16
ATOM     16  C   UNL     1       1.547  -5.085  -5.970  1.00  0.00     0.000 C 
BRANCH  16  17
ATOM     17  C   UNL     1       2.432  -6.085  -5.198  1.00  0.00     0.000 C 
BRANCH  17  18
ATOM     18  C   UNL     1       2.661  -7.435  -5.901  1.00  0.00    -0.000 C 
BRANCH  18  19
ATOM     19  C   UNL     1       3.902  -8.178  -5.380  1.00  0.00    -0.000 C 
BRANCH  19  20
ATOM     20  C   UNL     1       3.697  -8.770  -3.973  1.00  0.00    -0.000 C 
BRANCH  20  21
ATOM     21  C   UNL     1       2.257  -9.218  -3.653  1.00  0.00    -0.000 C 
BRANCH  21  22
ATOM     22  C   UNL     1       2.039  -9.758  -2.225  1.00  0.00    -0.000 C 
BRANCH  22  23
ATOM     23  C   UNL     1       1.150  -8.876  -1.330  1.00  0.00    -0.000 C 
BRANCH  23  24
ATOM     24  C   UNL     1       0.097  -9.687  -0.556  1.00  0.00    -0.000 C 
BRANCH  24  25
ATOM     25  C   UNL     1      -1.336  -9.387  -1.023  1.00  0.00    -0.003 C 
ATOM     26  C   UNL     1      -1.923  -8.141  -0.361  1.00  0.00     0.004 C 
ENDBRANCH  24  25
ENDBRANCH  23  24
ENDBRANCH  22  23
ENDBRANCH  21  22
ENDBRANCH  20  21
ENDBRANCH  19  20
ENDBRANCH  18  19
ENDBRANCH  17  18
ENDBRANCH  16  17
ENDBRANCH  15  16
ENDBRANCH   1  15
TORSDOF 22
ENDMDL
MODEL 9
REMARK VINA RESULT:    -4.574      2.435      9.424
REMARK INTER + INTRA:         -11.892
REMARK INTER:                 -10.246
REMARK INTRA:                  -1.646
REMARK UNBOUND:                -1.437
REMARK SMILES CCCCCCCCCCCCCCCCCCCCCCCC(=O)[O-]
REMARK SMILES IDX 13 1 14 2 15 3 16 4 17 5 18 6 19 7 20 8 21 9 22 10 23 11
REMARK SMILES IDX 24 12 25 13 26 14 12 15 11 16 10 17 9 18 8 19 7 20 6 21 5 22
REMARK SMILES IDX 4 23 3 24 2 25 1 26
REMARK H PARENT
REMARK Flexibility Score: inf
ROOT
ATOM      1  C   UNL     1       0.040  -6.367  -1.093  1.00  0.00     0.000 C 
ENDROOT
BRANCH   1   2
ATOM      2  C   UNL     1      -1.115  -7.382  -1.171  1.00  0.00     0.000 C 
BRANCH   2   3
ATOM      3  C   UNL     1      -0.638  -8.838  -1.073  1.00  0.00     0.000 C 
BRANCH   3   4
ATOM      4  C   UNL     1       0.852  -8.903  -0.703  1.00  0.00     0.000 C 
BRANCH   4   5
ATOM      5  C   UNL     1       1.633  -9.916  -1.555  1.00  0.00     0.000 C 
BRANCH   5   6
ATOM      6  C   UNL     1       1.854  -9.435  -2.997  1.00  0.00     0.000 C 
BRANCH   6   7
ATOM      7  C   UNL     1       3.294  -8.942  -3.197  1.00  0.00     0.000 C 
BRANCH   7   8
ATOM      8  C   UNL     1       3.952  -9.514  -4.465  1.00  0.00     0.000 C 
BRANCH   8   9
ATOM      9  C   UNL     1       3.672  -8.724  -5.760  1.00  0.00     0.000 C 
BRANCH   9  10
ATOM     10  C   UNL     1       3.357  -7.229  -5.559  1.00  0.00     0.006 C 
BRANCH  10  11
ATOM     11  C   UNL     1       2.205  -6.701  -6.429  1.00  0.00     0.053 C 
BRANCH  11  12
ATOM     12  C   UNL     1       1.847  -5.288  -6.087  1.00  0.00     0.041 C 
ATOM     13  O   UNL     1       2.703  -4.525  -5.567  1.00  0.00    -0.550 OA
ATOM     14  O   UNL     1       0.577  -4.803  -6.374  1.00  0.00    -0.550 OA
ENDBRANCH  11  12
ENDBRANCH  10  11
ENDBRANCH   9  10
ENDBRANCH   8   9
ENDBRANCH   7   8
ENDBRANCH   6   7
ENDBRANCH   5   6
ENDBRANCH   4   5
ENDBRANCH   3   4
ENDBRANCH   2   3
ENDBRANCH   1   2
BRANCH   1  15
ATOM     15  C   UNL     1       0.066  -5.325  -2.230  1.00  0.00     0.000 C 
BRANCH  15  16
ATOM     16  C   UNL     1       0.752  -3.992  -1.874  1.00  0.00     0.000 C 
BRANCH  16  17
ATOM     17  C   UNL     1       0.758  -3.639  -0.372  1.00  0.00     0.000 C 
BRANCH  17  18
ATOM     18  C   UNL     1       0.236  -2.233  -0.027  1.00  0.00    -0.000 C 
BRANCH  18  19
ATOM     19  C   UNL     1       1.008  -1.575   1.128  1.00  0.00    -0.000 C 
BRANCH  19  20
ATOM     20  C   UNL     1       0.678  -0.081   1.293  1.00  0.00    -0.000 C 
BRANCH  20  21
ATOM     21  C   UNL     1      -0.010   0.577   0.080  1.00  0.00    -0.000 C 
BRANCH  21  22
ATOM     22  C   UNL     1      -0.830   1.844   0.397  1.00  0.00    -0.000 C 
BRANCH  22  23
ATOM     23  C   UNL     1      -1.448   2.537  -0.830  1.00  0.00    -0.000 C 
BRANCH  23  24
ATOM     24  C   UNL     1      -0.971   1.930  -2.159  1.00  0.00    -0.000 C 
BRANCH  24  25
ATOM     25  C   UNL     1      -0.257   2.956  -3.053  1.00  0.00    -0.003 C 
ATOM     26  C   UNL     1       0.526   3.993  -2.248  1.00  0.00     0.004 C 
ENDBRANCH  24  25
ENDBRANCH  23  24
ENDBRANCH  22  23
ENDBRANCH  21  22
ENDBRANCH  20  21
ENDBRANCH  19  20
ENDBRANCH  18  19
ENDBRANCH  17  18
ENDBRANCH  16  17
ENDBRANCH  15  16
ENDBRANCH   1  15
TORSDOF 22
ENDMDL
