MODEL 1
REMARK VINA RESULT:    -5.351      0.000      0.000
REMARK INTER + INTRA:          -6.661
REMARK INTER:                  -6.446
REMARK INTRA:                  -0.216
REMARK UNBOUND:                -0.216
REMARK SMILES Oc1cc(O)c2c(c1)O[C@H](c1ccc(O)c(O)c1)[C@@H](O)C2
REMARK SMILES IDX 21 1 19 2 10 3 9 4 7 5 8 6 2 7 3 8 4 9 6 10 20 11 11 13
REMARK SMILES IDX 18 14 12 15 16 16 13 17 14 18 17 19 15 21 5 23 1 25
REMARK H PARENT 20 12 17 20 15 22 5 24 1 26
REMARK Flexibility Score: inf
ROOT
ATOM      1  C   UNL     1      44.559   2.990  48.382  1.00  0.00     0.079 C 
ATOM      2  C   UNL     1      43.407   1.990  48.589  1.00  0.00     0.164 C 
ATOM      3  C   UNL     1      42.637   1.800  47.273  1.00  0.00     0.232 C 
ATOM      4  O   UNL     1      42.166   3.062  46.800  1.00  0.00    -0.482 OA
ATOM      5  C   UNL     1      42.929   4.230  46.903  1.00  0.00     0.131 A 
ATOM      6  C   UNL     1      42.490   5.386  46.253  1.00  0.00     0.093 A 
ATOM      7  C   UNL     1      43.237   6.562  46.324  1.00  0.00     0.122 A 
ATOM      8  C   UNL     1      44.438   6.580  47.042  1.00  0.00     0.092 A 
ATOM      9  C   UNL     1      44.894   5.430  47.698  1.00  0.00     0.126 A 
ATOM     10  C   UNL     1      44.116   4.248  47.665  1.00  0.00     0.039 A 
ENDROOT
BRANCH   2  11
ATOM     11  O   UNL     1      43.918   0.756  49.022  1.00  0.00    -0.389 OA
ATOM     12  H   UNL     1      43.922   0.780  50.015  1.00  0.00     0.211 HD
ENDBRANCH   2  11
BRANCH   3  13
ATOM     13  C   UNL     1      41.468   0.858  47.454  1.00  0.00    -0.001 A 
ATOM     14  C   UNL     1      41.130  -0.053  46.441  1.00  0.00     0.057 A 
ATOM     15  C   UNL     1      40.739   0.848  48.653  1.00  0.00     0.012 A 
ATOM     16  C   UNL     1      40.068  -0.951  46.606  1.00  0.00     0.157 A 
ATOM     17  C   UNL     1      39.679  -0.042  48.827  1.00  0.00     0.050 A 
ATOM     18  C   UNL     1      39.330  -0.944  47.814  1.00  0.00     0.157 A 
BRANCH  16  19
ATOM     19  O   UNL     1      39.783  -1.826  45.554  1.00  0.00    -0.504 OA
ATOM     20  H   UNL     1      40.314  -1.869  44.697  1.00  0.00     0.293 HD
ENDBRANCH  16  19
BRANCH  18  21
ATOM     21  O   UNL     1      38.258  -1.806  48.049  1.00  0.00    -0.504 OA
ATOM     22  H   UNL     1      37.964  -2.529  47.409  1.00  0.00     0.293 HD
ENDBRANCH  18  21
ENDBRANCH   3  13
BRANCH   9  23
ATOM     23  O   UNL     1      46.123   5.496  48.361  1.00  0.00    -0.507 OA
ATOM     24  H   UNL     1      46.992   5.188  47.949  1.00  0.00     0.293 HD
ENDBRANCH   9  23
BRANCH   7  25
ATOM     25  O   UNL     1      42.783   7.707  45.672  1.00  0.00    -0.508 OA
ATOM     26  H   UNL     1      41.876   7.735  45.222  1.00  0.00     0.293 HD
ENDBRANCH   7  25
TORSDOF 6
ENDMDL
MODEL 2
REMARK VINA RESULT:    -5.223      1.928      6.963
REMARK INTER + INTRA:          -6.508
REMARK INTER:                  -6.288
REMARK INTRA:                  -0.219
REMARK UNBOUND:                -0.216
REMARK SMILES Oc1cc(O)c2c(c1)O[C@H](c1ccc(O)c(O)c1)[C@@H](O)C2
REMARK SMILES IDX 21 1 19 2 10 3 9 4 7 5 8 6 2 7 3 8 4 9 6 10 20 11 11 13
REMARK SMILES IDX 18 14 12 15 16 16 13 17 14 18 17 19 15 21 5 23 1 25
REMARK H PARENT 20 12 17 20 15 22 5 24 1 26
REMARK Flexibility Score: inf
ROOT
ATOM      1  C   UNL     1      44.278  -0.615  47.974  1.00  0.00     0.079 C 
ATOM      2  C   UNL     1      44.768   0.826  47.740  1.00  0.00     0.164 C 
ATOM      3  C   UNL     1      43.609   1.813  47.951  1.00  0.00     0.232 C 
ATOM      4  O   UNL     1      42.523   1.476  47.088  1.00  0.00    -0.482 OA
ATOM      5  C   UNL     1      42.162   0.150  46.825  1.00  0.00     0.131 A 
ATOM      6  C   UNL     1      40.978  -0.104  46.127  1.00  0.00     0.093 A 
ATOM      7  C   UNL     1      40.583  -1.416  45.864  1.00  0.00     0.122 A 
ATOM      8  C   UNL     1      41.372  -2.482  46.310  1.00  0.00     0.092 A 
ATOM      9  C   UNL     1      42.560  -2.246  47.011  1.00  0.00     0.126 A 
ATOM     10  C   UNL     1      42.987  -0.916  47.241  1.00  0.00     0.039 A 
ENDROOT
BRANCH   2  11
ATOM     11  O   UNL     1      45.812   1.124  48.631  1.00  0.00    -0.389 OA
ATOM     12  H   UNL     1      46.643   1.175  48.090  1.00  0.00     0.211 HD
ENDBRANCH   2  11
BRANCH   3  13
ATOM     13  C   UNL     1      44.046   3.235  47.685  1.00  0.00    -0.001 A 
ATOM     14  C   UNL     1      43.569   4.284  48.485  1.00  0.00     0.057 A 
ATOM     15  C   UNL     1      44.970   3.518  46.667  1.00  0.00     0.012 A 
ATOM     16  C   UNL     1      43.987   5.603  48.268  1.00  0.00     0.157 A 
ATOM     17  C   UNL     1      45.393   4.829  46.442  1.00  0.00     0.050 A 
ATOM     18  C   UNL     1      44.910   5.880  47.230  1.00  0.00     0.157 A 
BRANCH  16  19
ATOM     19  O   UNL     1      43.468   6.598  49.099  1.00  0.00    -0.504 OA
ATOM     20  H   UNL     1      42.488   6.835  49.152  1.00  0.00     0.293 HD
ENDBRANCH  16  19
BRANCH  18  21
ATOM     21  O   UNL     1      45.369   7.169  46.952  1.00  0.00    -0.504 OA
ATOM     22  H   UNL     1      44.771   7.978  46.880  1.00  0.00     0.293 HD
ENDBRANCH  18  21
ENDBRANCH   3  13
BRANCH   9  23
ATOM     23  O   UNL     1      43.283  -3.350  47.470  1.00  0.00    -0.507 OA
ATOM     24  H   UNL     1      44.254  -3.302  47.748  1.00  0.00     0.293 HD
ENDBRANCH   9  23
BRANCH   7  25
ATOM     25  O   UNL     1      39.401  -1.652  45.165  1.00  0.00    -0.508 OA
ATOM     26  H   UNL     1      39.406  -2.060  44.237  1.00  0.00     0.293 HD
ENDBRANCH   7  25
TORSDOF 6
ENDMDL
MODEL 3
REMARK VINA RESULT:    -5.081      1.931      7.437
REMARK INTER + INTRA:          -6.337
REMARK INTER:                  -6.255
REMARK INTRA:                  -0.082
REMARK UNBOUND:                -0.216
REMARK SMILES Oc1cc(O)c2c(c1)O[C@H](c1ccc(O)c(O)c1)[C@@H](O)C2
REMARK SMILES IDX 21 1 19 2 10 3 9 4 7 5 8 6 2 7 3 8 4 9 6 10 20 11 11 13
REMARK SMILES IDX 18 14 12 15 16 16 13 17 14 18 17 19 15 21 5 23 1 25
REMARK H PARENT 20 12 17 20 15 22 5 24 1 26
REMARK Flexibility Score: inf
ROOT
ATOM      1  C   UNL     1      39.860  -0.270  48.626  1.00  0.00     0.079 C 
ATOM      2  C   UNL     1      40.910   0.856  48.647  1.00  0.00     0.164 C 
ATOM      3  C   UNL     1      41.472   1.074  47.233  1.00  0.00     0.232 C 
ATOM      4  O   UNL     1      42.015  -0.149  46.735  1.00  0.00    -0.482 OA
ATOM      5  C   UNL     1      41.409  -1.387  46.972  1.00  0.00     0.131 A 
ATOM      6  C   UNL     1      41.885  -2.515  46.299  1.00  0.00     0.093 A 
ATOM      7  C   UNL     1      41.291  -3.761  46.503  1.00  0.00     0.122 A 
ATOM      8  C   UNL     1      40.205  -3.878  47.378  1.00  0.00     0.092 A 
ATOM      9  C   UNL     1      39.714  -2.758  48.060  1.00  0.00     0.126 A 
ATOM     10  C   UNL     1      40.343  -1.501  47.889  1.00  0.00     0.039 A 
ENDROOT
BRANCH   2  11
ATOM     11  O   UNL     1      40.325   2.045  49.112  1.00  0.00    -0.389 OA
ATOM     12  H   UNL     1      39.341   1.913  49.076  1.00  0.00     0.211 HD
ENDBRANCH   2  11
BRANCH   3  13
ATOM     13  C   UNL     1      42.540   2.143  47.227  1.00  0.00    -0.001 A 
ATOM     14  C   UNL     1      42.184   3.500  47.209  1.00  0.00     0.057 A 
ATOM     15  C   UNL     1      43.898   1.795  47.290  1.00  0.00     0.012 A 
ATOM     16  C   UNL     1      43.162   4.502  47.231  1.00  0.00     0.157 A 
ATOM     17  C   UNL     1      44.881   2.785  47.313  1.00  0.00     0.050 A 
ATOM     18  C   UNL     1      44.530   4.140  47.281  1.00  0.00     0.157 A 
BRANCH  16  19
ATOM     19  O   UNL     1      42.735   5.832  47.205  1.00  0.00    -0.504 OA
ATOM     20  H   UNL     1      41.899   6.165  47.663  1.00  0.00     0.293 HD
ENDBRANCH  16  19
BRANCH  18  21
ATOM     21  O   UNL     1      45.559   5.082  47.304  1.00  0.00    -0.504 OA
ATOM     22  H   UNL     1      46.471   4.913  47.703  1.00  0.00     0.293 HD
ENDBRANCH  18  21
ENDBRANCH   3  13
BRANCH   9  23
ATOM     23  O   UNL     1      38.599  -2.928  48.886  1.00  0.00    -0.507 OA
ATOM     24  H   UNL     1      38.600  -3.524  49.702  1.00  0.00     0.293 HD
ENDBRANCH   9  23
BRANCH   7  25
ATOM     25  O   UNL     1      41.780  -4.876  45.826  1.00  0.00    -0.508 OA
ATOM     26  H   UNL     1      41.297  -5.766  45.851  1.00  0.00     0.293 HD
ENDBRANCH   7  25
TORSDOF 6
ENDMDL
MODEL 4
REMARK VINA RESULT:    -5.033      2.138      2.970
REMARK INTER + INTRA:          -6.279
REMARK INTER:                  -6.052
REMARK INTRA:                  -0.226
REMARK UNBOUND:                -0.216
REMARK SMILES Oc1cc(O)c2c(c1)O[C@H](c1ccc(O)c(O)c1)[C@@H](O)C2
REMARK SMILES IDX 21 1 19 2 10 3 9 4 7 5 8 6 2 7 3 8 4 9 6 10 20 11 11 13
REMARK SMILES IDX 18 14 12 15 16 16 13 17 14 18 17 19 15 21 5 23 1 25
REMARK H PARENT 20 12 17 20 15 22 5 24 1 26
REMARK Flexibility Score: inf
ROOT
ATOM      1  C   UNL     1      41.539   2.641  48.818  1.00  0.00     0.079 C 
ATOM      2  C   UNL     1      41.159   1.252  48.273  1.00  0.00     0.164 C 
ATOM      3  C   UNL     1      42.409   0.362  48.194  1.00  0.00     0.232 C 
ATOM      4  O   UNL     1      43.403   0.994  47.388  1.00  0.00    -0.482 OA
ATOM      5  C   UNL     1      43.632   2.374  47.430  1.00  0.00     0.131 A 
ATOM      6  C   UNL     1      44.742   2.898  46.761  1.00  0.00     0.093 A 
ATOM      7  C   UNL     1      45.005   4.267  46.798  1.00  0.00     0.122 A 
ATOM      8  C   UNL     1      44.159   5.119  47.517  1.00  0.00     0.092 A 
ATOM      9  C   UNL     1      43.044   4.611  48.194  1.00  0.00     0.126 A 
ATOM     10  C   UNL     1      42.748   3.228  48.122  1.00  0.00     0.039 A 
ENDROOT
BRANCH   2  11
ATOM     11  O   UNL     1      40.204   0.655  49.112  1.00  0.00    -0.389 OA
ATOM     12  H   UNL     1      40.036   1.294  49.854  1.00  0.00     0.211 HD
ENDBRANCH   2  11
BRANCH   3  13
ATOM     13  C   UNL     1      42.078  -0.996  47.618  1.00  0.00    -0.001 A 
ATOM     14  C   UNL     1      41.136  -1.116  46.585  1.00  0.00     0.057 A 
ATOM     15  C   UNL     1      42.741  -2.145  48.074  1.00  0.00     0.012 A 
ATOM     16  C   UNL     1      40.839  -2.364  46.022  1.00  0.00     0.157 A 
ATOM     17  C   UNL     1      42.453  -3.393  47.521  1.00  0.00     0.050 A 
ATOM     18  C   UNL     1      41.505  -3.519  46.499  1.00  0.00     0.157 A 
BRANCH  16  19
ATOM     19  O   UNL     1      39.888  -2.410  45.001  1.00  0.00    -0.504 OA
ATOM     20  H   UNL     1      39.381  -1.605  44.665  1.00  0.00     0.293 HD
ENDBRANCH  16  19
BRANCH  18  21
ATOM     21  O   UNL     1      41.259  -4.796  45.990  1.00  0.00    -0.504 OA
ATOM     22  H   UNL     1      41.487  -5.651  46.475  1.00  0.00     0.293 HD
ENDBRANCH  18  21
ENDBRANCH   3  13
BRANCH   9  23
ATOM     23  O   UNL     1      42.261   5.503  48.932  1.00  0.00    -0.507 OA
ATOM     24  H   UNL     1      41.425   5.940  48.569  1.00  0.00     0.293 HD
ENDBRANCH   9  23
BRANCH   7  25
ATOM     25  O   UNL     1      46.114   4.773  46.123  1.00  0.00    -0.508 OA
ATOM     26  H   UNL     1      46.177   5.750  45.864  1.00  0.00     0.293 HD
ENDBRANCH   7  25
TORSDOF 6
ENDMDL
MODEL 5
REMARK VINA RESULT:    -4.841      2.183      7.031
REMARK INTER + INTRA:          -6.047
REMARK INTER:                  -6.088
REMARK INTRA:                   0.041
REMARK UNBOUND:                -0.216
REMARK SMILES Oc1cc(O)c2c(c1)O[C@H](c1ccc(O)c(O)c1)[C@@H](O)C2
REMARK SMILES IDX 21 1 19 2 10 3 9 4 7 5 8 6 2 7 3 8 4 9 6 10 20 11 11 13
REMARK SMILES IDX 18 14 12 15 16 16 13 17 14 18 17 19 15 21 5 23 1 25
REMARK H PARENT 20 12 17 20 15 22 5 24 1 26
REMARK Flexibility Score: inf
ROOT
ATOM      1  C   UNL     1      43.445  -1.498  48.247  1.00  0.00     0.079 C 
ATOM      2  C   UNL     1      43.871  -0.047  47.954  1.00  0.00     0.164 C 
ATOM      3  C   UNL     1      42.626   0.840  47.790  1.00  0.00     0.232 C 
ATOM      4  O   UNL     1      41.790   0.314  46.759  1.00  0.00    -0.482 OA
ATOM      5  C   UNL     1      41.594  -1.060  46.585  1.00  0.00     0.131 A 
ATOM      6  C   UNL     1      40.619  -1.496  45.684  1.00  0.00     0.093 A 
ATOM      7  C   UNL     1      40.389  -2.860  45.500  1.00  0.00     0.122 A 
ATOM      8  C   UNL     1      41.131  -3.795  46.231  1.00  0.00     0.092 A 
ATOM      9  C   UNL     1      42.111  -3.375  47.139  1.00  0.00     0.126 A 
ATOM     10  C   UNL     1      42.378  -1.994  47.295  1.00  0.00     0.039 A 
ENDROOT
BRANCH   2  11
ATOM     11  O   UNL     1      44.663   0.439  49.007  1.00  0.00    -0.389 OA
ATOM     12  H   UNL     1      45.586   0.529  48.652  1.00  0.00     0.211 HD
ENDBRANCH   2  11
BRANCH   3  13
ATOM     13  C   UNL     1      43.010   2.263  47.456  1.00  0.00    -0.001 A 
ATOM     14  C   UNL     1      44.306   2.561  47.010  1.00  0.00     0.057 A 
ATOM     15  C   UNL     1      42.063   3.296  47.540  1.00  0.00     0.012 A 
ATOM     16  C   UNL     1      44.668   3.871  46.670  1.00  0.00     0.157 A 
ATOM     17  C   UNL     1      42.413   4.604  47.203  1.00  0.00     0.050 A 
ATOM     18  C   UNL     1      43.709   4.907  46.771  1.00  0.00     0.157 A 
BRANCH  16  19
ATOM     19  O   UNL     1      45.978   4.096  46.239  1.00  0.00    -0.504 OA
ATOM     20  H   UNL     1      46.488   3.469  45.634  1.00  0.00     0.293 HD
ENDBRANCH  16  19
BRANCH  18  21
ATOM     21  O   UNL     1      43.997   6.236  46.452  1.00  0.00    -0.504 OA
ATOM     22  H   UNL     1      43.300   6.962  46.377  1.00  0.00     0.293 HD
ENDBRANCH  18  21
ENDBRANCH   3  13
BRANCH   9  23
ATOM     23  O   UNL     1      42.788  -4.353  47.873  1.00  0.00    -0.507 OA
ATOM     24  H   UNL     1      42.729  -5.341  47.668  1.00  0.00     0.293 HD
ENDBRANCH   9  23
BRANCH   7  25
ATOM     25  O   UNL     1      39.415  -3.278  44.596  1.00  0.00    -0.508 OA
ATOM     26  H   UNL     1      38.713  -2.640  44.241  1.00  0.00     0.293 HD
ENDBRANCH   7  25
TORSDOF 6
ENDMDL
MODEL 6
REMARK VINA RESULT:    -4.807      2.476      7.416
REMARK INTER + INTRA:          -6.007
REMARK INTER:                  -5.971
REMARK INTRA:                  -0.036
REMARK UNBOUND:                -0.216
REMARK SMILES Oc1cc(O)c2c(c1)O[C@H](c1ccc(O)c(O)c1)[C@@H](O)C2
REMARK SMILES IDX 21 1 19 2 10 3 9 4 7 5 8 6 2 7 3 8 4 9 6 10 20 11 11 13
REMARK SMILES IDX 18 14 12 15 16 16 13 17 14 18 17 19 15 21 5 23 1 25
REMARK H PARENT 20 12 17 20 15 22 5 24 1 26
REMARK Flexibility Score: inf
ROOT
ATOM      1  C   UNL     1      40.406  -1.028  48.325  1.00  0.00     0.079 C 
ATOM      2  C   UNL     1      41.167   0.306  48.430  1.00  0.00     0.164 C 
ATOM      3  C   UNL     1      41.768   0.675  47.064  1.00  0.00     0.232 C 
ATOM      4  O   UNL     1      42.611  -0.382  46.606  1.00  0.00    -0.482 OA
ATOM      5  C   UNL     1      42.287  -1.730  46.792  1.00  0.00     0.131 A 
ATOM      6  C   UNL     1      43.057  -2.706  46.154  1.00  0.00     0.093 A 
ATOM      7  C   UNL     1      42.750  -4.058  46.309  1.00  0.00     0.122 A 
ATOM      8  C   UNL     1      41.658  -4.437  47.097  1.00  0.00     0.092 A 
ATOM      9  C   UNL     1      40.875  -3.473  47.742  1.00  0.00     0.126 A 
ATOM     10  C   UNL     1      41.211  -2.103  47.624  1.00  0.00     0.039 A 
ENDROOT
BRANCH   2  11
ATOM     11  O   UNL     1      40.293   1.321  48.853  1.00  0.00    -0.389 OA
ATOM     12  H   UNL     1      39.489   1.266  48.272  1.00  0.00     0.211 HD
ENDBRANCH   2  11
BRANCH   3  13
ATOM     13  C   UNL     1      42.561   1.959  47.144  1.00  0.00    -0.001 A 
ATOM     14  C   UNL     1      43.964   1.926  47.126  1.00  0.00     0.057 A 
ATOM     15  C   UNL     1      41.907   3.200  47.189  1.00  0.00     0.012 A 
ATOM     16  C   UNL     1      44.712   3.109  47.171  1.00  0.00     0.157 A 
ATOM     17  C   UNL     1      42.643   4.384  47.235  1.00  0.00     0.050 A 
ATOM     18  C   UNL     1      44.043   4.356  47.230  1.00  0.00     0.157 A 
BRANCH  16  19
ATOM     19  O   UNL     1      46.105   3.003  47.154  1.00  0.00    -0.504 OA
ATOM     20  H   UNL     1      46.720   3.703  46.767  1.00  0.00     0.293 HD
ENDBRANCH  16  19
BRANCH  18  21
ATOM     21  O   UNL     1      44.720   5.575  47.280  1.00  0.00    -0.504 OA
ATOM     22  H   UNL     1      45.394   5.876  46.591  1.00  0.00     0.293 HD
ENDBRANCH  18  21
ENDBRANCH   3  13
BRANCH   9  23
ATOM     23  O   UNL     1      39.770  -3.909  48.479  1.00  0.00    -0.507 OA
ATOM     24  H   UNL     1      38.866  -4.093  48.067  1.00  0.00     0.293 HD
ENDBRANCH   9  23
BRANCH   7  25
ATOM     25  O   UNL     1      43.530  -5.019  45.667  1.00  0.00    -0.508 OA
ATOM     26  H   UNL     1      44.541  -4.956  45.651  1.00  0.00     0.293 HD
ENDBRANCH   7  25
TORSDOF 6
ENDMDL
MODEL 7
REMARK VINA RESULT:    -4.787      2.504      3.329
REMARK INTER + INTRA:          -5.982
REMARK INTER:                  -5.646
REMARK INTRA:                  -0.335
REMARK UNBOUND:                -0.216
REMARK SMILES Oc1cc(O)c2c(c1)O[C@H](c1ccc(O)c(O)c1)[C@@H](O)C2
REMARK SMILES IDX 21 1 19 2 10 3 9 4 7 5 8 6 2 7 3 8 4 9 6 10 20 11 11 13
REMARK SMILES IDX 18 14 12 15 16 16 13 17 14 18 17 19 15 21 5 23 1 25
REMARK H PARENT 20 12 17 20 15 22 5 24 1 26
REMARK Flexibility Score: inf
ROOT
ATOM      1  C   UNL     1      41.532   2.567  48.691  1.00  0.00     0.079 C 
ATOM      2  C   UNL     1      41.262   1.141  48.177  1.00  0.00     0.164 C 
ATOM      3  C   UNL     1      42.565   0.326  48.188  1.00  0.00     0.232 C 
ATOM      4  O   UNL     1      43.559   0.991  47.409  1.00  0.00    -0.482 OA
ATOM      5  C   UNL     1      43.704   2.382  47.414  1.00  0.00     0.131 A 
ATOM      6  C   UNL     1      44.813   2.951  46.781  1.00  0.00     0.093 A 
ATOM      7  C   UNL     1      44.993   4.334  46.782  1.00  0.00     0.122 A 
ATOM      8  C   UNL     1      44.064   5.156  47.431  1.00  0.00     0.092 A 
ATOM      9  C   UNL     1      42.948   4.603  48.071  1.00  0.00     0.126 A 
ATOM     10  C   UNL     1      42.738   3.204  48.033  1.00  0.00     0.039 A 
ENDROOT
BRANCH   2  11
ATOM     11  O   UNL     1      40.304   0.514  48.990  1.00  0.00    -0.389 OA
ATOM     12  H   UNL     1      40.571   0.686  49.931  1.00  0.00     0.211 HD
ENDBRANCH   2  11
BRANCH   3  13
ATOM     13  C   UNL     1      42.344  -1.067  47.645  1.00  0.00    -0.001 A 
ATOM     14  C   UNL     1      42.751  -2.188  48.384  1.00  0.00     0.057 A 
ATOM     15  C   UNL     1      41.686  -1.259  46.420  1.00  0.00     0.012 A 
ATOM     16  C   UNL     1      42.527  -3.486  47.907  1.00  0.00     0.157 A 
ATOM     17  C   UNL     1      41.459  -2.548  45.935  1.00  0.00     0.050 A 
ATOM     18  C   UNL     1      41.875  -3.668  46.663  1.00  0.00     0.157 A 
BRANCH  16  19
ATOM     19  O   UNL     1      42.963  -4.555  48.692  1.00  0.00    -0.504 OA
ATOM     20  H   UNL     1      43.918  -4.682  48.993  1.00  0.00     0.293 HD
ENDBRANCH  16  19
BRANCH  18  21
ATOM     21  O   UNL     1      41.620  -4.930  46.122  1.00  0.00    -0.504 OA
ATOM     22  H   UNL     1      42.015  -5.787  46.479  1.00  0.00     0.293 HD
ENDBRANCH  18  21
ENDBRANCH   3  13
BRANCH   9  23
ATOM     23  O   UNL     1      42.078   5.469  48.740  1.00  0.00    -0.507 OA
ATOM     24  H   UNL     1      41.713   5.284  49.664  1.00  0.00     0.293 HD
ENDBRANCH   9  23
BRANCH   7  25
ATOM     25  O   UNL     1      46.103   4.885  46.144  1.00  0.00    -0.508 OA
ATOM     26  H   UNL     1      47.044   4.576  46.358  1.00  0.00     0.293 HD
ENDBRANCH   7  25
TORSDOF 6
ENDMDL
MODEL 8
REMARK VINA RESULT:    -4.760      2.721      3.012
REMARK INTER + INTRA:          -5.949
REMARK INTER:                  -5.585
REMARK INTRA:                  -0.365
REMARK UNBOUND:                -0.216
REMARK SMILES Oc1cc(O)c2c(c1)O[C@H](c1ccc(O)c(O)c1)[C@@H](O)C2
REMARK SMILES IDX 21 1 19 2 10 3 9 4 7 5 8 6 2 7 3 8 4 9 6 10 20 11 11 13
REMARK SMILES IDX 18 14 12 15 16 16 13 17 14 18 17 19 15 21 5 23 1 25
REMARK H PARENT 20 12 17 20 15 22 5 24 1 26
REMARK Flexibility Score: inf
ROOT
ATOM      1  C   UNL     1      45.155   1.480  46.749  1.00  0.00     0.079 C 
ATOM      2  C   UNL     1      44.727   0.067  47.184  1.00  0.00     0.164 C 
ATOM      3  C   UNL     1      43.233  -0.141  46.890  1.00  0.00     0.232 C 
ATOM      4  O   UNL     1      42.466   0.870  47.543  1.00  0.00    -0.482 OA
ATOM      5  C   UNL     1      42.897   2.198  47.626  1.00  0.00     0.131 A 
ATOM      6  C   UNL     1      42.016   3.169  48.109  1.00  0.00     0.093 A 
ATOM      7  C   UNL     1      42.412   4.504  48.189  1.00  0.00     0.122 A 
ATOM      8  C   UNL     1      43.696   4.874  47.773  1.00  0.00     0.092 A 
ATOM      9  C   UNL     1      44.592   3.915  47.286  1.00  0.00     0.126 A 
ATOM     10  C   UNL     1      44.209   2.553  47.245  1.00  0.00     0.039 A 
ENDROOT
BRANCH   2  11
ATOM     11  O   UNL     1      45.484  -0.894  46.494  1.00  0.00    -0.389 OA
ATOM     12  H   UNL     1      45.659  -0.525  45.590  1.00  0.00     0.211 HD
ENDBRANCH   2  11
BRANCH   3  13
ATOM     13  C   UNL     1      42.769  -1.505  47.348  1.00  0.00    -0.001 A 
ATOM     14  C   UNL     1      42.342  -2.459  46.412  1.00  0.00     0.057 A 
ATOM     15  C   UNL     1      42.806  -1.850  48.708  1.00  0.00     0.012 A 
ATOM     16  C   UNL     1      41.936  -3.736  46.819  1.00  0.00     0.157 A 
ATOM     17  C   UNL     1      42.404  -3.120  49.124  1.00  0.00     0.050 A 
ATOM     18  C   UNL     1      41.965  -4.071  48.195  1.00  0.00     0.157 A 
BRANCH  16  19
ATOM     19  O   UNL     1      41.519  -4.634  45.834  1.00  0.00    -0.504 OA
ATOM     20  H   UNL     1      40.859  -5.381  45.995  1.00  0.00     0.293 HD
ENDBRANCH  16  19
BRANCH  18  21
ATOM     21  O   UNL     1      41.573  -5.321  48.676  1.00  0.00    -0.504 OA
ATOM     22  H   UNL     1      41.268  -5.492  49.622  1.00  0.00     0.293 HD
ENDBRANCH  18  21
ENDBRANCH   3  13
BRANCH   9  23
ATOM     23  O   UNL     1      45.844   4.351  46.844  1.00  0.00    -0.507 OA
ATOM     24  H   UNL     1      46.558   3.725  46.496  1.00  0.00     0.293 HD
ENDBRANCH   9  23
BRANCH   7  25
ATOM     25  O   UNL     1      41.521   5.459  48.675  1.00  0.00    -0.508 OA
ATOM     26  H   UNL     1      40.881   5.250  49.433  1.00  0.00     0.293 HD
ENDBRANCH   7  25
TORSDOF 6
ENDMDL
MODEL 9
REMARK VINA RESULT:    -4.735      2.927      7.078
REMARK INTER + INTRA:          -5.920
REMARK INTER:                  -5.563
REMARK INTRA:                  -0.356
REMARK UNBOUND:                -0.216
REMARK SMILES Oc1cc(O)c2c(c1)O[C@H](c1ccc(O)c(O)c1)[C@@H](O)C2
REMARK SMILES IDX 21 1 19 2 10 3 9 4 7 5 8 6 2 7 3 8 4 9 6 10 20 11 11 13
REMARK SMILES IDX 18 14 12 15 16 16 13 17 14 18 17 19 15 21 5 23 1 25
REMARK H PARENT 20 12 17 20 15 22 5 24 1 26
REMARK Flexibility Score: inf
ROOT
ATOM      1  C   UNL     1      41.407  -1.117  48.156  1.00  0.00     0.079 C 
ATOM      2  C   UNL     1      41.700   0.354  48.506  1.00  0.00     0.164 C 
ATOM      3  C   UNL     1      42.510   1.009  47.376  1.00  0.00     0.232 C 
ATOM      4  O   UNL     1      43.709   0.269  47.149  1.00  0.00    -0.482 OA
ATOM      5  C   UNL     1      43.746  -1.129  47.202  1.00  0.00     0.131 A 
ATOM      6  C   UNL     1      44.902  -1.793  46.784  1.00  0.00     0.093 A 
ATOM      7  C   UNL     1      44.963  -3.187  46.811  1.00  0.00     0.122 A 
ATOM      8  C   UNL     1      43.856  -3.923  47.248  1.00  0.00     0.092 A 
ATOM      9  C   UNL     1      42.689  -3.274  47.669  1.00  0.00     0.126 A 
ATOM     10  C   UNL     1      42.640  -1.859  47.686  1.00  0.00     0.039 A 
ENDROOT
BRANCH   2  11
ATOM     11  O   UNL     1      40.493   1.050  48.689  1.00  0.00    -0.389 OA
ATOM     12  H   UNL     1      40.700   1.833  49.264  1.00  0.00     0.211 HD
ENDBRANCH   2  11
BRANCH   3  13
ATOM     13  C   UNL     1      42.854   2.442  47.710  1.00  0.00    -0.001 A 
ATOM     14  C   UNL     1      42.269   3.496  46.991  1.00  0.00     0.057 A 
ATOM     15  C   UNL     1      43.723   2.739  48.771  1.00  0.00     0.012 A 
ATOM     16  C   UNL     1      42.557   4.830  47.307  1.00  0.00     0.157 A 
ATOM     17  C   UNL     1      44.016   4.064  49.094  1.00  0.00     0.050 A 
ATOM     18  C   UNL     1      43.445   5.119  48.371  1.00  0.00     0.157 A 
BRANCH  16  19
ATOM     19  O   UNL     1      41.943   5.828  46.547  1.00  0.00    -0.504 OA
ATOM     20  H   UNL     1      42.250   6.106  45.626  1.00  0.00     0.293 HD
ENDBRANCH  16  19
BRANCH  18  21
ATOM     21  O   UNL     1      43.781   6.422  48.742  1.00  0.00    -0.504 OA
ATOM     22  H   UNL     1      44.675   6.686  49.129  1.00  0.00     0.293 HD
ENDBRANCH  18  21
ENDBRANCH   3  13
BRANCH   9  23
ATOM     23  O   UNL     1      41.601  -4.062  48.052  1.00  0.00    -0.507 OA
ATOM     24  H   UNL     1      41.698  -4.951  48.522  1.00  0.00     0.293 HD
ENDBRANCH   9  23
BRANCH   7  25
ATOM     25  O   UNL     1      46.125  -3.833  46.393  1.00  0.00    -0.508 OA
ATOM     26  H   UNL     1      46.934  -3.314  46.074  1.00  0.00     0.293 HD
ENDBRANCH   7  25
TORSDOF 6
ENDMDL
