MODEL 1
REMARK VINA RESULT:    -2.810      0.000      0.000
REMARK INTER + INTRA:          -3.244
REMARK INTER:                  -3.303
REMARK INTRA:                   0.059
REMARK UNBOUND:                 0.059
REMARK SMILES COc1cc2ccc(=O)oc2c(OC)c1OC
REMARK SMILES IDX 3 1 15 2 12 3 11 4 5 5 4 6 6 7 7 8 8 9 9 10 10 11 2 12 1 13
REMARK SMILES IDX 16 14 17 15 13 16 14 17
REMARK H PARENT
REMARK Flexibility Score: inf
ROOT
ATOM      1  C   UNL     1     -33.642  11.389 -35.918  1.00  0.00     0.165 A 
ATOM      2  C   UNL     1     -32.733  10.480 -36.482  1.00  0.00     0.207 A 
ATOM      3  C   UNL     1     -33.068   9.782 -37.676  1.00  0.00     0.208 A 
ATOM      4  C   UNL     1     -34.329  10.020 -38.282  1.00  0.00     0.184 A 
ATOM      5  C   UNL     1     -35.229  10.939 -37.698  1.00  0.00     0.025 A 
ATOM      6  C   UNL     1     -34.885  11.616 -36.527  1.00  0.00     0.062 A 
ATOM      7  C   UNL     1     -36.466  11.158 -38.314  1.00  0.00     0.020 A 
ATOM      8  C   UNL     1     -36.783  10.470 -39.481  1.00  0.00     0.094 A 
ATOM      9  C   UNL     1     -35.851   9.576 -40.007  1.00  0.00     0.336 A 
ATOM     10  O   UNL     1     -36.113   8.941 -41.063  1.00  0.00    -0.246 OA
ATOM     11  O   UNL     1     -34.682   9.388 -39.400  1.00  0.00    -0.419 OA
ENDROOT
BRANCH   1  12
ATOM     12  O   UNL     1     -33.267  12.055 -34.739  1.00  0.00    -0.493 OA
ATOM     13  C   UNL     1     -33.547  11.593 -33.421  1.00  0.00     0.278 C 
ENDBRANCH   1  12
BRANCH   2  14
ATOM     14  O   UNL     1     -31.511  10.320 -35.798  1.00  0.00    -0.490 OA
ATOM     15  C   UNL     1     -31.207   9.346 -34.805  1.00  0.00     0.278 C 
ENDBRANCH   2  14
BRANCH   3  16
ATOM     16  O   UNL     1     -32.132   8.878 -38.213  1.00  0.00    -0.490 OA
ATOM     17  C   UNL     1     -31.602   8.876 -39.535  1.00  0.00     0.278 C 
ENDBRANCH   3  16
TORSDOF 3
ENDMDL
MODEL 2
REMARK VINA RESULT:    -2.678     22.068     24.079
REMARK INTER + INTRA:          -3.088
REMARK INTER:                  -3.678
REMARK INTRA:                   0.590
REMARK UNBOUND:                 0.059
REMARK SMILES COc1cc2ccc(=O)oc2c(OC)c1OC
REMARK SMILES IDX 3 1 15 2 12 3 11 4 5 5 4 6 6 7 7 8 8 9 9 10 10 11 2 12 1 13
REMARK SMILES IDX 16 14 17 15 13 16 14 17
REMARK H PARENT
REMARK Flexibility Score: inf
ROOT
ATOM      1  C   UNL     1     -23.756  28.162 -22.797  1.00  0.00     0.165 A 
ATOM      2  C   UNL     1     -23.487  27.012 -22.036  1.00  0.00     0.207 A 
ATOM      3  C   UNL     1     -24.507  26.046 -21.814  1.00  0.00     0.208 A 
ATOM      4  C   UNL     1     -25.794  26.264 -22.371  1.00  0.00     0.184 A 
ATOM      5  C   UNL     1     -26.045  27.427 -23.133  1.00  0.00     0.025 A 
ATOM      6  C   UNL     1     -25.033  28.364 -23.342  1.00  0.00     0.062 A 
ATOM      7  C   UNL     1     -27.321  27.619 -23.672  1.00  0.00     0.020 A 
ATOM      8  C   UNL     1     -28.312  26.668 -23.449  1.00  0.00     0.094 A 
ATOM      9  C   UNL     1     -28.000  25.541 -22.687  1.00  0.00     0.336 A 
ATOM     10  O   UNL     1     -28.879  24.665 -22.470  1.00  0.00    -0.246 OA
ATOM     11  O   UNL     1     -26.778  25.385 -22.187  1.00  0.00    -0.419 OA
ENDROOT
BRANCH   1  12
ATOM     12  O   UNL     1     -22.716  29.087 -22.990  1.00  0.00    -0.493 OA
ATOM     13  C   UNL     1     -21.865  29.125 -24.130  1.00  0.00     0.278 C 
ENDBRANCH   1  12
BRANCH   2  14
ATOM     14  O   UNL     1     -22.176  26.897 -21.530  1.00  0.00    -0.490 OA
ATOM     15  C   UNL     1     -21.301  25.782 -21.665  1.00  0.00     0.278 C 
ENDBRANCH   2  14
BRANCH   3  16
ATOM     16  O   UNL     1     -24.201  24.907 -21.047  1.00  0.00    -0.490 OA
ATOM     17  C   UNL     1     -24.996  23.735 -20.895  1.00  0.00     0.278 C 
ENDBRANCH   3  16
TORSDOF 3
ENDMDL
MODEL 3
REMARK VINA RESULT:    -2.016      1.580      2.442
REMARK INTER + INTRA:          -2.311
REMARK INTER:                  -2.310
REMARK INTRA:                  -0.001
REMARK UNBOUND:                 0.059
REMARK SMILES COc1cc2ccc(=O)oc2c(OC)c1OC
REMARK SMILES IDX 3 1 15 2 12 3 11 4 5 5 4 6 6 7 7 8 8 9 9 10 10 11 2 12 1 13
REMARK SMILES IDX 16 14 17 15 13 16 14 17
REMARK H PARENT
REMARK Flexibility Score: inf
ROOT
ATOM      1  C   UNL     1     -33.573  11.892 -33.993  1.00  0.00     0.165 A 
ATOM      2  C   UNL     1     -32.733  10.769 -34.076  1.00  0.00     0.207 A 
ATOM      3  C   UNL     1     -32.692   9.994 -35.268  1.00  0.00     0.208 A 
ATOM      4  C   UNL     1     -33.511  10.372 -36.363  1.00  0.00     0.184 A 
ATOM      5  C   UNL     1     -34.349  11.504 -36.259  1.00  0.00     0.025 A 
ATOM      6  C   UNL     1     -34.377  12.255 -35.084  1.00  0.00     0.062 A 
ATOM      7  C   UNL     1     -35.146  11.858 -37.353  1.00  0.00     0.020 A 
ATOM      8  C   UNL     1     -35.098  11.091 -38.514  1.00  0.00     0.094 A 
ATOM      9  C   UNL     1     -34.250   9.985 -38.553  1.00  0.00     0.336 A 
ATOM     10  O   UNL     1     -34.188   9.275 -39.592  1.00  0.00    -0.246 OA
ATOM     11  O   UNL     1     -33.503   9.673 -37.498  1.00  0.00    -0.419 OA
ENDROOT
BRANCH   1  12
ATOM     12  O   UNL     1     -33.579  12.627 -32.796  1.00  0.00    -0.493 OA
ATOM     13  C   UNL     1     -34.264  12.241 -31.608  1.00  0.00     0.278 C 
ENDBRANCH   1  12
BRANCH   2  14
ATOM     14  O   UNL     1     -31.965  10.484 -32.929  1.00  0.00    -0.490 OA
ATOM     15  C   UNL     1     -32.217   9.474 -31.958  1.00  0.00     0.278 C 
ENDBRANCH   2  14
BRANCH   3  16
ATOM     16  O   UNL     1     -31.839   8.875 -35.315  1.00  0.00    -0.490 OA
ATOM     17  C   UNL     1     -30.431   8.878 -35.528  1.00  0.00     0.278 C 
ENDBRANCH   3  16
TORSDOF 3
ENDMDL
MODEL 4
REMARK VINA RESULT:    -1.832     18.591     21.312
REMARK INTER + INTRA:          -2.094
REMARK INTER:                  -1.900
REMARK INTRA:                  -0.194
REMARK UNBOUND:                 0.059
REMARK SMILES COc1cc2ccc(=O)oc2c(OC)c1OC
REMARK SMILES IDX 3 1 15 2 12 3 11 4 5 5 4 6 6 7 7 8 8 9 9 10 10 11 2 12 1 13
REMARK SMILES IDX 16 14 17 15 13 16 14 17
REMARK H PARENT
REMARK Flexibility Score: inf
ROOT
ATOM      1  C   UNL     1     -23.618  26.805 -32.701  1.00  0.00     0.165 A 
ATOM      2  C   UNL     1     -23.924  25.711 -31.875  1.00  0.00     0.207 A 
ATOM      3  C   UNL     1     -23.590  25.743 -30.493  1.00  0.00     0.208 A 
ATOM      4  C   UNL     1     -22.946  26.892 -29.967  1.00  0.00     0.184 A 
ATOM      5  C   UNL     1     -22.646  27.982 -30.814  1.00  0.00     0.025 A 
ATOM      6  C   UNL     1     -22.981  27.936 -32.167  1.00  0.00     0.062 A 
ATOM      7  C   UNL     1     -22.011  29.105 -30.272  1.00  0.00     0.020 A 
ATOM      8  C   UNL     1     -21.688  29.125 -28.919  1.00  0.00     0.094 A 
ATOM      9  C   UNL     1     -22.011  28.016 -28.136  1.00  0.00     0.336 A 
ATOM     10  O   UNL     1     -21.730  28.009 -26.908  1.00  0.00    -0.246 OA
ATOM     11  O   UNL     1     -22.615  26.963 -28.678  1.00  0.00    -0.419 OA
ENDROOT
BRANCH   1  12
ATOM     12  O   UNL     1     -23.969  26.728 -34.059  1.00  0.00    -0.493 OA
ATOM     13  C   UNL     1     -23.054  26.470 -35.120  1.00  0.00     0.278 C 
ENDBRANCH   1  12
BRANCH   2  14
ATOM     14  O   UNL     1     -24.564  24.622 -32.502  1.00  0.00    -0.490 OA
ATOM     15  C   UNL     1     -25.934  24.252 -32.387  1.00  0.00     0.278 C 
ENDBRANCH   2  14
BRANCH   3  16
ATOM     16  O   UNL     1     -23.911  24.627 -29.696  1.00  0.00    -0.490 OA
ATOM     17  C   UNL     1     -23.011  23.649 -29.185  1.00  0.00     0.278 C 
ENDBRANCH   3  16
TORSDOF 3
ENDMDL
MODEL 5
REMARK VINA RESULT:    -1.256      1.607      5.877
REMARK INTER + INTRA:          -1.417
REMARK INTER:                  -1.720
REMARK INTRA:                   0.303
REMARK UNBOUND:                 0.059
REMARK SMILES COc1cc2ccc(=O)oc2c(OC)c1OC
REMARK SMILES IDX 3 1 15 2 12 3 11 4 5 5 4 6 6 7 7 8 8 9 9 10 10 11 2 12 1 13
REMARK SMILES IDX 16 14 17 15 13 16 14 17
REMARK H PARENT
REMARK Flexibility Score: inf
ROOT
ATOM      1  C   UNL     1     -32.874   9.413 -37.523  1.00  0.00     0.165 A 
ATOM      2  C   UNL     1     -33.721  10.505 -37.274  1.00  0.00     0.207 A 
ATOM      3  C   UNL     1     -33.791  11.073 -35.972  1.00  0.00     0.208 A 
ATOM      4  C   UNL     1     -32.996  10.519 -34.936  1.00  0.00     0.184 A 
ATOM      5  C   UNL     1     -32.150   9.421 -35.206  1.00  0.00     0.025 A 
ATOM      6  C   UNL     1     -32.092   8.875 -36.489  1.00  0.00     0.062 A 
ATOM      7  C   UNL     1     -31.375   8.892 -34.169  1.00  0.00     0.020 A 
ATOM      8  C   UNL     1     -31.452   9.456 -32.899  1.00  0.00     0.094 A 
ATOM      9  C   UNL     1     -32.306  10.540 -32.696  1.00  0.00     0.336 A 
ATOM     10  O   UNL     1     -32.394  11.068 -31.556  1.00  0.00    -0.246 OA
ATOM     11  O   UNL     1     -33.032  11.021 -33.702  1.00  0.00    -0.419 OA
ENDROOT
BRANCH   1  12
ATOM     12  O   UNL     1     -32.838   8.886 -38.825  1.00  0.00    -0.493 OA
ATOM     13  C   UNL     1     -31.688   8.876 -39.665  1.00  0.00     0.278 C 
ENDBRANCH   1  12
BRANCH   2  14
ATOM     14  O   UNL     1     -34.467  10.974 -38.375  1.00  0.00    -0.490 OA
ATOM     15  C   UNL     1     -35.834  10.699 -38.663  1.00  0.00     0.278 C 
ENDBRANCH   2  14
BRANCH   3  16
ATOM     16  O   UNL     1     -34.652  12.167 -35.759  1.00  0.00    -0.490 OA
ATOM     17  C   UNL     1     -34.873  13.268 -36.635  1.00  0.00     0.278 C 
ENDBRANCH   3  16
TORSDOF 3
ENDMDL
MODEL 6
REMARK VINA RESULT:    -1.225     17.894     20.002
REMARK INTER + INTRA:          -1.381
REMARK INTER:                  -1.166
REMARK INTRA:                  -0.215
REMARK UNBOUND:                 0.059
REMARK SMILES COc1cc2ccc(=O)oc2c(OC)c1OC
REMARK SMILES IDX 3 1 15 2 12 3 11 4 5 5 4 6 6 7 7 8 8 9 9 10 10 11 2 12 1 13
REMARK SMILES IDX 16 14 17 15 13 16 14 17
REMARK H PARENT
REMARK Flexibility Score: inf
ROOT
ATOM      1  C   UNL     1     -22.742  26.755 -30.084  1.00  0.00     0.165 A 
ATOM      2  C   UNL     1     -23.488  25.577 -30.250  1.00  0.00     0.207 A 
ATOM      3  C   UNL     1     -23.965  25.208 -31.539  1.00  0.00     0.208 A 
ATOM      4  C   UNL     1     -23.675  26.047 -32.646  1.00  0.00     0.184 A 
ATOM      5  C   UNL     1     -22.923  27.228 -32.458  1.00  0.00     0.025 A 
ATOM      6  C   UNL     1     -22.462  27.575 -31.187  1.00  0.00     0.062 A 
ATOM      7  C   UNL     1     -22.649  28.039 -33.564  1.00  0.00     0.020 A 
ATOM      8  C   UNL     1     -23.121  27.669 -34.820  1.00  0.00     0.094 A 
ATOM      9  C   UNL     1     -23.858  26.490 -34.939  1.00  0.00     0.336 A 
ATOM     10  O   UNL     1     -24.296  26.133 -36.065  1.00  0.00    -0.246 OA
ATOM     11  O   UNL     1     -24.103  25.739 -33.870  1.00  0.00    -0.419 OA
ENDROOT
BRANCH   1  12
ATOM     12  O   UNL     1     -22.292  27.077 -28.793  1.00  0.00    -0.493 OA
ATOM     13  C   UNL     1     -21.906  28.381 -28.368  1.00  0.00     0.278 C 
ENDBRANCH   1  12
BRANCH   2  14
ATOM     14  O   UNL     1     -23.718  24.820 -29.084  1.00  0.00    -0.490 OA
ATOM     15  C   UNL     1     -23.100  23.588 -28.727  1.00  0.00     0.278 C 
ENDBRANCH   2  14
BRANCH   3  16
ATOM     16  O   UNL     1     -24.710  24.021 -31.667  1.00  0.00    -0.490 OA
ATOM     17  C   UNL     1     -26.128  23.900 -31.737  1.00  0.00     0.278 C 
ENDBRANCH   3  16
TORSDOF 3
ENDMDL
MODEL 7
REMARK VINA RESULT:    -0.496      2.337      6.069
REMARK INTER + INTRA:          -0.524
REMARK INTER:                  -1.032
REMARK INTRA:                   0.508
REMARK UNBOUND:                 0.059
REMARK SMILES COc1cc2ccc(=O)oc2c(OC)c1OC
REMARK SMILES IDX 3 1 15 2 12 3 11 4 5 5 4 6 6 7 7 8 8 9 9 10 10 11 2 12 1 13
REMARK SMILES IDX 16 14 17 15 13 16 14 17
REMARK H PARENT
REMARK Flexibility Score: inf
ROOT
ATOM      1  C   UNL     1     -34.355   9.512 -35.914  1.00  0.00     0.165 A 
ATOM      2  C   UNL     1     -33.833  10.804 -36.087  1.00  0.00     0.207 A 
ATOM      3  C   UNL     1     -33.213  11.476 -34.996  1.00  0.00     0.208 A 
ATOM      4  C   UNL     1     -33.133  10.821 -33.740  1.00  0.00     0.184 A 
ATOM      5  C   UNL     1     -33.664   9.521 -33.588  1.00  0.00     0.025 A 
ATOM      6  C   UNL     1     -34.268   8.876 -34.667  1.00  0.00     0.062 A 
ATOM      7  C   UNL     1     -33.572   8.896 -32.340  1.00  0.00     0.020 A 
ATOM      8  C   UNL     1     -32.964   9.562 -31.280  1.00  0.00     0.094 A 
ATOM      9  C   UNL     1     -32.460  10.845 -31.496  1.00  0.00     0.336 A 
ATOM     10  O   UNL     1     -31.904  11.470 -30.554  1.00  0.00    -0.246 OA
ATOM     11  O   UNL     1     -32.561  11.415 -32.693  1.00  0.00    -0.419 OA
ENDROOT
BRANCH   1  12
ATOM     12  O   UNL     1     -34.957   8.888 -37.020  1.00  0.00    -0.493 OA
ATOM     13  C   UNL     1     -34.418   8.875 -38.338  1.00  0.00     0.278 C 
ENDBRANCH   1  12
BRANCH   2  14
ATOM     14  O   UNL     1     -33.968  11.360 -37.375  1.00  0.00    -0.490 OA
ATOM     15  C   UNL     1     -34.972  12.269 -37.815  1.00  0.00     0.278 C 
ENDBRANCH   2  14
BRANCH   3  16
ATOM     16  O   UNL     1     -32.702  12.771 -35.206  1.00  0.00    -0.490 OA
ATOM     17  C   UNL     1     -31.381  13.117 -35.612  1.00  0.00     0.278 C 
ENDBRANCH   3  16
TORSDOF 3
ENDMDL
MODEL 8
REMARK VINA RESULT:    -0.235      1.899      5.382
REMARK INTER + INTRA:          -0.217
REMARK INTER:                  -0.344
REMARK INTRA:                   0.127
REMARK UNBOUND:                 0.059
REMARK SMILES COc1cc2ccc(=O)oc2c(OC)c1OC
REMARK SMILES IDX 3 1 15 2 12 3 11 4 5 5 4 6 6 7 7 8 8 9 9 10 10 11 2 12 1 13
REMARK SMILES IDX 16 14 17 15 13 16 14 17
REMARK H PARENT
REMARK Flexibility Score: inf
ROOT
ATOM      1  C   UNL     1     -34.085  11.612 -36.540  1.00  0.00     0.165 A 
ATOM      2  C   UNL     1     -33.227  10.502 -36.608  1.00  0.00     0.207 A 
ATOM      3  C   UNL     1     -32.629   9.988 -35.424  1.00  0.00     0.208 A 
ATOM      4  C   UNL     1     -32.912  10.612 -34.182  1.00  0.00     0.184 A 
ATOM      5  C   UNL     1     -33.778  11.728 -34.135  1.00  0.00     0.025 A 
ATOM      6  C   UNL     1     -34.358  12.220 -35.305  1.00  0.00     0.062 A 
ATOM      7  C   UNL     1     -34.043  12.326 -32.899  1.00  0.00     0.020 A 
ATOM      8  C   UNL     1     -33.452  11.815 -31.747  1.00  0.00     0.094 A 
ATOM      9  C   UNL     1     -32.606  10.711 -31.861  1.00  0.00     0.336 A 
ATOM     10  O   UNL     1     -32.059  10.229 -30.834  1.00  0.00    -0.246 OA
ATOM     11  O   UNL     1     -32.372  10.163 -33.050  1.00  0.00    -0.419 OA
ENDROOT
BRANCH   1  12
ATOM     12  O   UNL     1     -34.654  12.084 -37.735  1.00  0.00    -0.493 OA
ATOM     13  C   UNL     1     -35.773  11.495 -38.390  1.00  0.00     0.278 C 
ENDBRANCH   1  12
BRANCH   2  14
ATOM     14  O   UNL     1     -33.015   9.961 -37.892  1.00  0.00    -0.490 OA
ATOM     15  C   UNL     1     -33.723   8.883 -38.495  1.00  0.00     0.278 C 
ENDBRANCH   2  14
BRANCH   3  16
ATOM     16  O   UNL     1     -31.773   8.875 -35.531  1.00  0.00    -0.490 OA
ATOM     17  C   UNL     1     -30.351   8.875 -35.457  1.00  0.00     0.278 C 
ENDBRANCH   3  16
TORSDOF 3
ENDMDL
