MODEL 1
REMARK VINA RESULT:    -1.421      0.000      0.000
REMARK INTER + INTRA:          -1.550
REMARK INTER:                  -1.753
REMARK INTRA:                   0.204
REMARK UNBOUND:                 0.204
REMARK SMILES Oc1cc(O)c2cc(O)c(-c3cc(O)c(O)c(O)c3)[o+]c2c1
REMARK SMILES IDX 10 1 20 2 21 3 22 4 2 5 3 6 4 7 6 8 7 9 8 10 11 11 12 12
REMARK SMILES IDX 13 13 19 14 15 15 17 16 14 17 16 19 18 21 9 23 1 25 5 27
REMARK H PARENT 14 18 16 20 18 22 9 24 1 26 5 28
REMARK Flexibility Score: inf
ROOT
ATOM      1  C   UNL     1     -11.634 -16.125  30.456  1.00  0.00     0.402 A 
ATOM      2  O   UNL     1     -12.425 -15.620  29.514  1.00  0.00    -0.202 OA
ATOM      3  C   UNL     1     -12.348 -15.966  28.234  1.00  0.00     0.368 A 
ATOM      4  C   UNL     1     -13.222 -15.377  27.315  1.00  0.00     0.162 A 
ATOM      5  C   UNL     1     -13.161 -15.721  25.962  1.00  0.00     0.128 A 
ATOM      6  C   UNL     1     -12.221 -16.656  25.525  1.00  0.00     0.093 A 
ATOM      7  C   UNL     1     -11.334 -17.261  26.424  1.00  0.00     0.136 A 
ATOM      8  C   UNL     1     -11.393 -16.917  27.799  1.00  0.00     0.125 A 
ATOM      9  C   UNL     1     -10.553 -17.481  28.773  1.00  0.00     0.078 A 
ATOM     10  C   UNL     1     -10.676 -17.096  30.112  1.00  0.00     0.223 A 
ENDROOT
BRANCH   1  11
ATOM     11  C   UNL     1     -11.810 -15.652  31.848  1.00  0.00     0.091 A 
ATOM     12  C   UNL     1     -10.750 -15.669  32.767  1.00  0.00     0.068 A 
ATOM     13  C   UNL     1     -10.932 -15.196  34.073  1.00  0.00     0.162 A 
ATOM     14  C   UNL     1     -13.046 -15.121  32.244  1.00  0.00     0.068 A 
ATOM     15  C   UNL     1     -12.176 -14.687  34.473  1.00  0.00     0.200 A 
ATOM     16  C   UNL     1     -13.243 -14.646  33.546  1.00  0.00     0.162 A 
BRANCH  13  17
ATOM     17  O   UNL     1      -9.875 -15.224  34.981  1.00  0.00    -0.504 OA
ATOM     18  H   UNL     1      -8.920 -15.050  34.691  1.00  0.00     0.293 HD
ENDBRANCH  13  17
BRANCH  15  19
ATOM     19  O   UNL     1     -12.306 -14.235  35.789  1.00  0.00    -0.502 OA
ATOM     20  H   UNL     1     -11.602 -14.356  36.502  1.00  0.00     0.293 HD
ENDBRANCH  15  19
BRANCH  16  21
ATOM     21  O   UNL     1     -14.505 -14.142  33.871  1.00  0.00    -0.504 OA
ATOM     22  H   UNL     1     -14.842 -14.025  34.815  1.00  0.00     0.293 HD
ENDBRANCH  16  21
ENDBRANCH   1  11
BRANCH  10  23
ATOM     23  O   UNL     1      -9.875 -17.693  31.087  1.00  0.00    -0.500 OA
ATOM     24  H   UNL     1      -9.761 -18.699  31.140  1.00  0.00     0.294 HD
ENDBRANCH  10  23
BRANCH   5  25
ATOM     25  O   UNL     1     -14.030 -15.138  25.042  1.00  0.00    -0.507 OA
ATOM     26  H   UNL     1     -13.685 -14.596  24.258  1.00  0.00     0.293 HD
ENDBRANCH   5  25
BRANCH   7  27
ATOM     27  O   UNL     1     -10.421 -18.184  25.905  1.00  0.00    -0.507 OA
ATOM     28  H   UNL     1      -9.755 -18.701  26.460  1.00  0.00     0.293 HD
ENDBRANCH   7  27
TORSDOF 7
ENDMDL
MODEL 2
REMARK VINA RESULT:    -0.761      3.136      5.397
REMARK INTER + INTRA:          -0.735
REMARK INTER:                  -0.358
REMARK INTRA:                  -0.377
REMARK UNBOUND:                 0.204
REMARK SMILES Oc1cc(O)c2cc(O)c(-c3cc(O)c(O)c(O)c3)[o+]c2c1
REMARK SMILES IDX 10 1 20 2 21 3 22 4 2 5 3 6 4 7 6 8 7 9 8 10 11 11 12 12
REMARK SMILES IDX 13 13 19 14 15 15 17 16 14 17 16 19 18 21 9 23 1 25 5 27
REMARK H PARENT 14 18 16 20 18 22 9 24 1 26 5 28
REMARK Flexibility Score: inf
ROOT
ATOM      1  C   UNL     1     -12.773 -15.904  29.822  1.00  0.00     0.402 A 
ATOM      2  O   UNL     1     -13.941 -15.609  30.385  1.00  0.00    -0.202 OA
ATOM      3  C   UNL     1     -14.607 -14.487  30.139  1.00  0.00     0.368 A 
ATOM      4  C   UNL     1     -15.828 -14.264  30.784  1.00  0.00     0.162 A 
ATOM      5  C   UNL     1     -16.548 -13.091  30.545  1.00  0.00     0.128 A 
ATOM      6  C   UNL     1     -16.045 -12.134  29.661  1.00  0.00     0.093 A 
ATOM      7  C   UNL     1     -14.825 -12.332  29.002  1.00  0.00     0.136 A 
ATOM      8  C   UNL     1     -14.090 -13.524  29.239  1.00  0.00     0.125 A 
ATOM      9  C   UNL     1     -12.867 -13.813  28.615  1.00  0.00     0.078 A 
ATOM     10  C   UNL     1     -12.204 -15.012  28.895  1.00  0.00     0.223 A 
ENDROOT
BRANCH   1  11
ATOM     11  C   UNL     1     -12.122 -17.183  30.185  1.00  0.00     0.091 A 
ATOM     12  C   UNL     1     -11.292 -17.289  31.312  1.00  0.00     0.068 A 
ATOM     13  C   UNL     1     -10.705 -18.515  31.650  1.00  0.00     0.162 A 
ATOM     14  C   UNL     1     -12.384 -18.331  29.422  1.00  0.00     0.068 A 
ATOM     15  C   UNL     1     -10.949 -19.655  30.873  1.00  0.00     0.200 A 
ATOM     16  C   UNL     1     -11.803 -19.562  29.748  1.00  0.00     0.162 A 
BRANCH  13  17
ATOM     17  O   UNL     1      -9.875 -18.608  32.767  1.00  0.00    -0.504 OA
ATOM     18  H   UNL     1      -8.905 -18.889  32.687  1.00  0.00     0.293 HD
ENDBRANCH  13  17
BRANCH  15  19
ATOM     19  O   UNL     1     -10.332 -20.851  31.249  1.00  0.00    -0.502 OA
ATOM     20  H   UNL     1      -9.432 -20.905  31.703  1.00  0.00     0.293 HD
ENDBRANCH  15  19
BRANCH  16  21
ATOM     21  O   UNL     1     -12.101 -20.658  28.935  1.00  0.00    -0.504 OA
ATOM     22  H   UNL     1     -12.622 -21.466  29.243  1.00  0.00     0.293 HD
ENDBRANCH  16  21
ENDBRANCH   1  11
BRANCH  10  23
ATOM     23  O   UNL     1     -11.012 -15.322  28.238  1.00  0.00    -0.500 OA
ATOM     24  H   UNL     1     -10.864 -15.086  27.263  1.00  0.00     0.294 HD
ENDBRANCH  10  23
BRANCH   5  25
ATOM     25  O   UNL     1     -17.765 -12.863  31.183  1.00  0.00    -0.507 OA
ATOM     26  H   UNL     1     -18.320 -12.038  30.986  1.00  0.00     0.293 HD
ENDBRANCH   5  25
BRANCH   7  27
ATOM     27  O   UNL     1     -14.391 -11.326  28.135  1.00  0.00    -0.507 OA
ATOM     28  H   UNL     1     -14.999 -10.649  27.697  1.00  0.00     0.293 HD
ENDBRANCH   7  27
TORSDOF 7
ENDMDL
MODEL 3
REMARK VINA RESULT:    -0.513      2.069      7.625
REMARK INTER + INTRA:          -0.429
REMARK INTER:                  -0.257
REMARK INTRA:                  -0.172
REMARK UNBOUND:                 0.204
REMARK SMILES Oc1cc(O)c2cc(O)c(-c3cc(O)c(O)c(O)c3)[o+]c2c1
REMARK SMILES IDX 10 1 20 2 21 3 22 4 2 5 3 6 4 7 6 8 7 9 8 10 11 11 12 12
REMARK SMILES IDX 13 13 19 14 15 15 17 16 14 17 16 19 18 21 9 23 1 25 5 27
REMARK H PARENT 14 18 16 20 18 22 9 24 1 26 5 28
REMARK Flexibility Score: inf
ROOT
ATOM      1  C   UNL     1     -12.616 -15.619  32.083  1.00  0.00     0.402 A 
ATOM      2  O   UNL     1     -11.735 -15.734  33.073  1.00  0.00    -0.202 OA
ATOM      3  C   UNL     1     -11.788 -15.010  34.185  1.00  0.00     0.368 A 
ATOM      4  C   UNL     1     -10.812 -15.200  35.169  1.00  0.00     0.162 A 
ATOM      5  C   UNL     1     -10.843 -14.450  36.348  1.00  0.00     0.128 A 
ATOM      6  C   UNL     1     -11.851 -13.504  36.543  1.00  0.00     0.093 A 
ATOM      7  C   UNL     1     -12.840 -13.293  35.574  1.00  0.00     0.136 A 
ATOM      8  C   UNL     1     -12.815 -14.054  34.376  1.00  0.00     0.125 A 
ATOM      9  C   UNL     1     -13.771 -13.920  33.357  1.00  0.00     0.078 A 
ATOM     10  C   UNL     1     -13.683 -14.710  32.206  1.00  0.00     0.223 A 
ENDROOT
BRANCH   1  11
ATOM     11  C   UNL     1     -12.444 -16.476  30.888  1.00  0.00     0.091 A 
ATOM     12  C   UNL     1     -12.334 -15.925  29.603  1.00  0.00     0.068 A 
ATOM     13  C   UNL     1     -12.150 -16.753  28.487  1.00  0.00     0.162 A 
ATOM     14  C   UNL     1     -12.332 -17.865  31.046  1.00  0.00     0.068 A 
ATOM     15  C   UNL     1     -12.061 -18.143  28.645  1.00  0.00     0.200 A 
ATOM     16  C   UNL     1     -12.148 -18.704  29.941  1.00  0.00     0.162 A 
BRANCH  13  17
ATOM     17  O   UNL     1     -12.049 -16.197  27.213  1.00  0.00    -0.504 OA
ATOM     18  H   UNL     1     -12.713 -15.508  26.879  1.00  0.00     0.293 HD
ENDBRANCH  13  17
BRANCH  15  19
ATOM     19  O   UNL     1     -11.885 -18.923  27.500  1.00  0.00    -0.502 OA
ATOM     20  H   UNL     1     -11.630 -19.899  27.513  1.00  0.00     0.293 HD
ENDBRANCH  15  19
BRANCH  16  21
ATOM     21  O   UNL     1     -12.056 -20.078  30.176  1.00  0.00    -0.504 OA
ATOM     22  H   UNL     1     -12.679 -20.764  29.776  1.00  0.00     0.293 HD
ENDBRANCH  16  21
ENDBRANCH   1  11
BRANCH  10  23
ATOM     23  O   UNL     1     -14.661 -14.613  31.214  1.00  0.00    -0.500 OA
ATOM     24  H   UNL     1     -14.752 -13.786  30.636  1.00  0.00     0.294 HD
ENDBRANCH  10  23
BRANCH   5  25
ATOM     25  O   UNL     1      -9.875 -14.636  37.332  1.00  0.00    -0.507 OA
ATOM     26  H   UNL     1     -10.084 -15.126  38.194  1.00  0.00     0.293 HD
ENDBRANCH   5  25
BRANCH   7  27
ATOM     27  O   UNL     1     -13.812 -12.326  35.845  1.00  0.00    -0.507 OA
ATOM     28  H   UNL     1     -13.633 -11.460  36.333  1.00  0.00     0.293 HD
ENDBRANCH   7  27
TORSDOF 7
ENDMDL
MODEL 4
REMARK VINA RESULT:    -0.143      1.644      7.121
REMARK INTER + INTRA:           0.028
REMARK INTER:                  -0.156
REMARK INTRA:                   0.184
REMARK UNBOUND:                 0.204
REMARK SMILES Oc1cc(O)c2cc(O)c(-c3cc(O)c(O)c(O)c3)[o+]c2c1
REMARK SMILES IDX 10 1 20 2 21 3 22 4 2 5 3 6 4 7 6 8 7 9 8 10 11 11 12 12
REMARK SMILES IDX 13 13 19 14 15 15 17 16 14 17 16 19 18 21 9 23 1 25 5 27
REMARK H PARENT 14 18 16 20 18 22 9 24 1 26 5 28
REMARK Flexibility Score: inf
ROOT
ATOM      1  C   UNL     1     -11.820 -15.883  31.483  1.00  0.00     0.402 A 
ATOM      2  O   UNL     1     -12.546 -15.000  32.163  1.00  0.00    -0.202 OA
ATOM      3  C   UNL     1     -12.283 -14.650  33.417  1.00  0.00     0.368 A 
ATOM      4  C   UNL     1     -13.108 -13.714  34.049  1.00  0.00     0.162 A 
ATOM      5  C   UNL     1     -12.855 -13.329  35.369  1.00  0.00     0.128 A 
ATOM      6  C   UNL     1     -11.776 -13.883  36.060  1.00  0.00     0.093 A 
ATOM      7  C   UNL     1     -10.934 -14.822  35.449  1.00  0.00     0.136 A 
ATOM      8  C   UNL     1     -11.185 -15.215  34.109  1.00  0.00     0.125 A 
ATOM      9  C   UNL     1     -10.388 -16.138  33.413  1.00  0.00     0.078 A 
ATOM     10  C   UNL     1     -10.695 -16.471  32.090  1.00  0.00     0.223 A 
ENDROOT
BRANCH   1  11
ATOM     11  C   UNL     1     -12.221 -16.199  30.093  1.00  0.00     0.091 A 
ATOM     12  C   UNL     1     -12.759 -15.219  29.246  1.00  0.00     0.068 A 
ATOM     13  C   UNL     1     -13.110 -15.533  27.927  1.00  0.00     0.162 A 
ATOM     14  C   UNL     1     -12.006 -17.491  29.590  1.00  0.00     0.068 A 
ATOM     15  C   UNL     1     -12.916 -16.831  27.434  1.00  0.00     0.200 A 
ATOM     16  C   UNL     1     -12.353 -17.820  28.275  1.00  0.00     0.162 A 
BRANCH  13  17
ATOM     17  O   UNL     1     -13.651 -14.554  27.095  1.00  0.00    -0.504 OA
ATOM     18  H   UNL     1     -14.571 -14.656  26.682  1.00  0.00     0.293 HD
ENDBRANCH  13  17
BRANCH  15  19
ATOM     19  O   UNL     1     -13.291 -17.094  26.113  1.00  0.00    -0.502 OA
ATOM     20  H   UNL     1     -13.671 -16.402  25.484  1.00  0.00     0.293 HD
ENDBRANCH  15  19
BRANCH  16  21
ATOM     21  O   UNL     1     -12.120 -19.129  27.848  1.00  0.00    -0.504 OA
ATOM     22  H   UNL     1     -11.210 -19.564  27.825  1.00  0.00     0.293 HD
ENDBRANCH  16  21
ENDBRANCH   1  11
BRANCH  10  23
ATOM     23  O   UNL     1      -9.875 -17.351  31.382  1.00  0.00    -0.500 OA
ATOM     24  H   UNL     1      -9.165 -17.907  31.845  1.00  0.00     0.294 HD
ENDBRANCH  10  23
BRANCH   5  25
ATOM     25  O   UNL     1     -13.672 -12.397  36.005  1.00  0.00    -0.507 OA
ATOM     26  H   UNL     1     -14.189 -11.701  35.480  1.00  0.00     0.293 HD
ENDBRANCH   5  25
BRANCH   7  27
ATOM     27  O   UNL     1      -9.878 -15.331  36.211  1.00  0.00    -0.507 OA
ATOM     28  H   UNL     1      -9.989 -15.800  37.098  1.00  0.00     0.293 HD
ENDBRANCH   7  27
TORSDOF 7
ENDMDL
MODEL 5
REMARK VINA RESULT:    -0.055      1.690      2.124
REMARK INTER + INTRA:           0.135
REMARK INTER:                   0.513
REMARK INTRA:                  -0.378
REMARK UNBOUND:                 0.204
REMARK SMILES Oc1cc(O)c2cc(O)c(-c3cc(O)c(O)c(O)c3)[o+]c2c1
REMARK SMILES IDX 10 1 20 2 21 3 22 4 2 5 3 6 4 7 6 8 7 9 8 10 11 11 12 12
REMARK SMILES IDX 13 13 19 14 15 15 17 16 14 17 16 19 18 21 9 23 1 25 5 27
REMARK H PARENT 14 18 16 20 18 22 9 24 1 26 5 28
REMARK Flexibility Score: inf
ROOT
ATOM      1  C   UNL     1     -12.118 -16.457  31.644  1.00  0.00     0.402 A 
ATOM      2  O   UNL     1     -11.582 -15.963  30.532  1.00  0.00    -0.202 OA
ATOM      3  C   UNL     1     -11.542 -16.628  29.383  1.00  0.00     0.368 A 
ATOM      4  C   UNL     1     -10.953 -16.025  28.267  1.00  0.00     0.162 A 
ATOM      5  C   UNL     1     -10.896 -16.704  27.047  1.00  0.00     0.128 A 
ATOM      6  C   UNL     1     -11.427 -17.991  26.941  1.00  0.00     0.093 A 
ATOM      7  C   UNL     1     -12.022 -18.618  28.044  1.00  0.00     0.136 A 
ATOM      8  C   UNL     1     -12.086 -17.932  29.285  1.00  0.00     0.125 A 
ATOM      9  C   UNL     1     -12.674 -18.476  30.438  1.00  0.00     0.078 A 
ATOM     10  C   UNL     1     -12.703 -17.737  31.624  1.00  0.00     0.223 A 
ENDROOT
BRANCH   1  11
ATOM     11  C   UNL     1     -12.092 -15.622  32.866  1.00  0.00     0.091 A 
ATOM     12  C   UNL     1     -10.988 -15.624  33.731  1.00  0.00     0.068 A 
ATOM     13  C   UNL     1     -10.975 -14.809  34.871  1.00  0.00     0.162 A 
ATOM     14  C   UNL     1     -13.169 -14.765  33.139  1.00  0.00     0.068 A 
ATOM     15  C   UNL     1     -12.062 -13.971  35.153  1.00  0.00     0.200 A 
ATOM     16  C   UNL     1     -13.170 -13.946  34.273  1.00  0.00     0.162 A 
BRANCH  13  17
ATOM     17  O   UNL     1      -9.876 -14.823  35.728  1.00  0.00    -0.504 OA
ATOM     18  H   UNL     1      -9.950 -14.520  36.692  1.00  0.00     0.293 HD
ENDBRANCH  13  17
BRANCH  15  19
ATOM     19  O   UNL     1     -12.002 -13.184  36.306  1.00  0.00    -0.502 OA
ATOM     20  H   UNL     1     -12.290 -12.218  36.349  1.00  0.00     0.293 HD
ENDBRANCH  15  19
BRANCH  16  21
ATOM     21  O   UNL     1     -14.283 -13.128  34.485  1.00  0.00    -0.504 OA
ATOM     22  H   UNL     1     -14.800 -12.674  33.747  1.00  0.00     0.293 HD
ENDBRANCH  16  21
ENDBRANCH   1  11
BRANCH  10  23
ATOM     23  O   UNL     1     -13.332 -18.256  32.757  1.00  0.00    -0.500 OA
ATOM     24  H   UNL     1     -14.006 -17.716  33.287  1.00  0.00     0.294 HD
ENDBRANCH  10  23
BRANCH   5  25
ATOM     25  O   UNL     1     -10.311 -16.109  25.931  1.00  0.00    -0.507 OA
ATOM     26  H   UNL     1     -10.185 -15.105  25.871  1.00  0.00     0.293 HD
ENDBRANCH   5  25
BRANCH   7  27
ATOM     27  O   UNL     1     -12.527 -19.907  27.855  1.00  0.00    -0.507 OA
ATOM     28  H   UNL     1     -13.211 -20.345  28.456  1.00  0.00     0.293 HD
ENDBRANCH   7  27
TORSDOF 7
ENDMDL
MODEL 6
REMARK VINA RESULT:     0.017      2.075      3.367
REMARK INTER + INTRA:           0.224
REMARK INTER:                   0.585
REMARK INTRA:                  -0.361
REMARK UNBOUND:                 0.204
REMARK SMILES Oc1cc(O)c2cc(O)c(-c3cc(O)c(O)c(O)c3)[o+]c2c1
REMARK SMILES IDX 10 1 20 2 21 3 22 4 2 5 3 6 4 7 6 8 7 9 8 10 11 11 12 12
REMARK SMILES IDX 13 13 19 14 15 15 17 16 14 17 16 19 18 21 9 23 1 25 5 27
REMARK H PARENT 14 18 16 20 18 22 9 24 1 26 5 28
REMARK Flexibility Score: inf
ROOT
ATOM      1  C   UNL     1     -12.224 -15.993  32.449  1.00  0.00     0.402 A 
ATOM      2  O   UNL     1     -11.476 -15.742  31.378  1.00  0.00    -0.202 OA
ATOM      3  C   UNL     1     -11.521 -16.472  30.269  1.00  0.00     0.368 A 
ATOM      4  C   UNL     1     -10.692 -16.132  29.196  1.00  0.00     0.162 A 
ATOM      5  C   UNL     1     -10.718 -16.883  28.018  1.00  0.00     0.128 A 
ATOM      6  C   UNL     1     -11.575 -17.981  27.913  1.00  0.00     0.093 A 
ATOM      7  C   UNL     1     -12.416 -18.343  28.973  1.00  0.00     0.136 A 
ATOM      8  C   UNL     1     -12.395 -17.582  30.170  1.00  0.00     0.125 A 
ATOM      9  C   UNL     1     -13.211 -17.863  31.278  1.00  0.00     0.078 A 
ATOM     10  C   UNL     1     -13.139 -17.063  32.422  1.00  0.00     0.223 A 
ENDROOT
BRANCH   1  11
ATOM     11  C   UNL     1     -12.076 -15.113  33.630  1.00  0.00     0.091 A 
ATOM     12  C   UNL     1     -12.959 -14.049  33.866  1.00  0.00     0.068 A 
ATOM     13  C   UNL     1     -12.814 -13.242  35.002  1.00  0.00     0.162 A 
ATOM     14  C   UNL     1     -11.067 -15.381  34.567  1.00  0.00     0.068 A 
ATOM     15  C   UNL     1     -11.790 -13.497  35.925  1.00  0.00     0.200 A 
ATOM     16  C   UNL     1     -10.910 -14.583  35.706  1.00  0.00     0.162 A 
BRANCH  13  17
ATOM     17  O   UNL     1     -13.692 -12.182  35.223  1.00  0.00    -0.504 OA
ATOM     18  H   UNL     1     -13.426 -11.223  35.031  1.00  0.00     0.293 HD
ENDBRANCH  13  17
BRANCH  15  19
ATOM     19  O   UNL     1     -11.685 -12.658  37.037  1.00  0.00    -0.502 OA
ATOM     20  H   UNL     1     -10.874 -12.096  37.247  1.00  0.00     0.293 HD
ENDBRANCH  15  19
BRANCH  16  21
ATOM     21  O   UNL     1      -9.875 -14.904  36.588  1.00  0.00    -0.504 OA
ATOM     22  H   UNL     1      -9.739 -15.818  36.993  1.00  0.00     0.293 HD
ENDBRANCH  16  21
ENDBRANCH   1  11
BRANCH  10  23
ATOM     23  O   UNL     1     -13.985 -17.311  33.504  1.00  0.00    -0.500 OA
ATOM     24  H   UNL     1     -13.703 -17.906  34.275  1.00  0.00     0.294 HD
ENDBRANCH  10  23
BRANCH   5  25
ATOM     25  O   UNL     1      -9.894 -16.549  26.945  1.00  0.00    -0.507 OA
ATOM     26  H   UNL     1     -10.271 -16.155  26.091  1.00  0.00     0.293 HD
ENDBRANCH   5  25
BRANCH   7  27
ATOM     27  O   UNL     1     -13.241 -19.456  28.788  1.00  0.00    -0.507 OA
ATOM     28  H   UNL     1     -12.921 -20.413  28.813  1.00  0.00     0.293 HD
ENDBRANCH   7  27
TORSDOF 7
ENDMDL
MODEL 7
REMARK VINA RESULT:     0.678      1.949      2.481
REMARK INTER + INTRA:           1.040
REMARK INTER:                   1.298
REMARK INTRA:                  -0.257
REMARK UNBOUND:                 0.204
REMARK SMILES Oc1cc(O)c2cc(O)c(-c3cc(O)c(O)c(O)c3)[o+]c2c1
REMARK SMILES IDX 10 1 20 2 21 3 22 4 2 5 3 6 4 7 6 8 7 9 8 10 11 11 12 12
REMARK SMILES IDX 13 13 19 14 15 15 17 16 14 17 16 19 18 21 9 23 1 25 5 27
REMARK H PARENT 14 18 16 20 18 22 9 24 1 26 5 28
REMARK Flexibility Score: inf
ROOT
ATOM      1  C   UNL     1     -11.626 -16.283  31.244  1.00  0.00     0.402 A 
ATOM      2  O   UNL     1     -12.362 -17.365  31.005  1.00  0.00    -0.202 OA
ATOM      3  C   UNL     1     -12.313 -18.044  29.864  1.00  0.00     0.368 A 
ATOM      4  C   UNL     1     -13.130 -19.168  29.705  1.00  0.00     0.162 A 
ATOM      5  C   UNL     1     -13.099 -19.899  28.515  1.00  0.00     0.128 A 
ATOM      6  C   UNL     1     -12.251 -19.505  27.479  1.00  0.00     0.093 A 
ATOM      7  C   UNL     1     -11.423 -18.383  27.612  1.00  0.00     0.136 A 
ATOM      8  C   UNL     1     -11.448 -17.638  28.820  1.00  0.00     0.125 A 
ATOM      9  C   UNL     1     -10.644 -16.510  29.047  1.00  0.00     0.078 A 
ATOM     10  C   UNL     1     -10.721 -15.830  30.266  1.00  0.00     0.223 A 
ENDROOT
BRANCH   1  11
ATOM     11  C   UNL     1     -11.778 -15.606  32.551  1.00  0.00     0.091 A 
ATOM     12  C   UNL     1     -10.747 -15.611  33.502  1.00  0.00     0.068 A 
ATOM     13  C   UNL     1     -10.902 -14.945  34.725  1.00  0.00     0.162 A 
ATOM     14  C   UNL     1     -12.954 -14.894  32.827  1.00  0.00     0.068 A 
ATOM     15  C   UNL     1     -12.089 -14.253  35.007  1.00  0.00     0.200 A 
ATOM     16  C   UNL     1     -13.125 -14.224  34.044  1.00  0.00     0.162 A 
BRANCH  13  17
ATOM     17  O   UNL     1      -9.875 -14.962  35.667  1.00  0.00    -0.504 OA
ATOM     18  H   UNL     1      -9.264 -15.764  35.773  1.00  0.00     0.293 HD
ENDBRANCH  13  17
BRANCH  15  19
ATOM     19  O   UNL     1     -12.196 -13.612  36.244  1.00  0.00    -0.502 OA
ATOM     20  H   UNL     1     -12.912 -12.940  36.474  1.00  0.00     0.293 HD
ENDBRANCH  15  19
BRANCH  16  21
ATOM     21  O   UNL     1     -14.328 -13.546  34.251  1.00  0.00    -0.504 OA
ATOM     22  H   UNL     1     -14.441 -12.777  34.895  1.00  0.00     0.293 HD
ENDBRANCH  16  21
ENDBRANCH   1  11
BRANCH  10  23
ATOM     23  O   UNL     1      -9.887 -14.737  30.512  1.00  0.00    -0.500 OA
ATOM     24  H   UNL     1     -10.187 -13.957  31.084  1.00  0.00     0.294 HD
ENDBRANCH  10  23
BRANCH   5  25
ATOM     25  O   UNL     1     -13.910 -21.020  28.351  1.00  0.00    -0.507 OA
ATOM     26  H   UNL     1     -13.579 -21.847  27.866  1.00  0.00     0.293 HD
ENDBRANCH   5  25
BRANCH   7  27
ATOM     27  O   UNL     1     -10.605 -18.054  26.527  1.00  0.00    -0.507 OA
ATOM     28  H   UNL     1      -9.600 -17.969  26.576  1.00  0.00     0.293 HD
ENDBRANCH   7  27
TORSDOF 7
ENDMDL
MODEL 8
REMARK VINA RESULT:     0.830      2.894      5.741
REMARK INTER + INTRA:           1.228
REMARK INTER:                   1.413
REMARK INTRA:                  -0.185
REMARK UNBOUND:                 0.204
REMARK SMILES Oc1cc(O)c2cc(O)c(-c3cc(O)c(O)c(O)c3)[o+]c2c1
REMARK SMILES IDX 10 1 20 2 21 3 22 4 2 5 3 6 4 7 6 8 7 9 8 10 11 11 12 12
REMARK SMILES IDX 13 13 19 14 15 15 17 16 14 17 16 19 18 21 9 23 1 25 5 27
REMARK H PARENT 14 18 16 20 18 22 9 24 1 26 5 28
REMARK Flexibility Score: inf
ROOT
ATOM      1  C   UNL     1     -13.303 -15.182  31.088  1.00  0.00     0.402 A 
ATOM      2  O   UNL     1     -12.771 -16.157  30.356  1.00  0.00    -0.202 OA
ATOM      3  C   UNL     1     -11.853 -16.998  30.818  1.00  0.00     0.368 A 
ATOM      4  C   UNL     1     -11.350 -17.990  29.971  1.00  0.00     0.162 A 
ATOM      5  C   UNL     1     -10.382 -18.887  30.430  1.00  0.00     0.128 A 
ATOM      6  C   UNL     1      -9.912 -18.790  31.742  1.00  0.00     0.093 A 
ATOM      7  C   UNL     1     -10.399 -17.806  32.611  1.00  0.00     0.136 A 
ATOM      8  C   UNL     1     -11.385 -16.895  32.150  1.00  0.00     0.125 A 
ATOM      9  C   UNL     1     -11.939 -15.886  32.954  1.00  0.00     0.078 A 
ATOM     10  C   UNL     1     -12.911 -15.028  32.430  1.00  0.00     0.223 A 
ENDROOT
BRANCH   1  11
ATOM     11  C   UNL     1     -14.312 -14.302  30.456  1.00  0.00     0.091 A 
ATOM     12  C   UNL     1     -13.997 -13.512  29.340  1.00  0.00     0.068 A 
ATOM     13  C   UNL     1     -14.973 -12.702  28.743  1.00  0.00     0.162 A 
ATOM     14  C   UNL     1     -15.626 -14.297  30.945  1.00  0.00     0.068 A 
ATOM     15  C   UNL     1     -16.280 -12.682  29.248  1.00  0.00     0.200 A 
ATOM     16  C   UNL     1     -16.611 -13.493  30.359  1.00  0.00     0.162 A 
BRANCH  13  17
ATOM     17  O   UNL     1     -14.649 -11.915  27.639  1.00  0.00    -0.504 OA
ATOM     18  H   UNL     1     -13.761 -12.010  27.161  1.00  0.00     0.293 HD
ENDBRANCH  13  17
BRANCH  15  19
ATOM     19  O   UNL     1     -17.213 -11.852  28.621  1.00  0.00    -0.502 OA
ATOM     20  H   UNL     1     -17.749 -11.141  29.096  1.00  0.00     0.293 HD
ENDBRANCH  15  19
BRANCH  16  21
ATOM     21  O   UNL     1     -17.895 -13.533  30.908  1.00  0.00    -0.504 OA
ATOM     22  H   UNL     1     -18.442 -12.714  31.129  1.00  0.00     0.293 HD
ENDBRANCH  16  21
ENDBRANCH   1  11
BRANCH  10  23
ATOM     23  O   UNL     1     -13.498 -14.056  33.243  1.00  0.00    -0.500 OA
ATOM     24  H   UNL     1     -13.108 -13.124  33.325  1.00  0.00     0.294 HD
ENDBRANCH  10  23
BRANCH   5  25
ATOM     25  O   UNL     1      -9.877 -19.878  29.591  1.00  0.00    -0.507 OA
ATOM     26  H   UNL     1     -10.313 -20.790  29.528  1.00  0.00     0.293 HD
ENDBRANCH   5  25
BRANCH   7  27
ATOM     27  O   UNL     1      -9.875 -17.776  33.907  1.00  0.00    -0.507 OA
ATOM     28  H   UNL     1      -9.687 -18.596  34.465  1.00  0.00     0.293 HD
ENDBRANCH   7  27
TORSDOF 7
ENDMDL
MODEL 9
REMARK VINA RESULT:     1.124      1.041      2.573
REMARK INTER + INTRA:           1.590
REMARK INTER:                   1.130
REMARK INTRA:                   0.460
REMARK UNBOUND:                 0.204
REMARK SMILES Oc1cc(O)c2cc(O)c(-c3cc(O)c(O)c(O)c3)[o+]c2c1
REMARK SMILES IDX 10 1 20 2 21 3 22 4 2 5 3 6 4 7 6 8 7 9 8 10 11 11 12 12
REMARK SMILES IDX 13 13 19 14 15 15 17 16 14 17 16 19 18 21 9 23 1 25 5 27
REMARK H PARENT 14 18 16 20 18 22 9 24 1 26 5 28
REMARK Flexibility Score: inf
ROOT
ATOM      1  C   UNL     1     -12.529 -15.340  30.339  1.00  0.00     0.402 A 
ATOM      2  O   UNL     1     -11.652 -16.072  29.658  1.00  0.00    -0.202 OA
ATOM      3  C   UNL     1     -11.747 -16.296  28.352  1.00  0.00     0.368 A 
ATOM      4  C   UNL     1     -10.777 -17.084  27.725  1.00  0.00     0.162 A 
ATOM      5  C   UNL     1     -10.854 -17.338  26.353  1.00  0.00     0.128 A 
ATOM      6  C   UNL     1     -11.906 -16.805  25.605  1.00  0.00     0.093 A 
ATOM      7  C   UNL     1     -12.891 -16.014  26.209  1.00  0.00     0.136 A 
ATOM      8  C   UNL     1     -12.817 -15.750  27.602  1.00  0.00     0.125 A 
ATOM      9  C   UNL     1     -13.751 -14.958  28.289  1.00  0.00     0.078 A 
ATOM     10  C   UNL     1     -13.607 -14.739  29.662  1.00  0.00     0.223 A 
ENDROOT
BRANCH   1  11
ATOM     11  C   UNL     1     -12.321 -15.170  31.795  1.00  0.00     0.091 A 
ATOM     12  C   UNL     1     -11.189 -15.693  32.438  1.00  0.00     0.068 A 
ATOM     13  C   UNL     1     -10.999 -15.502  33.813  1.00  0.00     0.162 A 
ATOM     14  C   UNL     1     -13.243 -14.422  32.541  1.00  0.00     0.068 A 
ATOM     15  C   UNL     1     -11.934 -14.773  34.561  1.00  0.00     0.200 A 
ATOM     16  C   UNL     1     -13.067 -14.224  33.915  1.00  0.00     0.162 A 
BRANCH  13  17
ATOM     17  O   UNL     1      -9.875 -16.032  34.444  1.00  0.00    -0.504 OA
ATOM     18  H   UNL     1      -9.898 -16.322  35.414  1.00  0.00     0.293 HD
ENDBRANCH  13  17
BRANCH  15  19
ATOM     19  O   UNL     1     -11.702 -14.619  35.930  1.00  0.00    -0.502 OA
ATOM     20  H   UNL     1     -11.220 -15.295  36.503  1.00  0.00     0.293 HD
ENDBRANCH  15  19
BRANCH  16  21
ATOM     21  O   UNL     1     -14.033 -13.477  34.594  1.00  0.00    -0.504 OA
ATOM     22  H   UNL     1     -15.026 -13.551  34.428  1.00  0.00     0.293 HD
ENDBRANCH  16  21
ENDBRANCH   1  11
BRANCH  10  23
ATOM     23  O   UNL     1     -14.507 -13.911  30.336  1.00  0.00    -0.500 OA
ATOM     24  H   UNL     1     -15.405 -13.665  29.937  1.00  0.00     0.294 HD
ENDBRANCH  10  23
BRANCH   5  25
ATOM     25  O   UNL     1      -9.890 -18.121  25.721  1.00  0.00    -0.507 OA
ATOM     26  H   UNL     1      -9.527 -17.878  24.806  1.00  0.00     0.293 HD
ENDBRANCH   5  25
BRANCH   7  27
ATOM     27  O   UNL     1     -13.912 -15.521  25.391  1.00  0.00    -0.507 OA
ATOM     28  H   UNL     1     -14.521 -14.755  25.639  1.00  0.00     0.293 HD
ENDBRANCH   7  27
TORSDOF 7
ENDMDL
