MODEL 1
REMARK VINA RESULT:     7.774      0.000      0.000
REMARK INTER + INTRA:          13.815
REMARK INTER:                  14.136
REMARK INTRA:                  -0.321
REMARK UNBOUND:                -0.321
REMARK SMILES CCCCCC=CCC=CCCCCCCCC(=O)[O-]
REMARK SMILES IDX 11 1 12 2 13 3 14 4 15 5 16 6 17 7 18 8 19 9 20 10 10 11
REMARK SMILES IDX 9 12 8 13 7 14 6 15 5 16 4 17 3 18 2 19 1 20
REMARK H PARENT
REMARK Flexibility Score: inf
ROOT
ATOM      1  C   UNL     1     -13.237  61.889  -4.554  1.00  0.00     0.027 C 
ENDROOT
BRANCH   1   2
ATOM      2  C   UNL     1     -11.976  61.782  -5.427  1.00  0.00     0.004 C 
BRANCH   2   3
ATOM      3  C   UNL     1     -12.269  61.694  -6.939  1.00  0.00     0.000 C 
BRANCH   3   4
ATOM      4  C   UNL     1     -13.213  62.806  -7.425  1.00  0.00     0.000 C 
BRANCH   4   5
ATOM      5  C   UNL     1     -12.813  63.285  -8.830  1.00  0.00     0.000 C 
BRANCH   5   6
ATOM      6  C   UNL     1     -13.402  62.407  -9.946  1.00  0.00     0.006 C 
BRANCH   6   7
ATOM      7  C   UNL     1     -12.642  61.086 -10.125  1.00  0.00     0.053 C 
BRANCH   7   8
ATOM      8  C   UNL     1     -13.543  59.923  -9.851  1.00  0.00     0.041 C 
ATOM      9  O   UNL     1     -14.787  60.094  -9.747  1.00  0.00    -0.550 OA
ATOM     10  O   UNL     1     -13.005  58.655  -9.667  1.00  0.00    -0.550 OA
ENDBRANCH   7   8
ENDBRANCH   6   7
ENDBRANCH   5   6
ENDBRANCH   4   5
ENDBRANCH   3   4
ENDBRANCH   2   3
ENDBRANCH   1   2
BRANCH   1  11
ATOM     11  C   UNL     1     -12.958  61.586  -3.100  1.00  0.00    -0.031 C 
ATOM     12  C   UNL     1     -13.922  61.358  -2.188  1.00  0.00    -0.027 C 
BRANCH  12  13
ATOM     13  C   UNL     1     -15.401  61.347  -2.485  1.00  0.00     0.054 C 
BRANCH  13  14
ATOM     14  C   UNL     1     -16.177  61.828  -1.293  1.00  0.00    -0.027 C 
ATOM     15  C   UNL     1     -17.193  62.694  -1.421  1.00  0.00    -0.031 C 
BRANCH  15  16
ATOM     16  C   UNL     1     -17.963  63.188  -0.226  1.00  0.00     0.027 C 
BRANCH  16  17
ATOM     17  C   UNL     1     -19.411  63.574  -0.576  1.00  0.00     0.004 C 
BRANCH  17  18
ATOM     18  C   UNL     1     -20.269  62.409  -1.109  1.00  0.00     0.000 C 
BRANCH  18  19
ATOM     19  C   UNL     1     -20.008  62.031  -2.579  1.00  0.00    -0.003 C 
ATOM     20  C   UNL     1     -20.469  60.617  -2.923  1.00  0.00     0.004 C 
ENDBRANCH  18  19
ENDBRANCH  17  18
ENDBRANCH  16  17
ENDBRANCH  15  16
ENDBRANCH  13  14
ENDBRANCH  12  13
ENDBRANCH   1  11
TORSDOF 14
ENDMDL
MODEL 2
REMARK VINA RESULT:     7.961      5.661      8.281
REMARK INTER + INTRA:          14.155
REMARK INTER:                  14.931
REMARK INTRA:                  -0.776
REMARK UNBOUND:                -0.321
REMARK SMILES CCCCCC=CCC=CCCCCCCCC(=O)[O-]
REMARK SMILES IDX 11 1 12 2 13 3 14 4 15 5 16 6 17 7 18 8 19 9 20 10 10 11
REMARK SMILES IDX 9 12 8 13 7 14 6 15 5 16 4 17 3 18 2 19 1 20
REMARK H PARENT
REMARK Flexibility Score: inf
ROOT
ATOM      1  C   UNL     1     -19.101  64.436  -0.877  1.00  0.00     0.027 C 
ENDROOT
BRANCH   1   2
ATOM      2  C   UNL     1     -17.646  64.791  -0.524  1.00  0.00     0.004 C 
BRANCH   2   3
ATOM      3  C   UNL     1     -17.263  66.248  -0.851  1.00  0.00     0.000 C 
BRANCH   3   4
ATOM      4  C   UNL     1     -15.831  66.376  -1.397  1.00  0.00     0.000 C 
BRANCH   4   5
ATOM      5  C   UNL     1     -15.686  67.643  -2.255  1.00  0.00     0.000 C 
BRANCH   5   6
ATOM      6  C   UNL     1     -14.311  68.311  -2.098  1.00  0.00     0.006 C 
BRANCH   6   7
ATOM      7  C   UNL     1     -13.242  67.349  -1.560  1.00  0.00     0.053 C 
BRANCH   7   8
ATOM      8  C   UNL     1     -12.312  68.067  -0.633  1.00  0.00     0.041 C 
ATOM      9  O   UNL     1     -11.889  69.218  -0.923  1.00  0.00    -0.550 OA
ATOM     10  O   UNL     1     -11.875  67.447   0.531  1.00  0.00    -0.550 OA
ENDBRANCH   7   8
ENDBRANCH   6   7
ENDBRANCH   5   6
ENDBRANCH   4   5
ENDBRANCH   3   4
ENDBRANCH   2   3
ENDBRANCH   1   2
BRANCH   1  11
ATOM     11  C   UNL     1     -19.562  63.164  -0.204  1.00  0.00    -0.031 C 
ATOM     12  C   UNL     1     -20.000  62.082  -0.875  1.00  0.00    -0.027 C 
BRANCH  12  13
ATOM     13  C   UNL     1     -20.067  61.973  -2.378  1.00  0.00     0.054 C 
BRANCH  13  14
ATOM     14  C   UNL     1     -18.731  61.570  -2.933  1.00  0.00    -0.027 C 
ATOM     15  C   UNL     1     -17.640  61.507  -2.155  1.00  0.00    -0.031 C 
BRANCH  15  16
ATOM     16  C   UNL     1     -16.297  61.118  -2.711  1.00  0.00     0.027 C 
BRANCH  16  17
ATOM     17  C   UNL     1     -15.133  61.563  -1.808  1.00  0.00     0.004 C 
BRANCH  17  18
ATOM     18  C   UNL     1     -13.765  61.621  -2.517  1.00  0.00     0.000 C 
BRANCH  18  19
ATOM     19  C   UNL     1     -12.605  60.968  -1.742  1.00  0.00    -0.003 C 
ATOM     20  C   UNL     1     -13.036  60.397  -0.393  1.00  0.00     0.004 C 
ENDBRANCH  18  19
ENDBRANCH  17  18
ENDBRANCH  16  17
ENDBRANCH  15  16
ENDBRANCH  13  14
ENDBRANCH  12  13
ENDBRANCH   1  11
TORSDOF 14
ENDMDL
MODEL 3
REMARK VINA RESULT:     8.195      4.963      7.913
REMARK INTER + INTRA:          14.580
REMARK INTER:                  15.824
REMARK INTRA:                  -1.244
REMARK UNBOUND:                -0.321
REMARK SMILES CCCCCC=CCC=CCCCCCCCC(=O)[O-]
REMARK SMILES IDX 11 1 12 2 13 3 14 4 15 5 16 6 17 7 18 8 19 9 20 10 10 11
REMARK SMILES IDX 9 12 8 13 7 14 6 15 5 16 4 17 3 18 2 19 1 20
REMARK H PARENT
REMARK Flexibility Score: inf
ROOT
ATOM      1  C   UNL     1     -19.694  62.386  -0.780  1.00  0.00     0.027 C 
ENDROOT
BRANCH   1   2
ATOM      2  C   UNL     1     -19.915  62.052  -2.265  1.00  0.00     0.004 C 
BRANCH   2   3
ATOM      3  C   UNL     1     -18.644  61.571  -2.993  1.00  0.00     0.000 C 
BRANCH   3   4
ATOM      4  C   UNL     1     -17.515  61.185  -2.023  1.00  0.00     0.000 C 
BRANCH   4   5
ATOM      5  C   UNL     1     -16.193  61.853  -2.432  1.00  0.00     0.000 C 
BRANCH   5   6
ATOM      6  C   UNL     1     -14.981  60.923  -2.257  1.00  0.00     0.006 C 
BRANCH   6   7
ATOM      7  C   UNL     1     -14.110  61.305  -1.052  1.00  0.00     0.053 C 
BRANCH   7   8
ATOM      8  C   UNL     1     -12.926  60.394  -0.954  1.00  0.00     0.041 C 
ATOM      9  O   UNL     1     -11.996  60.469  -1.800  1.00  0.00    -0.550 OA
ATOM     10  O   UNL     1     -12.870  59.432   0.047  1.00  0.00    -0.550 OA
ENDBRANCH   7   8
ENDBRANCH   6   7
ENDBRANCH   5   6
ENDBRANCH   4   5
ENDBRANCH   3   4
ENDBRANCH   2   3
ENDBRANCH   1   2
BRANCH   1  11
ATOM     11  C   UNL     1     -20.182  63.770  -0.423  1.00  0.00    -0.031 C 
ATOM     12  C   UNL     1     -19.368  64.832  -0.271  1.00  0.00    -0.027 C 
BRANCH  12  13
ATOM     13  C   UNL     1     -17.871  64.801  -0.460  1.00  0.00     0.054 C 
BRANCH  13  14
ATOM     14  C   UNL     1     -17.439  65.900  -1.388  1.00  0.00    -0.027 C 
ATOM     15  C   UNL     1     -16.196  66.403  -1.346  1.00  0.00    -0.031 C 
BRANCH  15  16
ATOM     16  C   UNL     1     -15.764  67.514  -2.264  1.00  0.00     0.027 C 
BRANCH  16  17
ATOM     17  C   UNL     1     -14.560  68.299  -1.715  1.00  0.00     0.004 C 
BRANCH  17  18
ATOM     18  C   UNL     1     -13.346  67.424  -1.344  1.00  0.00     0.000 C 
BRANCH  18  19
ATOM     19  C   UNL     1     -11.976  68.097  -1.547  1.00  0.00    -0.003 C 
ATOM     20  C   UNL     1     -12.072  69.614  -1.693  1.00  0.00     0.004 C 
ENDBRANCH  18  19
ENDBRANCH  17  18
ENDBRANCH  16  17
ENDBRANCH  15  16
ENDBRANCH  13  14
ENDBRANCH  12  13
ENDBRANCH   1  11
TORSDOF 14
ENDMDL
MODEL 4
REMARK VINA RESULT:     8.301      4.698      6.591
REMARK INTER + INTRA:          14.774
REMARK INTER:                  14.252
REMARK INTRA:                   0.522
REMARK UNBOUND:                -0.321
REMARK SMILES CCCCCC=CCC=CCCCCCCCC(=O)[O-]
REMARK SMILES IDX 11 1 12 2 13 3 14 4 15 5 16 6 17 7 18 8 19 9 20 10 10 11
REMARK SMILES IDX 9 12 8 13 7 14 6 15 5 16 4 17 3 18 2 19 1 20
REMARK H PARENT
REMARK Flexibility Score: inf
ROOT
ATOM      1  C   UNL     1     -17.647  63.020  -0.008  1.00  0.00     0.027 C 
ENDROOT
BRANCH   1   2
ATOM      2  C   UNL     1     -16.331  62.818  -0.778  1.00  0.00     0.004 C 
BRANCH   2   3
ATOM      3  C   UNL     1     -16.416  61.754  -1.892  1.00  0.00     0.000 C 
BRANCH   3   4
ATOM      4  C   UNL     1     -15.125  60.931  -2.027  1.00  0.00     0.000 C 
BRANCH   4   5
ATOM      5  C   UNL     1     -14.143  61.612  -2.994  1.00  0.00     0.000 C 
BRANCH   5   6
ATOM      6  C   UNL     1     -12.740  61.783  -2.391  1.00  0.00     0.006 C 
BRANCH   6   7
ATOM      7  C   UNL     1     -12.186  60.479  -1.800  1.00  0.00     0.053 C 
BRANCH   7   8
ATOM      8  C   UNL     1     -12.727  60.259  -0.422  1.00  0.00     0.041 C 
ATOM      9  O   UNL     1     -13.091  59.109  -0.059  1.00  0.00    -0.550 OA
ATOM     10  O   UNL     1     -12.871  61.333   0.448  1.00  0.00    -0.550 OA
ENDBRANCH   7   8
ENDBRANCH   6   7
ENDBRANCH   5   6
ENDBRANCH   4   5
ENDBRANCH   3   4
ENDBRANCH   2   3
ENDBRANCH   1   2
BRANCH   1  11
ATOM     11  C   UNL     1     -18.325  64.323  -0.360  1.00  0.00    -0.031 C 
ATOM     12  C   UNL     1     -19.661  64.486  -0.384  1.00  0.00    -0.027 C 
BRANCH  12  13
ATOM     13  C   UNL     1     -20.663  63.411  -0.041  1.00  0.00     0.054 C 
BRANCH  13  14
ATOM     14  C   UNL     1     -20.451  62.204  -0.908  1.00  0.00    -0.027 C 
ATOM     15  C   UNL     1     -19.896  62.305  -2.126  1.00  0.00    -0.031 C 
BRANCH  15  16
ATOM     16  C   UNL     1     -19.695  61.098  -3.003  1.00  0.00     0.027 C 
BRANCH  16  17
ATOM     17  C   UNL     1     -20.965  60.236  -3.120  1.00  0.00     0.004 C 
BRANCH  17  18
ATOM     18  C   UNL     1     -21.697  60.362  -4.471  1.00  0.00     0.000 C 
BRANCH  18  19
ATOM     19  C   UNL     1     -21.278  59.329  -5.533  1.00  0.00    -0.003 C 
ATOM     20  C   UNL     1     -22.456  58.801  -6.349  1.00  0.00     0.004 C 
ENDBRANCH  18  19
ENDBRANCH  17  18
ENDBRANCH  16  17
ENDBRANCH  15  16
ENDBRANCH  13  14
ENDBRANCH  12  13
ENDBRANCH   1  11
TORSDOF 14
ENDMDL
MODEL 5
REMARK VINA RESULT:     8.462      1.290      2.237
REMARK INTER + INTRA:          15.067
REMARK INTER:                  13.909
REMARK INTRA:                   1.158
REMARK UNBOUND:                -0.321
REMARK SMILES CCCCCC=CCC=CCCCCCCCC(=O)[O-]
REMARK SMILES IDX 11 1 12 2 13 3 14 4 15 5 16 6 17 7 18 8 19 9 20 10 10 11
REMARK SMILES IDX 9 12 8 13 7 14 6 15 5 16 4 17 3 18 2 19 1 20
REMARK H PARENT
REMARK Flexibility Score: inf
ROOT
ATOM      1  C   UNL     1     -12.931  61.621  -4.554  1.00  0.00     0.027 C 
ENDROOT
BRANCH   1   2
ATOM      2  C   UNL     1     -11.876  61.794  -5.660  1.00  0.00     0.004 C 
BRANCH   2   3
ATOM      3  C   UNL     1     -12.472  62.109  -7.046  1.00  0.00     0.000 C 
BRANCH   3   4
ATOM      4  C   UNL     1     -11.888  61.222  -8.158  1.00  0.00     0.000 C 
BRANCH   4   5
ATOM      5  C   UNL     1     -12.695  61.374  -9.457  1.00  0.00     0.000 C 
BRANCH   5   6
ATOM      6  C   UNL     1     -12.594  62.786 -10.056  1.00  0.00     0.006 C 
BRANCH   6   7
ATOM      7  C   UNL     1     -13.782  63.679  -9.675  1.00  0.00     0.053 C 
BRANCH   7   8
ATOM      8  C   UNL     1     -15.072  62.945  -9.873  1.00  0.00     0.041 C 
ATOM      9  O   UNL     1     -16.153  63.581  -9.991  1.00  0.00    -0.550 OA
ATOM     10  O   UNL     1     -15.086  61.556  -9.881  1.00  0.00    -0.550 OA
ENDBRANCH   7   8
ENDBRANCH   6   7
ENDBRANCH   5   6
ENDBRANCH   4   5
ENDBRANCH   3   4
ENDBRANCH   2   3
ENDBRANCH   1   2
BRANCH   1  11
ATOM     11  C   UNL     1     -12.339  61.747  -3.169  1.00  0.00    -0.031 C 
ATOM     12  C   UNL     1     -12.943  61.290  -2.056  1.00  0.00    -0.027 C 
BRANCH  12  13
ATOM     13  C   UNL     1     -14.270  60.572  -2.032  1.00  0.00     0.054 C 
BRANCH  13  14
ATOM     14  C   UNL     1     -15.399  61.558  -2.122  1.00  0.00    -0.027 C 
ATOM     15  C   UNL     1     -16.672  61.186  -1.915  1.00  0.00    -0.031 C 
BRANCH  15  16
ATOM     16  C   UNL     1     -17.807  62.169  -2.019  1.00  0.00     0.027 C 
BRANCH  16  17
ATOM     17  C   UNL     1     -19.164  61.481  -2.245  1.00  0.00     0.004 C 
BRANCH  17  18
ATOM     18  C   UNL     1     -20.376  62.434  -2.198  1.00  0.00     0.000 C 
BRANCH  18  19
ATOM     19  C   UNL     1     -20.697  63.006  -0.805  1.00  0.00    -0.003 C 
ATOM     20  C   UNL     1     -19.548  63.819  -0.214  1.00  0.00     0.004 C 
ENDBRANCH  18  19
ENDBRANCH  17  18
ENDBRANCH  16  17
ENDBRANCH  15  16
ENDBRANCH  13  14
ENDBRANCH  12  13
ENDBRANCH   1  11
TORSDOF 14
ENDMDL
MODEL 6
REMARK VINA RESULT:     8.488      4.295      7.861
REMARK INTER + INTRA:          15.113
REMARK INTER:                  15.921
REMARK INTRA:                  -0.809
REMARK UNBOUND:                -0.321
REMARK SMILES CCCCCC=CCC=CCCCCCCCC(=O)[O-]
REMARK SMILES IDX 11 1 12 2 13 3 14 4 15 5 16 6 17 7 18 8 19 9 20 10 10 11
REMARK SMILES IDX 9 12 8 13 7 14 6 15 5 16 4 17 3 18 2 19 1 20
REMARK H PARENT
REMARK Flexibility Score: inf
ROOT
ATOM      1  C   UNL     1     -20.299  63.627   0.056  1.00  0.00     0.027 C 
ENDROOT
BRANCH   1   2
ATOM      2  C   UNL     1     -20.916  62.872  -1.134  1.00  0.00     0.004 C 
BRANCH   2   3
ATOM      3  C   UNL     1     -20.064  62.929  -2.418  1.00  0.00     0.000 C 
BRANCH   3   4
ATOM      4  C   UNL     1     -19.550  61.546  -2.851  1.00  0.00     0.000 C 
BRANCH   4   5
ATOM      5  C   UNL     1     -20.484  60.435  -2.345  1.00  0.00     0.000 C 
BRANCH   5   6
ATOM      6  C   UNL     1     -21.504  59.990  -3.406  1.00  0.00     0.006 C 
BRANCH   6   7
ATOM      7  C   UNL     1     -20.984  60.165  -4.839  1.00  0.00     0.053 C 
BRANCH   7   8
ATOM      8  C   UNL     1     -21.738  59.279  -5.781  1.00  0.00     0.041 C 
ATOM      9  O   UNL     1     -22.937  59.535  -6.070  1.00  0.00    -0.550 OA
ATOM     10  O   UNL     1     -21.130  58.146  -6.305  1.00  0.00    -0.550 OA
ENDBRANCH   7   8
ENDBRANCH   6   7
ENDBRANCH   5   6
ENDBRANCH   4   5
ENDBRANCH   3   4
ENDBRANCH   2   3
ENDBRANCH   1   2
BRANCH   1  11
ATOM     11  C   UNL     1     -19.194  64.566  -0.368  1.00  0.00    -0.031 C 
ATOM     12  C   UNL     1     -17.898  64.207  -0.440  1.00  0.00    -0.027 C 
BRANCH  12  13
ATOM     13  C   UNL     1     -17.371  62.826  -0.136  1.00  0.00     0.054 C 
BRANCH  13  14
ATOM     14  C   UNL     1     -16.817  62.194  -1.380  1.00  0.00    -0.027 C 
ATOM     15  C   UNL     1     -15.513  61.897  -1.494  1.00  0.00    -0.031 C 
BRANCH  15  16
ATOM     16  C   UNL     1     -14.953  61.276  -2.745  1.00  0.00     0.027 C 
BRANCH  16  17
ATOM     17  C   UNL     1     -13.551  61.808  -3.090  1.00  0.00     0.004 C 
BRANCH  17  18
ATOM     18  C   UNL     1     -12.494  61.576  -1.991  1.00  0.00     0.000 C 
BRANCH  18  19
ATOM     19  C   UNL     1     -12.439  60.140  -1.438  1.00  0.00    -0.003 C 
ATOM     20  C   UNL     1     -12.764  60.061   0.052  1.00  0.00     0.004 C 
ENDBRANCH  18  19
ENDBRANCH  17  18
ENDBRANCH  16  17
ENDBRANCH  15  16
ENDBRANCH  13  14
ENDBRANCH  12  13
ENDBRANCH   1  11
TORSDOF 14
ENDMDL
MODEL 7
REMARK VINA RESULT:     9.491      3.036      8.209
REMARK INTER + INTRA:          16.936
REMARK INTER:                  17.404
REMARK INTRA:                  -0.467
REMARK UNBOUND:                -0.321
REMARK SMILES CCCCCC=CCC=CCCCCCCCC(=O)[O-]
REMARK SMILES IDX 11 1 12 2 13 3 14 4 15 5 16 6 17 7 18 8 19 9 20 10 10 11
REMARK SMILES IDX 9 12 8 13 7 14 6 15 5 16 4 17 3 18 2 19 1 20
REMARK H PARENT
REMARK Flexibility Score: inf
ROOT
ATOM      1  C   UNL     1     -14.286  61.666  -1.575  1.00  0.00     0.027 C 
ENDROOT
BRANCH   1   2
ATOM      2  C   UNL     1     -15.447  61.193  -2.466  1.00  0.00     0.004 C 
BRANCH   2   3
ATOM      3  C   UNL     1     -16.825  61.244  -1.775  1.00  0.00     0.000 C 
BRANCH   3   4
ATOM      4  C   UNL     1     -17.397  62.669  -1.697  1.00  0.00     0.000 C 
BRANCH   4   5
ATOM      5  C   UNL     1     -18.446  62.775  -0.579  1.00  0.00     0.000 C 
BRANCH   5   6
ATOM      6  C   UNL     1     -19.865  62.439  -1.065  1.00  0.00     0.006 C 
BRANCH   6   7
ATOM      7  C   UNL     1     -19.942  62.247  -2.586  1.00  0.00     0.053 C 
BRANCH   7   8
ATOM      8  C   UNL     1     -20.584  60.936  -2.916  1.00  0.00     0.041 C 
ATOM      9  O   UNL     1     -20.180  60.261  -3.899  1.00  0.00    -0.550 OA
ATOM     10  O   UNL     1     -21.660  60.481  -2.164  1.00  0.00    -0.550 OA
ENDBRANCH   7   8
ENDBRANCH   6   7
ENDBRANCH   5   6
ENDBRANCH   4   5
ENDBRANCH   3   4
ENDBRANCH   2   3
ENDBRANCH   1   2
BRANCH   1  11
ATOM     11  C   UNL     1     -12.968  61.038  -1.964  1.00  0.00    -0.031 C 
ATOM     12  C   UNL     1     -12.419  61.154  -3.188  1.00  0.00    -0.027 C 
BRANCH  12  13
ATOM     13  C   UNL     1     -13.020  61.941  -4.327  1.00  0.00     0.054 C 
BRANCH  13  14
ATOM     14  C   UNL     1     -12.271  61.670  -5.600  1.00  0.00    -0.027 C 
ATOM     15  C   UNL     1     -12.621  62.253  -6.757  1.00  0.00    -0.031 C 
BRANCH  15  16
ATOM     16  C   UNL     1     -11.882  61.973  -8.037  1.00  0.00     0.027 C 
BRANCH  16  17
ATOM     17  C   UNL     1     -12.581  62.579  -9.267  1.00  0.00     0.004 C 
BRANCH  17  18
ATOM     18  C   UNL     1     -13.705  61.703  -9.855  1.00  0.00     0.000 C 
BRANCH  18  19
ATOM     19  C   UNL     1     -15.126  62.270  -9.681  1.00  0.00    -0.003 C 
ATOM     20  C   UNL     1     -15.142  63.657  -9.041  1.00  0.00     0.004 C 
ENDBRANCH  18  19
ENDBRANCH  17  18
ENDBRANCH  16  17
ENDBRANCH  15  16
ENDBRANCH  13  14
ENDBRANCH  12  13
ENDBRANCH   1  11
TORSDOF 14
ENDMDL
MODEL 8
REMARK VINA RESULT:     9.665      6.018      8.362
REMARK INTER + INTRA:          17.254
REMARK INTER:                  16.927
REMARK INTRA:                   0.327
REMARK UNBOUND:                -0.321
REMARK SMILES CCCCCC=CCC=CCCCCCCCC(=O)[O-]
REMARK SMILES IDX 11 1 12 2 13 3 14 4 15 5 16 6 17 7 18 8 19 9 20 10 10 11
REMARK SMILES IDX 9 12 8 13 7 14 6 15 5 16 4 17 3 18 2 19 1 20
REMARK H PARENT
REMARK Flexibility Score: inf
ROOT
ATOM      1  C   UNL     1     -19.555  63.095  -0.316  1.00  0.00     0.027 C 
ENDROOT
BRANCH   1   2
ATOM      2  C   UNL     1     -18.243  62.790  -1.058  1.00  0.00     0.004 C 
BRANCH   2   3
ATOM      3  C   UNL     1     -18.393  61.754  -2.191  1.00  0.00     0.000 C 
BRANCH   3   4
ATOM      4  C   UNL     1     -19.732  61.878  -2.935  1.00  0.00     0.000 C 
BRANCH   4   5
ATOM      5  C   UNL     1     -20.805  60.995  -2.280  1.00  0.00     0.000 C 
BRANCH   5   6
ATOM      6  C   UNL     1     -21.419  59.982  -3.260  1.00  0.00     0.006 C 
BRANCH   6   7
ATOM      7  C   UNL     1     -20.672  59.926  -4.599  1.00  0.00     0.053 C 
BRANCH   7   8
ATOM      8  C   UNL     1     -21.556  59.362  -5.668  1.00  0.00     0.041 C 
ATOM      9  O   UNL     1     -21.146  58.423  -6.401  1.00  0.00    -0.550 OA
ATOM     10  O   UNL     1     -22.816  59.904  -5.884  1.00  0.00    -0.550 OA
ENDBRANCH   7   8
ENDBRANCH   6   7
ENDBRANCH   5   6
ENDBRANCH   4   5
ENDBRANCH   3   4
ENDBRANCH   2   3
ENDBRANCH   1   2
BRANCH   1  11
ATOM     11  C   UNL     1     -19.856  64.575  -0.263  1.00  0.00    -0.031 C 
ATOM     12  C   UNL     1     -18.917  65.532  -0.385  1.00  0.00    -0.027 C 
BRANCH  12  13
ATOM     13  C   UNL     1     -17.449  65.270  -0.615  1.00  0.00     0.054 C 
BRANCH  13  14
ATOM     14  C   UNL     1     -16.894  66.247  -1.610  1.00  0.00    -0.027 C 
ATOM     15  C   UNL     1     -15.668  66.774  -1.466  1.00  0.00    -0.031 C 
BRANCH  15  16
ATOM     16  C   UNL     1     -15.115  67.765  -2.455  1.00  0.00     0.027 C 
BRANCH  16  17
ATOM     17  C   UNL     1     -14.721  69.099  -1.795  1.00  0.00     0.004 C 
BRANCH  17  18
ATOM     18  C   UNL     1     -13.207  69.389  -1.803  1.00  0.00     0.000 C 
BRANCH  18  19
ATOM     19  C   UNL     1     -12.308  68.140  -1.849  1.00  0.00    -0.003 C 
ATOM     20  C   UNL     1     -11.941  67.618  -0.461  1.00  0.00     0.004 C 
ENDBRANCH  18  19
ENDBRANCH  17  18
ENDBRANCH  16  17
ENDBRANCH  15  16
ENDBRANCH  13  14
ENDBRANCH  12  13
ENDBRANCH   1  11
TORSDOF 14
ENDMDL
