MODEL 1
REMARK VINA RESULT:    -4.578      0.000      0.000
REMARK INTER + INTRA:          -5.907
REMARK INTER:                  -5.648
REMARK INTRA:                  -0.259
REMARK UNBOUND:                -0.259
REMARK SMILES CCCCCc1ccccc1
REMARK SMILES IDX 4 1 3 2 2 3 1 4 5 5 6 6 7 7 11 8 8 9 10 10 9 11
REMARK H PARENT
REMARK Flexibility Score: inf
ROOT
ATOM      1  C   UNL     1    -115.062  12.571  24.486  1.00  0.00     0.005 C 
ENDROOT
BRANCH   1   2
ATOM      2  C   UNL     1    -114.111  11.623  25.237  1.00  0.00     0.000 C 
BRANCH   2   3
ATOM      3  C   UNL     1    -112.634  11.885  24.905  1.00  0.00    -0.003 C 
ATOM      4  C   UNL     1    -112.011  10.772  24.062  1.00  0.00     0.004 C 
ENDBRANCH   2   3
ENDBRANCH   1   2
BRANCH   1   5
ATOM      5  C   UNL     1    -116.028  11.815  23.562  1.00  0.00     0.035 C 
BRANCH   5   6
ATOM      6  C   UNL     1    -116.952  12.749  22.822  1.00  0.00    -0.048 A 
ATOM      7  C   UNL     1    -117.614  13.785  23.504  1.00  0.00     0.004 A 
ATOM      8  C   UNL     1    -117.138  12.610  21.437  1.00  0.00     0.004 A 
ATOM      9  C   UNL     1    -118.453  14.662  22.809  1.00  0.00     0.000 A 
ATOM     10  C   UNL     1    -117.977  13.489  20.746  1.00  0.00     0.000 A 
ATOM     11  C   UNL     1    -118.635  14.513  21.432  1.00  0.00     0.000 A 
ENDBRANCH   5   6
ENDBRANCH   1   5
TORSDOF 4
ENDMDL
MODEL 2
REMARK VINA RESULT:    -4.553      0.157      1.469
REMARK INTER + INTRA:          -5.876
REMARK INTER:                  -5.611
REMARK INTRA:                  -0.265
REMARK UNBOUND:                -0.259
REMARK SMILES CCCCCc1ccccc1
REMARK SMILES IDX 4 1 3 2 2 3 1 4 5 5 6 6 7 7 11 8 8 9 10 10 9 11
REMARK H PARENT
REMARK Flexibility Score: inf
ROOT
ATOM      1  C   UNL     1    -115.086  12.521  24.524  1.00  0.00     0.005 C 
ENDROOT
BRANCH   1   2
ATOM      2  C   UNL     1    -114.113  11.601  25.280  1.00  0.00     0.000 C 
BRANCH   2   3
ATOM      3  C   UNL     1    -112.643  11.893  24.943  1.00  0.00    -0.003 C 
ATOM      4  C   UNL     1    -112.014  10.819  24.054  1.00  0.00     0.004 C 
ENDBRANCH   2   3
ENDBRANCH   1   2
BRANCH   1   5
ATOM      5  C   UNL     1    -115.995  11.743  23.561  1.00  0.00     0.035 C 
BRANCH   5   6
ATOM      6  C   UNL     1    -116.879  12.658  22.752  1.00  0.00    -0.048 A 
ATOM      7  C   UNL     1    -117.043  12.453  21.371  1.00  0.00     0.004 A 
ATOM      8  C   UNL     1    -117.573  13.707  23.378  1.00  0.00     0.004 A 
ATOM      9  C   UNL     1    -117.882  13.291  20.630  1.00  0.00     0.000 A 
ATOM     10  C   UNL     1    -118.410  14.542  22.633  1.00  0.00     0.000 A 
ATOM     11  C   UNL     1    -118.564  14.335  21.260  1.00  0.00     0.000 A 
ENDBRANCH   5   6
ENDBRANCH   1   5
TORSDOF 4
ENDMDL
MODEL 3
REMARK VINA RESULT:    -4.473      1.109      1.949
REMARK INTER + INTRA:          -5.778
REMARK INTER:                  -5.479
REMARK INTRA:                  -0.299
REMARK UNBOUND:                -0.259
REMARK SMILES CCCCCc1ccccc1
REMARK SMILES IDX 4 1 3 2 2 3 1 4 5 5 6 6 7 7 11 8 8 9 10 10 9 11
REMARK H PARENT
REMARK Flexibility Score: inf
ROOT
ATOM      1  C   UNL     1    -115.410  12.634  24.164  1.00  0.00     0.005 C 
ENDROOT
BRANCH   1   2
ATOM      2  C   UNL     1    -115.214  11.334  24.961  1.00  0.00     0.000 C 
BRANCH   2   3
ATOM      3  C   UNL     1    -113.807  11.221  25.568  1.00  0.00    -0.003 C 
ATOM      4  C   UNL     1    -112.806  12.183  24.926  1.00  0.00     0.004 C 
ENDBRANCH   2   3
ENDBRANCH   1   2
BRANCH   1   5
ATOM      5  C   UNL     1    -116.868  12.833  23.724  1.00  0.00     0.035 C 
BRANCH   5   6
ATOM      6  C   UNL     1    -117.046  12.629  22.240  1.00  0.00    -0.048 A 
ATOM      7  C   UNL     1    -117.844  13.510  21.491  1.00  0.00     0.004 A 
ATOM      8  C   UNL     1    -116.391  11.571  21.588  1.00  0.00     0.004 A 
ATOM      9  C   UNL     1    -117.988  13.329  20.112  1.00  0.00     0.000 A 
ATOM     10  C   UNL     1    -116.537  11.394  20.209  1.00  0.00     0.000 A 
ATOM     11  C   UNL     1    -117.336  12.271  19.472  1.00  0.00     0.000 A 
ENDBRANCH   5   6
ENDBRANCH   1   5
TORSDOF 4
ENDMDL
MODEL 4
REMARK VINA RESULT:    -4.403      1.127      5.224
REMARK INTER + INTRA:          -5.692
REMARK INTER:                  -5.200
REMARK INTRA:                  -0.492
REMARK UNBOUND:                -0.259
REMARK SMILES CCCCCc1ccccc1
REMARK SMILES IDX 4 1 3 2 2 3 1 4 5 5 6 6 7 7 11 8 8 9 10 10 9 11
REMARK H PARENT
REMARK Flexibility Score: inf
ROOT
ATOM      1  C   UNL     1    -116.750  12.137  22.259  1.00  0.00     0.005 C 
ENDROOT
BRANCH   1   2
ATOM      2  C   UNL     1    -117.644  13.383  22.371  1.00  0.00     0.000 C 
BRANCH   2   3
ATOM      3  C   UNL     1    -118.012  13.716  23.825  1.00  0.00    -0.003 C 
ATOM      4  C   UNL     1    -117.448  15.061  24.285  1.00  0.00     0.004 C 
ENDBRANCH   2   3
ENDBRANCH   1   2
BRANCH   1   5
ATOM      5  C   UNL     1    -116.493  11.478  23.622  1.00  0.00     0.035 C 
BRANCH   5   6
ATOM      6  C   UNL     1    -115.021  11.331  23.913  1.00  0.00    -0.048 A 
ATOM      7  C   UNL     1    -114.388  12.185  24.833  1.00  0.00     0.004 A 
ATOM      8  C   UNL     1    -114.274  10.318  23.289  1.00  0.00     0.004 A 
ATOM      9  C   UNL     1    -113.027  12.029  25.116  1.00  0.00     0.000 A 
ATOM     10  C   UNL     1    -112.914  10.167  23.574  1.00  0.00     0.000 A 
ATOM     11  C   UNL     1    -112.291  11.022  24.486  1.00  0.00     0.000 A 
ENDBRANCH   5   6
ENDBRANCH   1   5
TORSDOF 4
ENDMDL
MODEL 5
REMARK VINA RESULT:    -4.397      1.125      5.414
REMARK INTER + INTRA:          -5.684
REMARK INTER:                  -5.194
REMARK INTRA:                  -0.490
REMARK UNBOUND:                -0.259
REMARK SMILES CCCCCc1ccccc1
REMARK SMILES IDX 4 1 3 2 2 3 1 4 5 5 6 6 7 7 11 8 8 9 10 10 9 11
REMARK H PARENT
REMARK Flexibility Score: inf
ROOT
ATOM      1  C   UNL     1    -116.740  12.105  22.333  1.00  0.00     0.005 C 
ENDROOT
BRANCH   1   2
ATOM      2  C   UNL     1    -117.624  13.360  22.442  1.00  0.00     0.000 C 
BRANCH   2   3
ATOM      3  C   UNL     1    -117.976  13.709  23.896  1.00  0.00    -0.003 C 
ATOM      4  C   UNL     1    -117.458  15.085  24.316  1.00  0.00     0.004 C 
ENDBRANCH   2   3
ENDBRANCH   1   2
BRANCH   1   5
ATOM      5  C   UNL     1    -116.456  11.473  23.703  1.00  0.00     0.035 C 
BRANCH   5   6
ATOM      6  C   UNL     1    -114.978  11.317  23.960  1.00  0.00    -0.048 A 
ATOM      7  C   UNL     1    -114.245  10.308  23.311  1.00  0.00     0.004 A 
ATOM      8  C   UNL     1    -114.314  12.198  24.829  1.00  0.00     0.004 A 
ATOM      9  C   UNL     1    -112.870  10.182  23.536  1.00  0.00     0.000 A 
ATOM     10  C   UNL     1    -112.940  12.068  25.051  1.00  0.00     0.000 A 
ATOM     11  C   UNL     1    -112.219  11.060  24.406  1.00  0.00     0.000 A 
ENDBRANCH   5   6
ENDBRANCH   1   5
TORSDOF 4
ENDMDL
MODEL 6
REMARK VINA RESULT:    -4.288      0.924      1.901
REMARK INTER + INTRA:          -5.550
REMARK INTER:                  -5.329
REMARK INTRA:                  -0.220
REMARK UNBOUND:                -0.259
REMARK SMILES CCCCCc1ccccc1
REMARK SMILES IDX 4 1 3 2 2 3 1 4 5 5 6 6 7 7 11 8 8 9 10 10 9 11
REMARK H PARENT
REMARK Flexibility Score: inf
ROOT
ATOM      1  C   UNL     1    -115.943  12.212  23.738  1.00  0.00     0.005 C 
ENDROOT
BRANCH   1   2
ATOM      2  C   UNL     1    -114.808  11.232  24.081  1.00  0.00     0.000 C 
BRANCH   2   3
ATOM      3  C   UNL     1    -114.004  11.669  25.315  1.00  0.00    -0.003 C 
ATOM      4  C   UNL     1    -112.640  12.260  24.954  1.00  0.00     0.004 C 
ENDBRANCH   2   3
ENDBRANCH   1   2
BRANCH   1   5
ATOM      5  C   UNL     1    -116.681  11.820  22.450  1.00  0.00     0.035 C 
BRANCH   5   6
ATOM      6  C   UNL     1    -117.475  12.968  21.879  1.00  0.00    -0.048 A 
ATOM      7  C   UNL     1    -117.592  13.130  20.488  1.00  0.00     0.004 A 
ATOM      8  C   UNL     1    -118.130  13.870  22.734  1.00  0.00     0.004 A 
ATOM      9  C   UNL     1    -118.347  14.184  19.963  1.00  0.00     0.000 A 
ATOM     10  C   UNL     1    -118.884  14.922  22.206  1.00  0.00     0.000 A 
ATOM     11  C   UNL     1    -118.992  15.079  20.821  1.00  0.00     0.000 A 
ENDBRANCH   5   6
ENDBRANCH   1   5
TORSDOF 4
ENDMDL
MODEL 7
REMARK VINA RESULT:    -4.157     12.627     13.995
REMARK INTER + INTRA:          -5.388
REMARK INTER:                  -5.111
REMARK INTRA:                  -0.277
REMARK UNBOUND:                -0.259
REMARK SMILES CCCCCc1ccccc1
REMARK SMILES IDX 4 1 3 2 2 3 1 4 5 5 6 6 7 7 11 8 8 9 10 10 9 11
REMARK H PARENT
REMARK Flexibility Score: inf
ROOT
ATOM      1  C   UNL     1    -102.770  10.806  20.752  1.00  0.00     0.005 C 
ENDROOT
BRANCH   1   2
ATOM      2  C   UNL     1    -101.990  10.400  19.490  1.00  0.00     0.000 C 
BRANCH   2   3
ATOM      3  C   UNL     1    -102.383  11.232  18.261  1.00  0.00    -0.003 C 
ATOM      4  C   UNL     1    -103.755  11.891  18.406  1.00  0.00     0.004 C 
ENDBRANCH   2   3
ENDBRANCH   1   2
BRANCH   1   5
ATOM      5  C   UNL     1    -101.841  11.130  21.932  1.00  0.00     0.035 C 
BRANCH   5   6
ATOM      6  C   UNL     1    -102.580  11.156  23.246  1.00  0.00    -0.048 A 
ATOM      7  C   UNL     1    -102.502  12.281  24.084  1.00  0.00     0.004 A 
ATOM      8  C   UNL     1    -103.379  10.067  23.630  1.00  0.00     0.004 A 
ATOM      9  C   UNL     1    -103.207  12.310  25.291  1.00  0.00     0.000 A 
ATOM     10  C   UNL     1    -104.082  10.099  24.838  1.00  0.00     0.000 A 
ATOM     11  C   UNL     1    -103.996  11.219  25.668  1.00  0.00     0.000 A 
ENDBRANCH   5   6
ENDBRANCH   1   5
TORSDOF 4
ENDMDL
MODEL 8
REMARK VINA RESULT:    -3.932      1.161      5.498
REMARK INTER + INTRA:          -5.110
REMARK INTER:                  -4.827
REMARK INTRA:                  -0.282
REMARK UNBOUND:                -0.259
REMARK SMILES CCCCCc1ccccc1
REMARK SMILES IDX 4 1 3 2 2 3 1 4 5 5 6 6 7 7 11 8 8 9 10 10 9 11
REMARK H PARENT
REMARK Flexibility Score: inf
ROOT
ATOM      1  C   UNL     1    -117.703  13.280  21.790  1.00  0.00     0.005 C 
ENDROOT
BRANCH   1   2
ATOM      2  C   UNL     1    -118.482  14.572  21.491  1.00  0.00     0.000 C 
BRANCH   2   3
ATOM      3  C   UNL     1    -118.723  14.782  19.989  1.00  0.00    -0.003 C 
ATOM      4  C   UNL     1    -117.956  13.783  19.121  1.00  0.00     0.004 C 
ENDBRANCH   2   3
ENDBRANCH   1   2
BRANCH   1   5
ATOM      5  C   UNL     1    -117.374  13.129  23.282  1.00  0.00     0.035 C 
BRANCH   5   6
ATOM      6  C   UNL     1    -116.142  12.291  23.510  1.00  0.00    -0.048 A 
ATOM      7  C   UNL     1    -115.892  11.160  22.714  1.00  0.00     0.004 A 
ATOM      8  C   UNL     1    -115.215  12.651  24.502  1.00  0.00     0.004 A 
ATOM      9  C   UNL     1    -114.736  10.399  22.915  1.00  0.00     0.000 A 
ATOM     10  C   UNL     1    -114.061  11.888  24.700  1.00  0.00     0.000 A 
ATOM     11  C   UNL     1    -113.822  10.761  23.907  1.00  0.00     0.000 A 
ENDBRANCH   5   6
ENDBRANCH   1   5
TORSDOF 4
ENDMDL
MODEL 9
REMARK VINA RESULT:    -3.925      1.519      5.341
REMARK INTER + INTRA:          -5.102
REMARK INTER:                  -4.634
REMARK INTRA:                  -0.468
REMARK UNBOUND:                -0.259
REMARK SMILES CCCCCc1ccccc1
REMARK SMILES IDX 4 1 3 2 2 3 1 4 5 5 6 6 7 7 11 8 8 9 10 10 9 11
REMARK H PARENT
REMARK Flexibility Score: inf
ROOT
ATOM      1  C   UNL     1    -116.777  12.626  22.765  1.00  0.00     0.005 C 
ENDROOT
BRANCH   1   2
ATOM      2  C   UNL     1    -117.378  11.791  21.622  1.00  0.00     0.000 C 
BRANCH   2   3
ATOM      3  C   UNL     1    -116.362  11.498  20.508  1.00  0.00    -0.003 C 
ATOM      4  C   UNL     1    -116.685  10.220  19.733  1.00  0.00     0.004 C 
ENDBRANCH   2   3
ENDBRANCH   1   2
BRANCH   1   5
ATOM      5  C   UNL     1    -116.462  11.774  24.004  1.00  0.00     0.035 C 
BRANCH   5   6
ATOM      6  C   UNL     1    -114.989  11.474  24.127  1.00  0.00    -0.048 A 
ATOM      7  C   UNL     1    -114.418  10.406  23.414  1.00  0.00     0.004 A 
ATOM      8  C   UNL     1    -114.168  12.279  24.933  1.00  0.00     0.004 A 
ATOM      9  C   UNL     1    -113.048  10.146  23.514  1.00  0.00     0.000 A 
ATOM     10  C   UNL     1    -112.799  12.016  25.031  1.00  0.00     0.000 A 
ATOM     11  C   UNL     1    -112.239  10.949  24.322  1.00  0.00     0.000 A 
ENDBRANCH   5   6
ENDBRANCH   1   5
TORSDOF 4
ENDMDL
