MODEL 1
REMARK VINA RESULT:    -4.222      0.000      0.000
REMARK INTER + INTRA:          -6.039
REMARK INTER:                  -5.703
REMARK INTRA:                  -0.336
REMARK UNBOUND:                -0.336
REMARK SMILES CCCCCCCC(=O)[O-]
REMARK SMILES IDX 5 1 6 2 7 3 8 4 9 5 10 6 4 7 3 8 2 9 1 10
REMARK H PARENT
REMARK Flexibility Score: inf
ROOT
ATOM      1  C   UNL     1     117.599 165.918 122.898  1.00  0.00     0.000 C 
ENDROOT
BRANCH   1   2
ATOM      2  C   UNL     1     116.065 165.988 122.781  1.00  0.00     0.006 C 
BRANCH   2   3
ATOM      3  C   UNL     1     115.461 167.178 123.537  1.00  0.00     0.053 C 
BRANCH   3   4
ATOM      4  C   UNL     1     115.931 167.190 124.956  1.00  0.00     0.041 C 
ATOM      5  O   UNL     1     116.652 168.133 125.377  1.00  0.00    -0.550 OA
ATOM      6  O   UNL     1     115.533 166.185 125.829  1.00  0.00    -0.550 OA
ENDBRANCH   3   4
ENDBRANCH   2   3
ENDBRANCH   1   2
BRANCH   1   7
ATOM      7  C   UNL     1     118.294 165.072 121.817  1.00  0.00     0.000 C 
BRANCH   7   8
ATOM      8  C   UNL     1     117.430 164.874 120.562  1.00  0.00    -0.000 C 
BRANCH   8   9
ATOM      9  C   UNL     1     117.643 163.478 119.964  1.00  0.00    -0.003 C 
ATOM     10  C   UNL     1     118.112 162.489 121.028  1.00  0.00     0.004 C 
ENDBRANCH   8   9
ENDBRANCH   7   8
ENDBRANCH   1   7
TORSDOF 6
ENDMDL
MODEL 2
REMARK VINA RESULT:    -4.174      2.050      2.734
REMARK INTER + INTRA:          -5.974
REMARK INTER:                  -5.741
REMARK INTRA:                  -0.233
REMARK UNBOUND:                -0.336
REMARK SMILES CCCCCCCC(=O)[O-]
REMARK SMILES IDX 5 1 6 2 7 3 8 4 9 5 10 6 4 7 3 8 2 9 1 10
REMARK H PARENT
REMARK Flexibility Score: inf
ROOT
ATOM      1  C   UNL     1     115.661 166.070 120.497  1.00  0.00     0.000 C 
ENDROOT
BRANCH   1   2
ATOM      2  C   UNL     1     115.324 166.635 121.889  1.00  0.00     0.006 C 
BRANCH   2   3
ATOM      3  C   UNL     1     116.042 165.896 123.025  1.00  0.00     0.053 C 
BRANCH   3   4
ATOM      4  C   UNL     1     117.036 166.795 123.688  1.00  0.00     0.041 C 
ATOM      5  O   UNL     1     118.227 166.419 123.844  1.00  0.00    -0.550 OA
ATOM      6  O   UNL     1     116.659 168.071 124.089  1.00  0.00    -0.550 OA
ENDBRANCH   3   4
ENDBRANCH   2   3
ENDBRANCH   1   2
BRANCH   1   7
ATOM      7  C   UNL     1     116.917 165.182 120.442  1.00  0.00     0.000 C 
BRANCH   7   8
ATOM      8  C   UNL     1     117.216 164.652 119.032  1.00  0.00    -0.000 C 
BRANCH   8   9
ATOM      9  C   UNL     1     117.194 165.787 118.003  1.00  0.00    -0.003 C 
ATOM     10  C   UNL     1     117.908 165.379 116.716  1.00  0.00     0.004 C 
ENDBRANCH   8   9
ENDBRANCH   7   8
ENDBRANCH   1   7
TORSDOF 6
ENDMDL
MODEL 3
REMARK VINA RESULT:    -4.171      1.931      2.765
REMARK INTER + INTRA:          -5.969
REMARK INTER:                  -5.803
REMARK INTRA:                  -0.167
REMARK UNBOUND:                -0.336
REMARK SMILES CCCCCCCC(=O)[O-]
REMARK SMILES IDX 5 1 6 2 7 3 8 4 9 5 10 6 4 7 3 8 2 9 1 10
REMARK H PARENT
REMARK Flexibility Score: inf
ROOT
ATOM      1  C   UNL     1     117.908 164.781 121.133  1.00  0.00     0.000 C 
ENDROOT
BRANCH   1   2
ATOM      2  C   UNL     1     117.651 165.521 122.459  1.00  0.00     0.006 C 
BRANCH   2   3
ATOM      3  C   UNL     1     116.204 166.009 122.601  1.00  0.00     0.053 C 
BRANCH   3   4
ATOM      4  C   UNL     1     116.107 167.053 123.667  1.00  0.00     0.041 C 
ATOM      5  O   UNL     1     115.141 167.047 124.475  1.00  0.00    -0.550 OA
ATOM      6  O   UNL     1     117.110 168.006 123.800  1.00  0.00    -0.550 OA
ENDBRANCH   3   4
ENDBRANCH   2   3
ENDBRANCH   1   2
BRANCH   1   7
ATOM      7  C   UNL     1     116.915 165.108 120.004  1.00  0.00     0.000 C 
BRANCH   7   8
ATOM      8  C   UNL     1     117.396 164.628 118.625  1.00  0.00    -0.000 C 
BRANCH   8   9
ATOM      9  C   UNL     1     117.401 165.781 117.615  1.00  0.00    -0.003 C 
ATOM     10  C   UNL     1     118.089 165.372 116.315  1.00  0.00     0.004 C 
ENDBRANCH   8   9
ENDBRANCH   7   8
ENDBRANCH   1   7
TORSDOF 6
ENDMDL
MODEL 4
REMARK VINA RESULT:    -4.154      1.400      1.920
REMARK INTER + INTRA:          -5.947
REMARK INTER:                  -5.708
REMARK INTRA:                  -0.238
REMARK UNBOUND:                -0.336
REMARK SMILES CCCCCCCC(=O)[O-]
REMARK SMILES IDX 5 1 6 2 7 3 8 4 9 5 10 6 4 7 3 8 2 9 1 10
REMARK H PARENT
REMARK Flexibility Score: inf
ROOT
ATOM      1  C   UNL     1     118.828 165.651 123.366  1.00  0.00     0.000 C 
ENDROOT
BRANCH   1   2
ATOM      2  C   UNL     1     117.861 166.797 123.720  1.00  0.00     0.006 C 
BRANCH   2   3
ATOM      3  C   UNL     1     117.016 166.504 124.965  1.00  0.00     0.053 C 
BRANCH   3   4
ATOM      4  C   UNL     1     115.601 166.935 124.750  1.00  0.00     0.041 C 
ATOM      5  O   UNL     1     114.801 166.994 125.721  1.00  0.00    -0.550 OA
ATOM      6  O   UNL     1     115.176 167.320 123.484  1.00  0.00    -0.550 OA
ENDBRANCH   3   4
ENDBRANCH   2   3
ENDBRANCH   1   2
BRANCH   1   7
ATOM      7  C   UNL     1     118.788 165.198 121.896  1.00  0.00     0.000 C 
BRANCH   7   8
ATOM      8  C   UNL     1     117.366 164.888 121.402  1.00  0.00    -0.000 C 
BRANCH   8   9
ATOM      9  C   UNL     1     117.402 164.116 120.079  1.00  0.00    -0.003 C 
ATOM     10  C   UNL     1     117.204 165.051 118.889  1.00  0.00     0.004 C 
ENDBRANCH   8   9
ENDBRANCH   7   8
ENDBRANCH   1   7
TORSDOF 6
ENDMDL
MODEL 5
REMARK VINA RESULT:    -4.062      3.216      4.173
REMARK INTER + INTRA:          -5.823
REMARK INTER:                  -5.673
REMARK INTRA:                  -0.150
REMARK UNBOUND:                -0.336
REMARK SMILES CCCCCCCC(=O)[O-]
REMARK SMILES IDX 5 1 6 2 7 3 8 4 9 5 10 6 4 7 3 8 2 9 1 10
REMARK H PARENT
REMARK Flexibility Score: inf
ROOT
ATOM      1  C   UNL     1     117.622 165.092 121.610  1.00  0.00     0.000 C 
ENDROOT
BRANCH   1   2
ATOM      2  C   UNL     1     119.075 165.109 122.122  1.00  0.00     0.006 C 
BRANCH   2   3
ATOM      3  C   UNL     1     119.338 166.226 123.138  1.00  0.00     0.053 C 
BRANCH   3   4
ATOM      4  C   UNL     1     120.587 166.970 122.786  1.00  0.00     0.041 C 
ATOM      5  O   UNL     1     121.625 166.343 122.451  1.00  0.00    -0.550 OA
ATOM      6  O   UNL     1     120.589 168.360 122.779  1.00  0.00    -0.550 OA
ENDBRANCH   3   4
ENDBRANCH   2   3
ENDBRANCH   1   2
BRANCH   1   7
ATOM      7  C   UNL     1     117.400 164.293 120.314  1.00  0.00     0.000 C 
BRANCH   7   8
ATOM      8  C   UNL     1     116.815 165.145 119.177  1.00  0.00    -0.000 C 
BRANCH   8   9
ATOM      9  C   UNL     1     117.607 164.948 117.880  1.00  0.00    -0.003 C 
ATOM     10  C   UNL     1     117.495 166.171 116.973  1.00  0.00     0.004 C 
ENDBRANCH   8   9
ENDBRANCH   7   8
ENDBRANCH   1   7
TORSDOF 6
ENDMDL
MODEL 6
REMARK VINA RESULT:    -4.016      3.299      5.022
REMARK INTER + INTRA:          -5.761
REMARK INTER:                  -5.365
REMARK INTRA:                  -0.396
REMARK UNBOUND:                -0.336
REMARK SMILES CCCCCCCC(=O)[O-]
REMARK SMILES IDX 5 1 6 2 7 3 8 4 9 5 10 6 4 7 3 8 2 9 1 10
REMARK H PARENT
REMARK Flexibility Score: inf
ROOT
ATOM      1  C   UNL     1     118.671 165.489 121.789  1.00  0.00     0.000 C 
ENDROOT
BRANCH   1   2
ATOM      2  C   UNL     1     117.582 164.441 121.498  1.00  0.00     0.006 C 
BRANCH   2   3
ATOM      3  C   UNL     1     117.512 164.045 120.019  1.00  0.00     0.053 C 
BRANCH   3   4
ATOM      4  C   UNL     1     116.916 165.152 119.208  1.00  0.00     0.041 C 
ATOM      5  O   UNL     1     117.373 165.419 118.066  1.00  0.00    -0.550 OA
ATOM      6  O   UNL     1     115.821 165.857 119.694  1.00  0.00    -0.550 OA
ENDBRANCH   3   4
ENDBRANCH   2   3
ENDBRANCH   1   2
BRANCH   1   7
ATOM      7  C   UNL     1     118.910 165.782 123.281  1.00  0.00     0.000 C 
BRANCH   7   8
ATOM      8  C   UNL     1     117.611 166.067 124.051  1.00  0.00    -0.000 C 
BRANCH   8   9
ATOM      9  C   UNL     1     117.002 167.407 123.622  1.00  0.00    -0.003 C 
ATOM     10  C   UNL     1     115.553 167.235 123.173  1.00  0.00     0.004 C 
ENDBRANCH   8   9
ENDBRANCH   7   8
ENDBRANCH   1   7
TORSDOF 6
ENDMDL
MODEL 7
REMARK VINA RESULT:    -3.997     13.152     14.000
REMARK INTER + INTRA:          -5.735
REMARK INTER:                  -5.248
REMARK INTRA:                  -0.487
REMARK UNBOUND:                -0.336
REMARK SMILES CCCCCCCC(=O)[O-]
REMARK SMILES IDX 5 1 6 2 7 3 8 4 9 5 10 6 4 7 3 8 2 9 1 10
REMARK H PARENT
REMARK Flexibility Score: inf
ROOT
ATOM      1  C   UNL     1     120.238 179.835 126.484  1.00  0.00     0.000 C 
ENDROOT
BRANCH   1   2
ATOM      2  C   UNL     1     118.887 179.137 126.724  1.00  0.00     0.006 C 
BRANCH   2   3
ATOM      3  C   UNL     1     117.777 179.648 125.798  1.00  0.00     0.053 C 
BRANCH   3   4
ATOM      4  C   UNL     1     117.364 178.579 124.837  1.00  0.00     0.041 C 
ATOM      5  O   UNL     1     116.994 178.881 123.672  1.00  0.00    -0.550 OA
ATOM      6  O   UNL     1     117.436 177.242 125.211  1.00  0.00    -0.550 OA
ENDBRANCH   3   4
ENDBRANCH   2   3
ENDBRANCH   1   2
BRANCH   1   7
ATOM      7  C   UNL     1     121.363 178.915 125.976  1.00  0.00     0.000 C 
BRANCH   7   8
ATOM      8  C   UNL     1     121.186 178.508 124.505  1.00  0.00    -0.000 C 
BRANCH   8   9
ATOM      9  C   UNL     1     120.686 179.690 123.666  1.00  0.00    -0.003 C 
ATOM     10  C   UNL     1     120.385 179.259 122.232  1.00  0.00     0.004 C 
ENDBRANCH   8   9
ENDBRANCH   7   8
ENDBRANCH   1   7
TORSDOF 6
ENDMDL
MODEL 8
REMARK VINA RESULT:    -3.967     14.209     14.976
REMARK INTER + INTRA:          -5.695
REMARK INTER:                  -5.265
REMARK INTRA:                  -0.430
REMARK UNBOUND:                -0.336
REMARK SMILES CCCCCCCC(=O)[O-]
REMARK SMILES IDX 5 1 6 2 7 3 8 4 9 5 10 6 4 7 3 8 2 9 1 10
REMARK H PARENT
REMARK Flexibility Score: inf
ROOT
ATOM      1  C   UNL     1     119.612 179.277 126.318  1.00  0.00     0.000 C 
ENDROOT
BRANCH   1   2
ATOM      2  C   UNL     1     120.134 180.063 125.100  1.00  0.00     0.006 C 
BRANCH   2   3
ATOM      3  C   UNL     1     120.881 179.180 124.094  1.00  0.00     0.053 C 
BRANCH   3   4
ATOM      4  C   UNL     1     120.290 179.329 122.728  1.00  0.00     0.041 C 
ATOM      5  O   UNL     1     120.990 179.771 121.779  1.00  0.00    -0.550 OA
ATOM      6  O   UNL     1     118.979 178.933 122.490  1.00  0.00    -0.550 OA
ENDBRANCH   3   4
ENDBRANCH   2   3
ENDBRANCH   1   2
BRANCH   1   7
ATOM      7  C   UNL     1     120.483 179.386 127.582  1.00  0.00     0.000 C 
BRANCH   7   8
ATOM      8  C   UNL     1     121.659 178.397 127.588  1.00  0.00    -0.000 C 
BRANCH   8   9
ATOM      9  C   UNL     1     122.979 179.114 127.284  1.00  0.00    -0.003 C 
ATOM     10  C   UNL     1     123.797 178.348 126.247  1.00  0.00     0.004 C 
ENDBRANCH   8   9
ENDBRANCH   7   8
ENDBRANCH   1   7
TORSDOF 6
ENDMDL
MODEL 9
REMARK VINA RESULT:    -3.916     14.114     15.085
REMARK INTER + INTRA:          -5.625
REMARK INTER:                  -5.264
REMARK INTRA:                  -0.361
REMARK UNBOUND:                -0.336
REMARK SMILES CCCCCCCC(=O)[O-]
REMARK SMILES IDX 5 1 6 2 7 3 8 4 9 5 10 6 4 7 3 8 2 9 1 10
REMARK H PARENT
REMARK Flexibility Score: inf
ROOT
ATOM      1  C   UNL     1     123.515 178.272 126.044  1.00  0.00     0.000 C 
ENDROOT
BRANCH   1   2
ATOM      2  C   UNL     1     123.311 179.386 127.088  1.00  0.00     0.006 C 
BRANCH   2   3
ATOM      3  C   UNL     1     123.732 178.965 128.501  1.00  0.00     0.053 C 
BRANCH   3   4
ATOM      4  C   UNL     1     122.538 178.867 129.395  1.00  0.00     0.041 C 
ATOM      5  O   UNL     1     121.472 178.345 128.975  1.00  0.00    -0.550 OA
ATOM      6  O   UNL     1     122.616 179.309 130.711  1.00  0.00    -0.550 OA
ENDBRANCH   3   4
ENDBRANCH   2   3
ENDBRANCH   1   2
BRANCH   1   7
ATOM      7  C   UNL     1     122.396 178.155 124.993  1.00  0.00     0.000 C 
BRANCH   7   8
ATOM      8  C   UNL     1     121.049 178.703 125.487  1.00  0.00    -0.000 C 
BRANCH   8   9
ATOM      9  C   UNL     1     120.459 179.698 124.481  1.00  0.00    -0.003 C 
ATOM     10  C   UNL     1     120.684 179.228 123.046  1.00  0.00     0.004 C 
ENDBRANCH   8   9
ENDBRANCH   7   8
ENDBRANCH   1   7
TORSDOF 6
ENDMDL
