MODEL 1
REMARK VINA RESULT:    -6.512      0.000      0.000
REMARK INTER + INTRA:         -10.968
REMARK INTER:                  -9.557
REMARK INTRA:                  -1.411
REMARK UNBOUND:                -1.411
REMARK SMILES Cc1cc2c(C(C)C)c(O)c(O)c(C=O)c2c(O)c1-c1c(C)cc2c(C(C)C)c(O)c(O)c(C=O)c2c1O
REMARK SMILES IDX 1 1 2 2 3 3 4 4 16 5 13 6 11 7 9 8 5 9 17 10 19 11 20 12
REMARK SMILES IDX 37 13 21 14 36 15 23 16 22 17 24 18 33 19 25 20 31 21 29 22
REMARK SMILES IDX 38 23 34 25 35 26 26 27 27 28 28 29 32 30 30 32 18 34 6 36
REMARK SMILES IDX 7 37 8 38 14 39 15 40 10 41 12 43
REMARK H PARENT 38 24 32 31 30 33 18 35 10 42 12 44
REMARK Flexibility Score: inf
ROOT
ATOM      1  C   UNL     1      37.486  -9.631  13.670  1.00  0.00     0.045 C 
ATOM      2  C   UNL     1      37.339 -10.880  12.836  1.00  0.00    -0.039 A 
ATOM      3  C   UNL     1      38.291 -11.895  12.948  1.00  0.00     0.013 A 
ATOM      4  C   UNL     1      38.223 -13.069  12.167  1.00  0.00    -0.006 A 
ATOM      5  C   UNL     1      37.251 -13.141  11.128  1.00  0.00     0.039 A 
ATOM      6  C   UNL     1      37.333 -14.200  10.178  1.00  0.00     0.072 A 
ATOM      7  C   UNL     1      38.321 -15.194  10.313  1.00  0.00     0.169 A 
ATOM      8  C   UNL     1      39.229 -15.157  11.390  1.00  0.00     0.162 A 
ATOM      9  C   UNL     1      39.125 -14.154  12.379  1.00  0.00     0.008 A 
ATOM     10  C   UNL     1      36.214 -12.161  11.091  1.00  0.00     0.132 A 
ATOM     11  C   UNL     1      36.272 -11.031  11.934  1.00  0.00     0.031 A 
ENDROOT
BRANCH  11  12
ATOM     12  C   UNL     1      35.210  -9.993  11.864  1.00  0.00     0.031 A 
ATOM     13  C   UNL     1      34.063 -10.096  12.679  1.00  0.00     0.132 A 
ATOM     14  C   UNL     1      35.339  -8.926  10.961  1.00  0.00    -0.039 A 
ATOM     15  C   UNL     1      33.061  -9.080  12.646  1.00  0.00     0.039 A 
ATOM     16  C   UNL     1      34.313  -7.987  10.854  1.00  0.00     0.013 A 
ATOM     17  C   UNL     1      36.544  -8.812  10.058  1.00  0.00     0.045 C 
ATOM     18  C   UNL     1      33.183  -8.015  11.702  1.00  0.00    -0.006 A 
ATOM     19  C   UNL     1      31.916  -9.118  13.496  1.00  0.00     0.072 A 
ATOM     20  C   UNL     1      32.154  -7.027  11.597  1.00  0.00     0.008 A 
ATOM     21  C   UNL     1      30.846  -8.232  13.273  1.00  0.00     0.169 A 
ATOM     22  C   UNL     1      30.933  -7.252  12.269  1.00  0.00     0.162 A 
BRANCH  13  23
ATOM     23  O   UNL     1      33.896 -11.227  13.485  1.00  0.00    -0.507 OA
ATOM     24  H   UNL     1      34.071 -12.174  13.174  1.00  0.00     0.293 HD
ENDBRANCH  13  23
BRANCH  19  25
ATOM     25  C   UNL     1      31.847 -10.004  14.683  1.00  0.00     0.264 C 
ATOM     26  O   UNL     1      31.078 -11.001  14.708  1.00  0.00    -0.298 OA
ENDBRANCH  19  25
BRANCH  20  27
ATOM     27  C   UNL     1      32.325  -5.765  10.732  1.00  0.00     0.017 C 
ATOM     28  C   UNL     1      33.544  -4.953  11.184  1.00  0.00     0.012 C 
ATOM     29  C   UNL     1      32.370  -6.046   9.219  1.00  0.00     0.012 C 
ENDBRANCH  20  27
BRANCH  21  30
ATOM     30  O   UNL     1      29.721  -8.312  14.101  1.00  0.00    -0.504 OA
ATOM     31  H   UNL     1      29.075  -7.549  14.252  1.00  0.00     0.293 HD
ENDBRANCH  21  30
BRANCH  22  32
ATOM     32  O   UNL     1      29.812  -6.498  11.917  1.00  0.00    -0.504 OA
ATOM     33  H   UNL     1      29.380  -5.811  12.519  1.00  0.00     0.293 HD
ENDBRANCH  22  32
ENDBRANCH  11  12
BRANCH  10  34
ATOM     34  O   UNL     1      35.110 -12.335  10.249  1.00  0.00    -0.507 OA
ATOM     35  H   UNL     1      34.923 -11.759   9.438  1.00  0.00     0.293 HD
ENDBRANCH  10  34
BRANCH   9  36
ATOM     36  C   UNL     1      39.985 -14.243  13.654  1.00  0.00     0.017 C 
ATOM     37  C   UNL     1      39.110 -14.208  14.911  1.00  0.00     0.012 C 
ATOM     38  C   UNL     1      41.104 -13.188  13.719  1.00  0.00     0.012 C 
ENDBRANCH   9  36
BRANCH   6  39
ATOM     39  C   UNL     1      36.496 -14.223   8.954  1.00  0.00     0.264 C 
ATOM     40  O   UNL     1      35.530 -15.023   8.843  1.00  0.00    -0.298 OA
ENDBRANCH   6  39
BRANCH   8  41
ATOM     41  O   UNL     1      40.271 -16.085  11.483  1.00  0.00    -0.504 OA
ATOM     42  H   UNL     1      41.235 -15.899  11.250  1.00  0.00     0.293 HD
ENDBRANCH   8  41
BRANCH   7  43
ATOM     43  O   UNL     1      38.377 -16.208   9.348  1.00  0.00    -0.504 OA
ATOM     44  H   UNL     1      37.738 -16.988   9.291  1.00  0.00     0.293 HD
ENDBRANCH   7  43
TORSDOF 11
ENDMDL
MODEL 2
REMARK VINA RESULT:    -6.298      5.911      8.961
REMARK INTER + INTRA:         -10.655
REMARK INTER:                  -9.283
REMARK INTRA:                  -1.372
REMARK UNBOUND:                -1.411
REMARK SMILES Cc1cc2c(C(C)C)c(O)c(O)c(C=O)c2c(O)c1-c1c(C)cc2c(C(C)C)c(O)c(O)c(C=O)c2c1O
REMARK SMILES IDX 1 1 2 2 3 3 4 4 16 5 13 6 11 7 9 8 5 9 17 10 19 11 20 12
REMARK SMILES IDX 37 13 21 14 36 15 23 16 22 17 24 18 33 19 25 20 31 21 29 22
REMARK SMILES IDX 38 23 34 25 35 26 26 27 27 28 28 29 32 30 30 32 18 34 6 36
REMARK SMILES IDX 7 37 8 38 14 39 15 40 10 41 12 43
REMARK H PARENT 38 24 32 31 30 33 18 35 10 42 12 44
REMARK Flexibility Score: inf
ROOT
ATOM      1  C   UNL     1      39.780 -13.646  19.897  1.00  0.00     0.045 C 
ATOM      2  C   UNL     1      39.510 -15.125  19.772  1.00  0.00    -0.039 A 
ATOM      3  C   UNL     1      40.387 -16.034  20.368  1.00  0.00     0.013 A 
ATOM      4  C   UNL     1      40.203 -17.430  20.253  1.00  0.00    -0.006 A 
ATOM      5  C   UNL     1      39.192 -17.914  19.374  1.00  0.00     0.039 A 
ATOM      6  C   UNL     1      39.161 -19.303  19.057  1.00  0.00     0.072 A 
ATOM      7  C   UNL     1      40.076 -20.186  19.662  1.00  0.00     0.169 A 
ATOM      8  C   UNL     1      41.021 -19.708  20.592  1.00  0.00     0.162 A 
ATOM      9  C   UNL     1      41.028 -18.347  20.970  1.00  0.00     0.008 A 
ATOM     10  C   UNL     1      38.231 -16.992  18.861  1.00  0.00     0.132 A 
ATOM     11  C   UNL     1      38.403 -15.605  19.050  1.00  0.00     0.031 A 
ENDROOT
BRANCH  11  12
ATOM     12  C   UNL     1      37.421 -14.646  18.480  1.00  0.00     0.031 A 
ATOM     13  C   UNL     1      37.593 -14.148  17.171  1.00  0.00     0.132 A 
ATOM     14  C   UNL     1      36.336 -14.215  19.260  1.00  0.00    -0.039 A 
ATOM     15  C   UNL     1      36.629 -13.261  16.603  1.00  0.00     0.039 A 
ATOM     16  C   UNL     1      35.449 -13.270  18.744  1.00  0.00     0.013 A 
ATOM     17  C   UNL     1      36.148 -14.712  20.673  1.00  0.00     0.045 C 
ATOM     18  C   UNL     1      35.547 -12.802  17.414  1.00  0.00    -0.006 A 
ATOM     19  C   UNL     1      36.737 -12.783  15.264  1.00  0.00     0.072 A 
ATOM     20  C   UNL     1      34.612 -11.853  16.894  1.00  0.00     0.008 A 
ATOM     21  C   UNL     1      35.905 -11.738  14.823  1.00  0.00     0.169 A 
ATOM     22  C   UNL     1      34.908 -11.219  15.668  1.00  0.00     0.162 A 
BRANCH  13  23
ATOM     23  O   UNL     1      38.742 -14.496  16.453  1.00  0.00    -0.507 OA
ATOM     24  H   UNL     1      39.093 -15.442  16.372  1.00  0.00     0.293 HD
ENDBRANCH  13  23
BRANCH  19  25
ATOM     25  C   UNL     1      37.642 -13.414  14.273  1.00  0.00     0.264 C 
ATOM     26  O   UNL     1      38.691 -12.835  13.886  1.00  0.00    -0.298 OA
ENDBRANCH  19  25
BRANCH  20  27
ATOM     27  C   UNL     1      33.331 -11.471  17.657  1.00  0.00     0.017 C 
ATOM     28  C   UNL     1      33.422 -10.040  18.198  1.00  0.00     0.012 C 
ATOM     29  C   UNL     1      32.036 -11.683  16.851  1.00  0.00     0.012 C 
ENDBRANCH  20  27
BRANCH  21  30
ATOM     30  O   UNL     1      36.054 -11.264  13.514  1.00  0.00    -0.504 OA
ATOM     31  H   UNL     1      36.946 -11.062  13.084  1.00  0.00     0.293 HD
ENDBRANCH  21  30
BRANCH  22  32
ATOM     32  O   UNL     1      34.208 -10.064  15.310  1.00  0.00    -0.504 OA
ATOM     33  H   UNL     1      34.430  -9.139  15.650  1.00  0.00     0.293 HD
ENDBRANCH  22  32
ENDBRANCH  11  12
BRANCH  10  34
ATOM     34  O   UNL     1      37.088 -17.459  18.202  1.00  0.00    -0.507 OA
ATOM     35  H   UNL     1      36.986 -18.402  17.849  1.00  0.00     0.293 HD
ENDBRANCH  10  34
BRANCH   9  36
ATOM     36  C   UNL     1      41.922 -17.879  22.132  1.00  0.00     0.017 C 
ATOM     37  C   UNL     1      41.085 -17.545  23.371  1.00  0.00     0.012 C 
ATOM     38  C   UNL     1      42.863 -16.718  21.760  1.00  0.00     0.012 C 
ENDBRANCH   9  36
BRANCH   6  39
ATOM     39  C   UNL     1      38.283 -19.845  17.993  1.00  0.00     0.264 C 
ATOM     40  O   UNL     1      37.369 -20.669  18.262  1.00  0.00    -0.298 OA
ENDBRANCH   6  39
BRANCH   8  41
ATOM     41  O   UNL     1      41.993 -20.558  21.128  1.00  0.00    -0.504 OA
ATOM     42  H   UNL     1      42.744 -20.269  21.737  1.00  0.00     0.293 HD
ENDBRANCH   8  41
BRANCH   7  43
ATOM     43  O   UNL     1      40.021 -21.540  19.310  1.00  0.00    -0.504 OA
ATOM     44  H   UNL     1      40.497 -21.952  18.521  1.00  0.00     0.293 HD
ENDBRANCH   7  43
TORSDOF 11
ENDMDL
MODEL 3
REMARK VINA RESULT:    -6.219      4.537      9.665
REMARK INTER + INTRA:         -10.540
REMARK INTER:                  -9.128
REMARK INTRA:                  -1.411
REMARK UNBOUND:                -1.411
REMARK SMILES Cc1cc2c(C(C)C)c(O)c(O)c(C=O)c2c(O)c1-c1c(C)cc2c(C(C)C)c(O)c(O)c(C=O)c2c1O
REMARK SMILES IDX 1 1 2 2 3 3 4 4 16 5 13 6 11 7 9 8 5 9 17 10 19 11 20 12
REMARK SMILES IDX 37 13 21 14 36 15 23 16 22 17 24 18 33 19 25 20 31 21 29 22
REMARK SMILES IDX 38 23 34 25 35 26 26 27 27 28 28 29 32 30 30 32 18 34 6 36
REMARK SMILES IDX 7 37 8 38 14 39 15 40 10 41 12 43
REMARK H PARENT 38 24 32 31 30 33 18 35 10 42 12 44
REMARK Flexibility Score: inf
ROOT
ATOM      1  C   UNL     1      33.921 -11.802  13.211  1.00  0.00     0.045 C 
ATOM      2  C   UNL     1      33.203 -11.273  14.428  1.00  0.00    -0.039 A 
ATOM      3  C   UNL     1      31.809 -11.199  14.422  1.00  0.00     0.013 A 
ATOM      4  C   UNL     1      31.087 -10.679  15.519  1.00  0.00    -0.006 A 
ATOM      5  C   UNL     1      31.810 -10.070  16.584  1.00  0.00     0.039 A 
ATOM      6  C   UNL     1      31.095  -9.325  17.566  1.00  0.00     0.072 A 
ATOM      7  C   UNL     1      29.690  -9.256  17.515  1.00  0.00     0.169 A 
ATOM      8  C   UNL     1      28.978  -9.928  16.501  1.00  0.00     0.162 A 
ATOM      9  C   UNL     1      29.661 -10.726  15.556  1.00  0.00     0.008 A 
ATOM     10  C   UNL     1      33.225 -10.250  16.643  1.00  0.00     0.132 A 
ATOM     11  C   UNL     1      33.913 -10.836  15.560  1.00  0.00     0.031 A 
ENDROOT
BRANCH  11  12
ATOM     12  C   UNL     1      35.391 -10.984  15.608  1.00  0.00     0.031 A 
ATOM     13  C   UNL     1      35.970 -12.172  16.104  1.00  0.00     0.132 A 
ATOM     14  C   UNL     1      36.211  -9.926  15.186  1.00  0.00    -0.039 A 
ATOM     15  C   UNL     1      37.387 -12.336  16.113  1.00  0.00     0.039 A 
ATOM     16  C   UNL     1      37.597 -10.045  15.290  1.00  0.00     0.013 A 
ATOM     17  C   UNL     1      35.615  -8.634  14.679  1.00  0.00     0.045 C 
ATOM     18  C   UNL     1      38.215 -11.243  15.714  1.00  0.00    -0.006 A 
ATOM     19  C   UNL     1      38.007 -13.544  16.552  1.00  0.00     0.072 A 
ATOM     20  C   UNL     1      39.639 -11.356  15.787  1.00  0.00     0.008 A 
ATOM     21  C   UNL     1      39.397 -13.582  16.765  1.00  0.00     0.169 A 
ATOM     22  C   UNL     1      40.192 -12.462  16.467  1.00  0.00     0.162 A 
BRANCH  13  23
ATOM     23  O   UNL     1      35.140 -13.168  16.630  1.00  0.00    -0.507 OA
ATOM     24  H   UNL     1      34.286 -12.982  17.141  1.00  0.00     0.293 HD
ENDBRANCH  13  23
BRANCH  19  25
ATOM     25  C   UNL     1      37.246 -14.807  16.706  1.00  0.00     0.264 C 
ATOM     26  O   UNL     1      36.959 -15.261  17.846  1.00  0.00    -0.298 OA
ENDBRANCH  19  25
BRANCH  20  27
ATOM     27  C   UNL     1      40.570 -10.282  15.196  1.00  0.00     0.017 C 
ATOM     28  C   UNL     1      41.166  -9.405  16.304  1.00  0.00     0.012 C 
ATOM     29  C   UNL     1      41.670 -10.846  14.278  1.00  0.00     0.012 C 
ENDBRANCH  20  27
BRANCH  21  30
ATOM     30  O   UNL     1      39.975 -14.770  17.227  1.00  0.00    -0.504 OA
ATOM     31  H   UNL     1      40.965 -14.971  17.182  1.00  0.00     0.293 HD
ENDBRANCH  21  30
BRANCH  22  32
ATOM     32  O   UNL     1      41.535 -12.426  16.848  1.00  0.00    -0.504 OA
ATOM     33  H   UNL     1      42.064 -11.574  16.979  1.00  0.00     0.293 HD
ENDBRANCH  22  32
ENDBRANCH  11  12
BRANCH  10  34
ATOM     34  O   UNL     1      33.935  -9.884  17.791  1.00  0.00    -0.507 OA
ATOM     35  H   UNL     1      34.940  -9.966  17.883  1.00  0.00     0.293 HD
ENDBRANCH  10  34
BRANCH   9  36
ATOM     36  C   UNL     1      28.863 -11.617  14.586  1.00  0.00     0.017 C 
ATOM     37  C   UNL     1      27.874 -10.786  13.763  1.00  0.00     0.012 C 
ATOM     38  C   UNL     1      28.165 -12.806  15.271  1.00  0.00     0.012 C 
ENDBRANCH   9  36
BRANCH   6  39
ATOM     39  C   UNL     1      31.789  -8.490  18.576  1.00  0.00     0.264 C 
ATOM     40  O   UNL     1      31.919  -8.884  19.765  1.00  0.00    -0.298 OA
ENDBRANCH   6  39
BRANCH   8  41
ATOM     41  O   UNL     1      27.592  -9.790  16.385  1.00  0.00    -0.504 OA
ATOM     42  H   UNL     1      26.974 -10.472  15.971  1.00  0.00     0.293 HD
ENDBRANCH   8  41
BRANCH   7  43
ATOM     43  O   UNL     1      29.028  -8.499  18.490  1.00  0.00    -0.504 OA
ATOM     44  H   UNL     1      28.058  -8.222  18.447  1.00  0.00     0.293 HD
ENDBRANCH   7  43
TORSDOF 11
ENDMDL
MODEL 4
REMARK VINA RESULT:    -6.174      1.881      3.392
REMARK INTER + INTRA:         -10.472
REMARK INTER:                  -9.055
REMARK INTRA:                  -1.417
REMARK UNBOUND:                -1.411
REMARK SMILES Cc1cc2c(C(C)C)c(O)c(O)c(C=O)c2c(O)c1-c1c(C)cc2c(C(C)C)c(O)c(O)c(C=O)c2c1O
REMARK SMILES IDX 1 1 2 2 3 3 4 4 16 5 13 6 11 7 9 8 5 9 17 10 19 11 20 12
REMARK SMILES IDX 37 13 21 14 36 15 23 16 22 17 24 18 33 19 25 20 31 21 29 22
REMARK SMILES IDX 38 23 34 25 35 26 26 27 27 28 28 29 32 30 30 32 18 34 6 36
REMARK SMILES IDX 7 37 8 38 14 39 15 40 10 41 12 43
REMARK H PARENT 38 24 32 31 30 33 18 35 10 42 12 44
REMARK Flexibility Score: inf
ROOT
ATOM      1  C   UNL     1      35.452 -12.500  10.668  1.00  0.00     0.045 C 
ATOM      2  C   UNL     1      36.583 -12.176  11.614  1.00  0.00    -0.039 A 
ATOM      3  C   UNL     1      37.637 -13.081  11.758  1.00  0.00     0.013 A 
ATOM      4  C   UNL     1      38.702 -12.846  12.654  1.00  0.00    -0.006 A 
ATOM      5  C   UNL     1      38.611 -11.739  13.545  1.00  0.00     0.039 A 
ATOM      6  C   UNL     1      39.548 -11.636  14.615  1.00  0.00     0.072 A 
ATOM      7  C   UNL     1      40.585 -12.580  14.739  1.00  0.00     0.169 A 
ATOM      8  C   UNL     1      40.712 -13.627  13.805  1.00  0.00     0.162 A 
ATOM      9  C   UNL     1      39.836 -13.712  12.700  1.00  0.00     0.008 A 
ATOM     10  C   UNL     1      37.600 -10.758  13.319  1.00  0.00     0.132 A 
ATOM     11  C   UNL     1      36.585 -10.989  12.367  1.00  0.00     0.031 A 
ENDROOT
BRANCH  11  12
ATOM     12  C   UNL     1      35.510  -9.982  12.163  1.00  0.00     0.031 A 
ATOM     13  C   UNL     1      34.324 -10.046  12.926  1.00  0.00     0.132 A 
ATOM     14  C   UNL     1      35.667  -8.985  11.188  1.00  0.00    -0.039 A 
ATOM     15  C   UNL     1      33.308  -9.057  12.764  1.00  0.00     0.039 A 
ATOM     16  C   UNL     1      34.632  -8.079  10.957  1.00  0.00     0.013 A 
ATOM     17  C   UNL     1      36.914  -8.915  10.340  1.00  0.00     0.045 C 
ATOM     18  C   UNL     1      33.460  -8.066  11.747  1.00  0.00    -0.006 A 
ATOM     19  C   UNL     1      32.122  -9.054  13.557  1.00  0.00     0.072 A 
ATOM     20  C   UNL     1      32.421  -7.111  11.514  1.00  0.00     0.008 A 
ATOM     21  C   UNL     1      31.050  -8.211  13.211  1.00  0.00     0.169 A 
ATOM     22  C   UNL     1      31.171  -7.310  12.140  1.00  0.00     0.162 A 
BRANCH  13  23
ATOM     23  O   UNL     1      34.136 -11.115  13.808  1.00  0.00    -0.507 OA
ATOM     24  H   UNL     1      33.969 -11.007  14.800  1.00  0.00     0.293 HD
ENDBRANCH  13  23
BRANCH  19  25
ATOM     25  C   UNL     1      32.007  -9.848  14.804  1.00  0.00     0.264 C 
ATOM     26  O   UNL     1      31.261 -10.861  14.866  1.00  0.00    -0.298 OA
ENDBRANCH  19  25
BRANCH  20  27
ATOM     27  C   UNL     1      32.615  -5.916  10.564  1.00  0.00     0.017 C 
ATOM     28  C   UNL     1      33.732  -4.993  11.065  1.00  0.00     0.012 C 
ATOM     29  C   UNL     1      32.837  -6.316   9.094  1.00  0.00     0.012 C 
ENDBRANCH  20  27
BRANCH  21  30
ATOM     30  O   UNL     1      29.885  -8.251  13.986  1.00  0.00    -0.504 OA
ATOM     31  H   UNL     1      29.138  -7.573  13.919  1.00  0.00     0.293 HD
ENDBRANCH  21  30
BRANCH  22  32
ATOM     32  O   UNL     1      30.057  -6.608  11.675  1.00  0.00    -0.504 OA
ATOM     33  H   UNL     1      30.059  -6.023  10.851  1.00  0.00     0.293 HD
ENDBRANCH  22  32
ENDBRANCH  11  12
BRANCH  10  34
ATOM     34  O   UNL     1      37.630  -9.542  14.011  1.00  0.00    -0.507 OA
ATOM     35  H   UNL     1      38.415  -9.228  14.567  1.00  0.00     0.293 HD
ENDBRANCH  10  34
BRANCH   9  36
ATOM     36  C   UNL     1      40.111 -14.731  11.580  1.00  0.00     0.017 C 
ATOM     37  C   UNL     1      40.344 -14.027  10.240  1.00  0.00     0.012 C 
ATOM     38  C   UNL     1      39.032 -15.824  11.460  1.00  0.00     0.012 C 
ENDBRANCH   9  36
BRANCH   6  39
ATOM     39  C   UNL     1      39.390 -10.639  15.702  1.00  0.00     0.264 C 
ATOM     40  O   UNL     1      40.138  -9.628  15.769  1.00  0.00    -0.298 OA
ENDBRANCH   6  39
BRANCH   8  41
ATOM     41  O   UNL     1      41.679 -14.623  13.971  1.00  0.00    -0.504 OA
ATOM     42  H   UNL     1      42.648 -14.459  14.199  1.00  0.00     0.293 HD
ENDBRANCH   8  41
BRANCH   7  43
ATOM     43  O   UNL     1      41.473 -12.451  15.814  1.00  0.00    -0.504 OA
ATOM     44  H   UNL     1      42.223 -11.778  15.867  1.00  0.00     0.293 HD
ENDBRANCH   7  43
TORSDOF 11
ENDMDL
MODEL 5
REMARK VINA RESULT:    -6.146      4.077      5.714
REMARK INTER + INTRA:         -10.432
REMARK INTER:                  -8.996
REMARK INTRA:                  -1.436
REMARK UNBOUND:                -1.411
REMARK SMILES Cc1cc2c(C(C)C)c(O)c(O)c(C=O)c2c(O)c1-c1c(C)cc2c(C(C)C)c(O)c(O)c(C=O)c2c1O
REMARK SMILES IDX 1 1 2 2 3 3 4 4 16 5 13 6 11 7 9 8 5 9 17 10 19 11 20 12
REMARK SMILES IDX 37 13 21 14 36 15 23 16 22 17 24 18 33 19 25 20 31 21 29 22
REMARK SMILES IDX 38 23 34 25 35 26 26 27 27 28 28 29 32 30 30 32 18 34 6 36
REMARK SMILES IDX 7 37 8 38 14 39 15 40 10 41 12 43
REMARK H PARENT 38 24 32 31 30 33 18 35 10 42 12 44
REMARK Flexibility Score: inf
ROOT
ATOM      1  C   UNL     1      34.473  -9.694  17.746  1.00  0.00     0.045 C 
ATOM      2  C   UNL     1      34.945 -11.082  17.384  1.00  0.00    -0.039 A 
ATOM      3  C   UNL     1      35.337 -11.959  18.398  1.00  0.00     0.013 A 
ATOM      4  C   UNL     1      35.819 -13.255  18.115  1.00  0.00    -0.006 A 
ATOM      5  C   UNL     1      36.061 -13.611  16.757  1.00  0.00     0.039 A 
ATOM      6  C   UNL     1      36.778 -14.810  16.476  1.00  0.00     0.072 A 
ATOM      7  C   UNL     1      37.175 -15.659  17.526  1.00  0.00     0.169 A 
ATOM      8  C   UNL     1      36.861 -15.337  18.862  1.00  0.00     0.162 A 
ATOM      9  C   UNL     1      36.095 -14.187  19.159  1.00  0.00     0.008 A 
ATOM     10  C   UNL     1      35.555 -12.764  15.726  1.00  0.00     0.132 A 
ATOM     11  C   UNL     1      35.014 -11.500  16.044  1.00  0.00     0.031 A 
ENDROOT
BRANCH  11  12
ATOM     12  C   UNL     1      34.525 -10.605  14.963  1.00  0.00     0.031 A 
ATOM     13  C   UNL     1      35.427  -9.772  14.269  1.00  0.00     0.132 A 
ATOM     14  C   UNL     1      33.155 -10.570  14.655  1.00  0.00    -0.039 A 
ATOM     15  C   UNL     1      34.969  -8.942  13.201  1.00  0.00     0.039 A 
ATOM     16  C   UNL     1      32.691  -9.684  13.683  1.00  0.00     0.013 A 
ATOM     17  C   UNL     1      32.167 -11.430  15.405  1.00  0.00     0.045 C 
ATOM     18  C   UNL     1      33.571  -8.887  12.917  1.00  0.00    -0.006 A 
ATOM     19  C   UNL     1      35.860  -8.131  12.438  1.00  0.00     0.072 A 
ATOM     20  C   UNL     1      33.079  -8.005  11.904  1.00  0.00     0.008 A 
ATOM     21  C   UNL     1      35.345  -7.161  11.558  1.00  0.00     0.169 A 
ATOM     22  C   UNL     1      33.959  -7.042  11.363  1.00  0.00     0.162 A 
BRANCH  13  23
ATOM     23  O   UNL     1      36.768  -9.734  14.668  1.00  0.00    -0.507 OA
ATOM     24  H   UNL     1      37.072  -9.502  15.605  1.00  0.00     0.293 HD
ENDBRANCH  13  23
BRANCH  19  25
ATOM     25  C   UNL     1      37.328  -8.334  12.464  1.00  0.00     0.264 C 
ATOM     26  O   UNL     1      38.101  -7.455  12.931  1.00  0.00    -0.298 OA
ENDBRANCH  19  25
BRANCH  20  27
ATOM     27  C   UNL     1      31.613  -8.045  11.435  1.00  0.00     0.017 C 
ATOM     28  C   UNL     1      30.828  -6.851  11.990  1.00  0.00     0.012 C 
ATOM     29  C   UNL     1      31.449  -8.160   9.908  1.00  0.00     0.012 C 
ENDBRANCH  20  27
BRANCH  21  30
ATOM     30  O   UNL     1      36.241  -6.355  10.845  1.00  0.00    -0.504 OA
ATOM     31  H   UNL     1      36.619  -5.485  11.194  1.00  0.00     0.293 HD
ENDBRANCH  21  30
BRANCH  22  32
ATOM     32  O   UNL     1      33.434  -5.967  10.643  1.00  0.00    -0.504 OA
ATOM     33  H   UNL     1      32.897  -5.217  11.055  1.00  0.00     0.293 HD
ENDBRANCH  22  32
ENDBRANCH  11  12
BRANCH  10  34
ATOM     34  O   UNL     1      35.553 -13.197  14.395  1.00  0.00    -0.507 OA
ATOM     35  H   UNL     1      35.411 -14.160  14.116  1.00  0.00     0.293 HD
ENDBRANCH  10  34
BRANCH   9  36
ATOM     36  C   UNL     1      35.584 -13.957  20.593  1.00  0.00     0.017 C 
ATOM     37  C   UNL     1      36.739 -13.626  21.543  1.00  0.00     0.012 C 
ATOM     38  C   UNL     1      34.724 -15.114  21.136  1.00  0.00     0.012 C 
ENDBRANCH   9  36
BRANCH   6  39
ATOM     39  C   UNL     1      37.253 -15.138  15.109  1.00  0.00     0.264 C 
ATOM     40  O   UNL     1      36.631 -15.959  14.386  1.00  0.00    -0.298 OA
ENDBRANCH   6  39
BRANCH   8  41
ATOM     41  O   UNL     1      37.330 -16.122  19.919  1.00  0.00    -0.504 OA
ATOM     42  H   UNL     1      38.274 -16.112  20.274  1.00  0.00     0.293 HD
ENDBRANCH   8  41
BRANCH   7  43
ATOM     43  O   UNL     1      37.891 -16.819  17.206  1.00  0.00    -0.504 OA
ATOM     44  H   UNL     1      38.712 -16.848  16.620  1.00  0.00     0.293 HD
ENDBRANCH   7  43
TORSDOF 11
ENDMDL
MODEL 6
REMARK VINA RESULT:    -6.129      5.325      9.971
REMARK INTER + INTRA:         -10.407
REMARK INTER:                  -8.936
REMARK INTRA:                  -1.471
REMARK UNBOUND:                -1.411
REMARK SMILES Cc1cc2c(C(C)C)c(O)c(O)c(C=O)c2c(O)c1-c1c(C)cc2c(C(C)C)c(O)c(O)c(C=O)c2c1O
REMARK SMILES IDX 1 1 2 2 3 3 4 4 16 5 13 6 11 7 9 8 5 9 17 10 19 11 20 12
REMARK SMILES IDX 37 13 21 14 36 15 23 16 22 17 24 18 33 19 25 20 31 21 29 22
REMARK SMILES IDX 38 23 34 25 35 26 26 27 27 28 28 29 32 30 30 32 18 34 6 36
REMARK SMILES IDX 7 37 8 38 14 39 15 40 10 41 12 43
REMARK H PARENT 38 24 32 31 30 33 18 35 10 42 12 44
REMARK Flexibility Score: inf
ROOT
ATOM      1  C   UNL     1      36.283  -9.740  16.825  1.00  0.00     0.045 C 
ATOM      2  C   UNL     1      34.936 -10.215  16.339  1.00  0.00    -0.039 A 
ATOM      3  C   UNL     1      34.426  -9.719  15.138  1.00  0.00     0.013 A 
ATOM      4  C   UNL     1      33.156 -10.101  14.653  1.00  0.00    -0.006 A 
ATOM      5  C   UNL     1      32.314 -10.884  15.494  1.00  0.00     0.039 A 
ATOM      6  C   UNL     1      30.949 -11.064  15.127  1.00  0.00     0.072 A 
ATOM      7  C   UNL     1      30.467 -10.531  13.917  1.00  0.00     0.169 A 
ATOM      8  C   UNL     1      31.328  -9.824  13.054  1.00  0.00     0.162 A 
ATOM      9  C   UNL     1      32.700  -9.690  13.366  1.00  0.00     0.008 A 
ATOM     10  C   UNL     1      32.876 -11.482  16.661  1.00  0.00     0.132 A 
ATOM     11  C   UNL     1      34.176 -11.133  17.085  1.00  0.00     0.031 A 
ENDROOT
BRANCH  11  12
ATOM     12  C   UNL     1      34.742 -11.728  18.324  1.00  0.00     0.031 A 
ATOM     13  C   UNL     1      35.444 -12.951  18.267  1.00  0.00     0.132 A 
ATOM     14  C   UNL     1      34.549 -11.083  19.556  1.00  0.00    -0.039 A 
ATOM     15  C   UNL     1      36.026 -13.504  19.447  1.00  0.00     0.039 A 
ATOM     16  C   UNL     1      35.029 -11.675  20.724  1.00  0.00     0.013 A 
ATOM     17  C   UNL     1      33.776  -9.790  19.644  1.00  0.00     0.045 C 
ATOM     18  C   UNL     1      35.797 -12.860  20.701  1.00  0.00    -0.006 A 
ATOM     19  C   UNL     1      36.792 -14.707  19.421  1.00  0.00     0.072 A 
ATOM     20  C   UNL     1      36.305 -13.437  21.908  1.00  0.00     0.008 A 
ATOM     21  C   UNL     1      37.147 -15.339  20.626  1.00  0.00     0.169 A 
ATOM     22  C   UNL     1      36.825 -14.749  21.860  1.00  0.00     0.162 A 
BRANCH  13  23
ATOM     23  O   UNL     1      35.524 -13.638  17.051  1.00  0.00    -0.507 OA
ATOM     24  H   UNL     1      35.441 -13.195  16.145  1.00  0.00     0.293 HD
ENDBRANCH  13  23
BRANCH  19  25
ATOM     25  C   UNL     1      37.317 -15.278  18.157  1.00  0.00     0.264 C 
ATOM     26  O   UNL     1      36.864 -16.357  17.691  1.00  0.00    -0.298 OA
ENDBRANCH  19  25
BRANCH  20  27
ATOM     27  C   UNL     1      36.246 -12.690  23.252  1.00  0.00     0.017 C 
ATOM     28  C   UNL     1      35.212 -13.327  24.188  1.00  0.00     0.012 C 
ATOM     29  C   UNL     1      37.613 -12.546  23.946  1.00  0.00     0.012 C 
ENDBRANCH  20  27
BRANCH  21  30
ATOM     30  O   UNL     1      37.871 -16.536  20.572  1.00  0.00    -0.504 OA
ATOM     31  H   UNL     1      37.446 -17.451  20.506  1.00  0.00     0.293 HD
ENDBRANCH  21  30
BRANCH  22  32
ATOM     32  O   UNL     1      37.005 -15.455  23.052  1.00  0.00    -0.504 OA
ATOM     33  H   UNL     1      36.252 -15.723  23.670  1.00  0.00     0.293 HD
ENDBRANCH  22  32
ENDBRANCH  11  12
BRANCH  10  34
ATOM     34  O   UNL     1      32.159 -12.450  17.373  1.00  0.00    -0.507 OA
ATOM     35  H   UNL     1      32.571 -13.061  18.067  1.00  0.00     0.293 HD
ENDBRANCH  10  34
BRANCH   9  36
ATOM     36  C   UNL     1      33.668  -9.101  12.323  1.00  0.00     0.017 C 
ATOM     37  C   UNL     1      33.461  -7.591  12.171  1.00  0.00     0.012 C 
ATOM     38  C   UNL     1      33.618  -9.815  10.960  1.00  0.00     0.012 C 
ENDBRANCH   9  36
BRANCH   6  39
ATOM     39  C   UNL     1      29.964 -11.680  16.049  1.00  0.00     0.264 C 
ATOM     40  O   UNL     1      29.533 -12.847  15.853  1.00  0.00    -0.298 OA
ENDBRANCH   6  39
BRANCH   8  41
ATOM     41  O   UNL     1      30.841  -9.210  11.896  1.00  0.00    -0.504 OA
ATOM     42  H   UNL     1      29.930  -9.372  11.494  1.00  0.00     0.293 HD
ENDBRANCH   8  41
BRANCH   7  43
ATOM     43  O   UNL     1      29.114 -10.716  13.603  1.00  0.00    -0.504 OA
ATOM     44  H   UNL     1      28.341 -10.368  14.150  1.00  0.00     0.293 HD
ENDBRANCH   7  43
TORSDOF 11
ENDMDL
MODEL 7
REMARK VINA RESULT:    -6.106      5.271      7.096
REMARK INTER + INTRA:         -10.374
REMARK INTER:                  -8.953
REMARK INTRA:                  -1.421
REMARK UNBOUND:                -1.411
REMARK SMILES Cc1cc2c(C(C)C)c(O)c(O)c(C=O)c2c(O)c1-c1c(C)cc2c(C(C)C)c(O)c(O)c(C=O)c2c1O
REMARK SMILES IDX 1 1 2 2 3 3 4 4 16 5 13 6 11 7 9 8 5 9 17 10 19 11 20 12
REMARK SMILES IDX 37 13 21 14 36 15 23 16 22 17 24 18 33 19 25 20 31 21 29 22
REMARK SMILES IDX 38 23 34 25 35 26 26 27 27 28 28 29 32 30 30 32 18 34 6 36
REMARK SMILES IDX 7 37 8 38 14 39 15 40 10 41 12 43
REMARK H PARENT 38 24 32 31 30 33 18 35 10 42 12 44
REMARK Flexibility Score: inf
ROOT
ATOM      1  C   UNL     1      33.978  -9.848  19.584  1.00  0.00     0.045 C 
ATOM      2  C   UNL     1      34.605 -11.216  19.479  1.00  0.00    -0.039 A 
ATOM      3  C   UNL     1      35.100 -11.834  20.629  1.00  0.00     0.013 A 
ATOM      4  C   UNL     1      35.728 -13.098  20.583  1.00  0.00    -0.006 A 
ATOM      5  C   UNL     1      36.005 -13.676  19.312  1.00  0.00     0.039 A 
ATOM      6  C   UNL     1      36.854 -14.818  19.244  1.00  0.00     0.072 A 
ATOM      7  C   UNL     1      37.350 -15.401  20.425  1.00  0.00     0.169 A 
ATOM      8  C   UNL     1      37.006 -14.868  21.683  1.00  0.00     0.162 A 
ATOM      9  C   UNL     1      36.114 -13.776  21.778  1.00  0.00     0.008 A 
ATOM     10  C   UNL     1      35.400 -13.104  18.152  1.00  0.00     0.132 A 
ATOM     11  C   UNL     1      34.718 -11.872  18.240  1.00  0.00     0.031 A 
ENDROOT
BRANCH  11  12
ATOM     12  C   UNL     1      34.124 -11.260  17.022  1.00  0.00     0.031 A 
ATOM     13  C   UNL     1      32.795 -11.556  16.655  1.00  0.00     0.132 A 
ATOM     14  C   UNL     1      34.902 -10.408  16.222  1.00  0.00    -0.039 A 
ATOM     15  C   UNL     1      32.207 -10.938  15.511  1.00  0.00     0.039 A 
ATOM     16  C   UNL     1      34.362  -9.883  15.048  1.00  0.00     0.013 A 
ATOM     17  C   UNL     1      36.337 -10.100  16.579  1.00  0.00     0.045 C 
ATOM     18  C   UNL     1      33.014 -10.099  14.684  1.00  0.00    -0.006 A 
ATOM     19  C   UNL     1      30.848 -11.167  15.141  1.00  0.00     0.072 A 
ATOM     20  C   UNL     1      32.470  -9.530  13.490  1.00  0.00     0.008 A 
ATOM     21  C   UNL     1      30.379 -10.729  13.889  1.00  0.00     0.169 A 
ATOM     22  C   UNL     1      31.216  -9.992  13.034  1.00  0.00     0.162 A 
BRANCH  13  23
ATOM     23  O   UNL     1      32.074 -12.498  17.398  1.00  0.00    -0.507 OA
ATOM     24  H   UNL     1      32.111 -12.571  18.406  1.00  0.00     0.293 HD
ENDBRANCH  13  23
BRANCH  19  25
ATOM     25  C   UNL     1      29.870 -11.775  16.075  1.00  0.00     0.264 C 
ATOM     26  O   UNL     1      29.415 -12.933  15.879  1.00  0.00    -0.298 OA
ENDBRANCH  19  25
BRANCH  20  27
ATOM     27  C   UNL     1      33.236  -8.477  12.669  1.00  0.00     0.017 C 
ATOM     28  C   UNL     1      33.972  -9.129  11.493  1.00  0.00     0.012 C 
ATOM     29  C   UNL     1      32.366  -7.297  12.199  1.00  0.00     0.012 C 
ENDBRANCH  20  27
BRANCH  21  30
ATOM     30  O   UNL     1      29.050 -10.995  13.537  1.00  0.00    -0.504 OA
ATOM     31  H   UNL     1      28.460 -10.351  13.029  1.00  0.00     0.293 HD
ENDBRANCH  21  30
BRANCH  22  32
ATOM     32  O   UNL     1      30.824  -9.718  11.722  1.00  0.00    -0.504 OA
ATOM     33  H   UNL     1      31.161 -10.221  10.913  1.00  0.00     0.293 HD
ENDBRANCH  22  32
ENDBRANCH  11  12
BRANCH  10  34
ATOM     34  O   UNL     1      35.444 -13.779  16.928  1.00  0.00    -0.507 OA
ATOM     35  H   UNL     1      36.038 -13.508  16.155  1.00  0.00     0.293 HD
ENDBRANCH  10  34
BRANCH   9  36
ATOM     36  C   UNL     1      35.584 -13.337  23.155  1.00  0.00     0.017 C 
ATOM     37  C   UNL     1      36.639 -12.530  23.919  1.00  0.00     0.012 C 
ATOM     38  C   UNL     1      35.040 -14.498  24.007  1.00  0.00     0.012 C 
ENDBRANCH   9  36
BRANCH   6  39
ATOM     39  C   UNL     1      37.359 -15.344  17.952  1.00  0.00     0.264 C 
ATOM     40  O   UNL     1      36.947 -16.442  17.493  1.00  0.00    -0.298 OA
ENDBRANCH   6  39
BRANCH   8  41
ATOM     41  O   UNL     1      37.566 -15.379  22.858  1.00  0.00    -0.504 OA
ATOM     42  H   UNL     1      37.653 -14.874  23.726  1.00  0.00     0.293 HD
ENDBRANCH   8  41
BRANCH   7  43
ATOM     43  O   UNL     1      38.195 -16.512  20.312  1.00  0.00    -0.504 OA
ATOM     44  H   UNL     1      39.184 -16.469  20.116  1.00  0.00     0.293 HD
ENDBRANCH   7  43
TORSDOF 11
ENDMDL
MODEL 8
REMARK VINA RESULT:    -6.054      4.170      6.159
REMARK INTER + INTRA:         -10.297
REMARK INTER:                  -8.958
REMARK INTRA:                  -1.339
REMARK UNBOUND:                -1.411
REMARK SMILES Cc1cc2c(C(C)C)c(O)c(O)c(C=O)c2c(O)c1-c1c(C)cc2c(C(C)C)c(O)c(O)c(C=O)c2c1O
REMARK SMILES IDX 1 1 2 2 3 3 4 4 16 5 13 6 11 7 9 8 5 9 17 10 19 11 20 12
REMARK SMILES IDX 37 13 21 14 36 15 23 16 22 17 24 18 33 19 25 20 31 21 29 22
REMARK SMILES IDX 38 23 34 25 35 26 26 27 27 28 28 29 32 30 30 32 18 34 6 36
REMARK SMILES IDX 7 37 8 38 14 39 15 40 10 41 12 43
REMARK H PARENT 38 24 32 31 30 33 18 35 10 42 12 44
REMARK Flexibility Score: inf
ROOT
ATOM      1  C   UNL     1      35.534 -14.747  14.227  1.00  0.00     0.045 C 
ATOM      2  C   UNL     1      35.896 -14.390  15.649  1.00  0.00    -0.039 A 
ATOM      3  C   UNL     1      36.585 -15.316  16.433  1.00  0.00     0.013 A 
ATOM      4  C   UNL     1      36.918 -15.050  17.779  1.00  0.00    -0.006 A 
ATOM      5  C   UNL     1      36.395 -13.875  18.391  1.00  0.00     0.039 A 
ATOM      6  C   UNL     1      36.511 -13.723  19.803  1.00  0.00     0.072 A 
ATOM      7  C   UNL     1      37.196 -14.690  20.564  1.00  0.00     0.169 A 
ATOM      8  C   UNL     1      37.779 -15.809  19.938  1.00  0.00     0.162 A 
ATOM      9  C   UNL     1      37.733 -15.948  18.532  1.00  0.00     0.008 A 
ATOM     10  C   UNL     1      35.793 -12.881  17.563  1.00  0.00     0.132 A 
ATOM     11  C   UNL     1      35.535 -13.149  16.202  1.00  0.00     0.031 A 
ENDROOT
BRANCH  11  12
ATOM     12  C   UNL     1      34.871 -12.125  15.353  1.00  0.00     0.031 A 
ATOM     13  C   UNL     1      33.471 -11.959  15.405  1.00  0.00     0.132 A 
ATOM     14  C   UNL     1      35.641 -11.344  14.476  1.00  0.00    -0.039 A 
ATOM     15  C   UNL     1      32.835 -10.948  14.623  1.00  0.00     0.039 A 
ATOM     16  C   UNL     1      35.009 -10.426  13.637  1.00  0.00     0.013 A 
ATOM     17  C   UNL     1      37.137 -11.525  14.382  1.00  0.00     0.045 C 
ATOM     18  C   UNL     1      33.620 -10.181  13.710  1.00  0.00    -0.006 A 
ATOM     19  C   UNL     1      31.430 -10.710  14.692  1.00  0.00     0.072 A 
ATOM     20  C   UNL     1      32.993  -9.215  12.860  1.00  0.00     0.008 A 
ATOM     21  C   UNL     1      30.813  -9.874  13.745  1.00  0.00     0.169 A 
ATOM     22  C   UNL     1      31.584  -9.202  12.781  1.00  0.00     0.162 A 
BRANCH  13  23
ATOM     23  O   UNL     1      32.709 -12.826  16.195  1.00  0.00    -0.507 OA
ATOM     24  H   UNL     1      31.993 -13.441  15.831  1.00  0.00     0.293 HD
ENDBRANCH  13  23
BRANCH  19  25
ATOM     25  C   UNL     1      30.595 -11.244  15.795  1.00  0.00     0.264 C 
ATOM     26  O   UNL     1      29.741 -12.147  15.589  1.00  0.00    -0.298 OA
ENDBRANCH  19  25
BRANCH  20  27
ATOM     27  C   UNL     1      33.813  -8.238  11.999  1.00  0.00     0.017 C 
ATOM     28  C   UNL     1      33.827  -8.682  10.532  1.00  0.00     0.012 C 
ATOM     29  C   UNL     1      33.375  -6.768  12.134  1.00  0.00     0.012 C 
ENDBRANCH  20  27
BRANCH  21  30
ATOM     30  O   UNL     1      29.428  -9.683  13.815  1.00  0.00    -0.504 OA
ATOM     31  H   UNL     1      28.990  -8.865  14.215  1.00  0.00     0.293 HD
ENDBRANCH  21  30
BRANCH  22  32
ATOM     32  O   UNL     1      30.967  -8.524  11.727  1.00  0.00    -0.504 OA
ATOM     33  H   UNL     1      30.436  -7.670  11.837  1.00  0.00     0.293 HD
ENDBRANCH  22  32
ENDBRANCH  11  12
BRANCH  10  34
ATOM     34  O   UNL     1      35.493 -11.617  18.083  1.00  0.00    -0.507 OA
ATOM     35  H   UNL     1      35.819 -10.749  17.678  1.00  0.00     0.293 HD
ENDBRANCH  10  34
BRANCH   9  36
ATOM     36  C   UNL     1      38.547 -17.059  17.845  1.00  0.00     0.017 C 
ATOM     37  C   UNL     1      38.006 -18.444  18.210  1.00  0.00     0.012 C 
ATOM     38  C   UNL     1      40.062 -16.963  18.100  1.00  0.00     0.012 C 
ENDBRANCH   9  36
BRANCH   6  39
ATOM     39  C   UNL     1      35.809 -12.641  20.536  1.00  0.00     0.264 C 
ATOM     40  O   UNL     1      36.440 -11.653  20.995  1.00  0.00    -0.298 OA
ENDBRANCH   6  39
BRANCH   8  41
ATOM     41  O   UNL     1      38.380 -16.822  20.692  1.00  0.00    -0.504 OA
ATOM     42  H   UNL     1      38.006 -17.209  21.545  1.00  0.00     0.293 HD
ENDBRANCH   8  41
BRANCH   7  43
ATOM     43  O   UNL     1      37.273 -14.509  21.951  1.00  0.00    -0.504 OA
ATOM     44  H   UNL     1      36.862 -15.124  22.638  1.00  0.00     0.293 HD
ENDBRANCH   7  43
TORSDOF 11
ENDMDL
MODEL 9
REMARK VINA RESULT:    -6.001      1.884      8.819
REMARK INTER + INTRA:         -10.219
REMARK INTER:                  -8.943
REMARK INTRA:                  -1.277
REMARK UNBOUND:                -1.411
REMARK SMILES Cc1cc2c(C(C)C)c(O)c(O)c(C=O)c2c(O)c1-c1c(C)cc2c(C(C)C)c(O)c(O)c(C=O)c2c1O
REMARK SMILES IDX 1 1 2 2 3 3 4 4 16 5 13 6 11 7 9 8 5 9 17 10 19 11 20 12
REMARK SMILES IDX 37 13 21 14 36 15 23 16 22 17 24 18 33 19 25 20 31 21 29 22
REMARK SMILES IDX 38 23 34 25 35 26 26 27 27 28 28 29 32 30 30 32 18 34 6 36
REMARK SMILES IDX 7 37 8 38 14 39 15 40 10 41 12 43
REMARK H PARENT 38 24 32 31 30 33 18 35 10 42 12 44
REMARK Flexibility Score: inf
ROOT
ATOM      1  C   UNL     1      37.275  -8.438  11.343  1.00  0.00     0.045 C 
ATOM      2  C   UNL     1      35.858  -8.774  11.738  1.00  0.00    -0.039 A 
ATOM      3  C   UNL     1      34.844  -7.841  11.511  1.00  0.00     0.013 A 
ATOM      4  C   UNL     1      33.507  -8.087  11.893  1.00  0.00    -0.006 A 
ATOM      5  C   UNL     1      33.223  -9.246  12.671  1.00  0.00     0.039 A 
ATOM      6  C   UNL     1      31.937  -9.375  13.271  1.00  0.00     0.072 A 
ATOM      7  C   UNL     1      30.947  -8.402  13.036  1.00  0.00     0.169 A 
ATOM      8  C   UNL     1      31.213  -7.300  12.200  1.00  0.00     0.162 A 
ATOM      9  C   UNL     1      32.459  -7.185  11.542  1.00  0.00     0.008 A 
ATOM     10  C   UNL     1      34.231 -10.248  12.801  1.00  0.00     0.132 A 
ATOM     11  C   UNL     1      35.544 -10.001  12.348  1.00  0.00     0.031 A 
ENDROOT
BRANCH  11  12
ATOM     12  C   UNL     1      36.600 -11.032  12.521  1.00  0.00     0.031 A 
ATOM     13  C   UNL     1      37.382 -11.057  13.696  1.00  0.00     0.132 A 
ATOM     14  C   UNL     1      36.836 -11.965  11.499  1.00  0.00    -0.039 A 
ATOM     15  C   UNL     1      38.367 -12.072  13.886  1.00  0.00     0.039 A 
ATOM     16  C   UNL     1      37.868 -12.893  11.639  1.00  0.00     0.013 A 
ATOM     17  C   UNL     1      36.032 -11.939  10.221  1.00  0.00     0.045 C 
ATOM     18  C   UNL     1      38.625 -12.995  12.827  1.00  0.00    -0.006 A 
ATOM     19  C   UNL     1      39.136 -12.165  15.083  1.00  0.00     0.072 A 
ATOM     20  C   UNL     1      39.660 -13.973  12.963  1.00  0.00     0.008 A 
ATOM     21  C   UNL     1      40.248 -13.025  15.138  1.00  0.00     0.169 A 
ATOM     22  C   UNL     1      40.557 -13.857  14.048  1.00  0.00     0.162 A 
BRANCH  13  23
ATOM     23  O   UNL     1      37.212 -10.049  14.651  1.00  0.00    -0.507 OA
ATOM     24  H   UNL     1      37.886  -9.837  15.375  1.00  0.00     0.293 HD
ENDBRANCH  13  23
BRANCH  19  25
ATOM     25  C   UNL     1      38.751 -11.450  16.324  1.00  0.00     0.264 C 
ATOM     26  O   UNL     1      39.402 -10.452  16.731  1.00  0.00    -0.298 OA
ENDBRANCH  19  25
BRANCH  20  27
ATOM     27  C   UNL     1      39.851 -15.102  11.936  1.00  0.00     0.017 C 
ATOM     28  C   UNL     1      38.532 -15.839  11.680  1.00  0.00     0.012 C 
ATOM     29  C   UNL     1      40.499 -14.643  10.616  1.00  0.00     0.012 C 
ENDBRANCH  20  27
BRANCH  21  30
ATOM     30  O   UNL     1      41.006 -13.073  16.314  1.00  0.00    -0.504 OA
ATOM     31  H   UNL     1      41.573 -12.308  16.653  1.00  0.00     0.293 HD
ENDBRANCH  21  30
BRANCH  22  32
ATOM     32  O   UNL     1      41.757 -14.570  14.019  1.00  0.00    -0.504 OA
ATOM     33  H   UNL     1      42.132 -15.080  14.808  1.00  0.00     0.293 HD
ENDBRANCH  22  32
ENDBRANCH  11  12
BRANCH  10  34
ATOM     34  O   UNL     1      33.915 -11.499  13.341  1.00  0.00    -0.507 OA
ATOM     35  H   UNL     1      33.263 -11.636  14.104  1.00  0.00     0.293 HD
ENDBRANCH  10  34
BRANCH   9  36
ATOM     36  C   UNL     1      32.664  -6.094  10.475  1.00  0.00     0.017 C 
ATOM     37  C   UNL     1      33.032  -6.710   9.122  1.00  0.00     0.012 C 
ATOM     38  C   UNL     1      33.672  -5.006  10.889  1.00  0.00     0.012 C 
ENDBRANCH   9  36
BRANCH   6  39
ATOM     39  C   UNL     1      31.638 -10.436  14.263  1.00  0.00     0.264 C 
ATOM     40  O   UNL     1      31.810 -10.241  15.495  1.00  0.00    -0.298 OA
ENDBRANCH   6  39
BRANCH   8  41
ATOM     41  O   UNL     1      30.271  -6.280  12.034  1.00  0.00    -0.504 OA
ATOM     42  H   UNL     1      29.274  -6.417  11.972  1.00  0.00     0.293 HD
ENDBRANCH   8  41
BRANCH   7  43
ATOM     43  O   UNL     1      29.702  -8.560  13.659  1.00  0.00    -0.504 OA
ATOM     44  H   UNL     1      29.541  -8.495  14.654  1.00  0.00     0.293 HD
ENDBRANCH   7  43
TORSDOF 11
ENDMDL
