MODEL 1
REMARK VINA RESULT:    -6.537      0.000      0.000
REMARK INTER + INTRA:          -6.890
REMARK INTER:                  -7.110
REMARK INTRA:                   0.221
REMARK UNBOUND:                 0.221
REMARK SMILES C[C@H]1[C@H](C)CC[C@@]2(C(=O)[O-])CC[C@@]3(C)C(=CC[C@H]4[C@@]5(C)CC[C@H](O)C(C)(C)[C@H]5CC[C@]43C)[C@H]12
REMARK SMILES IDX 7 1 6 2 11 3 33 4 5 5 12 6 15 7 2 8 3 9 13 10 16 11 1 12
REMARK SMILES IDX 4 13 14 14 31 15 17 16 18 17 30 18 32 19 19 20 29 21 28 22
REMARK SMILES IDX 21 23 20 24 25 25 22 26 23 27 26 28 27 29 8 30 9 31 10 32
REMARK SMILES IDX 24 33
REMARK H PARENT 24 34
REMARK Flexibility Score: inf
ROOT
ATOM      1  C   UNL     1      52.204  33.264  84.361  1.00  0.00     0.017 C 
ATOM      2  C   UNL     1      52.333  33.895  82.951  1.00  0.00     0.014 C 
ATOM      3  C   UNL     1      53.477  33.615  85.216  1.00  0.00     0.014 C 
ATOM      4  C   UNL     1      50.931  33.866  85.037  1.00  0.00     0.030 C 
ATOM      5  C   UNL     1      51.083  33.647  82.097  1.00  0.00     0.004 C 
ATOM      6  C   UNL     1      53.228  34.442  86.507  1.00  0.00     0.013 C 
ATOM      7  C   UNL     1      50.914  33.425  86.503  1.00  0.00    -0.063 C 
ATOM      8  C   UNL     1      49.615  33.705  84.202  1.00  0.00    -0.003 C 
ATOM      9  C   UNL     1      49.824  34.247  82.751  1.00  0.00    -0.011 C 
ATOM     10  C   UNL     1      51.983  34.027  87.408  1.00  0.00    -0.006 C 
ATOM     11  C   UNL     1      50.072  32.480  86.951  1.00  0.00    -0.027 C 
ATOM     12  C   UNL     1      48.449  34.460  84.881  1.00  0.00     0.008 C 
ATOM     13  C   UNL     1      48.608  33.970  81.850  1.00  0.00     0.008 C 
ATOM     14  C   UNL     1      51.361  35.344  87.966  1.00  0.00     0.017 C 
ATOM     15  C   UNL     1      52.384  33.027  88.608  1.00  0.00    -0.020 C 
ATOM     16  C   UNL     1      50.037  31.957  88.351  1.00  0.00     0.032 C 
ATOM     17  C   UNL     1      51.098  32.501  89.363  1.00  0.00     0.006 C 
ATOM     18  C   UNL     1      53.157  31.792  88.047  1.00  0.00     0.008 C 
ATOM     19  C   UNL     1      53.303  33.805  89.613  1.00  0.00     0.012 C 
ATOM     20  C   UNL     1      51.396  31.487  90.594  1.00  0.00    -0.025 C 
ATOM     21  C   UNL     1      52.935  30.446  88.769  1.00  0.00     0.005 C 
ATOM     22  C   UNL     1      52.671  30.562  90.299  1.00  0.00     0.003 C 
ATOM     23  C   UNL     1      50.113  30.633  90.945  1.00  0.00     0.010 C 
ATOM     24  C   UNL     1      51.676  32.335  91.882  1.00  0.00     0.012 C 
ATOM     25  C   UNL     1      52.742  29.164  91.096  1.00  0.00    -0.006 C 
ATOM     26  C   UNL     1      50.218  29.164  90.551  1.00  0.00     0.033 C 
ATOM     27  C   UNL     1      51.330  28.499  91.358  1.00  0.00     0.120 C 
ATOM     28  C   UNL     1      53.609  28.111  90.345  1.00  0.00     0.014 C 
ATOM     29  C   UNL     1      53.492  29.387  92.445  1.00  0.00     0.014 C 
ENDROOT
BRANCH   1  30
ATOM     30  C   UNL     1      52.155  31.745  84.198  1.00  0.00     0.048 C 
ATOM     31  O   UNL     1      51.090  31.140  83.907  1.00  0.00    -0.550 OA
ATOM     32  O   UNL     1      53.313  31.000  84.389  1.00  0.00    -0.550 OA
ENDBRANCH   1  30
BRANCH  27  33
ATOM     33  O   UNL     1      50.988  28.531  92.729  1.00  0.00    -0.393 OA
ATOM     34  H   UNL     1      50.200  27.936  92.852  1.00  0.00     0.210 HD
ENDBRANCH  27  33
TORSDOF 2
ENDMDL
MODEL 2
REMARK VINA RESULT:    -5.989      1.784      3.289
REMARK INTER + INTRA:          -6.293
REMARK INTER:                  -6.510
REMARK INTRA:                   0.217
REMARK UNBOUND:                 0.221
REMARK SMILES C[C@H]1[C@H](C)CC[C@@]2(C(=O)[O-])CC[C@@]3(C)C(=CC[C@H]4[C@@]5(C)CC[C@H](O)C(C)(C)[C@H]5CC[C@]43C)[C@H]12
REMARK SMILES IDX 7 1 6 2 11 3 33 4 5 5 12 6 15 7 2 8 3 9 13 10 16 11 1 12
REMARK SMILES IDX 4 13 14 14 31 15 17 16 18 17 30 18 32 19 19 20 29 21 28 22
REMARK SMILES IDX 21 23 20 24 25 25 22 26 23 27 26 28 27 29 8 30 9 31 10 32
REMARK SMILES IDX 24 33
REMARK H PARENT 24 34
REMARK Flexibility Score: inf
ROOT
ATOM      1  C   UNL     1      50.750  33.424  83.845  1.00  0.00     0.017 C 
ATOM      2  C   UNL     1      50.723  34.041  82.423  1.00  0.00     0.014 C 
ATOM      3  C   UNL     1      49.893  34.310  84.822  1.00  0.00     0.014 C 
ATOM      4  C   UNL     1      50.135  31.991  83.753  1.00  0.00     0.030 C 
ATOM      5  C   UNL     1      51.483  33.176  81.410  1.00  0.00     0.004 C 
ATOM      6  C   UNL     1      48.669  33.616  85.480  1.00  0.00     0.013 C 
ATOM      7  C   UNL     1      49.949  31.458  85.175  1.00  0.00    -0.063 C 
ATOM      8  C   UNL     1      50.819  31.057  82.697  1.00  0.00    -0.003 C 
ATOM      9  C   UNL     1      50.876  31.764  81.305  1.00  0.00    -0.011 C 
ATOM     10  C   UNL     1      48.877  32.135  86.023  1.00  0.00    -0.006 C 
ATOM     11  C   UNL     1      50.755  30.516  85.692  1.00  0.00    -0.027 C 
ATOM     12  C   UNL     1      50.047  29.723  82.576  1.00  0.00     0.008 C 
ATOM     13  C   UNL     1      51.676  30.948  80.275  1.00  0.00     0.008 C 
ATOM     14  C   UNL     1      47.562  31.350  85.732  1.00  0.00     0.017 C 
ATOM     15  C   UNL     1      49.238  32.089  87.594  1.00  0.00    -0.020 C 
ATOM     16  C   UNL     1      50.674  29.990  87.089  1.00  0.00     0.032 C 
ATOM     17  C   UNL     1      49.612  30.621  88.049  1.00  0.00     0.006 C 
ATOM     18  C   UNL     1      50.458  33.016  87.896  1.00  0.00     0.008 C 
ATOM     19  C   UNL     1      47.991  32.589  88.402  1.00  0.00     0.012 C 
ATOM     20  C   UNL     1      49.990  30.469  89.619  1.00  0.00    -0.025 C 
ATOM     21  C   UNL     1      51.420  32.559  89.013  1.00  0.00     0.005 C 
ATOM     22  C   UNL     1      50.744  31.769  90.172  1.00  0.00     0.003 C 
ATOM     23  C   UNL     1      50.821  29.147  89.874  1.00  0.00     0.010 C 
ATOM     24  C   UNL     1      48.665  30.270  90.434  1.00  0.00     0.012 C 
ATOM     25  C   UNL     1      51.678  31.559  91.469  1.00  0.00    -0.006 C 
ATOM     26  C   UNL     1      52.289  29.392  90.205  1.00  0.00     0.033 C 
ATOM     27  C   UNL     1      52.394  30.149  91.526  1.00  0.00     0.120 C 
ATOM     28  C   UNL     1      52.794  32.641  91.561  1.00  0.00     0.014 C 
ATOM     29  C   UNL     1      50.820  31.782  92.753  1.00  0.00     0.014 C 
ENDROOT
BRANCH   1  30
ATOM     30  C   UNL     1      52.195  33.443  84.343  1.00  0.00     0.048 C 
ATOM     31  O   UNL     1      53.024  32.553  84.018  1.00  0.00    -0.550 OA
ATOM     32  O   UNL     1      52.611  34.462  85.192  1.00  0.00    -0.550 OA
ENDBRANCH   1  30
BRANCH  27  33
ATOM     33  O   UNL     1      51.870  29.343  92.562  1.00  0.00    -0.393 OA
ATOM     34  H   UNL     1      52.081  29.793  93.424  1.00  0.00     0.210 HD
ENDBRANCH  27  33
TORSDOF 2
ENDMDL
MODEL 3
REMARK VINA RESULT:    -5.985      1.987      7.560
REMARK INTER + INTRA:          -6.289
REMARK INTER:                  -6.512
REMARK INTRA:                   0.223
REMARK UNBOUND:                 0.221
REMARK SMILES C[C@H]1[C@H](C)CC[C@@]2(C(=O)[O-])CC[C@@]3(C)C(=CC[C@H]4[C@@]5(C)CC[C@H](O)C(C)(C)[C@H]5CC[C@]43C)[C@H]12
REMARK SMILES IDX 7 1 6 2 11 3 33 4 5 5 12 6 15 7 2 8 3 9 13 10 16 11 1 12
REMARK SMILES IDX 4 13 14 14 31 15 17 16 18 17 30 18 32 19 19 20 29 21 28 22
REMARK SMILES IDX 21 23 20 24 25 25 22 26 23 27 26 28 27 29 8 30 9 31 10 32
REMARK SMILES IDX 24 33
REMARK H PARENT 24 34
REMARK Flexibility Score: inf
ROOT
ATOM      1  C   UNL     1      51.455  31.706  89.152  1.00  0.00     0.017 C 
ATOM      2  C   UNL     1      51.606  31.449  90.673  1.00  0.00     0.014 C 
ATOM      3  C   UNL     1      49.951  31.524  88.730  1.00  0.00     0.014 C 
ATOM      4  C   UNL     1      51.909  33.175  88.871  1.00  0.00     0.030 C 
ATOM      5  C   UNL     1      53.042  31.687  91.154  1.00  0.00     0.004 C 
ATOM      6  C   UNL     1      49.249  32.775  88.136  1.00  0.00     0.013 C 
ATOM      7  C   UNL     1      51.558  33.514  87.420  1.00  0.00    -0.063 C 
ATOM      8  C   UNL     1      53.349  33.519  89.383  1.00  0.00    -0.003 C 
ATOM      9  C   UNL     1      53.494  33.137  90.891  1.00  0.00    -0.011 C 
ATOM     10  C   UNL     1      50.075  33.644  87.090  1.00  0.00    -0.006 C 
ATOM     11  C   UNL     1      52.495  33.590  86.462  1.00  0.00    -0.027 C 
ATOM     12  C   UNL     1      53.643  35.025  89.193  1.00  0.00     0.008 C 
ATOM     13  C   UNL     1      54.936  33.314  91.396  1.00  0.00     0.008 C 
ATOM     14  C   UNL     1      49.721  35.140  87.354  1.00  0.00     0.017 C 
ATOM     15  C   UNL     1      49.765  33.241  85.559  1.00  0.00    -0.020 C 
ATOM     16  C   UNL     1      52.224  33.857  85.016  1.00  0.00     0.032 C 
ATOM     17  C   UNL     1      50.733  34.000  84.564  1.00  0.00     0.006 C 
ATOM     18  C   UNL     1      49.962  31.706  85.353  1.00  0.00     0.008 C 
ATOM     19  C   UNL     1      48.278  33.624  85.239  1.00  0.00     0.012 C 
ATOM     20  C   UNL     1      50.499  33.663  82.995  1.00  0.00    -0.025 C 
ATOM     21  C   UNL     1      50.494  31.251  83.977  1.00  0.00     0.005 C 
ATOM     22  C   UNL     1      50.049  32.141  82.780  1.00  0.00     0.003 C 
ATOM     23  C   UNL     1      51.779  34.030  82.142  1.00  0.00     0.010 C 
ATOM     24  C   UNL     1      49.371  34.604  82.446  1.00  0.00     0.012 C 
ATOM     25  C   UNL     1      50.346  31.504  81.330  1.00  0.00    -0.006 C 
ATOM     26  C   UNL     1      52.548  32.819  81.625  1.00  0.00     0.033 C 
ATOM     27  C   UNL     1      51.672  32.037  80.651  1.00  0.00     0.120 C 
ATOM     28  C   UNL     1      50.456  29.952  81.389  1.00  0.00     0.014 C 
ATOM     29  C   UNL     1      49.121  31.766  80.400  1.00  0.00     0.014 C 
ENDROOT
BRANCH   1  30
ATOM     30  C   UNL     1      52.280  30.654  88.410  1.00  0.00     0.048 C 
ATOM     31  O   UNL     1      53.501  30.823  88.155  1.00  0.00    -0.550 OA
ATOM     32  O   UNL     1      51.667  29.480  87.987  1.00  0.00    -0.550 OA
ENDBRANCH   1  30
BRANCH  27  33
ATOM     33  O   UNL     1      51.390  32.850  79.530  1.00  0.00    -0.393 OA
ATOM     34  H   UNL     1      50.553  32.506  79.116  1.00  0.00     0.210 HD
ENDBRANCH  27  33
TORSDOF 2
ENDMDL
MODEL 4
REMARK VINA RESULT:    -5.692     13.737     17.306
REMARK INTER + INTRA:          -5.971
REMARK INTER:                  -6.183
REMARK INTRA:                   0.212
REMARK UNBOUND:                 0.221
REMARK SMILES C[C@H]1[C@H](C)CC[C@@]2(C(=O)[O-])CC[C@@]3(C)C(=CC[C@H]4[C@@]5(C)CC[C@H](O)C(C)(C)[C@H]5CC[C@]43C)[C@H]12
REMARK SMILES IDX 7 1 6 2 11 3 33 4 5 5 12 6 15 7 2 8 3 9 13 10 16 11 1 12
REMARK SMILES IDX 4 13 14 14 31 15 17 16 18 17 30 18 32 19 19 20 29 21 28 22
REMARK SMILES IDX 21 23 20 24 25 25 22 26 23 27 26 28 27 29 8 30 9 31 10 32
REMARK SMILES IDX 24 33
REMARK H PARENT 24 34
REMARK Flexibility Score: inf
ROOT
ATOM      1  C   UNL     1      48.972  22.104  76.351  1.00  0.00     0.017 C 
ATOM      2  C   UNL     1      50.506  21.892  76.425  1.00  0.00     0.014 C 
ATOM      3  C   UNL     1      48.491  21.974  74.859  1.00  0.00     0.014 C 
ATOM      4  C   UNL     1      48.296  20.997  77.222  1.00  0.00     0.030 C 
ATOM      5  C   UNL     1      51.020  21.934  77.869  1.00  0.00     0.004 C 
ATOM      6  C   UNL     1      47.480  20.832  74.562  1.00  0.00     0.013 C 
ATOM      7  C   UNL     1      46.786  21.054  76.982  1.00  0.00    -0.063 C 
ATOM      8  C   UNL     1      48.808  20.934  78.702  1.00  0.00    -0.003 C 
ATOM      9  C   UNL     1      50.367  20.838  78.733  1.00  0.00    -0.011 C 
ATOM     10  C   UNL     1      46.298  20.618  75.605  1.00  0.00    -0.006 C 
ATOM     11  C   UNL     1      45.941  21.560  77.894  1.00  0.00    -0.027 C 
ATOM     12  C   UNL     1      48.193  19.718  79.434  1.00  0.00     0.008 C 
ATOM     13  C   UNL     1      50.923  20.929  80.165  1.00  0.00     0.008 C 
ATOM     14  C   UNL     1      46.057  19.082  75.717  1.00  0.00     0.017 C 
ATOM     15  C   UNL     1      44.943  21.383  75.181  1.00  0.00    -0.020 C 
ATOM     16  C   UNL     1      44.464  21.704  77.709  1.00  0.00     0.032 C 
ATOM     17  C   UNL     1      43.856  21.293  76.327  1.00  0.00     0.006 C 
ATOM     18  C   UNL     1      45.236  22.892  74.907  1.00  0.00     0.008 C 
ATOM     19  C   UNL     1      44.387  20.715  73.875  1.00  0.00     0.012 C 
ATOM     20  C   UNL     1      42.451  22.032  75.994  1.00  0.00    -0.025 C 
ATOM     21  C   UNL     1      44.120  23.895  75.271  1.00  0.00     0.005 C 
ATOM     22  C   UNL     1      42.673  23.347  75.107  1.00  0.00     0.003 C 
ATOM     23  C   UNL     1      41.647  22.339  77.321  1.00  0.00     0.010 C 
ATOM     24  C   UNL     1      41.539  21.035  75.198  1.00  0.00     0.012 C 
ATOM     25  C   UNL     1      41.521  24.471  75.192  1.00  0.00    -0.006 C 
ATOM     26  C   UNL     1      41.599  23.818  77.688  1.00  0.00     0.033 C 
ATOM     27  C   UNL     1      40.836  24.586  76.613  1.00  0.00     0.120 C 
ATOM     28  C   UNL     1      42.063  25.886  74.832  1.00  0.00     0.014 C 
ATOM     29  C   UNL     1      40.448  24.182  74.097  1.00  0.00     0.014 C 
ENDROOT
BRANCH   1  30
ATOM     30  C   UNL     1      48.666  23.527  76.818  1.00  0.00     0.048 C 
ATOM     31  O   UNL     1      48.584  23.825  78.038  1.00  0.00    -0.550 OA
ATOM     32  O   UNL     1      48.457  24.525  75.874  1.00  0.00    -0.550 OA
ENDBRANCH   1  30
BRANCH  27  33
ATOM     33  O   UNL     1      39.498  24.129  76.582  1.00  0.00    -0.393 OA
ATOM     34  H   UNL     1      39.313  23.694  77.458  1.00  0.00     0.210 HD
ENDBRANCH  27  33
TORSDOF 2
ENDMDL
MODEL 5
REMARK VINA RESULT:    -5.657      2.156      7.679
REMARK INTER + INTRA:          -5.933
REMARK INTER:                  -6.150
REMARK INTRA:                   0.217
REMARK UNBOUND:                 0.221
REMARK SMILES C[C@H]1[C@H](C)CC[C@@]2(C(=O)[O-])CC[C@@]3(C)C(=CC[C@H]4[C@@]5(C)CC[C@H](O)C(C)(C)[C@H]5CC[C@]43C)[C@H]12
REMARK SMILES IDX 7 1 6 2 11 3 33 4 5 5 12 6 15 7 2 8 3 9 13 10 16 11 1 12
REMARK SMILES IDX 4 13 14 14 31 15 17 16 18 17 30 18 32 19 19 20 29 21 28 22
REMARK SMILES IDX 21 23 20 24 25 25 22 26 23 27 26 28 27 29 8 30 9 31 10 32
REMARK SMILES IDX 24 33
REMARK H PARENT 24 34
REMARK Flexibility Score: inf
ROOT
ATOM      1  C   UNL     1      49.341  31.275  89.388  1.00  0.00     0.017 C 
ATOM      2  C   UNL     1      49.095  31.028  90.898  1.00  0.00     0.014 C 
ATOM      3  C   UNL     1      48.051  31.893  88.734  1.00  0.00     0.014 C 
ATOM      4  C   UNL     1      50.532  32.278  89.257  1.00  0.00     0.030 C 
ATOM      5  C   UNL     1      50.348  30.494  91.602  1.00  0.00     0.004 C 
ATOM      6  C   UNL     1      48.209  33.306  88.110  1.00  0.00     0.013 C 
ATOM      7  C   UNL     1      50.642  32.701  87.791  1.00  0.00    -0.063 C 
ATOM      8  C   UNL     1      51.839  31.833  89.998  1.00  0.00    -0.003 C 
ATOM      9  C   UNL     1      51.525  31.483  91.488  1.00  0.00    -0.011 C 
ATOM     10  C   UNL     1      49.519  33.578  87.248  1.00  0.00    -0.006 C 
ATOM     11  C   UNL     1      51.618  32.243  86.991  1.00  0.00    -0.027 C 
ATOM     12  C   UNL     1      52.902  32.955  89.937  1.00  0.00     0.008 C 
ATOM     13  C   UNL     1      52.747  30.895  92.214  1.00  0.00     0.008 C 
ATOM     14  C   UNL     1      49.961  35.045  87.536  1.00  0.00     0.017 C 
ATOM     15  C   UNL     1      49.289  33.346  85.669  1.00  0.00    -0.020 C 
ATOM     16  C   UNL     1      51.757  32.564  85.537  1.00  0.00     0.032 C 
ATOM     17  C   UNL     1      50.652  33.451  84.874  1.00  0.00     0.006 C 
ATOM     18  C   UNL     1      48.685  31.930  85.412  1.00  0.00     0.008 C 
ATOM     19  C   UNL     1      48.292  34.440  85.149  1.00  0.00     0.012 C 
ATOM     20  C   UNL     1      50.526  33.235  83.271  1.00  0.00    -0.025 C 
ATOM     21  C   UNL     1      49.109  31.218  84.110  1.00  0.00     0.005 C 
ATOM     22  C   UNL     1      49.388  32.168  82.909  1.00  0.00     0.003 C 
ATOM     23  C   UNL     1      51.924  32.848  82.642  1.00  0.00     0.010 C 
ATOM     24  C   UNL     1      50.158  34.608  82.610  1.00  0.00     0.012 C 
ATOM     25  C   UNL     1      49.532  31.421  81.488  1.00  0.00    -0.006 C 
ATOM     26  C   UNL     1      52.018  31.397  82.183  1.00  0.00     0.033 C 
ATOM     27  C   UNL     1      51.028  31.158  81.047  1.00  0.00     0.120 C 
ATOM     28  C   UNL     1      48.805  30.045  81.479  1.00  0.00     0.014 C 
ATOM     29  C   UNL     1      48.787  32.255  80.399  1.00  0.00     0.014 C 
ENDROOT
BRANCH   1  30
ATOM     30  C   UNL     1      49.600  29.922  88.722  1.00  0.00     0.048 C 
ATOM     31  O   UNL     1      50.733  29.375  88.743  1.00  0.00    -0.550 OA
ATOM     32  O   UNL     1      48.562  29.278  88.060  1.00  0.00    -0.550 OA
ENDBRANCH   1  30
BRANCH  27  33
ATOM     33  O   UNL     1      51.392  31.960  79.941  1.00  0.00    -0.393 OA
ATOM     34  H   UNL     1      52.187  32.495  80.212  1.00  0.00     0.210 HD
ENDBRANCH  27  33
TORSDOF 2
ENDMDL
MODEL 6
REMARK VINA RESULT:    -5.625      3.496      7.680
REMARK INTER + INTRA:          -5.898
REMARK INTER:                  -6.393
REMARK INTRA:                   0.495
REMARK UNBOUND:                 0.221
REMARK SMILES C[C@H]1[C@H](C)CC[C@@]2(C(=O)[O-])CC[C@@]3(C)C(=CC[C@H]4[C@@]5(C)CC[C@H](O)C(C)(C)[C@H]5CC[C@]43C)[C@H]12
REMARK SMILES IDX 7 1 6 2 11 3 33 4 5 5 12 6 15 7 2 8 3 9 13 10 16 11 1 12
REMARK SMILES IDX 4 13 14 14 31 15 17 16 18 17 30 18 32 19 19 20 29 21 28 22
REMARK SMILES IDX 21 23 20 24 25 25 22 26 23 27 26 28 27 29 8 30 9 31 10 32
REMARK SMILES IDX 24 33
REMARK H PARENT 24 34
REMARK Flexibility Score: inf
ROOT
ATOM      1  C   UNL     1      46.845  28.638  90.303  1.00  0.00     0.017 C 
ATOM      2  C   UNL     1      45.969  27.625  91.084  1.00  0.00     0.014 C 
ATOM      3  C   UNL     1      47.613  27.894  89.149  1.00  0.00     0.014 C 
ATOM      4  C   UNL     1      45.896  29.719  89.695  1.00  0.00     0.030 C 
ATOM      5  C   UNL     1      45.139  28.311  92.176  1.00  0.00     0.004 C 
ATOM      6  C   UNL     1      47.299  28.366  87.703  1.00  0.00     0.013 C 
ATOM      7  C   UNL     1      46.715  30.594  88.743  1.00  0.00    -0.063 C 
ATOM      8  C   UNL     1      44.970  30.431  90.739  1.00  0.00    -0.003 C 
ATOM      9  C   UNL     1      44.191  29.372  91.584  1.00  0.00    -0.011 C 
ATOM     10  C   UNL     1      47.196  29.934  87.455  1.00  0.00    -0.006 C 
ATOM     11  C   UNL     1      47.083  31.844  89.065  1.00  0.00    -0.027 C 
ATOM     12  C   UNL     1      43.970  31.368  90.023  1.00  0.00     0.008 C 
ATOM     13  C   UNL     1      43.386  30.019  92.723  1.00  0.00     0.008 C 
ATOM     14  C   UNL     1      46.053  30.161  86.419  1.00  0.00     0.017 C 
ATOM     15  C   UNL     1      48.580  30.577  86.934  1.00  0.00    -0.020 C 
ATOM     16  C   UNL     1      47.931  32.736  88.215  1.00  0.00     0.032 C 
ATOM     17  C   UNL     1      48.487  32.155  86.873  1.00  0.00     0.006 C 
ATOM     18  C   UNL     1      49.750  30.197  87.895  1.00  0.00     0.008 C 
ATOM     19  C   UNL     1      48.879  30.013  85.501  1.00  0.00     0.012 C 
ATOM     20  C   UNL     1      49.832  32.899  86.356  1.00  0.00    -0.025 C 
ATOM     21  C   UNL     1      50.867  31.246  88.081  1.00  0.00     0.005 C 
ATOM     22  C   UNL     1      51.152  32.123  86.827  1.00  0.00     0.003 C 
ATOM     23  C   UNL     1      49.845  34.417  86.801  1.00  0.00     0.010 C 
ATOM     24  C   UNL     1      49.807  32.944  84.789  1.00  0.00     0.012 C 
ATOM     25  C   UNL     1      52.503  32.998  86.919  1.00  0.00    -0.006 C 
ATOM     26  C   UNL     1      50.859  34.734  87.894  1.00  0.00     0.033 C 
ATOM     27  C   UNL     1      52.270  34.499  87.362  1.00  0.00     0.120 C 
ATOM     28  C   UNL     1      53.526  32.381  87.917  1.00  0.00     0.014 C 
ATOM     29  C   UNL     1      53.233  32.948  85.541  1.00  0.00     0.014 C 
ENDROOT
BRANCH   1  30
ATOM     30  C   UNL     1      47.887  29.206  91.268  1.00  0.00     0.048 C 
ATOM     31  O   UNL     1      47.968  30.437  91.513  1.00  0.00    -0.550 OA
ATOM     32  O   UNL     1      48.786  28.344  91.885  1.00  0.00    -0.550 OA
ENDBRANCH   1  30
BRANCH  27  33
ATOM     33  O   UNL     1      52.519  35.397  86.299  1.00  0.00    -0.393 OA
ATOM     34  H   UNL     1      52.046  36.247  86.512  1.00  0.00     0.210 HD
ENDBRANCH  27  33
TORSDOF 2
ENDMDL
MODEL 7
REMARK VINA RESULT:    -5.587      2.100      3.625
REMARK INTER + INTRA:          -5.857
REMARK INTER:                  -6.103
REMARK INTRA:                   0.246
REMARK UNBOUND:                 0.221
REMARK SMILES C[C@H]1[C@H](C)CC[C@@]2(C(=O)[O-])CC[C@@]3(C)C(=CC[C@H]4[C@@]5(C)CC[C@H](O)C(C)(C)[C@H]5CC[C@]43C)[C@H]12
REMARK SMILES IDX 7 1 6 2 11 3 33 4 5 5 12 6 15 7 2 8 3 9 13 10 16 11 1 12
REMARK SMILES IDX 4 13 14 14 31 15 17 16 18 17 30 18 32 19 19 20 29 21 28 22
REMARK SMILES IDX 21 23 20 24 25 25 22 26 23 27 26 28 27 29 8 30 9 31 10 32
REMARK SMILES IDX 24 33
REMARK H PARENT 24 34
REMARK Flexibility Score: inf
ROOT
ATOM      1  C   UNL     1      49.149  33.844  86.215  1.00  0.00     0.017 C 
ATOM      2  C   UNL     1      48.261  34.749  85.324  1.00  0.00     0.014 C 
ATOM      3  C   UNL     1      48.717  33.994  87.720  1.00  0.00     0.014 C 
ATOM      4  C   UNL     1      48.941  32.367  85.751  1.00  0.00     0.030 C 
ATOM      5  C   UNL     1      48.590  34.585  83.835  1.00  0.00     0.004 C 
ATOM      6  C   UNL     1      48.202  32.706  88.417  1.00  0.00     0.013 C 
ATOM      7  C   UNL     1      49.634  31.446  86.758  1.00  0.00    -0.063 C 
ATOM      8  C   UNL     1      49.203  32.123  84.225  1.00  0.00    -0.003 C 
ATOM      9  C   UNL     1      48.376  33.133  83.366  1.00  0.00    -0.011 C 
ATOM     10  C   UNL     1      49.008  31.361  88.146  1.00  0.00    -0.006 C 
ATOM     11  C   UNL     1      50.790  30.826  86.475  1.00  0.00    -0.027 C 
ATOM     12  C   UNL     1      48.826  30.674  83.838  1.00  0.00     0.008 C 
ATOM     13  C   UNL     1      48.718  33.032  81.869  1.00  0.00     0.008 C 
ATOM     14  C   UNL     1      47.961  30.208  88.059  1.00  0.00     0.017 C 
ATOM     15  C   UNL     1      50.111  31.052  89.282  1.00  0.00    -0.020 C 
ATOM     16  C   UNL     1      51.555  29.961  87.425  1.00  0.00     0.032 C 
ATOM     17  C   UNL     1      51.006  29.810  88.883  1.00  0.00     0.006 C 
ATOM     18  C   UNL     1      51.048  32.285  89.475  1.00  0.00     0.008 C 
ATOM     19  C   UNL     1      49.363  30.750  90.627  1.00  0.00     0.012 C 
ATOM     20  C   UNL     1      52.148  29.416  89.965  1.00  0.00    -0.025 C 
ATOM     21  C   UNL     1      52.520  31.990  89.837  1.00  0.00     0.005 C 
ATOM     22  C   UNL     1      52.736  30.712  90.700  1.00  0.00     0.003 C 
ATOM     23  C   UNL     1      53.285  28.546  89.295  1.00  0.00     0.010 C 
ATOM     24  C   UNL     1      51.509  28.473  91.043  1.00  0.00     0.012 C 
ATOM     25  C   UNL     1      54.214  30.573  91.325  1.00  0.00    -0.006 C 
ATOM     26  C   UNL     1      54.610  29.282  89.124  1.00  0.00     0.033 C 
ATOM     27  C   UNL     1      55.179  29.631  90.497  1.00  0.00     0.120 C 
ATOM     28  C   UNL     1      54.924  31.953  91.452  1.00  0.00     0.014 C 
ATOM     29  C   UNL     1      54.097  30.065  92.796  1.00  0.00     0.014 C 
ENDROOT
BRANCH   1  30
ATOM     30  C   UNL     1      50.594  34.329  86.093  1.00  0.00     0.048 C 
ATOM     31  O   UNL     1      51.277  34.137  85.053  1.00  0.00    -0.550 OA
ATOM     32  O   UNL     1      51.184  34.991  87.164  1.00  0.00    -0.550 OA
ENDBRANCH   1  30
BRANCH  27  33
ATOM     33  O   UNL     1      55.462  28.435  91.195  1.00  0.00    -0.393 OA
ATOM     34  H   UNL     1      54.847  27.735  90.847  1.00  0.00     0.210 HD
ENDBRANCH  27  33
TORSDOF 2
ENDMDL
MODEL 8
REMARK VINA RESULT:    -5.504     13.750     17.401
REMARK INTER + INTRA:          -5.766
REMARK INTER:                  -5.981
REMARK INTRA:                   0.215
REMARK UNBOUND:                 0.221
REMARK SMILES C[C@H]1[C@H](C)CC[C@@]2(C(=O)[O-])CC[C@@]3(C)C(=CC[C@H]4[C@@]5(C)CC[C@H](O)C(C)(C)[C@H]5CC[C@]43C)[C@H]12
REMARK SMILES IDX 7 1 6 2 11 3 33 4 5 5 12 6 15 7 2 8 3 9 13 10 16 11 1 12
REMARK SMILES IDX 4 13 14 14 31 15 17 16 18 17 30 18 32 19 19 20 29 21 28 22
REMARK SMILES IDX 21 23 20 24 25 25 22 26 23 27 26 28 27 29 8 30 9 31 10 32
REMARK SMILES IDX 24 33
REMARK H PARENT 24 34
REMARK Flexibility Score: inf
ROOT
ATOM      1  C   UNL     1      39.635  22.695  79.234  1.00  0.00     0.017 C 
ATOM      2  C   UNL     1      39.948  21.218  78.882  1.00  0.00     0.014 C 
ATOM      3  C   UNL     1      40.004  23.619  78.016  1.00  0.00     0.014 C 
ATOM      4  C   UNL     1      38.105  22.799  79.532  1.00  0.00     0.030 C 
ATOM      5  C   UNL     1      39.537  20.263  80.009  1.00  0.00     0.004 C 
ATOM      6  C   UNL     1      38.833  24.422  77.386  1.00  0.00     0.013 C 
ATOM      7  C   UNL     1      37.743  24.281  79.662  1.00  0.00    -0.063 C 
ATOM      8  C   UNL     1      37.590  21.813  80.636  1.00  0.00    -0.003 C 
ATOM      9  C   UNL     1      38.026  20.351  80.302  1.00  0.00    -0.011 C 
ATOM     10  C   UNL     1      37.804  25.112  78.384  1.00  0.00    -0.006 C 
ATOM     11  C   UNL     1      37.486  24.848  80.851  1.00  0.00    -0.027 C 
ATOM     12  C   UNL     1      36.050  21.887  80.749  1.00  0.00     0.008 C 
ATOM     13  C   UNL     1      37.676  19.370  81.435  1.00  0.00     0.008 C 
ATOM     14  C   UNL     1      36.388  24.989  77.742  1.00  0.00     0.017 C 
ATOM     15  C   UNL     1      38.165  26.653  78.690  1.00  0.00    -0.020 C 
ATOM     16  C   UNL     1      37.184  26.297  81.064  1.00  0.00     0.032 C 
ATOM     17  C   UNL     1      37.228  27.244  79.819  1.00  0.00     0.006 C 
ATOM     18  C   UNL     1      39.645  26.777  79.173  1.00  0.00     0.008 C 
ATOM     19  C   UNL     1      37.979  27.476  77.368  1.00  0.00     0.012 C 
ATOM     20  C   UNL     1      37.511  28.796  80.199  1.00  0.00    -0.025 C 
ATOM     21  C   UNL     1      39.948  27.877  80.213  1.00  0.00     0.005 C 
ATOM     22  C   UNL     1      39.068  29.155  80.084  1.00  0.00     0.003 C 
ATOM     23  C   UNL     1      36.925  29.144  81.625  1.00  0.00     0.010 C 
ATOM     24  C   UNL     1      36.710  29.706  79.205  1.00  0.00     0.012 C 
ATOM     25  C   UNL     1      39.580  30.408  80.959  1.00  0.00    -0.006 C 
ATOM     26  C   UNL     1      37.988  29.356  82.698  1.00  0.00     0.033 C 
ATOM     27  C   UNL     1      38.832  30.577  82.343  1.00  0.00     0.120 C 
ATOM     28  C   UNL     1      41.103  30.313  81.272  1.00  0.00     0.014 C 
ATOM     29  C   UNL     1      39.444  31.709  80.109  1.00  0.00     0.014 C 
ENDROOT
BRANCH   1  30
ATOM     30  C   UNL     1      40.521  23.099  80.413  1.00  0.00     0.048 C 
ATOM     31  O   UNL     1      40.224  22.807  81.600  1.00  0.00    -0.550 OA
ATOM     32  O   UNL     1      41.683  23.825  80.176  1.00  0.00    -0.550 OA
ENDBRANCH   1  30
BRANCH  27  33
ATOM     33  O   UNL     1      38.009  31.725  82.350  1.00  0.00    -0.393 OA
ATOM     34  H   UNL     1      38.556  32.485  82.014  1.00  0.00     0.210 HD
ENDBRANCH  27  33
TORSDOF 2
ENDMDL
MODEL 9
REMARK VINA RESULT:    -5.448      3.730      8.236
REMARK INTER + INTRA:          -5.705
REMARK INTER:                  -6.154
REMARK INTRA:                   0.449
REMARK UNBOUND:                 0.221
REMARK SMILES C[C@H]1[C@H](C)CC[C@@]2(C(=O)[O-])CC[C@@]3(C)C(=CC[C@H]4[C@@]5(C)CC[C@H](O)C(C)(C)[C@H]5CC[C@]43C)[C@H]12
REMARK SMILES IDX 7 1 6 2 11 3 33 4 5 5 12 6 15 7 2 8 3 9 13 10 16 11 1 12
REMARK SMILES IDX 4 13 14 14 31 15 17 16 18 17 30 18 32 19 19 20 29 21 28 22
REMARK SMILES IDX 21 23 20 24 25 25 22 26 23 27 26 28 27 29 8 30 9 31 10 32
REMARK SMILES IDX 24 33
REMARK H PARENT 24 34
REMARK Flexibility Score: inf
ROOT
ATOM      1  C   UNL     1      45.834  30.023  90.754  1.00  0.00     0.017 C 
ATOM      2  C   UNL     1      44.926  29.623  91.945  1.00  0.00     0.014 C 
ATOM      3  C   UNL     1      46.737  31.244  91.163  1.00  0.00     0.014 C 
ATOM      4  C   UNL     1      46.734  28.793  90.408  1.00  0.00     0.030 C 
ATOM      5  C   UNL     1      44.076  28.387  91.626  1.00  0.00     0.004 C 
ATOM      6  C   UNL     1      48.270  31.003  91.133  1.00  0.00     0.013 C 
ATOM      7  C   UNL     1      47.783  29.241  89.388  1.00  0.00    -0.063 C 
ATOM      8  C   UNL     1      45.944  27.471  90.123  1.00  0.00    -0.003 C 
ATOM      9  C   UNL     1      44.956  27.166  91.295  1.00  0.00    -0.011 C 
ATOM     10  C   UNL     1      48.857  30.200  89.891  1.00  0.00    -0.006 C 
ATOM     11  C   UNL     1      47.709  28.895  88.093  1.00  0.00    -0.027 C 
ATOM     12  C   UNL     1      46.922  26.287  89.941  1.00  0.00     0.008 C 
ATOM     13  C   UNL     1      44.050  25.961  90.989  1.00  0.00     0.008 C 
ATOM     14  C   UNL     1      50.005  29.293  90.431  1.00  0.00     0.017 C 
ATOM     15  C   UNL     1      49.393  31.168  88.717  1.00  0.00    -0.020 C 
ATOM     16  C   UNL     1      48.660  29.341  87.029  1.00  0.00     0.032 C 
ATOM     17  C   UNL     1      49.798  30.335  87.435  1.00  0.00     0.006 C 
ATOM     18  C   UNL     1      48.282  32.185  88.305  1.00  0.00     0.008 C 
ATOM     19  C   UNL     1      50.642  31.950  89.253  1.00  0.00     0.012 C 
ATOM     20  C   UNL     1      50.354  31.221  86.194  1.00  0.00    -0.025 C 
ATOM     21  C   UNL     1      48.237  32.603  86.819  1.00  0.00     0.005 C 
ATOM     22  C   UNL     1      49.624  32.644  86.113  1.00  0.00     0.003 C 
ATOM     23  C   UNL     1      50.246  30.419  84.836  1.00  0.00     0.010 C 
ATOM     24  C   UNL     1      51.891  31.454  86.398  1.00  0.00     0.012 C 
ATOM     25  C   UNL     1      49.615  33.363  84.670  1.00  0.00    -0.006 C 
ATOM     26  C   UNL     1      49.170  30.942  83.890  1.00  0.00     0.033 C 
ATOM     27  C   UNL     1      49.525  32.360  83.450  1.00  0.00     0.120 C 
ATOM     28  C   UNL     1      48.429  34.362  84.527  1.00  0.00     0.014 C 
ATOM     29  C   UNL     1      50.887  34.257  84.542  1.00  0.00     0.014 C 
ENDROOT
BRANCH   1  30
ATOM     30  C   UNL     1      44.934  30.471  89.602  1.00  0.00     0.048 C 
ATOM     31  O   UNL     1      44.888  29.847  88.510  1.00  0.00    -0.550 OA
ATOM     32  O   UNL     1      44.152  31.610  89.751  1.00  0.00    -0.550 OA
ENDBRANCH   1  30
BRANCH  27  33
ATOM     33  O   UNL     1      50.732  32.326  82.716  1.00  0.00    -0.393 OA
ATOM     34  H   UNL     1      51.480  32.319  83.374  1.00  0.00     0.210 HD
ENDBRANCH  27  33
TORSDOF 2
ENDMDL
