MODEL 1
REMARK VINA RESULT:    -2.965      0.000      0.000
REMARK INTER + INTRA:          -3.149
REMARK INTER:                  -3.138
REMARK INTRA:                  -0.010
REMARK UNBOUND:                -0.010
REMARK SMILES O=Cc1ccco1
REMARK SMILES IDX 5 1 6 2 7 3 3 4 4 5 2 6 1 7
REMARK H PARENT
REMARK Flexibility Score: inf
ROOT
ATOM      1  C   UNL     1     144.119 131.173 121.271  1.00  0.00     0.043 A 
ATOM      2  C   UNL     1     145.039 130.921 122.270  1.00  0.00     0.196 A 
ATOM      3  O   UNL     1     146.091 130.321 121.760  1.00  0.00    -0.462 OA
ATOM      4  C   UNL     1     145.901 130.167 120.471  1.00  0.00     0.166 A 
ATOM      5  C   UNL     1     144.674 130.687 120.107  1.00  0.00     0.054 A 
ENDROOT
BRANCH   4   6
ATOM      6  C   UNL     1     146.872 129.533 119.577  1.00  0.00     0.298 C 
ATOM      7  O   UNL     1     146.514 128.630 118.774  1.00  0.00    -0.294 OA
ENDBRANCH   4   6
TORSDOF 1
ENDMDL
MODEL 2
REMARK VINA RESULT:    -2.949     19.640     20.122
REMARK INTER + INTRA:          -3.131
REMARK INTER:                  -3.118
REMARK INTRA:                  -0.013
REMARK UNBOUND:                -0.010
REMARK SMILES O=Cc1ccco1
REMARK SMILES IDX 5 1 6 2 7 3 3 4 4 5 2 6 1 7
REMARK H PARENT
REMARK Flexibility Score: inf
ROOT
ATOM      1  C   UNL     1     142.928 146.292 106.211  1.00  0.00     0.043 A 
ATOM      2  C   UNL     1     143.009 146.638 107.545  1.00  0.00     0.196 A 
ATOM      3  O   UNL     1     143.730 145.748 108.189  1.00  0.00    -0.462 OA
ATOM      4  C   UNL     1     144.125 144.834 107.335  1.00  0.00     0.166 A 
ATOM      5  C   UNL     1     143.649 145.126 106.073  1.00  0.00     0.054 A 
ENDROOT
BRANCH   4   6
ATOM      6  C   UNL     1     144.952 143.682 107.703  1.00  0.00     0.298 C 
ATOM      7  O   UNL     1     146.007 143.836 108.374  1.00  0.00    -0.294 OA
ENDBRANCH   4   6
TORSDOF 1
ENDMDL
MODEL 3
REMARK VINA RESULT:    -2.929     13.164     14.301
REMARK INTER + INTRA:          -3.111
REMARK INTER:                  -3.099
REMARK INTRA:                  -0.011
REMARK UNBOUND:                -0.010
REMARK SMILES O=Cc1ccco1
REMARK SMILES IDX 5 1 6 2 7 3 3 4 4 5 2 6 1 7
REMARK H PARENT
REMARK Flexibility Score: inf
ROOT
ATOM      1  C   UNL     1     144.047 131.111 104.772  1.00  0.00     0.043 A 
ATOM      2  C   UNL     1     143.327 130.238 105.563  1.00  0.00     0.196 A 
ATOM      3  O   UNL     1     143.810 130.250 106.786  1.00  0.00    -0.462 OA
ATOM      4  C   UNL     1     144.814 131.094 106.830  1.00  0.00     0.166 A 
ATOM      5  C   UNL     1     145.008 131.666 105.589  1.00  0.00     0.054 A 
ENDROOT
BRANCH   4   6
ATOM      6  C   UNL     1     145.594 131.365 108.040  1.00  0.00     0.298 C 
ATOM      7  O   UNL     1     146.412 130.515 108.482  1.00  0.00    -0.294 OA
ENDBRANCH   4   6
TORSDOF 1
ENDMDL
MODEL 4
REMARK VINA RESULT:    -2.927     18.215     18.885
REMARK INTER + INTRA:          -3.108
REMARK INTER:                  -3.096
REMARK INTRA:                  -0.012
REMARK UNBOUND:                -0.010
REMARK SMILES O=Cc1ccco1
REMARK SMILES IDX 5 1 6 2 7 3 3 4 4 5 2 6 1 7
REMARK H PARENT
REMARK Flexibility Score: inf
ROOT
ATOM      1  C   UNL     1     144.543 141.962 104.803  1.00  0.00     0.043 A 
ATOM      2  C   UNL     1     145.287 141.046 105.519  1.00  0.00     0.196 A 
ATOM      3  O   UNL     1     145.494 141.499 106.735  1.00  0.00    -0.462 OA
ATOM      4  C   UNL     1     144.918 142.673 106.848  1.00  0.00     0.166 A 
ATOM      5  C   UNL     1     144.303 143.015 105.660  1.00  0.00     0.054 A 
ENDROOT
BRANCH   4   6
ATOM      6  C   UNL     1     144.943 143.477 108.072  1.00  0.00     0.298 C 
ATOM      7  O   UNL     1     146.026 143.947 108.510  1.00  0.00    -0.294 OA
ENDBRANCH   4   6
TORSDOF 1
ENDMDL
MODEL 5
REMARK VINA RESULT:    -2.913     26.927     27.660
REMARK INTER + INTRA:          -3.093
REMARK INTER:                  -3.082
REMARK INTRA:                  -0.011
REMARK UNBOUND:                -0.010
REMARK SMILES O=Cc1ccco1
REMARK SMILES IDX 5 1 6 2 7 3 3 4 4 5 2 6 1 7
REMARK H PARENT
REMARK Flexibility Score: inf
ROOT
ATOM      1  C   UNL     1     127.624 144.014 105.008  1.00  0.00     0.043 A 
ATOM      2  C   UNL     1     127.250 145.291 104.644  1.00  0.00     0.196 A 
ATOM      3  O   UNL     1     126.995 146.000 105.721  1.00  0.00    -0.462 OA
ATOM      4  C   UNL     1     127.186 145.243 106.775  1.00  0.00     0.166 A 
ATOM      5  C   UNL     1     127.585 143.979 106.385  1.00  0.00     0.054 A 
ENDROOT
BRANCH   4   6
ATOM      6  C   UNL     1     126.996 145.704 108.152  1.00  0.00     0.298 C 
ATOM      7  O   UNL     1     126.875 144.878 109.096  1.00  0.00    -0.294 OA
ENDBRANCH   4   6
TORSDOF 1
ENDMDL
MODEL 6
REMARK VINA RESULT:    -2.845     26.265     26.945
REMARK INTER + INTRA:          -3.022
REMARK INTER:                  -3.010
REMARK INTRA:                  -0.012
REMARK UNBOUND:                -0.010
REMARK SMILES O=Cc1ccco1
REMARK SMILES IDX 5 1 6 2 7 3 3 4 4 5 2 6 1 7
REMARK H PARENT
REMARK Flexibility Score: inf
ROOT
ATOM      1  C   UNL     1     127.675 143.912 104.978  1.00  0.00     0.043 A 
ATOM      2  C   UNL     1     127.276 145.234 104.972  1.00  0.00     0.196 A 
ATOM      3  O   UNL     1     128.185 145.972 105.570  1.00  0.00    -0.462 OA
ATOM      4  C   UNL     1     129.162 145.191 105.967  1.00  0.00     0.166 A 
ATOM      5  C   UNL     1     128.894 143.882 105.619  1.00  0.00     0.054 A 
ENDROOT
BRANCH   4   6
ATOM      6  C   UNL     1     130.352 145.673 106.673  1.00  0.00     0.298 C 
ATOM      7  O   UNL     1     130.271 146.087 107.860  1.00  0.00    -0.294 OA
ENDBRANCH   4   6
TORSDOF 1
ENDMDL
MODEL 7
REMARK VINA RESULT:    -2.787      1.994      2.490
REMARK INTER + INTRA:          -2.960
REMARK INTER:                  -2.945
REMARK INTRA:                  -0.015
REMARK UNBOUND:                -0.010
REMARK SMILES O=Cc1ccco1
REMARK SMILES IDX 5 1 6 2 7 3 3 4 4 5 2 6 1 7
REMARK H PARENT
REMARK Flexibility Score: inf
ROOT
ATOM      1  C   UNL     1     144.231 132.145 119.183  1.00  0.00     0.043 A 
ATOM      2  C   UNL     1     143.861 131.297 118.158  1.00  0.00     0.196 A 
ATOM      3  O   UNL     1     144.723 130.310 118.068  1.00  0.00    -0.462 OA
ATOM      4  C   UNL     1     145.644 130.474 118.989  1.00  0.00     0.166 A 
ATOM      5  C   UNL     1     145.383 131.615 119.722  1.00  0.00     0.054 A 
ENDROOT
BRANCH   4   6
ATOM      6  C   UNL     1     146.770 129.558 119.184  1.00  0.00     0.298 C 
ATOM      7  O   UNL     1     146.658 128.333 118.911  1.00  0.00    -0.294 OA
ENDBRANCH   4   6
TORSDOF 1
ENDMDL
MODEL 8
REMARK VINA RESULT:    -2.422     26.602     27.269
REMARK INTER + INTRA:          -2.574
REMARK INTER:                  -2.559
REMARK INTRA:                  -0.016
REMARK UNBOUND:                -0.010
REMARK SMILES O=Cc1ccco1
REMARK SMILES IDX 5 1 6 2 7 3 3 4 4 5 2 6 1 7
REMARK H PARENT
REMARK Flexibility Score: inf
ROOT
ATOM      1  C   UNL     1     127.249 145.270 104.629  1.00  0.00     0.043 A 
ATOM      2  C   UNL     1     126.875 146.018 105.727  1.00  0.00     0.196 A 
ATOM      3  O   UNL     1     127.018 145.301 106.819  1.00  0.00    -0.462 OA
ATOM      4  C   UNL     1     127.470 144.115 106.484  1.00  0.00     0.166 A 
ATOM      5  C   UNL     1     127.635 144.040 105.115  1.00  0.00     0.054 A 
ENDROOT
BRANCH   4   6
ATOM      6  C   UNL     1     127.750 143.049 107.449  1.00  0.00     0.298 C 
ATOM      7  O   UNL     1     127.252 143.082 108.606  1.00  0.00    -0.294 OA
ENDBRANCH   4   6
TORSDOF 1
ENDMDL
