MODEL 1
REMARK VINA RESULT:    20.860      0.000      0.000
REMARK INTER + INTRA:          29.053
REMARK INTER:                  29.397
REMARK INTRA:                  -0.344
REMARK UNBOUND:                -0.344
REMARK SMILES O=C(C=Cc1ccc(O)cc1)CC(=O)C=Cc1ccc(O)cc1
REMARK SMILES IDX 12 1 2 2 1 3 3 4 4 5 5 6 6 7 7 8 8 9 11 10 10 11 9 12 13 14
REMARK SMILES IDX 14 15 15 16 16 17 17 18 18 19 23 20 19 21 22 22 20 23 21 24
REMARK H PARENT 9 13 21 25
REMARK Flexibility Score: inf
ROOT
ATOM      1  C   UNL     1     -35.475  24.161   1.724  1.00  0.00     0.160 C 
ENDROOT
BRANCH   1   2
ATOM      2  C   UNL     1     -36.593  24.436   2.683  1.00  0.00     0.163 C 
ATOM      3  O   UNL     1     -37.170  25.557   2.654  1.00  0.00    -0.294 OA
BRANCH   2   4
ATOM      4  C   UNL     1     -37.027  23.388   3.630  1.00  0.00     0.048 C 
ATOM      5  C   UNL     1     -36.436  23.211   4.820  1.00  0.00     0.012 C 
BRANCH   5   6
ATOM      6  C   UNL     1     -36.837  22.156   5.783  1.00  0.00    -0.025 A 
ATOM      7  C   UNL     1     -36.228  22.128   7.049  1.00  0.00     0.012 A 
ATOM      8  C   UNL     1     -36.565  21.139   7.978  1.00  0.00     0.047 A 
ATOM      9  C   UNL     1     -37.506  20.154   7.649  1.00  0.00     0.115 A 
ATOM     10  C   UNL     1     -37.772  21.153   5.455  1.00  0.00     0.012 A 
ATOM     11  C   UNL     1     -38.102  20.162   6.385  1.00  0.00     0.047 A 
BRANCH   9  12
ATOM     12  O   UNL     1     -37.851  19.165   8.567  1.00  0.00    -0.508 OA
ATOM     13  H   UNL     1     -38.793  18.798   8.620  1.00  0.00     0.293 HD
ENDBRANCH   9  12
ENDBRANCH   5   6
ENDBRANCH   2   4
ENDBRANCH   1   2
BRANCH   1  14
ATOM     14  C   UNL     1     -35.620  25.020   0.505  1.00  0.00     0.163 C 
ATOM     15  O   UNL     1     -36.661  24.915  -0.202  1.00  0.00    -0.294 OA
BRANCH  14  16
ATOM     16  C   UNL     1     -34.577  26.008   0.165  1.00  0.00     0.048 C 
ATOM     17  C   UNL     1     -34.666  26.798  -0.915  1.00  0.00     0.012 C 
BRANCH  17  18
ATOM     18  C   UNL     1     -33.645  27.809  -1.284  1.00  0.00    -0.025 A 
ATOM     19  C   UNL     1     -34.054  28.948  -2.000  1.00  0.00     0.012 A 
ATOM     20  C   UNL     1     -32.277  27.655  -0.980  1.00  0.00     0.012 A 
ATOM     21  C   UNL     1     -33.126  29.922  -2.380  1.00  0.00     0.047 A 
ATOM     22  C   UNL     1     -31.351  28.631  -1.365  1.00  0.00     0.047 A 
ATOM     23  C   UNL     1     -31.772  29.767  -2.061  1.00  0.00     0.115 A 
BRANCH  23  24
ATOM     24  O   UNL     1     -30.840  30.732  -2.434  1.00  0.00    -0.508 OA
ATOM     25  H   UNL     1     -31.105  31.703  -2.555  1.00  0.00     0.293 HD
ENDBRANCH  23  24
ENDBRANCH  17  18
ENDBRANCH  14  16
ENDBRANCH   1  14
TORSDOF 8
ENDMDL
MODEL 2
REMARK VINA RESULT:    20.879      0.196     10.651
REMARK INTER + INTRA:          29.079
REMARK INTER:                  29.473
REMARK INTRA:                  -0.394
REMARK UNBOUND:                -0.344
REMARK SMILES O=C(C=Cc1ccc(O)cc1)CC(=O)C=Cc1ccc(O)cc1
REMARK SMILES IDX 12 1 2 2 1 3 3 4 4 5 5 6 6 7 7 8 8 9 11 10 10 11 9 12 13 14
REMARK SMILES IDX 14 15 15 16 16 17 17 18 18 19 23 20 19 21 22 22 20 23 21 24
REMARK H PARENT 9 13 21 25
REMARK Flexibility Score: inf
ROOT
ATOM      1  C   UNL     1     -35.498  24.254   1.868  1.00  0.00     0.160 C 
ENDROOT
BRANCH   1   2
ATOM      2  C   UNL     1     -35.608  24.966   0.553  1.00  0.00     0.163 C 
ATOM      3  O   UNL     1     -36.579  24.709  -0.209  1.00  0.00    -0.294 OA
BRANCH   2   4
ATOM      4  C   UNL     1     -34.600  25.978   0.176  1.00  0.00     0.048 C 
ATOM      5  C   UNL     1     -34.749  26.773  -0.893  1.00  0.00     0.012 C 
BRANCH   5   6
ATOM      6  C   UNL     1     -33.745  27.784  -1.306  1.00  0.00    -0.025 A 
ATOM      7  C   UNL     1     -32.395  27.572  -0.979  1.00  0.00     0.012 A 
ATOM      8  C   UNL     1     -31.421  28.510  -1.334  1.00  0.00     0.047 A 
ATOM      9  C   UNL     1     -31.786  29.682  -2.009  1.00  0.00     0.115 A 
ATOM     10  C   UNL     1     -34.105  28.973  -1.973  1.00  0.00     0.012 A 
ATOM     11  C   UNL     1     -33.129  29.912  -2.321  1.00  0.00     0.047 A 
BRANCH   9  12
ATOM     12  O   UNL     1     -30.824  30.623  -2.369  1.00  0.00    -0.508 OA
ATOM     13  H   UNL     1     -30.120  30.419  -3.068  1.00  0.00     0.293 HD
ENDBRANCH   9  12
ENDBRANCH   5   6
ENDBRANCH   2   4
ENDBRANCH   1   2
BRANCH   1  14
ATOM     14  C   UNL     1     -36.683  24.576   2.727  1.00  0.00     0.163 C 
ATOM     15  O   UNL     1     -37.306  25.656   2.536  1.00  0.00    -0.294 OA
BRANCH  14  16
ATOM     16  C   UNL     1     -37.137  23.615   3.753  1.00  0.00     0.048 C 
ATOM     17  C   UNL     1     -36.279  22.969   4.556  1.00  0.00     0.012 C 
BRANCH  17  18
ATOM     18  C   UNL     1     -36.697  22.005   5.604  1.00  0.00    -0.025 A 
ATOM     19  C   UNL     1     -35.959  21.951   6.799  1.00  0.00     0.012 A 
ATOM     20  C   UNL     1     -37.779  21.118   5.434  1.00  0.00     0.012 A 
ATOM     21  C   UNL     1     -36.308  21.051   7.811  1.00  0.00     0.047 A 
ATOM     22  C   UNL     1     -38.123  20.217   6.448  1.00  0.00     0.047 A 
ATOM     23  C   UNL     1     -37.393  20.183   7.639  1.00  0.00     0.115 A 
BRANCH  23  24
ATOM     24  O   UNL     1     -37.749  19.284   8.641  1.00  0.00    -0.508 OA
ATOM     25  H   UNL     1     -37.950  18.313   8.431  1.00  0.00     0.293 HD
ENDBRANCH  23  24
ENDBRANCH  17  18
ENDBRANCH  14  16
ENDBRANCH   1  14
TORSDOF 8
ENDMDL
