MODEL 1
REMARK VINA RESULT:    -3.697      0.000      0.000
REMARK INTER + INTRA:          -7.611
REMARK INTER:                  -5.642
REMARK INTRA:                  -1.969
REMARK UNBOUND:                -1.969
REMARK SMILES OC[C@@H]1O[C@@H](O[C@]2(CO)O[C@H](CO)[C@@H](O)[C@@H]2O)[C@@H](O)[C@H](O)[C@@H]1O
REMARK SMILES IDX 6 1 5 2 3 3 22 4 4 5 20 6 18 7 2 8 1 9 23 11 21 13 19 15
REMARK SMILES IDX 7 17 16 18 10 19 14 20 11 21 8 22 9 23 17 25 15 27 12 29
REMARK SMILES IDX 13 30
REMARK H PARENT 1 10 23 12 21 14 19 16 9 24 17 26 15 28 13 31
REMARK Flexibility Score: inf
ROOT
ATOM      1  O   UNL     1      10.539  -5.011  -1.832  1.00  0.00    -0.313 OA
ENDROOT
BRANCH   1   2
ATOM      2  C   UNL     1       9.465  -5.394  -2.692  1.00  0.00     0.285 C 
ATOM      3  C   UNL     1       8.341  -3.415  -2.042  1.00  0.00     0.178 C 
ATOM      4  C   UNL     1       7.831  -4.226  -0.802  1.00  0.00     0.177 C 
ATOM      5  O   UNL     1       8.748  -4.250  -3.125  1.00  0.00    -0.341 OA
ATOM      6  C   UNL     1       7.374  -5.636  -1.224  1.00  0.00     0.179 C 
ATOM      7  C   UNL     1       8.516  -6.376  -1.962  1.00  0.00     0.202 C 
BRANCH   3   8
ATOM      8  C   UNL     1       7.290  -2.429  -2.573  1.00  0.00     0.191 C 
BRANCH   8   9
ATOM      9  O   UNL     1       6.186  -3.134  -3.069  1.00  0.00    -0.394 OA
ATOM     10  H   UNL     1       6.390  -3.335  -4.020  1.00  0.00     0.210 HD
ENDBRANCH   8   9
ENDBRANCH   3   8
BRANCH   4  11
ATOM     11  O   UNL     1       6.801  -3.553  -0.123  1.00  0.00    -0.387 OA
ATOM     12  H   UNL     1       6.551  -2.769  -0.680  1.00  0.00     0.211 HD
ENDBRANCH   4  11
BRANCH   6  13
ATOM     13  O   UNL     1       6.255  -5.550  -2.072  1.00  0.00    -0.387 OA
ATOM     14  H   UNL     1       6.492  -4.924  -2.806  1.00  0.00     0.211 HD
ENDBRANCH   6  13
BRANCH   7  15
ATOM     15  O   UNL     1       9.255  -7.158  -1.056  1.00  0.00    -0.385 OA
ATOM     16  H   UNL     1      10.193  -7.167  -1.379  1.00  0.00     0.211 HD
ENDBRANCH   7  15
ENDBRANCH   1   2
BRANCH   1  17
ATOM     17  C   UNL     1      11.833  -5.370  -2.305  1.00  0.00     0.224 C 
ATOM     18  C   UNL     1      12.712  -5.710  -1.082  1.00  0.00     0.208 C 
ATOM     19  O   UNL     1      11.760  -6.524  -3.125  1.00  0.00    -0.337 OA
ATOM     20  C   UNL     1      13.540  -6.889  -1.533  1.00  0.00     0.180 C 
ATOM     21  C   UNL     1      12.801  -7.410  -2.771  1.00  0.00     0.179 C 
BRANCH  17  22
ATOM     22  C   UNL     1      12.444  -4.189  -3.106  1.00  0.00     0.225 C 
BRANCH  22  23
ATOM     23  O   UNL     1      13.490  -3.588  -2.395  1.00  0.00    -0.391 OA
ATOM     24  H   UNL     1      14.327  -3.859  -2.851  1.00  0.00     0.210 HD
ENDBRANCH  22  23
ENDBRANCH  17  22
BRANCH  18  25
ATOM     25  O   UNL     1      11.922  -6.102   0.016  1.00  0.00    -0.385 OA
ATOM     26  H   UNL     1      11.933  -7.095   0.038  1.00  0.00     0.211 HD
ENDBRANCH  18  25
BRANCH  20  27
ATOM     27  O   UNL     1      14.836  -6.463  -1.870  1.00  0.00    -0.387 OA
ATOM     28  H   UNL     1      14.981  -5.601  -1.397  1.00  0.00     0.211 HD
ENDBRANCH  20  27
BRANCH  21  29
ATOM     29  C   UNL     1      12.217  -8.810  -2.551  1.00  0.00     0.191 C 
BRANCH  29  30
ATOM     30  O   UNL     1      11.349  -8.809  -1.452  1.00  0.00    -0.394 OA
ATOM     31  H   UNL     1      10.441  -8.647  -1.818  1.00  0.00     0.210 HD
ENDBRANCH  29  30
ENDBRANCH  21  29
ENDBRANCH   1  17
TORSDOF 13
ENDMDL
MODEL 2
REMARK VINA RESULT:    -2.995      1.502      6.179
REMARK INTER + INTRA:          -6.540
REMARK INTER:                  -4.606
REMARK INTRA:                  -1.933
REMARK UNBOUND:                -1.969
REMARK SMILES OC[C@@H]1O[C@@H](O[C@]2(CO)O[C@H](CO)[C@@H](O)[C@@H]2O)[C@@H](O)[C@H](O)[C@@H]1O
REMARK SMILES IDX 6 1 5 2 3 3 22 4 4 5 20 6 18 7 2 8 1 9 23 11 21 13 19 15
REMARK SMILES IDX 7 17 16 18 10 19 14 20 11 21 8 22 9 23 17 25 15 27 12 29
REMARK SMILES IDX 13 30
REMARK H PARENT 1 10 23 12 21 14 19 16 9 24 17 26 15 28 13 31
REMARK Flexibility Score: inf
ROOT
ATOM      1  O   UNL     1       8.999  -5.553  -1.442  1.00  0.00    -0.313 OA
ENDROOT
BRANCH   1   2
ATOM      2  C   UNL     1       9.744  -5.778  -2.640  1.00  0.00     0.285 C 
ATOM      3  C   UNL     1      11.109  -7.276  -1.418  1.00  0.00     0.178 C 
ATOM      4  C   UNL     1      11.927  -6.017  -0.971  1.00  0.00     0.177 C 
ATOM      5  O   UNL     1      10.354  -7.058  -2.608  1.00  0.00    -0.341 OA
ATOM      6  C   UNL     1      12.165  -5.072  -2.164  1.00  0.00     0.179 C 
ATOM      7  C   UNL     1      10.819  -4.677  -2.818  1.00  0.00     0.202 C 
BRANCH   3   8
ATOM      8  C   UNL     1      11.999  -8.508  -1.641  1.00  0.00     0.191 C 
BRANCH   8   9
ATOM      9  O   UNL     1      12.697  -8.376  -2.848  1.00  0.00    -0.394 OA
ATOM     10  H   UNL     1      12.775  -7.401  -3.019  1.00  0.00     0.210 HD
ENDBRANCH   8   9
ENDBRANCH   3   8
BRANCH   4  11
ATOM     11  O   UNL     1      13.146  -6.372  -0.368  1.00  0.00    -0.387 OA
ATOM     12  H   UNL     1      13.460  -7.202  -0.814  1.00  0.00     0.211 HD
ENDBRANCH   4  11
BRANCH   6  13
ATOM     13  O   UNL     1      12.980  -5.698  -3.125  1.00  0.00    -0.387 OA
ATOM     14  H   UNL     1      13.691  -6.186  -2.632  1.00  0.00     0.211 HD
ENDBRANCH   6  13
BRANCH   7  15
ATOM     15  O   UNL     1      10.348  -3.468  -2.274  1.00  0.00    -0.385 OA
ATOM     16  H   UNL     1       9.357  -3.512  -2.286  1.00  0.00     0.211 HD
ENDBRANCH   7  15
ENDBRANCH   1   2
BRANCH   1  17
ATOM     17  C   UNL     1       7.623  -5.253  -1.648  1.00  0.00     0.224 C 
ATOM     18  C   UNL     1       7.143  -4.375  -0.473  1.00  0.00     0.208 C 
ATOM     19  O   UNL     1       7.450  -4.513  -2.845  1.00  0.00    -0.337 OA
ATOM     20  C   UNL     1       6.219  -3.366  -1.112  1.00  0.00     0.180 C 
ATOM     21  C   UNL     1       6.560  -3.444  -2.604  1.00  0.00     0.179 C 
BRANCH  17  22
ATOM     22  C   UNL     1       6.804  -6.569  -1.717  1.00  0.00     0.225 C 
BRANCH  22  23
ATOM     23  O   UNL     1       7.552  -7.652  -1.238  1.00  0.00    -0.391 OA
ATOM     24  H   UNL     1       8.079  -7.987  -2.008  1.00  0.00     0.210 HD
ENDBRANCH  22  23
ENDBRANCH  17  22
BRANCH  18  25
ATOM     25  O   UNL     1       8.222  -3.690   0.120  1.00  0.00    -0.385 OA
ATOM     26  H   UNL     1       7.839  -3.112   0.833  1.00  0.00     0.211 HD
ENDBRANCH  18  25
BRANCH  20  27
ATOM     27  O   UNL     1       4.881  -3.734  -0.887  1.00  0.00    -0.387 OA
ATOM     28  H   UNL     1       4.458  -3.819  -1.783  1.00  0.00     0.211 HD
ENDBRANCH  20  27
BRANCH  21  29
ATOM     29  C   UNL     1       7.181  -2.144  -3.125  1.00  0.00     0.191 C 
BRANCH  29  30
ATOM     30  O   UNL     1       8.079  -1.622  -2.185  1.00  0.00    -0.394 OA
ATOM     31  H   UNL     1       8.090  -2.262  -1.429  1.00  0.00     0.210 HD
ENDBRANCH  29  30
ENDBRANCH  21  29
ENDBRANCH   1  17
TORSDOF 13
ENDMDL
MODEL 3
REMARK VINA RESULT:    -1.856      1.545      2.410
REMARK INTER + INTRA:          -4.802
REMARK INTER:                  -5.288
REMARK INTRA:                   0.486
REMARK UNBOUND:                -1.969
REMARK SMILES OC[C@@H]1O[C@@H](O[C@]2(CO)O[C@H](CO)[C@@H](O)[C@@H]2O)[C@@H](O)[C@H](O)[C@@H]1O
REMARK SMILES IDX 6 1 5 2 3 3 22 4 4 5 20 6 18 7 2 8 1 9 23 11 21 13 19 15
REMARK SMILES IDX 7 17 16 18 10 19 14 20 11 21 8 22 9 23 17 25 15 27 12 29
REMARK SMILES IDX 13 30
REMARK H PARENT 1 10 23 12 21 14 19 16 9 24 17 26 15 28 13 31
REMARK Flexibility Score: inf
ROOT
ATOM      1  O   UNL     1       9.658  -4.417  -1.999  1.00  0.00    -0.313 OA
ENDROOT
BRANCH   1   2
ATOM      2  C   UNL     1       8.767  -4.975  -1.032  1.00  0.00     0.285 C 
ATOM      3  C   UNL     1       7.165  -5.212  -2.757  1.00  0.00     0.178 C 
ATOM      4  C   UNL     1       6.777  -3.721  -2.471  1.00  0.00     0.177 C 
ATOM      5  O   UNL     1       7.832  -5.835  -1.661  1.00  0.00    -0.341 OA
ATOM      6  C   UNL     1       6.696  -3.461  -0.954  1.00  0.00     0.179 C 
ATOM      7  C   UNL     1       8.029  -3.847  -0.268  1.00  0.00     0.202 C 
BRANCH   3   8
ATOM      8  C   UNL     1       5.950  -6.076  -3.125  1.00  0.00     0.191 C 
BRANCH   8   9
ATOM      9  O   UNL     1       6.197  -7.412  -2.783  1.00  0.00    -0.394 OA
ATOM     10  H   UNL     1       7.173  -7.479  -2.615  1.00  0.00     0.210 HD
ENDBRANCH   8   9
ENDBRANCH   3   8
BRANCH   4  11
ATOM     11  O   UNL     1       5.571  -3.364  -3.100  1.00  0.00    -0.387 OA
ATOM     12  H   UNL     1       5.036  -2.857  -2.435  1.00  0.00     0.211 HD
ENDBRANCH   4  11
BRANCH   6  13
ATOM     13  O   UNL     1       5.650  -4.212  -0.387  1.00  0.00    -0.387 OA
ATOM     14  H   UNL     1       5.178  -3.618   0.253  1.00  0.00     0.211 HD
ENDBRANCH   6  13
BRANCH   7  15
ATOM     15  O   UNL     1       8.868  -2.723  -0.165  1.00  0.00    -0.385 OA
ATOM     16  H   UNL     1       9.539  -2.793  -0.892  1.00  0.00     0.211 HD
ENDBRANCH   7  15
ENDBRANCH   1   2
BRANCH   1  17
ATOM     17  C   UNL     1      10.764  -5.248  -2.335  1.00  0.00     0.224 C 
ATOM     18  C   UNL     1      11.371  -5.790  -1.023  1.00  0.00     0.208 C 
ATOM     19  O   UNL     1      10.336  -6.356  -3.109  1.00  0.00    -0.337 OA
ATOM     20  C   UNL     1      11.745  -7.217  -1.345  1.00  0.00     0.180 C 
ATOM     21  C   UNL     1      10.956  -7.527  -2.623  1.00  0.00     0.179 C 
BRANCH  17  22
ATOM     22  C   UNL     1      11.817  -4.426  -3.125  1.00  0.00     0.225 C 
BRANCH  22  23
ATOM     23  O   UNL     1      13.007  -4.303  -2.398  1.00  0.00    -0.391 OA
ATOM     24  H   UNL     1      12.784  -3.780  -1.586  1.00  0.00     0.210 HD
ENDBRANCH  22  23
ENDBRANCH  17  22
BRANCH  18  25
ATOM     25  O   UNL     1      10.417  -5.794   0.013  1.00  0.00    -0.385 OA
ATOM     26  H   UNL     1      10.861  -5.411   0.815  1.00  0.00     0.211 HD
ENDBRANCH  18  25
BRANCH  20  27
ATOM     27  O   UNL     1      13.127  -7.309  -1.578  1.00  0.00    -0.387 OA
ATOM     28  H   UNL     1      13.365  -8.271  -1.491  1.00  0.00     0.211 HD
ENDBRANCH  20  27
BRANCH  21  29
ATOM     29  C   UNL     1       9.891  -8.606  -2.400  1.00  0.00     0.191 C 
BRANCH  29  30
ATOM     30  O   UNL     1       9.149  -8.326  -1.245  1.00  0.00    -0.394 OA
ATOM     31  H   UNL     1       9.645  -7.616  -0.763  1.00  0.00     0.210 HD
ENDBRANCH  29  30
ENDBRANCH  21  29
ENDBRANCH   1  17
TORSDOF 13
ENDMDL
MODEL 4
REMARK VINA RESULT:    -1.740      1.321      6.256
REMARK INTER + INTRA:          -4.625
REMARK INTER:                  -3.348
REMARK INTRA:                  -1.277
REMARK UNBOUND:                -1.969
REMARK SMILES OC[C@@H]1O[C@@H](O[C@]2(CO)O[C@H](CO)[C@@H](O)[C@@H]2O)[C@@H](O)[C@H](O)[C@@H]1O
REMARK SMILES IDX 6 1 5 2 3 3 22 4 4 5 20 6 18 7 2 8 1 9 23 11 21 13 19 15
REMARK SMILES IDX 7 17 16 18 10 19 14 20 11 21 8 22 9 23 17 25 15 27 12 29
REMARK SMILES IDX 13 30
REMARK H PARENT 1 10 23 12 21 14 19 16 9 24 17 26 15 28 13 31
REMARK Flexibility Score: inf
ROOT
ATOM      1  O   UNL     1      10.596  -5.878  -1.811  1.00  0.00    -0.313 OA
ENDROOT
BRANCH   1   2
ATOM      2  C   UNL     1      11.443  -6.078  -2.943  1.00  0.00     0.285 C 
ATOM      3  C   UNL     1      12.648  -7.663  -1.665  1.00  0.00     0.178 C 
ATOM      4  C   UNL     1      13.454  -6.448  -1.092  1.00  0.00     0.177 C 
ATOM      5  O   UNL     1      12.013  -7.375  -2.910  1.00  0.00    -0.341 OA
ATOM      6  C   UNL     1      13.827  -5.463  -2.218  1.00  0.00     0.179 C 
ATOM      7  C   UNL     1      12.558  -5.003  -2.976  1.00  0.00     0.202 C 
BRANCH   3   8
ATOM      8  C   UNL     1      13.523  -8.911  -1.858  1.00  0.00     0.191 C 
BRANCH   8   9
ATOM      9  O   UNL     1      14.311  -8.765  -3.007  1.00  0.00    -0.394 OA
ATOM     10  H   UNL     1      14.907  -7.989  -2.838  1.00  0.00     0.210 HD
ENDBRANCH   8   9
ENDBRANCH   3   8
BRANCH   4  11
ATOM     11  O   UNL     1      14.602  -6.862  -0.395  1.00  0.00    -0.387 OA
ATOM     12  H   UNL     1      14.790  -7.796  -0.675  1.00  0.00     0.211 HD
ENDBRANCH   4  11
BRANCH   6  13
ATOM     13  O   UNL     1      14.711  -6.074  -3.125  1.00  0.00    -0.387 OA
ATOM     14  H   UNL     1      15.314  -6.659  -2.596  1.00  0.00     0.211 HD
ENDBRANCH   6  13
BRANCH   7  15
ATOM     15  O   UNL     1      12.070  -3.803  -2.427  1.00  0.00    -0.385 OA
ATOM     16  H   UNL     1      11.290  -4.039  -1.861  1.00  0.00     0.211 HD
ENDBRANCH   7  15
ENDBRANCH   1   2
BRANCH   1  17
ATOM     17  C   UNL     1       9.211  -5.757  -2.120  1.00  0.00     0.224 C 
ATOM     18  C   UNL     1       8.475  -5.289  -0.846  1.00  0.00     0.208 C 
ATOM     19  O   UNL     1       9.011  -4.777  -3.125  1.00  0.00    -0.337 OA
ATOM     20  C   UNL     1       7.440  -4.313  -1.350  1.00  0.00     0.180 C 
ATOM     21  C   UNL     1       7.920  -3.958  -2.762  1.00  0.00     0.179 C 
BRANCH  17  22
ATOM     22  C   UNL     1       8.660  -7.126  -2.599  1.00  0.00     0.225 C 
BRANCH  22  23
ATOM     23  O   UNL     1       8.457  -7.992  -1.517  1.00  0.00    -0.391 OA
ATOM     24  H   UNL     1       9.140  -7.753  -0.838  1.00  0.00     0.210 HD
ENDBRANCH  22  23
ENDBRANCH  17  22
BRANCH  18  25
ATOM     25  O   UNL     1       9.351  -4.614   0.025  1.00  0.00    -0.385 OA
ATOM     26  H   UNL     1       8.928  -3.741   0.239  1.00  0.00     0.211 HD
ENDBRANCH  18  25
BRANCH  20  27
ATOM     27  O   UNL     1       6.179  -4.932  -1.394  1.00  0.00    -0.387 OA
ATOM     28  H   UNL     1       6.347  -5.912  -1.410  1.00  0.00     0.211 HD
ENDBRANCH  20  27
BRANCH  21  29
ATOM     29  C   UNL     1       8.334  -2.487  -2.881  1.00  0.00     0.191 C 
BRANCH  29  30
ATOM     30  O   UNL     1       7.305  -1.653  -2.425  1.00  0.00    -0.394 OA
ATOM     31  H   UNL     1       7.498  -0.752  -2.792  1.00  0.00     0.210 HD
ENDBRANCH  29  30
ENDBRANCH  21  29
ENDBRANCH   1  17
TORSDOF 13
ENDMDL
MODEL 5
REMARK VINA RESULT:    -1.171      1.443      2.847
REMARK INTER + INTRA:          -3.756
REMARK INTER:                  -4.209
REMARK INTRA:                   0.453
REMARK UNBOUND:                -1.969
REMARK SMILES OC[C@@H]1O[C@@H](O[C@]2(CO)O[C@H](CO)[C@@H](O)[C@@H]2O)[C@@H](O)[C@H](O)[C@@H]1O
REMARK SMILES IDX 6 1 5 2 3 3 22 4 4 5 20 6 18 7 2 8 1 9 23 11 21 13 19 15
REMARK SMILES IDX 7 17 16 18 10 19 14 20 11 21 8 22 9 23 17 25 15 27 12 29
REMARK SMILES IDX 13 30
REMARK H PARENT 1 10 23 12 21 14 19 16 9 24 17 26 15 28 13 31
REMARK Flexibility Score: inf
ROOT
ATOM      1  O   UNL     1       9.118  -5.917  -1.265  1.00  0.00    -0.313 OA
ENDROOT
BRANCH   1   2
ATOM      2  C   UNL     1       8.398  -5.555  -2.443  1.00  0.00     0.285 C 
ATOM      3  C   UNL     1       8.018  -3.433  -1.467  1.00  0.00     0.178 C 
ATOM      4  C   UNL     1       6.794  -4.091  -0.744  1.00  0.00     0.177 C 
ATOM      5  O   UNL     1       8.431  -4.149  -2.629  1.00  0.00    -0.341 OA
ATOM      6  C   UNL     1       6.003  -4.985  -1.718  1.00  0.00     0.179 C 
ATOM      7  C   UNL     1       6.933  -6.049  -2.351  1.00  0.00     0.202 C 
BRANCH   3   8
ATOM      8  C   UNL     1       7.747  -1.979  -1.879  1.00  0.00     0.191 C 
BRANCH   8   9
ATOM      9  O   UNL     1       6.957  -1.953  -3.035  1.00  0.00    -0.394 OA
ATOM     10  H   UNL     1       6.100  -2.394  -2.795  1.00  0.00     0.210 HD
ENDBRANCH   8   9
ENDBRANCH   3   8
BRANCH   4  11
ATOM     11  O   UNL     1       5.952  -3.129  -0.159  1.00  0.00    -0.387 OA
ATOM     12  H   UNL     1       5.614  -3.517   0.690  1.00  0.00     0.211 HD
ENDBRANCH   4  11
BRANCH   6  13
ATOM     13  O   UNL     1       5.431  -4.205  -2.738  1.00  0.00    -0.387 OA
ATOM     14  H   UNL     1       6.174  -3.890  -3.317  1.00  0.00     0.211 HD
ENDBRANCH   6  13
BRANCH   7  15
ATOM     15  O   UNL     1       6.886  -7.243  -1.608  1.00  0.00    -0.385 OA
ATOM     16  H   UNL     1       6.959  -6.992  -0.651  1.00  0.00     0.211 HD
ENDBRANCH   7  15
ENDBRANCH   1   2
BRANCH   1  17
ATOM     17  C   UNL     1      10.221  -6.790  -1.489  1.00  0.00     0.224 C 
ATOM     18  C   UNL     1      10.893  -6.381  -2.817  1.00  0.00     0.208 C 
ATOM     19  O   UNL     1      11.180  -6.654  -0.454  1.00  0.00    -0.337 OA
ATOM     20  C   UNL     1      12.371  -6.538  -2.553  1.00  0.00     0.180 C 
ATOM     21  C   UNL     1      12.470  -6.593  -1.024  1.00  0.00     0.179 C 
BRANCH  17  22
ATOM     22  C   UNL     1       9.722  -8.258  -1.557  1.00  0.00     0.225 C 
BRANCH  22  23
ATOM     23  O   UNL     1       8.932  -8.572  -0.444  1.00  0.00    -0.391 OA
ATOM     24  H   UNL     1       8.659  -7.707  -0.044  1.00  0.00     0.210 HD
ENDBRANCH  22  23
ENDBRANCH  17  22
BRANCH  18  25
ATOM     25  O   UNL     1      10.627  -5.033  -3.125  1.00  0.00    -0.385 OA
ATOM     26  H   UNL     1       9.648  -4.960  -3.277  1.00  0.00     0.211 HD
ENDBRANCH  18  25
BRANCH  20  27
ATOM     27  O   UNL     1      12.835  -7.735  -3.125  1.00  0.00    -0.387 OA
ATOM     28  H   UNL     1      12.433  -7.787  -4.033  1.00  0.00     0.211 HD
ENDBRANCH  20  27
BRANCH  21  29
ATOM     29  C   UNL     1      13.219  -5.386  -0.449  1.00  0.00     0.191 C 
BRANCH  29  30
ATOM     30  O   UNL     1      13.648  -4.541  -1.480  1.00  0.00    -0.394 OA
ATOM     31  H   UNL     1      14.150  -3.806  -1.043  1.00  0.00     0.210 HD
ENDBRANCH  29  30
ENDBRANCH  21  29
ENDBRANCH   1  17
TORSDOF 13
ENDMDL
MODEL 6
REMARK VINA RESULT:    -1.143      1.655      3.388
REMARK INTER + INTRA:          -3.715
REMARK INTER:                  -2.765
REMARK INTRA:                  -0.949
REMARK UNBOUND:                -1.969
REMARK SMILES OC[C@@H]1O[C@@H](O[C@]2(CO)O[C@H](CO)[C@@H](O)[C@@H]2O)[C@@H](O)[C@H](O)[C@@H]1O
REMARK SMILES IDX 6 1 5 2 3 3 22 4 4 5 20 6 18 7 2 8 1 9 23 11 21 13 19 15
REMARK SMILES IDX 7 17 16 18 10 19 14 20 11 21 8 22 9 23 17 25 15 27 12 29
REMARK SMILES IDX 13 30
REMARK H PARENT 1 10 23 12 21 14 19 16 9 24 17 26 15 28 13 31
REMARK Flexibility Score: inf
ROOT
ATOM      1  O   UNL     1       8.590  -5.429  -2.196  1.00  0.00    -0.313 OA
ENDROOT
BRANCH   1   2
ATOM      2  C   UNL     1       7.569  -5.514  -1.202  1.00  0.00     0.285 C 
ATOM      3  C   UNL     1       6.050  -4.647  -2.796  1.00  0.00     0.178 C 
ATOM      4  C   UNL     1       6.556  -3.228  -2.365  1.00  0.00     0.177 C 
ATOM      5  O   UNL     1       6.296  -5.649  -1.811  1.00  0.00    -0.341 OA
ATOM      6  C   UNL     1       6.677  -3.136  -0.832  1.00  0.00     0.179 C 
ATOM      7  C   UNL     1       7.598  -4.259  -0.294  1.00  0.00     0.202 C 
BRANCH   3   8
ATOM      8  C   UNL     1       4.550  -4.662  -3.123  1.00  0.00     0.191 C 
BRANCH   8   9
ATOM      9  O   UNL     1       3.825  -4.123  -2.053  1.00  0.00    -0.394 OA
ATOM     10  H   UNL     1       4.119  -3.178  -1.967  1.00  0.00     0.210 HD
ENDBRANCH   8   9
ENDBRANCH   3   8
BRANCH   4  11
ATOM     11  O   UNL     1       5.729  -2.204  -2.860  1.00  0.00    -0.387 OA
ATOM     12  H   UNL     1       5.956  -1.379  -2.356  1.00  0.00     0.211 HD
ENDBRANCH   4  11
BRANCH   6  13
ATOM     13  O   UNL     1       5.409  -3.252  -0.236  1.00  0.00    -0.387 OA
ATOM     14  H   UNL     1       4.826  -2.565  -0.653  1.00  0.00     0.211 HD
ENDBRANCH   6  13
BRANCH   7  15
ATOM     15  O   UNL     1       8.920  -3.793  -0.178  1.00  0.00    -0.385 OA
ATOM     16  H   UNL     1       9.397  -4.422   0.422  1.00  0.00     0.211 HD
ENDBRANCH   7  15
ENDBRANCH   1   2
BRANCH   1  17
ATOM     17  C   UNL     1       9.509  -6.516  -2.197  1.00  0.00     0.224 C 
ATOM     18  C   UNL     1      10.725  -6.115  -3.059  1.00  0.00     0.208 C 
ATOM     19  O   UNL     1       9.971  -6.777  -0.883  1.00  0.00    -0.337 OA
ATOM     20  C   UNL     1      11.912  -6.683  -2.318  1.00  0.00     0.180 C 
ATOM     21  C   UNL     1      11.369  -6.972  -0.914  1.00  0.00     0.179 C 
BRANCH  17  22
ATOM     22  C   UNL     1       8.822  -7.782  -2.777  1.00  0.00     0.225 C 
BRANCH  22  23
ATOM     23  O   UNL     1       8.050  -8.426  -1.801  1.00  0.00    -0.391 OA
ATOM     24  H   UNL     1       8.533  -8.307  -0.943  1.00  0.00     0.210 HD
ENDBRANCH  22  23
ENDBRANCH  17  22
BRANCH  18  25
ATOM     25  O   UNL     1      10.858  -4.714  -3.125  1.00  0.00    -0.385 OA
ATOM     26  H   UNL     1      11.623  -4.526  -3.731  1.00  0.00     0.211 HD
ENDBRANCH  18  25
BRANCH  20  27
ATOM     27  O   UNL     1      12.342  -7.867  -2.940  1.00  0.00    -0.387 OA
ATOM     28  H   UNL     1      11.874  -8.614  -2.478  1.00  0.00     0.211 HD
ENDBRANCH  20  27
BRANCH  21  29
ATOM     29  C   UNL     1      12.025  -6.090   0.154  1.00  0.00     0.191 C 
BRANCH  29  30
ATOM     30  O   UNL     1      13.069  -5.343  -0.405  1.00  0.00    -0.394 OA
ATOM     31  H   UNL     1      13.264  -4.616   0.241  1.00  0.00     0.210 HD
ENDBRANCH  29  30
ENDBRANCH  21  29
ENDBRANCH   1  17
TORSDOF 13
ENDMDL
