MODEL 1
REMARK VINA RESULT:    -3.541      0.000      0.000
REMARK INTER + INTRA:          -5.670
REMARK INTER:                  -4.991
REMARK INTRA:                  -0.679
REMARK UNBOUND:                -0.679
REMARK SMILES CCCCCCCCC(=O)[O-]
REMARK SMILES IDX 6 1 7 2 8 3 9 4 10 5 11 6 5 7 4 8 3 9 2 10 1 11
REMARK H PARENT
REMARK Flexibility Score: inf
ROOT
ATOM      1  C   UNL     1      30.467  51.162  38.462  1.00  0.00     0.000 C 
ENDROOT
BRANCH   1   2
ATOM      2  C   UNL     1      30.549  50.332  39.756  1.00  0.00     0.006 C 
BRANCH   2   3
ATOM      3  C   UNL     1      29.424  49.297  39.919  1.00  0.00     0.053 C 
BRANCH   3   4
ATOM      4  C   UNL     1      29.870  48.097  40.699  1.00  0.00     0.041 C 
ATOM      5  O   UNL     1      29.746  46.944  40.211  1.00  0.00    -0.550 OA
ATOM      6  O   UNL     1      30.391  48.252  41.977  1.00  0.00    -0.550 OA
ENDBRANCH   3   4
ENDBRANCH   2   3
ENDBRANCH   1   2
BRANCH   1   7
ATOM      7  C   UNL     1      29.970  52.597  38.707  1.00  0.00     0.000 C 
BRANCH   7   8
ATOM      8  C   UNL     1      28.619  52.877  38.029  1.00  0.00    -0.000 C 
BRANCH   8   9
ATOM      9  C   UNL     1      27.429  52.287  38.807  1.00  0.00    -0.000 C 
BRANCH   9  10
ATOM     10  C   UNL     1      27.452  52.670  40.295  1.00  0.00    -0.003 C 
ATOM     11  C   UNL     1      26.778  51.625  41.183  1.00  0.00     0.004 C 
ENDBRANCH   9  10
ENDBRANCH   8   9
ENDBRANCH   7   8
ENDBRANCH   1   7
TORSDOF 7
ENDMDL
MODEL 2
REMARK VINA RESULT:    -3.369     16.132     17.136
REMARK INTER + INTRA:          -5.427
REMARK INTER:                  -4.799
REMARK INTRA:                  -0.627
REMARK UNBOUND:                -0.679
REMARK SMILES CCCCCCCCC(=O)[O-]
REMARK SMILES IDX 6 1 7 2 8 3 9 4 10 5 11 6 5 7 4 8 3 9 2 10 1 11
REMARK H PARENT
REMARK Flexibility Score: inf
ROOT
ATOM      1  C   UNL     1      26.683  42.865  25.223  1.00  0.00     0.000 C 
ENDROOT
BRANCH   1   2
ATOM      2  C   UNL     1      25.963  41.733  24.467  1.00  0.00     0.006 C 
BRANCH   2   3
ATOM      3  C   UNL     1      25.322  40.671  25.374  1.00  0.00     0.053 C 
BRANCH   3   4
ATOM      4  C   UNL     1      26.024  39.350  25.278  1.00  0.00     0.041 C 
ATOM      5  O   UNL     1      27.112  39.167  25.883  1.00  0.00    -0.550 OA
ATOM      6  O   UNL     1      25.492  38.335  24.493  1.00  0.00    -0.550 OA
ENDBRANCH   3   4
ENDBRANCH   2   3
ENDBRANCH   1   2
BRANCH   1   7
ATOM      7  C   UNL     1      26.471  42.793  26.745  1.00  0.00     0.000 C 
BRANCH   7   8
ATOM      8  C   UNL     1      27.743  42.376  27.498  1.00  0.00    -0.000 C 
BRANCH   8   9
ATOM      9  C   UNL     1      28.947  42.166  26.562  1.00  0.00    -0.000 C 
BRANCH   9  10
ATOM     10  C   UNL     1      30.138  43.065  26.925  1.00  0.00    -0.003 C 
ATOM     11  C   UNL     1      30.411  44.136  25.870  1.00  0.00     0.004 C 
ENDBRANCH   9  10
ENDBRANCH   8   9
ENDBRANCH   7   8
ENDBRANCH   1   7
TORSDOF 7
ENDMDL
MODEL 3
REMARK VINA RESULT:    -3.354     16.096     17.042
REMARK INTER + INTRA:          -5.406
REMARK INTER:                  -4.903
REMARK INTRA:                  -0.503
REMARK UNBOUND:                -0.679
REMARK SMILES CCCCCCCCC(=O)[O-]
REMARK SMILES IDX 6 1 7 2 8 3 9 4 10 5 11 6 5 7 4 8 3 9 2 10 1 11
REMARK H PARENT
REMARK Flexibility Score: inf
ROOT
ATOM      1  C   UNL     1      26.565  42.111  26.649  1.00  0.00     0.000 C 
ENDROOT
BRANCH   1   2
ATOM      2  C   UNL     1      27.972  42.471  27.161  1.00  0.00     0.006 C 
BRANCH   2   3
ATOM      3  C   UNL     1      28.626  43.661  26.440  1.00  0.00     0.053 C 
BRANCH   3   4
ATOM      4  C   UNL     1      30.108  43.492  26.303  1.00  0.00     0.041 C 
ATOM      5  O   UNL     1      30.822  44.457  25.924  1.00  0.00    -0.550 OA
ATOM      6  O   UNL     1      30.695  42.259  26.558  1.00  0.00    -0.550 OA
ENDBRANCH   3   4
ENDBRANCH   2   3
ENDBRANCH   1   2
BRANCH   1   7
ATOM      7  C   UNL     1      26.374  42.436  25.157  1.00  0.00     0.000 C 
BRANCH   7   8
ATOM      8  C   UNL     1      25.706  41.288  24.385  1.00  0.00    -0.000 C 
BRANCH   8   9
ATOM      9  C   UNL     1      25.184  40.174  25.309  1.00  0.00    -0.000 C 
BRANCH   9  10
ATOM     10  C   UNL     1      25.775  38.799  24.964  1.00  0.00    -0.003 C 
ATOM     11  C   UNL     1      27.013  38.463  25.796  1.00  0.00     0.004 C 
ENDBRANCH   9  10
ENDBRANCH   8   9
ENDBRANCH   7   8
ENDBRANCH   1   7
TORSDOF 7
ENDMDL
MODEL 4
REMARK VINA RESULT:    -3.275      0.733      1.619
REMARK INTER + INTRA:          -5.294
REMARK INTER:                  -4.715
REMARK INTRA:                  -0.578
REMARK UNBOUND:                -0.679
REMARK SMILES CCCCCCCCC(=O)[O-]
REMARK SMILES IDX 6 1 7 2 8 3 9 4 10 5 11 6 5 7 4 8 3 9 2 10 1 11
REMARK H PARENT
REMARK Flexibility Score: inf
ROOT
ATOM      1  C   UNL     1      30.577  50.398  39.700  1.00  0.00     0.000 C 
ENDROOT
BRANCH   1   2
ATOM      2  C   UNL     1      29.427  49.388  39.866  1.00  0.00     0.006 C 
BRANCH   2   3
ATOM      3  C   UNL     1      29.368  48.712  41.244  1.00  0.00     0.053 C 
BRANCH   3   4
ATOM      4  C   UNL     1      30.105  47.407  41.264  1.00  0.00     0.041 C 
ATOM      5  O   UNL     1      30.999  47.198  42.125  1.00  0.00    -0.550 OA
ATOM      6  O   UNL     1      29.828  46.437  40.309  1.00  0.00    -0.550 OA
ENDBRANCH   3   4
ENDBRANCH   2   3
ENDBRANCH   1   2
BRANCH   1   7
ATOM      7  C   UNL     1      30.452  51.238  38.417  1.00  0.00     0.000 C 
BRANCH   7   8
ATOM      8  C   UNL     1      29.884  52.641  38.685  1.00  0.00    -0.000 C 
BRANCH   8   9
ATOM      9  C   UNL     1      28.434  52.800  38.193  1.00  0.00    -0.000 C 
BRANCH   9  10
ATOM     10  C   UNL     1      27.406  52.341  39.238  1.00  0.00    -0.003 C 
ATOM     11  C   UNL     1      27.692  52.899  40.632  1.00  0.00     0.004 C 
ENDBRANCH   9  10
ENDBRANCH   8   9
ENDBRANCH   7   8
ENDBRANCH   1   7
TORSDOF 7
ENDMDL
MODEL 5
REMARK VINA RESULT:    -3.138     15.621     16.543
REMARK INTER + INTRA:          -5.102
REMARK INTER:                  -4.586
REMARK INTRA:                  -0.516
REMARK UNBOUND:                -0.679
REMARK SMILES CCCCCCCCC(=O)[O-]
REMARK SMILES IDX 6 1 7 2 8 3 9 4 10 5 11 6 5 7 4 8 3 9 2 10 1 11
REMARK H PARENT
REMARK Flexibility Score: inf
ROOT
ATOM      1  C   UNL     1      26.010  41.388  24.833  1.00  0.00     0.000 C 
ENDROOT
BRANCH   1   2
ATOM      2  C   UNL     1      25.362  40.666  26.029  1.00  0.00     0.006 C 
BRANCH   2   3
ATOM      3  C   UNL     1      26.057  39.356  26.433  1.00  0.00     0.053 C 
BRANCH   3   4
ATOM      4  C   UNL     1      25.803  39.002  27.866  1.00  0.00     0.041 C 
ATOM      5  O   UNL     1      25.612  37.802  28.198  1.00  0.00    -0.550 OA
ATOM      6  O   UNL     1      25.742  40.001  28.830  1.00  0.00    -0.550 OA
ENDBRANCH   3   4
ENDBRANCH   2   3
ENDBRANCH   1   2
BRANCH   1   7
ATOM      7  C   UNL     1      26.601  42.757  25.213  1.00  0.00     0.000 C 
BRANCH   7   8
ATOM      8  C   UNL     1      26.791  42.915  26.730  1.00  0.00    -0.000 C 
BRANCH   8   9
ATOM      9  C   UNL     1      28.221  42.576  27.189  1.00  0.00    -0.000 C 
BRANCH   9  10
ATOM     10  C   UNL     1      29.270  42.866  26.105  1.00  0.00    -0.003 C 
ATOM     11  C   UNL     1      30.074  44.135  26.387  1.00  0.00     0.004 C 
ENDBRANCH   9  10
ENDBRANCH   8   9
ENDBRANCH   7   8
ENDBRANCH   1   7
TORSDOF 7
ENDMDL
MODEL 6
REMARK VINA RESULT:    -3.126     15.609     16.612
REMARK INTER + INTRA:          -5.084
REMARK INTER:                  -4.632
REMARK INTRA:                  -0.452
REMARK UNBOUND:                -0.679
REMARK SMILES CCCCCCCCC(=O)[O-]
REMARK SMILES IDX 6 1 7 2 8 3 9 4 10 5 11 6 5 7 4 8 3 9 2 10 1 11
REMARK H PARENT
REMARK Flexibility Score: inf
ROOT
ATOM      1  C   UNL     1      26.313  42.128  26.567  1.00  0.00     0.000 C 
ENDROOT
BRANCH   1   2
ATOM      2  C   UNL     1      27.831  42.212  26.810  1.00  0.00     0.006 C 
BRANCH   2   3
ATOM      3  C   UNL     1      28.541  43.325  26.023  1.00  0.00     0.053 C 
BRANCH   3   4
ATOM      4  C   UNL     1      29.998  43.415  26.362  1.00  0.00     0.041 C 
ATOM      5  O   UNL     1      30.681  44.393  25.961  1.00  0.00    -0.550 OA
ATOM      6  O   UNL     1      30.607  42.401  27.090  1.00  0.00    -0.550 OA
ENDBRANCH   3   4
ENDBRANCH   2   3
ENDBRANCH   1   2
BRANCH   1   7
ATOM      7  C   UNL     1      25.947  41.174  25.417  1.00  0.00     0.000 C 
BRANCH   7   8
ATOM      8  C   UNL     1      25.158  39.946  25.897  1.00  0.00    -0.000 C 
BRANCH   8   9
ATOM      9  C   UNL     1      26.043  38.916  26.623  1.00  0.00    -0.000 C 
BRANCH   9  10
ATOM     10  C   UNL     1      25.451  38.477  27.970  1.00  0.00    -0.003 C 
ATOM     11  C   UNL     1      25.647  39.522  29.068  1.00  0.00     0.004 C 
ENDBRANCH   9  10
ENDBRANCH   8   9
ENDBRANCH   7   8
ENDBRANCH   1   7
TORSDOF 7
ENDMDL
MODEL 7
REMARK VINA RESULT:    -3.120      0.831      2.412
REMARK INTER + INTRA:          -5.075
REMARK INTER:                  -4.450
REMARK INTRA:                  -0.625
REMARK UNBOUND:                -0.679
REMARK SMILES CCCCCCCCC(=O)[O-]
REMARK SMILES IDX 6 1 7 2 8 3 9 4 10 5 11 6 5 7 4 8 3 9 2 10 1 11
REMARK H PARENT
REMARK Flexibility Score: inf
ROOT
ATOM      1  C   UNL     1      28.271  50.466  41.288  1.00  0.00     0.000 C 
ENDROOT
BRANCH   1   2
ATOM      2  C   UNL     1      28.735  49.647  40.069  1.00  0.00     0.006 C 
BRANCH   2   3
ATOM      3  C   UNL     1      30.199  49.182  40.136  1.00  0.00     0.053 C 
BRANCH   3   4
ATOM      4  C   UNL     1      30.330  47.816  40.738  1.00  0.00     0.041 C 
ATOM      5  O   UNL     1      29.570  46.885  40.366  1.00  0.00    -0.550 OA
ATOM      6  O   UNL     1      31.268  47.583  41.736  1.00  0.00    -0.550 OA
ENDBRANCH   3   4
ENDBRANCH   2   3
ENDBRANCH   1   2
BRANCH   1   7
ATOM      7  C   UNL     1      27.117  51.426  40.954  1.00  0.00     0.000 C 
BRANCH   7   8
ATOM      8  C   UNL     1      27.606  52.733  40.309  1.00  0.00    -0.000 C 
BRANCH   8   9
ATOM      9  C   UNL     1      27.267  52.819  38.809  1.00  0.00    -0.000 C 
BRANCH   9  10
ATOM     10  C   UNL     1      28.511  52.694  37.918  1.00  0.00    -0.003 C 
ATOM     11  C   UNL     1      29.815  52.780  38.710  1.00  0.00     0.004 C 
ENDBRANCH   9  10
ENDBRANCH   8   9
ENDBRANCH   7   8
ENDBRANCH   1   7
TORSDOF 7
ENDMDL
MODEL 8
REMARK VINA RESULT:    -3.024      1.099      2.890
REMARK INTER + INTRA:          -4.941
REMARK INTER:                  -4.267
REMARK INTRA:                  -0.674
REMARK UNBOUND:                -0.679
REMARK SMILES CCCCCCCCC(=O)[O-]
REMARK SMILES IDX 6 1 7 2 8 3 9 4 10 5 11 6 5 7 4 8 3 9 2 10 1 11
REMARK H PARENT
REMARK Flexibility Score: inf
ROOT
ATOM      1  C   UNL     1      26.822  51.768  41.482  1.00  0.00     0.000 C 
ENDROOT
BRANCH   1   2
ATOM      2  C   UNL     1      27.429  50.372  41.712  1.00  0.00     0.006 C 
BRANCH   2   3
ATOM      3  C   UNL     1      28.966  50.337  41.693  1.00  0.00     0.053 C 
BRANCH   3   4
ATOM      4  C   UNL     1      29.493  49.209  40.858  1.00  0.00     0.041 C 
ATOM      5  O   UNL     1      28.889  48.861  39.811  1.00  0.00    -0.550 OA
ATOM      6  O   UNL     1      30.632  48.521  41.258  1.00  0.00    -0.550 OA
ENDBRANCH   3   4
ENDBRANCH   2   3
ENDBRANCH   1   2
BRANCH   1   7
ATOM      7  C   UNL     1      27.652  52.626  40.511  1.00  0.00     0.000 C 
BRANCH   7   8
ATOM      8  C   UNL     1      27.282  52.377  39.041  1.00  0.00    -0.000 C 
BRANCH   8   9
ATOM      9  C   UNL     1      28.430  52.715  38.073  1.00  0.00    -0.000 C 
BRANCH   9  10
ATOM     10  C   UNL     1      29.810  52.609  38.739  1.00  0.00    -0.003 C 
ATOM     11  C   UNL     1      30.595  51.382  38.278  1.00  0.00     0.004 C 
ENDBRANCH   9  10
ENDBRANCH   8   9
ENDBRANCH   7   8
ENDBRANCH   1   7
TORSDOF 7
ENDMDL
MODEL 9
REMARK VINA RESULT:    -3.021     16.730     17.700
REMARK INTER + INTRA:          -4.936
REMARK INTER:                  -4.570
REMARK INTRA:                  -0.366
REMARK UNBOUND:                -0.679
REMARK SMILES CCCCCCCCC(=O)[O-]
REMARK SMILES IDX 6 1 7 2 8 3 9 4 10 5 11 6 5 7 4 8 3 9 2 10 1 11
REMARK H PARENT
REMARK Flexibility Score: inf
ROOT
ATOM      1  C   UNL     1      26.119  41.250  26.583  1.00  0.00     0.000 C 
ENDROOT
BRANCH   1   2
ATOM      2  C   UNL     1      25.026  40.303  26.055  1.00  0.00     0.006 C 
BRANCH   2   3
ATOM      3  C   UNL     1      25.038  40.104  24.531  1.00  0.00     0.053 C 
BRANCH   3   4
ATOM      4  C   UNL     1      25.571  38.759  24.142  1.00  0.00     0.041 C 
ATOM      5  O   UNL     1      25.144  38.185  23.106  1.00  0.00    -0.550 OA
ATOM      6  O   UNL     1      26.512  38.124  24.943  1.00  0.00    -0.550 OA
ENDBRANCH   3   4
ENDBRANCH   2   3
ENDBRANCH   1   2
BRANCH   1   7
ATOM      7  C   UNL     1      26.548  42.301  25.544  1.00  0.00     0.000 C 
BRANCH   7   8
ATOM      8  C   UNL     1      27.666  43.219  26.062  1.00  0.00    -0.000 C 
BRANCH   8   9
ATOM      9  C   UNL     1      28.598  42.514  27.064  1.00  0.00    -0.000 C 
BRANCH   9  10
ATOM     10  C   UNL     1      30.083  42.706  26.721  1.00  0.00    -0.003 C 
ATOM     11  C   UNL     1      30.376  44.078  26.115  1.00  0.00     0.004 C 
ENDBRANCH   9  10
ENDBRANCH   8   9
ENDBRANCH   7   8
ENDBRANCH   1   7
TORSDOF 7
ENDMDL
