MODEL 1
REMARK VINA RESULT:    -4.962      0.000      0.000
REMARK INTER + INTRA:          -5.562
REMARK INTER:                  -5.397
REMARK INTRA:                  -0.166
REMARK UNBOUND:                -0.166
REMARK SMILES O=C([O-])c1ccccc1O
REMARK SMILES IDX 4 1 9 2 5 3 8 4 6 5 7 6 2 7 1 8 3 9 10 10
REMARK H PARENT 10 11
REMARK Flexibility Score: inf
ROOT
ATOM      1  C   UNL     1      -9.791  38.199   6.527  1.00  0.00     0.039 A 
ATOM      2  C   UNL     1     -10.368  37.835   7.770  1.00  0.00     0.124 A 
ATOM      3  C   UNL     1     -10.494  39.077   5.681  1.00  0.00     0.014 A 
ATOM      4  C   UNL     1     -11.589  38.401   8.159  1.00  0.00     0.047 A 
ATOM      5  C   UNL     1     -11.722  39.615   6.075  1.00  0.00     0.001 A 
ATOM      6  C   UNL     1     -12.264  39.285   7.316  1.00  0.00     0.004 A 
ENDROOT
BRANCH   1   7
ATOM      7  C   UNL     1      -8.457  37.721   6.101  1.00  0.00     0.075 C 
ATOM      8  O   UNL     1      -7.478  38.513   6.083  1.00  0.00    -0.545 OA
ATOM      9  O   UNL     1      -8.248  36.385   5.781  1.00  0.00    -0.545 OA
ENDBRANCH   1   7
BRANCH   2  10
ATOM     10  O   UNL     1      -9.784  36.897   8.624  1.00  0.00    -0.507 OA
ATOM     11  H   UNL     1      -9.539  35.959   8.336  1.00  0.00     0.293 HD
ENDBRANCH   2  10
TORSDOF 2
ENDMDL
MODEL 2
REMARK VINA RESULT:    -4.961      2.559      3.276
REMARK INTER + INTRA:          -5.561
REMARK INTER:                  -5.318
REMARK INTRA:                  -0.243
REMARK UNBOUND:                -0.166
REMARK SMILES O=C([O-])c1ccccc1O
REMARK SMILES IDX 4 1 9 2 5 3 8 4 6 5 7 6 2 7 1 8 3 9 10 10
REMARK H PARENT 10 11
REMARK Flexibility Score: inf
ROOT
ATOM      1  C   UNL     1      -8.891  36.204   5.823  1.00  0.00     0.039 A 
ATOM      2  C   UNL     1     -10.195  36.589   5.421  1.00  0.00     0.124 A 
ATOM      3  C   UNL     1      -7.975  37.202   6.207  1.00  0.00     0.014 A 
ATOM      4  C   UNL     1     -10.566  37.939   5.474  1.00  0.00     0.047 A 
ATOM      5  C   UNL     1      -8.355  38.546   6.232  1.00  0.00     0.001 A 
ATOM      6  C   UNL     1      -9.651  38.913   5.876  1.00  0.00     0.004 A 
ENDROOT
BRANCH   1   7
ATOM      7  C   UNL     1      -8.467  34.788   5.891  1.00  0.00     0.075 C 
ATOM      8  O   UNL     1      -9.184  33.942   6.487  1.00  0.00    -0.545 OA
ATOM      9  O   UNL     1      -7.313  34.359   5.246  1.00  0.00    -0.545 OA
ENDBRANCH   1   7
BRANCH   2  10
ATOM     10  O   UNL     1     -11.132  35.675   4.934  1.00  0.00    -0.507 OA
ATOM     11  H   UNL     1     -11.063  34.677   5.079  1.00  0.00     0.293 HD
ENDBRANCH   2  10
TORSDOF 2
ENDMDL
MODEL 3
REMARK VINA RESULT:    -4.881      2.301      3.544
REMARK INTER + INTRA:          -5.475
REMARK INTER:                  -5.225
REMARK INTRA:                  -0.250
REMARK UNBOUND:                -0.166
REMARK SMILES O=C([O-])c1ccccc1O
REMARK SMILES IDX 4 1 9 2 5 3 8 4 6 5 7 6 2 7 1 8 3 9 10 10
REMARK H PARENT 10 11
REMARK Flexibility Score: inf
ROOT
ATOM      1  C   UNL     1      -9.361  37.143   6.082  1.00  0.00     0.039 A 
ATOM      2  C   UNL     1     -10.506  36.429   6.518  1.00  0.00     0.124 A 
ATOM      3  C   UNL     1      -8.243  36.421   5.624  1.00  0.00     0.014 A 
ATOM      4  C   UNL     1     -10.527  35.031   6.426  1.00  0.00     0.047 A 
ATOM      5  C   UNL     1      -8.272  35.026   5.561  1.00  0.00     0.001 A 
ATOM      6  C   UNL     1      -9.416  34.333   5.952  1.00  0.00     0.004 A 
ENDROOT
BRANCH   1   7
ATOM      7  C   UNL     1      -9.311  38.621   6.053  1.00  0.00     0.075 C 
ATOM      8  O   UNL     1     -10.296  39.279   5.624  1.00  0.00    -0.545 OA
ATOM      9  O   UNL     1      -8.212  39.306   6.557  1.00  0.00    -0.545 OA
ENDBRANCH   1   7
BRANCH   2  10
ATOM     10  O   UNL     1     -11.619  37.061   7.076  1.00  0.00    -0.507 OA
ATOM     11  H   UNL     1     -12.554  36.678   7.038  1.00  0.00     0.293 HD
ENDBRANCH   2  10
TORSDOF 2
ENDMDL
MODEL 4
REMARK VINA RESULT:    -4.708      1.650      2.863
REMARK INTER + INTRA:          -5.287
REMARK INTER:                  -5.041
REMARK INTRA:                  -0.245
REMARK UNBOUND:                -0.166
REMARK SMILES O=C([O-])c1ccccc1O
REMARK SMILES IDX 4 1 9 2 5 3 8 4 6 5 7 6 2 7 1 8 3 9 10 10
REMARK H PARENT 10 11
REMARK Flexibility Score: inf
ROOT
ATOM      1  C   UNL     1     -11.091  38.945   7.406  1.00  0.00     0.039 A 
ATOM      2  C   UNL     1     -11.530  39.435   6.150  1.00  0.00     0.124 A 
ATOM      3  C   UNL     1     -11.659  39.475   8.579  1.00  0.00     0.014 A 
ATOM      4  C   UNL     1     -12.559  40.384   6.098  1.00  0.00     0.047 A 
ATOM      5  C   UNL     1     -12.669  40.438   8.510  1.00  0.00     0.001 A 
ATOM      6  C   UNL     1     -13.125  40.884   7.271  1.00  0.00     0.004 A 
ENDROOT
BRANCH   1   7
ATOM      7  C   UNL     1     -10.083  37.868   7.530  1.00  0.00     0.075 C 
ATOM      8  O   UNL     1     -10.188  37.007   8.443  1.00  0.00    -0.545 OA
ATOM      9  O   UNL     1      -9.051  37.750   6.607  1.00  0.00    -0.545 OA
ENDBRANCH   1   7
BRANCH   2  10
ATOM     10  O   UNL     1     -10.952  39.035   4.943  1.00  0.00    -0.507 OA
ATOM     11  H   UNL     1     -10.017  39.294   4.661  1.00  0.00     0.293 HD
ENDBRANCH   2  10
TORSDOF 2
ENDMDL
MODEL 5
REMARK VINA RESULT:    -4.706      2.374      4.051
REMARK INTER + INTRA:          -5.285
REMARK INTER:                  -5.033
REMARK INTRA:                  -0.252
REMARK UNBOUND:                -0.166
REMARK SMILES O=C([O-])c1ccccc1O
REMARK SMILES IDX 4 1 9 2 5 3 8 4 6 5 7 6 2 7 1 8 3 9 10 10
REMARK H PARENT 10 11
REMARK Flexibility Score: inf
ROOT
ATOM      1  C   UNL     1     -10.952  38.386   7.170  1.00  0.00     0.039 A 
ATOM      2  C   UNL     1     -10.421  38.423   5.856  1.00  0.00     0.124 A 
ATOM      3  C   UNL     1     -10.562  37.345   8.033  1.00  0.00     0.014 A 
ATOM      4  C   UNL     1      -9.475  37.468   5.464  1.00  0.00     0.047 A 
ATOM      5  C   UNL     1      -9.634  36.386   7.618  1.00  0.00     0.001 A 
ATOM      6  C   UNL     1      -9.084  36.453   6.339  1.00  0.00     0.004 A 
ENDROOT
BRANCH   1   7
ATOM      7  C   UNL     1     -11.875  39.423   7.683  1.00  0.00     0.075 C 
ATOM      8  O   UNL     1     -11.727  39.879   8.848  1.00  0.00    -0.545 OA
ATOM      9  O   UNL     1     -12.868  39.957   6.872  1.00  0.00    -0.545 OA
ENDBRANCH   1   7
BRANCH   2  10
ATOM     10  O   UNL     1     -10.828  39.363   4.907  1.00  0.00    -0.507 OA
ATOM     11  H   UNL     1     -10.566  39.318   3.931  1.00  0.00     0.293 HD
ENDBRANCH   2  10
TORSDOF 2
ENDMDL
MODEL 6
REMARK VINA RESULT:    -4.640      1.588      2.137
REMARK INTER + INTRA:          -5.212
REMARK INTER:                  -4.974
REMARK INTRA:                  -0.239
REMARK UNBOUND:                -0.166
REMARK SMILES O=C([O-])c1ccccc1O
REMARK SMILES IDX 4 1 9 2 5 3 8 4 6 5 7 6 2 7 1 8 3 9 10 10
REMARK H PARENT 10 11
REMARK Flexibility Score: inf
ROOT
ATOM      1  C   UNL     1      -9.707  36.570   6.540  1.00  0.00     0.039 A 
ATOM      2  C   UNL     1     -10.001  37.199   7.776  1.00  0.00     0.124 A 
ATOM      3  C   UNL     1     -10.029  37.237   5.344  1.00  0.00     0.014 A 
ATOM      4  C   UNL     1     -10.543  38.490   7.785  1.00  0.00     0.047 A 
ATOM      5  C   UNL     1     -10.592  38.516   5.370  1.00  0.00     0.001 A 
ATOM      6  C   UNL     1     -10.839  39.146   6.589  1.00  0.00     0.004 A 
ENDROOT
BRANCH   1   7
ATOM      7  C   UNL     1      -9.038  35.252   6.459  1.00  0.00     0.075 C 
ATOM      8  O   UNL     1      -9.540  34.253   7.038  1.00  0.00    -0.545 OA
ATOM      9  O   UNL     1      -7.892  35.082   5.692  1.00  0.00    -0.545 OA
ENDBRANCH   1   7
BRANCH   2  10
ATOM     10  O   UNL     1      -9.803  36.568   9.007  1.00  0.00    -0.507 OA
ATOM     11  H   UNL     1      -9.255  35.726   9.119  1.00  0.00     0.293 HD
ENDBRANCH   2  10
TORSDOF 2
ENDMDL
MODEL 7
REMARK VINA RESULT:    -4.635      1.199      2.182
REMARK INTER + INTRA:          -5.208
REMARK INTER:                  -4.978
REMARK INTRA:                  -0.230
REMARK UNBOUND:                -0.166
REMARK SMILES O=C([O-])c1ccccc1O
REMARK SMILES IDX 4 1 9 2 5 3 8 4 6 5 7 6 2 7 1 8 3 9 10 10
REMARK H PARENT 10 11
REMARK Flexibility Score: inf
ROOT
ATOM      1  C   UNL     1      -9.812  37.855   6.925  1.00  0.00     0.039 A 
ATOM      2  C   UNL     1     -10.707  38.844   6.444  1.00  0.00     0.124 A 
ATOM      3  C   UNL     1     -10.114  37.192   8.130  1.00  0.00     0.014 A 
ATOM      4  C   UNL     1     -11.897  39.098   7.137  1.00  0.00     0.047 A 
ATOM      5  C   UNL     1     -11.295  37.474   8.821  1.00  0.00     0.001 A 
ATOM      6  C   UNL     1     -12.190  38.418   8.320  1.00  0.00     0.004 A 
ENDROOT
BRANCH   1   7
ATOM      7  C   UNL     1      -8.590  37.464   6.188  1.00  0.00     0.075 C 
ATOM      8  O   UNL     1      -7.701  38.321   5.939  1.00  0.00    -0.545 OA
ATOM      9  O   UNL     1      -8.372  36.141   5.822  1.00  0.00    -0.545 OA
ENDBRANCH   1   7
BRANCH   2  10
ATOM     10  O   UNL     1     -10.436  39.616   5.311  1.00  0.00    -0.507 OA
ATOM     11  H   UNL     1     -11.107  40.248   4.896  1.00  0.00     0.293 HD
ENDBRANCH   2  10
TORSDOF 2
ENDMDL
MODEL 8
REMARK VINA RESULT:    -4.627      2.260      3.605
REMARK INTER + INTRA:          -5.198
REMARK INTER:                  -4.965
REMARK INTRA:                  -0.234
REMARK UNBOUND:                -0.166
REMARK SMILES O=C([O-])c1ccccc1O
REMARK SMILES IDX 4 1 9 2 5 3 8 4 6 5 7 6 2 7 1 8 3 9 10 10
REMARK H PARENT 10 11
REMARK Flexibility Score: inf
ROOT
ATOM      1  C   UNL     1     -10.466  38.261   6.570  1.00  0.00     0.039 A 
ATOM      2  C   UNL     1     -10.607  36.851   6.565  1.00  0.00     0.124 A 
ATOM      3  C   UNL     1      -9.219  38.822   6.235  1.00  0.00     0.014 A 
ATOM      4  C   UNL     1      -9.530  36.048   6.169  1.00  0.00     0.047 A 
ATOM      5  C   UNL     1      -8.148  38.005   5.864  1.00  0.00     0.001 A 
ATOM      6  C   UNL     1      -8.306  36.621   5.821  1.00  0.00     0.004 A 
ENDROOT
BRANCH   1   7
ATOM      7  C   UNL     1     -11.593  39.171   6.876  1.00  0.00     0.075 C 
ATOM      8  O   UNL     1     -11.974  40.014   6.022  1.00  0.00    -0.545 OA
ATOM      9  O   UNL     1     -12.287  39.065   8.075  1.00  0.00    -0.545 OA
ENDBRANCH   1   7
BRANCH   2  10
ATOM     10  O   UNL     1     -11.779  36.210   6.977  1.00  0.00    -0.507 OA
ATOM     11  H   UNL     1     -12.589  36.704   7.327  1.00  0.00     0.293 HD
ENDBRANCH   2  10
TORSDOF 2
ENDMDL
MODEL 9
REMARK VINA RESULT:    -4.616      1.898      4.072
REMARK INTER + INTRA:          -5.186
REMARK INTER:                  -4.948
REMARK INTRA:                  -0.238
REMARK UNBOUND:                -0.166
REMARK SMILES O=C([O-])c1ccccc1O
REMARK SMILES IDX 4 1 9 2 5 3 8 4 6 5 7 6 2 7 1 8 3 9 10 10
REMARK H PARENT 10 11
REMARK Flexibility Score: inf
ROOT
ATOM      1  C   UNL     1     -10.002  37.193   7.404  1.00  0.00     0.039 A 
ATOM      2  C   UNL     1      -9.118  37.855   6.515  1.00  0.00     0.124 A 
ATOM      3  C   UNL     1     -10.077  35.788   7.367  1.00  0.00     0.014 A 
ATOM      4  C   UNL     1      -8.295  37.103   5.667  1.00  0.00     0.047 A 
ATOM      5  C   UNL     1      -9.266  35.053   6.499  1.00  0.00     0.001 A 
ATOM      6  C   UNL     1      -8.369  35.709   5.658  1.00  0.00     0.004 A 
ENDROOT
BRANCH   1   7
ATOM      7  C   UNL     1     -10.822  37.921   8.397  1.00  0.00     0.075 C 
ATOM      8  O   UNL     1     -11.090  37.389   9.507  1.00  0.00    -0.545 OA
ATOM      9  O   UNL     1     -11.251  39.220   8.152  1.00  0.00    -0.545 OA
ENDBRANCH   1   7
BRANCH   2  10
ATOM     10  O   UNL     1      -9.052  39.247   6.418  1.00  0.00    -0.507 OA
ATOM     11  H   UNL     1      -9.012  39.859   7.222  1.00  0.00     0.293 HD
ENDBRANCH   2  10
TORSDOF 2
ENDMDL
