MODEL 1
REMARK VINA RESULT:    -4.567      0.000      0.000
REMARK INTER + INTRA:          -5.002
REMARK INTER:                  -4.833
REMARK INTRA:                  -0.169
REMARK UNBOUND:                -0.169
REMARK SMILES C=C1CC=C(C(C)C)CC1
REMARK SMILES IDX 5 1 4 2 3 3 2 4 1 5 10 6 9 7 6 8 7 9 8 10
REMARK H PARENT
REMARK Flexibility Score: inf
ROOT
ATOM      1  C   UNL     1      13.364  14.436  36.951  1.00  0.00    -0.071 C 
ATOM      2  C   UNL     1      14.041  13.271  36.858  1.00  0.00    -0.023 C 
ATOM      3  C   UNL     1      15.440  13.224  36.298  1.00  0.00     0.057 C 
ATOM      4  C   UNL     1      16.219  14.465  36.682  1.00  0.00    -0.073 C 
ATOM      5  C   UNL     1      17.556  14.420  36.768  1.00  0.00     0.008 C 
ATOM      6  C   UNL     1      15.493  15.770  36.937  1.00  0.00     0.035 C 
ATOM      7  C   UNL     1      14.033  15.704  36.464  1.00  0.00     0.035 C 
ENDROOT
BRANCH   1   8
ATOM      8  C   UNL     1      11.967  14.495  37.549  1.00  0.00     0.008 C 
ATOM      9  C   UNL     1      11.145  13.256  37.173  1.00  0.00     0.012 C 
ATOM     10  C   UNL     1      12.023  14.680  39.071  1.00  0.00     0.012 C 
ENDBRANCH   1   8
TORSDOF 1
ENDMDL
MODEL 2
REMARK VINA RESULT:    -4.305     14.396     15.725
REMARK INTER + INTRA:          -4.725
REMARK INTER:                  -4.539
REMARK INTRA:                  -0.186
REMARK UNBOUND:                -0.169
REMARK SMILES C=C1CC=C(C(C)C)CC1
REMARK SMILES IDX 5 1 4 2 3 3 2 4 1 5 10 6 9 7 6 8 7 9 8 10
REMARK H PARENT
REMARK Flexibility Score: inf
ROOT
ATOM      1  C   UNL     1       9.416  19.631  23.972  1.00  0.00    -0.071 C 
ATOM      2  C   UNL     1       8.322  19.566  24.763  1.00  0.00    -0.023 C 
ATOM      3  C   UNL     1       6.935  19.529  24.174  1.00  0.00     0.057 C 
ATOM      4  C   UNL     1       6.917  18.743  22.879  1.00  0.00    -0.073 C 
ATOM      5  C   UNL     1       5.791  18.141  22.473  1.00  0.00     0.008 C 
ATOM      6  C   UNL     1       8.164  18.665  22.021  1.00  0.00     0.035 C 
ATOM      7  C   UNL     1       9.223  19.681  22.471  1.00  0.00     0.035 C 
ENDROOT
BRANCH   1   8
ATOM      8  C   UNL     1      10.819  19.631  24.559  1.00  0.00     0.008 C 
ATOM      9  C   UNL     1      10.845  18.977  25.946  1.00  0.00     0.012 C 
ATOM     10  C   UNL     1      11.817  18.954  23.611  1.00  0.00     0.012 C 
ENDBRANCH   1   8
TORSDOF 1
ENDMDL
MODEL 3
REMARK VINA RESULT:    -4.289     13.320     14.358
REMARK INTER + INTRA:          -4.708
REMARK INTER:                  -4.568
REMARK INTRA:                  -0.140
REMARK UNBOUND:                -0.169
REMARK SMILES C=C1CC=C(C(C)C)CC1
REMARK SMILES IDX 5 1 4 2 3 3 2 4 1 5 10 6 9 7 6 8 7 9 8 10
REMARK H PARENT
REMARK Flexibility Score: inf
ROOT
ATOM      1  C   UNL     1       7.974  19.375  24.660  1.00  0.00    -0.071 C 
ATOM      2  C   UNL     1       9.273  19.576  24.345  1.00  0.00    -0.023 C 
ATOM      3  C   UNL     1      10.290  19.907  25.406  1.00  0.00     0.057 C 
ATOM      4  C   UNL     1       9.982  19.180  26.698  1.00  0.00    -0.073 C 
ATOM      5  C   UNL     1      10.967  18.895  27.561  1.00  0.00     0.008 C 
ATOM      6  C   UNL     1       8.554  18.804  27.036  1.00  0.00     0.035 C 
ATOM      7  C   UNL     1       7.552  19.505  26.108  1.00  0.00     0.035 C 
ENDROOT
BRANCH   1   8
ATOM      8  C   UNL     1       6.949  19.004  23.599  1.00  0.00     0.008 C 
ATOM      9  C   UNL     1       6.255  20.249  23.032  1.00  0.00     0.012 C 
ATOM     10  C   UNL     1       7.587  18.170  22.480  1.00  0.00     0.012 C 
ENDBRANCH   1   8
TORSDOF 1
ENDMDL
MODEL 4
REMARK VINA RESULT:    -4.232      1.403      2.157
REMARK INTER + INTRA:          -4.648
REMARK INTER:                  -4.502
REMARK INTRA:                  -0.146
REMARK UNBOUND:                -0.169
REMARK SMILES C=C1CC=C(C(C)C)CC1
REMARK SMILES IDX 5 1 4 2 3 3 2 4 1 5 10 6 9 7 6 8 7 9 8 10
REMARK H PARENT
REMARK Flexibility Score: inf
ROOT
ATOM      1  C   UNL     1      12.655  14.757  37.442  1.00  0.00    -0.071 C 
ATOM      2  C   UNL     1      13.864  14.256  37.109  1.00  0.00    -0.023 C 
ATOM      3  C   UNL     1      14.997  15.160  36.697  1.00  0.00     0.057 C 
ATOM      4  C   UNL     1      14.963  16.461  37.473  1.00  0.00    -0.073 C 
ATOM      5  C   UNL     1      16.091  17.155  37.674  1.00  0.00     0.008 C 
ATOM      6  C   UNL     1      13.646  16.999  37.994  1.00  0.00     0.035 C 
ATOM      7  C   UNL     1      12.450  16.256  37.379  1.00  0.00     0.035 C 
ENDROOT
BRANCH   1   8
ATOM      8  C   UNL     1      11.519  13.853  37.894  1.00  0.00     0.008 C 
ATOM      9  C   UNL     1      10.317  14.669  38.387  1.00  0.00     0.012 C 
ATOM     10  C   UNL     1      11.108  12.881  36.781  1.00  0.00     0.012 C 
ENDBRANCH   1   8
TORSDOF 1
ENDMDL
MODEL 5
REMARK VINA RESULT:    -4.164     15.694     16.603
REMARK INTER + INTRA:          -4.576
REMARK INTER:                  -4.389
REMARK INTRA:                  -0.187
REMARK UNBOUND:                -0.169
REMARK SMILES C=C1CC=C(C(C)C)CC1
REMARK SMILES IDX 5 1 4 2 3 3 2 4 1 5 10 6 9 7 6 8 7 9 8 10
REMARK H PARENT
REMARK Flexibility Score: inf
ROOT
ATOM      1  C   UNL     1       6.231  19.207  23.256  1.00  0.00    -0.071 C 
ATOM      2  C   UNL     1       6.870  19.927  24.204  1.00  0.00    -0.023 C 
ATOM      3  C   UNL     1       8.295  19.623  24.587  1.00  0.00     0.057 C 
ATOM      4  C   UNL     1       9.096  19.176  23.382  1.00  0.00    -0.073 C 
ATOM      5  C   UNL     1      10.423  19.360  23.350  1.00  0.00     0.008 C 
ATOM      6  C   UNL     1       8.404  18.487  22.223  1.00  0.00     0.035 C 
ATOM      7  C   UNL     1       6.973  18.069  22.589  1.00  0.00     0.035 C 
ENDROOT
BRANCH   1   8
ATOM      8  C   UNL     1       4.805  19.534  22.839  1.00  0.00     0.008 C 
ATOM      9  C   UNL     1       4.425  20.969  23.223  1.00  0.00     0.012 C 
ATOM     10  C   UNL     1       4.597  19.291  21.338  1.00  0.00     0.012 C 
ENDBRANCH   1   8
TORSDOF 1
ENDMDL
MODEL 6
REMARK VINA RESULT:    -4.118     14.628     15.951
REMARK INTER + INTRA:          -4.528
REMARK INTER:                  -4.389
REMARK INTRA:                  -0.139
REMARK UNBOUND:                -0.169
REMARK SMILES C=C1CC=C(C(C)C)CC1
REMARK SMILES IDX 5 1 4 2 3 3 2 4 1 5 10 6 9 7 6 8 7 9 8 10
REMARK H PARENT
REMARK Flexibility Score: inf
ROOT
ATOM      1  C   UNL     1       9.008  19.236  23.865  1.00  0.00    -0.071 C 
ATOM      2  C   UNL     1       8.656  18.675  22.687  1.00  0.00    -0.023 C 
ATOM      3  C   UNL     1       7.225  18.298  22.399  1.00  0.00     0.057 C 
ATOM      4  C   UNL     1       6.267  19.293  23.020  1.00  0.00    -0.073 C 
ATOM      5  C   UNL     1       5.051  19.477  22.488  1.00  0.00     0.008 C 
ATOM      6  C   UNL     1       6.668  20.057  24.265  1.00  0.00     0.035 C 
ATOM      7  C   UNL     1       7.933  19.468  24.906  1.00  0.00     0.035 C 
ENDROOT
BRANCH   1   8
ATOM      8  C   UNL     1      10.443  19.653  24.147  1.00  0.00     0.008 C 
ATOM      9  C   UNL     1      10.795  19.475  25.629  1.00  0.00     0.012 C 
ATOM     10  C   UNL     1      11.427  18.891  23.251  1.00  0.00     0.012 C 
ENDBRANCH   1   8
TORSDOF 1
ENDMDL
MODEL 7
REMARK VINA RESULT:    -4.110     14.372     15.664
REMARK INTER + INTRA:          -4.519
REMARK INTER:                  -4.337
REMARK INTRA:                  -0.182
REMARK UNBOUND:                -0.169
REMARK SMILES C=C1CC=C(C(C)C)CC1
REMARK SMILES IDX 5 1 4 2 3 3 2 4 1 5 10 6 9 7 6 8 7 9 8 10
REMARK H PARENT
REMARK Flexibility Score: inf
ROOT
ATOM      1  C   UNL     1       8.509  19.759  24.490  1.00  0.00    -0.071 C 
ATOM      2  C   UNL     1       7.254  20.200  24.725  1.00  0.00    -0.023 C 
ATOM      3  C   UNL     1       6.184  20.108  23.668  1.00  0.00     0.057 C 
ATOM      4  C   UNL     1       6.346  18.849  22.841  1.00  0.00    -0.073 C 
ATOM      5  C   UNL     1       5.283  18.297  22.241  1.00  0.00     0.008 C 
ATOM      6  C   UNL     1       7.717  18.230  22.662  1.00  0.00     0.035 C 
ATOM      7  C   UNL     1       8.830  19.179  23.129  1.00  0.00     0.035 C 
ENDROOT
BRANCH   1   8
ATOM      8  C   UNL     1       9.584  19.815  25.566  1.00  0.00     0.008 C 
ATOM      9  C   UNL     1       9.109  19.153  26.865  1.00  0.00     0.012 C 
ATOM     10  C   UNL     1      10.894  19.189  25.073  1.00  0.00     0.012 C 
ENDBRANCH   1   8
TORSDOF 1
ENDMDL
MODEL 8
REMARK VINA RESULT:    -4.100     13.053     14.264
REMARK INTER + INTRA:          -4.509
REMARK INTER:                  -4.349
REMARK INTRA:                  -0.159
REMARK UNBOUND:                -0.169
REMARK SMILES C=C1CC=C(C(C)C)CC1
REMARK SMILES IDX 5 1 4 2 3 3 2 4 1 5 10 6 9 7 6 8 7 9 8 10
REMARK H PARENT
REMARK Flexibility Score: inf
ROOT
ATOM      1  C   UNL     1       9.196  19.628  25.897  1.00  0.00    -0.071 C 
ATOM      2  C   UNL     1       7.902  19.308  25.684  1.00  0.00    -0.023 C 
ATOM      3  C   UNL     1       7.285  19.423  24.313  1.00  0.00     0.057 C 
ATOM      4  C   UNL     1       8.288  19.064  23.236  1.00  0.00    -0.073 C 
ATOM      5  C   UNL     1       7.866  18.590  22.055  1.00  0.00     0.008 C 
ATOM      6  C   UNL     1       9.769  19.271  23.478  1.00  0.00     0.035 C 
ATOM      7  C   UNL     1      10.022  20.125  24.729  1.00  0.00     0.035 C 
ENDROOT
BRANCH   1   8
ATOM      8  C   UNL     1       9.834  19.479  27.270  1.00  0.00     0.008 C 
ATOM      9  C   UNL     1      10.982  18.462  27.245  1.00  0.00     0.012 C 
ATOM     10  C   UNL     1      10.308  20.833  27.812  1.00  0.00     0.012 C 
ENDBRANCH   1   8
TORSDOF 1
ENDMDL
MODEL 9
REMARK VINA RESULT:    -3.916      1.174      4.632
REMARK INTER + INTRA:          -4.314
REMARK INTER:                  -4.131
REMARK INTRA:                  -0.183
REMARK UNBOUND:                -0.169
REMARK SMILES C=C1CC=C(C(C)C)CC1
REMARK SMILES IDX 5 1 4 2 3 3 2 4 1 5 10 6 9 7 6 8 7 9 8 10
REMARK H PARENT
REMARK Flexibility Score: inf
ROOT
ATOM      1  C   UNL     1      14.141  15.810  37.034  1.00  0.00    -0.071 C 
ATOM      2  C   UNL     1      13.354  16.790  37.530  1.00  0.00    -0.023 C 
ATOM      3  C   UNL     1      11.909  16.531  37.873  1.00  0.00     0.057 C 
ATOM      4  C   UNL     1      11.725  15.132  38.423  1.00  0.00    -0.073 C 
ATOM      5  C   UNL     1      10.708  14.864  39.254  1.00  0.00     0.008 C 
ATOM      6  C   UNL     1      12.670  14.023  38.009  1.00  0.00     0.035 C 
ATOM      7  C   UNL     1      13.539  14.439  36.813  1.00  0.00     0.035 C 
ENDROOT
BRANCH   1   8
ATOM      8  C   UNL     1      15.610  16.056  36.721  1.00  0.00     0.008 C 
ATOM      9  C   UNL     1      16.299  16.834  37.849  1.00  0.00     0.012 C 
ATOM     10  C   UNL     1      16.342  14.739  36.432  1.00  0.00     0.012 C 
ENDBRANCH   1   8
TORSDOF 1
ENDMDL
