MODEL 1
REMARK VINA RESULT:    -8.132      0.000      0.000
REMARK INTER + INTRA:         -12.415
REMARK INTER:                 -11.222
REMARK INTRA:                  -1.193
REMARK UNBOUND:                -1.193
REMARK SMILES O=C([O-])[C@H]1O[C@@H](Oc2cc3oc(-c4ccccc4)cc(=O)c3c(O)c2O)[C@H](O)[C@H](O)[C@@H]1O
REMARK SMILES IDX 7 1 6 2 4 3 31 4 5 5 29 6 27 7 2 8 1 9 3 10 32 11 30 13
REMARK SMILES IDX 28 15 8 17 25 18 9 19 23 20 10 21 22 22 11 23 20 24 12 25
REMARK SMILES IDX 19 26 21 27 26 28 24 30 13 32 14 33 18 34 15 35 17 36 16 37
REMARK H PARENT 32 12 30 14 28 16 26 29 24 31
REMARK Flexibility Score: inf
ROOT
ATOM      1  O   UNL     1      -2.881  -4.584  -4.608  1.00  0.00    -0.458 OA
ENDROOT
BRANCH   1   2
ATOM      2  C   UNL     1      -3.215  -3.287  -4.096  1.00  0.00     0.339 C 
ATOM      3  C   UNL     1      -5.235  -3.153  -5.354  1.00  0.00     0.199 C 
ATOM      4  C   UNL     1      -4.658  -2.080  -6.324  1.00  0.00     0.180 C 
ATOM      5  O   UNL     1      -4.626  -3.108  -4.067  1.00  0.00    -0.328 OA
ATOM      6  C   UNL     1      -3.111  -2.086  -6.332  1.00  0.00     0.181 C 
ATOM      7  C   UNL     1      -2.512  -2.183  -4.908  1.00  0.00     0.214 C 
BRANCH   3   8
ATOM      8  C   UNL     1      -5.278  -4.557  -5.911  1.00  0.00     0.073 C 
ATOM      9  O   UNL     1      -5.876  -5.460  -5.267  1.00  0.00    -0.547 OA
ATOM     10  O   UNL     1      -4.679  -4.874  -7.125  1.00  0.00    -0.547 OA
ENDBRANCH   3   8
BRANCH   4  11
ATOM     11  O   UNL     1      -5.152  -0.788  -6.042  1.00  0.00    -0.387 OA
ATOM     12  H   UNL     1      -4.754  -0.464  -5.192  1.00  0.00     0.211 HD
ENDBRANCH   4  11
BRANCH   6  13
ATOM     13  O   UNL     1      -2.602  -0.953  -6.990  1.00  0.00    -0.387 OA
ATOM     14  H   UNL     1      -1.890  -1.272  -7.603  1.00  0.00     0.211 HD
ENDBRANCH   6  13
BRANCH   7  15
ATOM     15  O   UNL     1      -2.520  -0.967  -4.191  1.00  0.00    -0.384 OA
ATOM     16  H   UNL     1      -3.130  -0.328  -4.631  1.00  0.00     0.211 HD
ENDBRANCH   7  15
ENDBRANCH   1   2
BRANCH   1  17
ATOM     17  C   UNL     1      -1.633  -5.222  -4.528  1.00  0.00     0.172 A 
ATOM     18  C   UNL     1      -0.963  -5.507  -5.729  1.00  0.00     0.201 A 
ATOM     19  C   UNL     1      -1.056  -5.591  -3.302  1.00  0.00     0.098 A 
ATOM     20  C   UNL     1       0.293  -6.166  -5.707  1.00  0.00     0.176 A 
ATOM     21  C   UNL     1       0.166  -6.259  -3.265  1.00  0.00     0.146 A 
ATOM     22  C   UNL     1       0.860  -6.545  -4.464  1.00  0.00     0.111 A 
ATOM     23  O   UNL     1       0.659  -6.636  -2.088  1.00  0.00    -0.456 OA
ATOM     24  C   UNL     1       2.100  -7.209  -4.353  1.00  0.00     0.197 A 
ATOM     25  C   UNL     1       1.810  -7.288  -1.951  1.00  0.00     0.138 A 
ATOM     26  C   UNL     1       2.578  -7.573  -3.093  1.00  0.00     0.100 A 
ATOM     27  O   UNL     1       2.794  -7.484  -5.369  1.00  0.00    -0.289 OA
BRANCH  18  28
ATOM     28  O   UNL     1      -1.581  -5.111  -6.918  1.00  0.00    -0.502 OA
ATOM     29  H   UNL     1      -2.526  -4.755  -6.982  1.00  0.00     0.293 HD
ENDBRANCH  18  28
BRANCH  20  30
ATOM     30  O   UNL     1       0.982  -6.460  -6.889  1.00  0.00    -0.504 OA
ATOM     31  H   UNL     1       0.605  -6.988  -7.661  1.00  0.00     0.293 HD
ENDBRANCH  20  30
BRANCH  25  32
ATOM     32  C   UNL     1       2.244  -7.697  -0.588  1.00  0.00     0.017 A 
ATOM     33  C   UNL     1       3.442  -7.217  -0.019  1.00  0.00     0.012 A 
ATOM     34  C   UNL     1       1.473  -8.628   0.138  1.00  0.00     0.012 A 
ATOM     35  C   UNL     1       3.842  -7.642   1.252  1.00  0.00     0.001 A 
ATOM     36  C   UNL     1       1.879  -9.050   1.408  1.00  0.00     0.001 A 
ATOM     37  C   UNL     1       3.059  -8.555   1.965  1.00  0.00     0.000 A 
ENDBRANCH  25  32
ENDBRANCH   1  17
TORSDOF 9
ENDMDL
MODEL 2
REMARK VINA RESULT:    -7.911      2.539      5.052
REMARK INTER + INTRA:         -12.111
REMARK INTER:                 -11.060
REMARK INTRA:                  -1.051
REMARK UNBOUND:                -1.193
REMARK SMILES O=C([O-])[C@H]1O[C@@H](Oc2cc3oc(-c4ccccc4)cc(=O)c3c(O)c2O)[C@H](O)[C@H](O)[C@@H]1O
REMARK SMILES IDX 7 1 6 2 4 3 31 4 5 5 29 6 27 7 2 8 1 9 3 10 32 11 30 13
REMARK SMILES IDX 28 15 8 17 25 18 9 19 23 20 10 21 22 22 11 23 20 24 12 25
REMARK SMILES IDX 19 26 21 27 26 28 24 30 13 32 14 33 18 34 15 35 17 36 16 37
REMARK H PARENT 32 12 30 14 28 16 26 29 24 31
REMARK Flexibility Score: inf
ROOT
ATOM      1  O   UNL     1      -5.359  -1.205  -5.403  1.00  0.00    -0.458 OA
ENDROOT
BRANCH   1   2
ATOM      2  C   UNL     1      -4.552  -0.131  -4.904  1.00  0.00     0.339 C 
ATOM      3  C   UNL     1      -6.408   1.000  -3.926  1.00  0.00     0.199 C 
ATOM      4  C   UNL     1      -6.386   2.135  -4.993  1.00  0.00     0.180 C 
ATOM      5  O   UNL     1      -5.124   0.419  -3.722  1.00  0.00    -0.328 OA
ATOM      6  C   UNL     1      -5.657   1.693  -6.284  1.00  0.00     0.181 C 
ATOM      7  C   UNL     1      -4.337   0.940  -5.989  1.00  0.00     0.214 C 
BRANCH   3   8
ATOM      8  C   UNL     1      -7.478  -0.047  -4.131  1.00  0.00     0.073 C 
ATOM      9  O   UNL     1      -7.715  -0.877  -3.214  1.00  0.00    -0.547 OA
ATOM     10  O   UNL     1      -8.213  -0.111  -5.310  1.00  0.00    -0.547 OA
ENDBRANCH   3   8
BRANCH   4  11
ATOM     11  O   UNL     1      -5.832   3.330  -4.488  1.00  0.00    -0.387 OA
ATOM     12  H   UNL     1      -6.299   4.105  -4.896  1.00  0.00     0.211 HD
ENDBRANCH   4  11
BRANCH   6  13
ATOM     13  O   UNL     1      -5.403   2.791  -7.125  1.00  0.00    -0.387 OA
ATOM     14  H   UNL     1      -6.151   2.832  -7.777  1.00  0.00     0.211 HD
ENDBRANCH   6  13
BRANCH   7  15
ATOM     15  O   UNL     1      -3.255   1.778  -5.644  1.00  0.00    -0.384 OA
ATOM     16  H   UNL     1      -3.544   2.424  -4.956  1.00  0.00     0.211 HD
ENDBRANCH   7  15
ENDBRANCH   1   2
BRANCH   1  17
ATOM     17  C   UNL     1      -5.032  -2.570  -5.404  1.00  0.00     0.172 A 
ATOM     18  C   UNL     1      -5.975  -3.470  -5.926  1.00  0.00     0.201 A 
ATOM     19  C   UNL     1      -3.818  -3.052  -4.889  1.00  0.00     0.098 A 
ATOM     20  C   UNL     1      -5.703  -4.863  -5.935  1.00  0.00     0.176 A 
ATOM     21  C   UNL     1      -3.546  -4.418  -4.871  1.00  0.00     0.146 A 
ATOM     22  C   UNL     1      -4.478  -5.338  -5.402  1.00  0.00     0.111 A 
ATOM     23  O   UNL     1      -2.405  -4.841  -4.331  1.00  0.00    -0.456 OA
ATOM     24  C   UNL     1      -4.133  -6.706  -5.366  1.00  0.00     0.197 A 
ATOM     25  C   UNL     1      -2.061  -6.123  -4.256  1.00  0.00     0.138 A 
ATOM     26  C   UNL     1      -2.918  -7.096  -4.798  1.00  0.00     0.100 A 
ATOM     27  O   UNL     1      -4.897  -7.591  -5.836  1.00  0.00    -0.289 OA
BRANCH  18  28
ATOM     28  O   UNL     1      -7.163  -2.935  -6.430  1.00  0.00    -0.502 OA
ATOM     29  H   UNL     1      -7.216  -2.123  -7.031  1.00  0.00     0.293 HD
ENDBRANCH  18  28
BRANCH  20  30
ATOM     30  O   UNL     1      -6.625  -5.781  -6.452  1.00  0.00    -0.504 OA
ATOM     31  H   UNL     1      -6.382  -6.617  -6.962  1.00  0.00     0.293 HD
ENDBRANCH  20  30
BRANCH  25  32
ATOM     32  C   UNL     1      -0.780  -6.484  -3.593  1.00  0.00     0.017 A 
ATOM     33  C   UNL     1       0.441  -6.494  -4.301  1.00  0.00     0.012 A 
ATOM     34  C   UNL     1      -0.782  -6.878  -2.240  1.00  0.00     0.012 A 
ATOM     35  C   UNL     1       1.627  -6.867  -3.661  1.00  0.00     0.001 A 
ATOM     36  C   UNL     1       0.408  -7.252  -1.606  1.00  0.00     0.001 A 
ATOM     37  C   UNL     1       1.610  -7.242  -2.315  1.00  0.00     0.000 A 
ENDBRANCH  25  32
ENDBRANCH   1  17
TORSDOF 9
ENDMDL
MODEL 3
REMARK VINA RESULT:    -7.311      2.523      8.832
REMARK INTER + INTRA:         -11.282
REMARK INTER:                 -10.143
REMARK INTRA:                  -1.139
REMARK UNBOUND:                -1.193
REMARK SMILES O=C([O-])[C@H]1O[C@@H](Oc2cc3oc(-c4ccccc4)cc(=O)c3c(O)c2O)[C@H](O)[C@H](O)[C@@H]1O
REMARK SMILES IDX 7 1 6 2 4 3 31 4 5 5 29 6 27 7 2 8 1 9 3 10 32 11 30 13
REMARK SMILES IDX 28 15 8 17 25 18 9 19 23 20 10 21 22 22 11 23 20 24 12 25
REMARK SMILES IDX 19 26 21 27 26 28 24 30 13 32 14 33 18 34 15 35 17 36 16 37
REMARK H PARENT 32 12 30 14 28 16 26 29 24 31
REMARK Flexibility Score: inf
ROOT
ATOM      1  O   UNL     1      -1.080  -5.598  -4.579  1.00  0.00    -0.458 OA
ENDROOT
BRANCH   1   2
ATOM      2  C   UNL     1      -0.387  -5.622  -3.325  1.00  0.00     0.339 C 
ATOM      3  C   UNL     1       1.390  -6.969  -4.167  1.00  0.00     0.199 C 
ATOM      4  C   UNL     1       0.924  -8.227  -3.375  1.00  0.00     0.180 C 
ATOM      5  O   UNL     1       1.016  -5.753  -3.529  1.00  0.00    -0.328 OA
ATOM      6  C   UNL     1      -0.566  -8.131  -2.972  1.00  0.00     0.181 C 
ATOM      7  C   UNL     1      -0.941  -6.736  -2.418  1.00  0.00     0.214 C 
BRANCH   3   8
ATOM      8  C   UNL     1       1.029  -6.972  -5.635  1.00  0.00     0.073 C 
ATOM      9  O   UNL     1       1.532  -6.104  -6.397  1.00  0.00    -0.547 OA
ATOM     10  O   UNL     1       0.158  -7.917  -6.166  1.00  0.00    -0.547 OA
ENDBRANCH   3   8
BRANCH   4  11
ATOM     11  O   UNL     1       1.734  -8.472  -2.246  1.00  0.00    -0.387 OA
ATOM     12  H   UNL     1       1.514  -7.813  -1.536  1.00  0.00     0.211 HD
ENDBRANCH   4  11
BRANCH   6  13
ATOM     13  O   UNL     1      -0.905  -9.125  -2.037  1.00  0.00    -0.387 OA
ATOM     14  H   UNL     1      -1.633  -8.754  -1.474  1.00  0.00     0.211 HD
ENDBRANCH   6  13
BRANCH   7  15
ATOM     15  O   UNL     1      -0.549  -6.519  -1.079  1.00  0.00    -0.384 OA
ATOM     16  H   UNL     1      -1.215  -6.919  -0.470  1.00  0.00     0.211 HD
ENDBRANCH   7  15
ENDBRANCH   1   2
BRANCH   1  17
ATOM     17  C   UNL     1      -2.404  -5.188  -4.799  1.00  0.00     0.172 A 
ATOM     18  C   UNL     1      -3.329  -6.156  -5.222  1.00  0.00     0.201 A 
ATOM     19  C   UNL     1      -2.816  -3.856  -4.628  1.00  0.00     0.098 A 
ATOM     20  C   UNL     1      -4.677  -5.793  -5.475  1.00  0.00     0.176 A 
ATOM     21  C   UNL     1      -4.130  -3.480  -4.894  1.00  0.00     0.146 A 
ATOM     22  C   UNL     1      -5.079  -4.442  -5.310  1.00  0.00     0.111 A 
ATOM     23  O   UNL     1      -4.472  -2.200  -4.767  1.00  0.00    -0.456 OA
ATOM     24  C   UNL     1      -6.396  -3.996  -5.547  1.00  0.00     0.197 A 
ATOM     25  C   UNL     1      -5.697  -1.741  -5.010  1.00  0.00     0.138 A 
ATOM     26  C   UNL     1      -6.705  -2.644  -5.389  1.00  0.00     0.100 A 
ATOM     27  O   UNL     1      -7.308  -4.791  -5.902  1.00  0.00    -0.289 OA
BRANCH  18  28
ATOM     28  O   UNL     1      -2.866  -7.466  -5.370  1.00  0.00    -0.502 OA
ATOM     29  H   UNL     1      -3.418  -8.232  -5.730  1.00  0.00     0.293 HD
ENDBRANCH  18  28
BRANCH  20  30
ATOM     30  O   UNL     1      -5.620  -6.738  -5.895  1.00  0.00    -0.504 OA
ATOM     31  H   UNL     1      -5.548  -7.291  -6.736  1.00  0.00     0.293 HD
ENDBRANCH  20  30
BRANCH  25  32
ATOM     32  C   UNL     1      -5.955  -0.283  -4.875  1.00  0.00     0.017 A 
ATOM     33  C   UNL     1      -7.000   0.211  -4.066  1.00  0.00     0.012 A 
ATOM     34  C   UNL     1      -5.178   0.634  -5.612  1.00  0.00     0.012 A 
ATOM     35  C   UNL     1      -7.241   1.586  -3.981  1.00  0.00     0.001 A 
ATOM     36  C   UNL     1      -5.425   2.007  -5.524  1.00  0.00     0.001 A 
ATOM     37  C   UNL     1      -6.452   2.482  -4.707  1.00  0.00     0.000 A 
ENDBRANCH  25  32
ENDBRANCH   1  17
TORSDOF 9
ENDMDL
MODEL 4
REMARK VINA RESULT:    -6.775      1.924      3.131
REMARK INTER + INTRA:         -10.543
REMARK INTER:                 -10.639
REMARK INTRA:                   0.096
REMARK UNBOUND:                -1.193
REMARK SMILES O=C([O-])[C@H]1O[C@@H](Oc2cc3oc(-c4ccccc4)cc(=O)c3c(O)c2O)[C@H](O)[C@H](O)[C@@H]1O
REMARK SMILES IDX 7 1 6 2 4 3 31 4 5 5 29 6 27 7 2 8 1 9 3 10 32 11 30 13
REMARK SMILES IDX 28 15 8 17 25 18 9 19 23 20 10 21 22 22 11 23 20 24 12 25
REMARK SMILES IDX 19 26 21 27 26 28 24 30 13 32 14 33 18 34 15 35 17 36 16 37
REMARK H PARENT 32 12 30 14 28 16 26 29 24 31
REMARK Flexibility Score: inf
ROOT
ATOM      1  O   UNL     1      -3.794  -2.924  -4.585  1.00  0.00    -0.458 OA
ENDROOT
BRANCH   1   2
ATOM      2  C   UNL     1      -5.184  -2.609  -4.734  1.00  0.00     0.339 C 
ATOM      3  C   UNL     1      -4.798  -1.099  -6.537  1.00  0.00     0.199 C 
ATOM      4  C   UNL     1      -5.112   0.154  -5.666  1.00  0.00     0.180 C 
ATOM      5  O   UNL     1      -5.479  -2.264  -6.082  1.00  0.00    -0.328 OA
ATOM      6  C   UNL     1      -4.959  -0.145  -4.156  1.00  0.00     0.181 C 
ATOM      7  C   UNL     1      -5.598  -1.496  -3.753  1.00  0.00     0.214 C 
BRANCH   3   8
ATOM      8  C   UNL     1      -3.328  -1.359  -6.772  1.00  0.00     0.073 C 
ATOM      9  O   UNL     1      -2.504  -0.415  -6.637  1.00  0.00    -0.547 OA
ATOM     10  O   UNL     1      -2.861  -2.620  -7.125  1.00  0.00    -0.547 OA
ENDBRANCH   3   8
BRANCH   4  11
ATOM     11  O   UNL     1      -6.387   0.689  -5.944  1.00  0.00    -0.387 OA
ATOM     12  H   UNL     1      -6.410   1.006  -6.885  1.00  0.00     0.211 HD
ENDBRANCH   4  11
BRANCH   6  13
ATOM     13  O   UNL     1      -5.500   0.892  -3.375  1.00  0.00    -0.387 OA
ATOM     14  H   UNL     1      -6.486   0.777  -3.389  1.00  0.00     0.211 HD
ENDBRANCH   6  13
BRANCH   7  15
ATOM     15  O   UNL     1      -7.004  -1.457  -3.620  1.00  0.00    -0.384 OA
ATOM     16  H   UNL     1      -7.310  -2.248  -3.116  1.00  0.00     0.211 HD
ENDBRANCH   7  15
ENDBRANCH   1   2
BRANCH   1  17
ATOM     17  C   UNL     1      -3.229  -4.206  -4.499  1.00  0.00     0.172 A 
ATOM     18  C   UNL     1      -3.814  -5.234  -5.254  1.00  0.00     0.201 A 
ATOM     19  C   UNL     1      -2.125  -4.485  -3.677  1.00  0.00     0.098 A 
ATOM     20  C   UNL     1      -3.293  -6.552  -5.191  1.00  0.00     0.176 A 
ATOM     21  C   UNL     1      -1.616  -5.779  -3.586  1.00  0.00     0.146 A 
ATOM     22  C   UNL     1      -2.185  -6.825  -4.348  1.00  0.00     0.111 A 
ATOM     23  O   UNL     1      -0.599  -6.015  -2.760  1.00  0.00    -0.456 OA
ATOM     24  C   UNL     1      -1.611  -8.107  -4.221  1.00  0.00     0.197 A 
ATOM     25  C   UNL     1      -0.053  -7.216  -2.596  1.00  0.00     0.138 A 
ATOM     26  C   UNL     1      -0.538  -8.299  -3.348  1.00  0.00     0.100 A 
ATOM     27  O   UNL     1      -2.044  -9.092  -4.879  1.00  0.00    -0.289 OA
BRANCH  18  28
ATOM     28  O   UNL     1      -4.906  -4.898  -6.059  1.00  0.00    -0.502 OA
ATOM     29  H   UNL     1      -4.863  -4.780  -7.063  1.00  0.00     0.293 HD
ENDBRANCH  18  28
BRANCH  20  30
ATOM     30  O   UNL     1      -3.856  -7.595  -5.936  1.00  0.00    -0.504 OA
ATOM     31  H   UNL     1      -4.252  -8.436  -5.543  1.00  0.00     0.293 HD
ENDBRANCH  20  30
BRANCH  25  32
ATOM     32  C   UNL     1       1.053  -7.372  -1.613  1.00  0.00     0.017 A 
ATOM     33  C   UNL     1       2.259  -6.651  -1.738  1.00  0.00     0.012 A 
ATOM     34  C   UNL     1       0.923  -8.300  -0.560  1.00  0.00     0.012 A 
ATOM     35  C   UNL     1       3.295  -6.839  -0.818  1.00  0.00     0.001 A 
ATOM     36  C   UNL     1       1.964  -8.485   0.356  1.00  0.00     0.001 A 
ATOM     37  C   UNL     1       3.146  -7.753   0.229  1.00  0.00     0.000 A 
ENDBRANCH  25  32
ENDBRANCH   1  17
TORSDOF 9
ENDMDL
MODEL 5
REMARK VINA RESULT:    -6.618      3.242      5.889
REMARK INTER + INTRA:         -10.326
REMARK INTER:                  -9.276
REMARK INTRA:                  -1.050
REMARK UNBOUND:                -1.193
REMARK SMILES O=C([O-])[C@H]1O[C@@H](Oc2cc3oc(-c4ccccc4)cc(=O)c3c(O)c2O)[C@H](O)[C@H](O)[C@@H]1O
REMARK SMILES IDX 7 1 6 2 4 3 31 4 5 5 29 6 27 7 2 8 1 9 3 10 32 11 30 13
REMARK SMILES IDX 28 15 8 17 25 18 9 19 23 20 10 21 22 22 11 23 20 24 12 25
REMARK SMILES IDX 19 26 21 27 26 28 24 30 13 32 14 33 18 34 15 35 17 36 16 37
REMARK H PARENT 32 12 30 14 28 16 26 29 24 31
REMARK Flexibility Score: inf
ROOT
ATOM      1  O   UNL     1      -6.913  -1.618  -5.247  1.00  0.00    -0.458 OA
ENDROOT
BRANCH   1   2
ATOM      2  C   UNL     1      -6.862  -0.783  -4.083  1.00  0.00     0.339 C 
ATOM      3  C   UNL     1      -8.728   0.533  -4.769  1.00  0.00     0.199 C 
ATOM      4  C   UNL     1      -7.841   1.772  -5.093  1.00  0.00     0.180 C 
ATOM      5  O   UNL     1      -8.160  -0.294  -3.759  1.00  0.00    -0.328 OA
ATOM      6  C   UNL     1      -6.364   1.375  -5.328  1.00  0.00     0.181 C 
ATOM      7  C   UNL     1      -5.850   0.361  -4.277  1.00  0.00     0.214 C 
BRANCH   3   8
ATOM      8  C   UNL     1      -9.170  -0.265  -5.973  1.00  0.00     0.073 C 
ATOM      9  O   UNL     1      -8.737   0.047  -7.115  1.00  0.00    -0.547 OA
ATOM     10  O   UNL     1     -10.038  -1.344  -5.849  1.00  0.00    -0.547 OA
ENDBRANCH   3   8
BRANCH   4  11
ATOM     11  O   UNL     1      -7.939   2.771  -4.101  1.00  0.00    -0.387 OA
ATOM     12  H   UNL     1      -8.061   2.340  -3.215  1.00  0.00     0.211 HD
ENDBRANCH   4  11
BRANCH   6  13
ATOM     13  O   UNL     1      -5.530   2.507  -5.349  1.00  0.00    -0.387 OA
ATOM     14  H   UNL     1      -4.617   2.195  -5.118  1.00  0.00     0.211 HD
ENDBRANCH   6  13
BRANCH   7  15
ATOM     15  O   UNL     1      -5.515   0.936  -3.032  1.00  0.00    -0.384 OA
ATOM     16  H   UNL     1      -5.117   0.248  -2.447  1.00  0.00     0.211 HD
ENDBRANCH   7  15
ENDBRANCH   1   2
BRANCH   1  17
ATOM     17  C   UNL     1      -6.382  -2.911  -5.377  1.00  0.00     0.172 A 
ATOM     18  C   UNL     1      -7.233  -3.927  -5.840  1.00  0.00     0.201 A 
ATOM     19  C   UNL     1      -5.051  -3.212  -5.043  1.00  0.00     0.098 A 
ATOM     20  C   UNL     1      -6.752  -5.255  -5.973  1.00  0.00     0.176 A 
ATOM     21  C   UNL     1      -4.571  -4.515  -5.148  1.00  0.00     0.146 A 
ATOM     22  C   UNL     1      -5.410  -5.550  -5.623  1.00  0.00     0.111 A 
ATOM     23  O   UNL     1      -3.318  -4.772  -4.778  1.00  0.00    -0.456 OA
ATOM     24  C   UNL     1      -4.855  -6.843  -5.719  1.00  0.00     0.197 A 
ATOM     25  C   UNL     1      -2.774  -5.984  -4.829  1.00  0.00     0.138 A 
ATOM     26  C   UNL     1      -3.532  -7.057  -5.328  1.00  0.00     0.100 A 
ATOM     27  O   UNL     1      -5.527  -7.818  -6.151  1.00  0.00    -0.289 OA
BRANCH  18  28
ATOM     28  O   UNL     1      -8.545  -3.568  -6.162  1.00  0.00    -0.502 OA
ATOM     29  H   UNL     1      -8.935  -3.601  -7.094  1.00  0.00     0.293 HD
ENDBRANCH  18  28
BRANCH  20  30
ATOM     30  O   UNL     1      -7.579  -6.286  -6.435  1.00  0.00    -0.504 OA
ATOM     31  H   UNL     1      -8.587  -6.250  -6.459  1.00  0.00     0.293 HD
ENDBRANCH  20  30
BRANCH  25  32
ATOM     32  C   UNL     1      -1.377  -6.162  -4.349  1.00  0.00     0.017 A 
ATOM     33  C   UNL     1      -0.981  -5.753  -3.058  1.00  0.00     0.012 A 
ATOM     34  C   UNL     1      -0.406  -6.703  -5.217  1.00  0.00     0.012 A 
ATOM     35  C   UNL     1       0.346  -5.904  -2.644  1.00  0.00     0.001 A 
ATOM     36  C   UNL     1       0.919  -6.850  -4.797  1.00  0.00     0.001 A 
ATOM     37  C   UNL     1       1.294  -6.454  -3.512  1.00  0.00     0.000 A 
ENDBRANCH  25  32
ENDBRANCH   1  17
TORSDOF 9
ENDMDL
MODEL 6
REMARK VINA RESULT:    -6.442      2.158      3.986
REMARK INTER + INTRA:         -10.083
REMARK INTER:                 -10.040
REMARK INTRA:                  -0.043
REMARK UNBOUND:                -1.193
REMARK SMILES O=C([O-])[C@H]1O[C@@H](Oc2cc3oc(-c4ccccc4)cc(=O)c3c(O)c2O)[C@H](O)[C@H](O)[C@@H]1O
REMARK SMILES IDX 7 1 6 2 4 3 31 4 5 5 29 6 27 7 2 8 1 9 3 10 32 11 30 13
REMARK SMILES IDX 28 15 8 17 25 18 9 19 23 20 10 21 22 22 11 23 20 24 12 25
REMARK SMILES IDX 19 26 21 27 26 28 24 30 13 32 14 33 18 34 15 35 17 36 16 37
REMARK H PARENT 32 12 30 14 28 16 26 29 24 31
REMARK Flexibility Score: inf
ROOT
ATOM      1  O   UNL     1      -4.558  -2.404  -4.632  1.00  0.00    -0.458 OA
ENDROOT
BRANCH   1   2
ATOM      2  C   UNL     1      -5.906  -1.999  -4.903  1.00  0.00     0.339 C 
ATOM      3  C   UNL     1      -5.236  -0.240  -6.366  1.00  0.00     0.199 C 
ATOM      4  C   UNL     1      -5.628   0.870  -5.346  1.00  0.00     0.180 C 
ATOM      5  O   UNL     1      -6.006  -1.427  -6.203  1.00  0.00    -0.328 OA
ATOM      6  C   UNL     1      -5.690   0.325  -3.900  1.00  0.00     0.181 C 
ATOM      7  C   UNL     1      -6.416  -1.039  -3.813  1.00  0.00     0.214 C 
BRANCH   3   8
ATOM      8  C   UNL     1      -3.756  -0.533  -6.449  1.00  0.00     0.073 C 
ATOM      9  O   UNL     1      -2.939   0.246  -5.889  1.00  0.00    -0.547 OA
ATOM     10  O   UNL     1      -3.274  -1.649  -7.125  1.00  0.00    -0.547 OA
ENDBRANCH   3   8
BRANCH   4  11
ATOM     11  O   UNL     1      -6.839   1.507  -5.694  1.00  0.00    -0.387 OA
ATOM     12  H   UNL     1      -6.872   1.631  -6.679  1.00  0.00     0.211 HD
ENDBRANCH   4  11
BRANCH   6  13
ATOM     13  O   UNL     1      -6.301   1.249  -3.034  1.00  0.00    -0.387 OA
ATOM     14  H   UNL     1      -5.753   1.273  -2.207  1.00  0.00     0.211 HD
ENDBRANCH   6  13
BRANCH   7  15
ATOM     15  O   UNL     1      -7.825  -0.951  -3.857  1.00  0.00    -0.384 OA
ATOM     16  H   UNL     1      -8.089  -0.102  -4.286  1.00  0.00     0.211 HD
ENDBRANCH   7  15
ENDBRANCH   1   2
BRANCH   1  17
ATOM     17  C   UNL     1      -4.043  -3.708  -4.704  1.00  0.00     0.172 A 
ATOM     18  C   UNL     1      -4.685  -4.622  -5.554  1.00  0.00     0.201 A 
ATOM     19  C   UNL     1      -2.933  -4.119  -3.947  1.00  0.00     0.098 A 
ATOM     20  C   UNL     1      -4.216  -5.957  -5.651  1.00  0.00     0.176 A 
ATOM     21  C   UNL     1      -2.475  -5.433  -4.014  1.00  0.00     0.146 A 
ATOM     22  C   UNL     1      -3.102  -6.364  -4.873  1.00  0.00     0.111 A 
ATOM     23  O   UNL     1      -1.451  -5.798  -3.247  1.00  0.00    -0.456 OA
ATOM     24  C   UNL     1      -2.578  -7.673  -4.905  1.00  0.00     0.197 A 
ATOM     25  C   UNL     1      -0.951  -7.030  -3.231  1.00  0.00     0.138 A 
ATOM     26  C   UNL     1      -1.495  -8.002  -4.087  1.00  0.00     0.100 A 
ATOM     27  O   UNL     1      -3.064  -8.561  -5.657  1.00  0.00    -0.289 OA
BRANCH  18  28
ATOM     28  O   UNL     1      -5.780  -4.157  -6.287  1.00  0.00    -0.502 OA
ATOM     29  H   UNL     1      -6.230  -4.670  -7.033  1.00  0.00     0.293 HD
ENDBRANCH  18  28
BRANCH  20  30
ATOM     30  O   UNL     1      -4.837  -6.888  -6.493  1.00  0.00    -0.504 OA
ATOM     31  H   UNL     1      -4.367  -7.655  -6.951  1.00  0.00     0.293 HD
ENDBRANCH  20  30
BRANCH  25  32
ATOM     32  C   UNL     1       0.169  -7.337  -2.301  1.00  0.00     0.017 A 
ATOM     33  C   UNL     1       0.058  -8.342  -1.317  1.00  0.00     0.012 A 
ATOM     34  C   UNL     1       1.353  -6.574  -2.361  1.00  0.00     0.012 A 
ATOM     35  C   UNL     1       1.115  -8.589  -0.436  1.00  0.00     0.001 A 
ATOM     36  C   UNL     1       2.406  -6.825  -1.475  1.00  0.00     0.001 A 
ATOM     37  C   UNL     1       2.288  -7.833  -0.517  1.00  0.00     0.000 A 
ENDBRANCH  25  32
ENDBRANCH   1  17
TORSDOF 9
ENDMDL
MODEL 7
REMARK VINA RESULT:    -6.414      1.194      2.707
REMARK INTER + INTRA:         -10.045
REMARK INTER:                  -9.885
REMARK INTRA:                  -0.160
REMARK UNBOUND:                -1.193
REMARK SMILES O=C([O-])[C@H]1O[C@@H](Oc2cc3oc(-c4ccccc4)cc(=O)c3c(O)c2O)[C@H](O)[C@H](O)[C@@H]1O
REMARK SMILES IDX 7 1 6 2 4 3 31 4 5 5 29 6 27 7 2 8 1 9 3 10 32 11 30 13
REMARK SMILES IDX 28 15 8 17 25 18 9 19 23 20 10 21 22 22 11 23 20 24 12 25
REMARK SMILES IDX 19 26 21 27 26 28 24 30 13 32 14 33 18 34 15 35 17 36 16 37
REMARK H PARENT 32 12 30 14 28 16 26 29 24 31
REMARK Flexibility Score: inf
ROOT
ATOM      1  O   UNL     1      -1.977  -5.134  -4.991  1.00  0.00    -0.458 OA
ENDROOT
BRANCH   1   2
ATOM      2  C   UNL     1      -2.770  -5.317  -6.171  1.00  0.00     0.339 C 
ATOM      3  C   UNL     1      -3.939  -3.260  -5.879  1.00  0.00     0.199 C 
ATOM      4  C   UNL     1      -5.263  -3.973  -5.473  1.00  0.00     0.180 C 
ATOM      5  O   UNL     1      -3.129  -4.060  -6.734  1.00  0.00    -0.328 OA
ATOM      6  C   UNL     1      -5.008  -5.415  -4.973  1.00  0.00     0.181 C 
ATOM      7  C   UNL     1      -4.007  -6.184  -5.868  1.00  0.00     0.214 C 
BRANCH   3   8
ATOM      8  C   UNL     1      -3.148  -2.684  -4.726  1.00  0.00     0.073 C 
ATOM      9  O   UNL     1      -2.176  -1.920  -4.965  1.00  0.00    -0.547 OA
ATOM     10  O   UNL     1      -3.476  -2.972  -3.406  1.00  0.00    -0.547 OA
ENDBRANCH   3   8
BRANCH   4  11
ATOM     11  O   UNL     1      -6.212  -3.966  -6.518  1.00  0.00    -0.387 OA
ATOM     12  H   UNL     1      -7.059  -3.567  -6.187  1.00  0.00     0.211 HD
ENDBRANCH   4  11
BRANCH   6  13
ATOM     13  O   UNL     1      -6.210  -6.137  -4.870  1.00  0.00    -0.387 OA
ATOM     14  H   UNL     1      -6.850  -5.560  -4.378  1.00  0.00     0.211 HD
ENDBRANCH   6  13
BRANCH   7  15
ATOM     15  O   UNL     1      -4.563  -6.680  -7.067  1.00  0.00    -0.384 OA
ATOM     16  H   UNL     1      -5.449  -7.074  -6.882  1.00  0.00     0.211 HD
ENDBRANCH   7  15
ENDBRANCH   1   2
BRANCH   1  17
ATOM     17  C   UNL     1      -0.729  -5.717  -4.720  1.00  0.00     0.172 A 
ATOM     18  C   UNL     1       0.115  -5.997  -5.807  1.00  0.00     0.201 A 
ATOM     19  C   UNL     1      -0.318  -6.038  -3.416  1.00  0.00     0.098 A 
ATOM     20  C   UNL     1       1.380  -6.600  -5.591  1.00  0.00     0.176 A 
ATOM     21  C   UNL     1       0.912  -6.652  -3.191  1.00  0.00     0.146 A 
ATOM     22  C   UNL     1       1.780  -6.931  -4.271  1.00  0.00     0.111 A 
ATOM     23  O   UNL     1       1.247  -6.985  -1.946  1.00  0.00    -0.456 OA
ATOM     24  C   UNL     1       3.016  -7.539  -3.970  1.00  0.00     0.197 A 
ATOM     25  C   UNL     1       2.392  -7.584  -1.632  1.00  0.00     0.138 A 
ATOM     26  C   UNL     1       3.324  -7.859  -2.646  1.00  0.00     0.100 A 
ATOM     27  O   UNL     1       3.858  -7.804  -4.871  1.00  0.00    -0.289 OA
BRANCH  18  28
ATOM     28  O   UNL     1      -0.343  -5.650  -7.081  1.00  0.00    -0.502 OA
ATOM     29  H   UNL     1      -1.272  -5.848  -7.429  1.00  0.00     0.293 HD
ENDBRANCH  18  28
BRANCH  20  30
ATOM     30  O   UNL     1       2.242  -6.887  -6.657  1.00  0.00    -0.504 OA
ATOM     31  H   UNL     1       3.103  -6.399  -6.850  1.00  0.00     0.293 HD
ENDBRANCH  20  30
BRANCH  25  32
ATOM     32  C   UNL     1       2.643  -7.949  -0.212  1.00  0.00     0.017 A 
ATOM     33  C   UNL     1       3.826  -7.562   0.452  1.00  0.00     0.012 A 
ATOM     34  C   UNL     1       1.707  -8.745   0.480  1.00  0.00     0.012 A 
ATOM     35  C   UNL     1       4.052  -7.944   1.778  1.00  0.00     0.001 A 
ATOM     36  C   UNL     1       1.939  -9.125   1.805  1.00  0.00     0.001 A 
ATOM     37  C   UNL     1       3.107  -8.722   2.454  1.00  0.00     0.000 A 
ENDBRANCH  25  32
ENDBRANCH   1  17
TORSDOF 9
ENDMDL
MODEL 8
REMARK VINA RESULT:    -6.036      3.328      6.706
REMARK INTER + INTRA:          -9.523
REMARK INTER:                  -9.081
REMARK INTRA:                  -0.442
REMARK UNBOUND:                -1.193
REMARK SMILES O=C([O-])[C@H]1O[C@@H](Oc2cc3oc(-c4ccccc4)cc(=O)c3c(O)c2O)[C@H](O)[C@H](O)[C@@H]1O
REMARK SMILES IDX 7 1 6 2 4 3 31 4 5 5 29 6 27 7 2 8 1 9 3 10 32 11 30 13
REMARK SMILES IDX 28 15 8 17 25 18 9 19 23 20 10 21 22 22 11 23 20 24 12 25
REMARK SMILES IDX 19 26 21 27 26 28 24 30 13 32 14 33 18 34 15 35 17 36 16 37
REMARK H PARENT 32 12 30 14 28 16 26 29 24 31
REMARK Flexibility Score: inf
ROOT
ATOM      1  O   UNL     1      -7.097  -0.728  -5.224  1.00  0.00    -0.458 OA
ENDROOT
BRANCH   1   2
ATOM      2  C   UNL     1      -7.614   0.097  -6.277  1.00  0.00     0.339 C 
ATOM      3  C   UNL     1      -5.994   1.809  -5.927  1.00  0.00     0.199 C 
ATOM      4  C   UNL     1      -7.038   2.789  -5.313  1.00  0.00     0.180 C 
ATOM      5  O   UNL     1      -6.580   0.892  -6.845  1.00  0.00    -0.328 OA
ATOM      6  C   UNL     1      -8.284   2.040  -4.784  1.00  0.00     0.181 C 
ATOM      7  C   UNL     1      -8.786   0.957  -5.769  1.00  0.00     0.214 C 
BRANCH   3   8
ATOM      8  C   UNL     1      -5.106   1.113  -4.920  1.00  0.00     0.073 C 
ATOM      9  O   UNL     1      -4.020   0.602  -5.303  1.00  0.00    -0.547 OA
ATOM     10  O   UNL     1      -5.458   1.032  -3.577  1.00  0.00    -0.547 OA
ENDBRANCH   3   8
BRANCH   4  11
ATOM     11  O   UNL     1      -7.411   3.804  -6.220  1.00  0.00    -0.387 OA
ATOM     12  H   UNL     1      -8.357   3.671  -6.488  1.00  0.00     0.211 HD
ENDBRANCH   4  11
BRANCH   6  13
ATOM     13  O   UNL     1      -9.326   2.936  -4.486  1.00  0.00    -0.387 OA
ATOM     14  H   UNL     1      -9.563   2.794  -3.533  1.00  0.00     0.211 HD
ENDBRANCH   6  13
BRANCH   7  15
ATOM     15  O   UNL     1      -9.531   1.462  -6.857  1.00  0.00    -0.384 OA
ATOM     16  H   UNL     1      -9.001   2.148  -7.330  1.00  0.00     0.211 HD
ENDBRANCH   7  15
ENDBRANCH   1   2
BRANCH   1  17
ATOM     17  C   UNL     1      -6.684  -2.065  -5.332  1.00  0.00     0.172 A 
ATOM     18  C   UNL     1      -7.640  -3.020  -5.713  1.00  0.00     0.201 A 
ATOM     19  C   UNL     1      -5.367  -2.468  -5.055  1.00  0.00     0.098 A 
ATOM     20  C   UNL     1      -7.280  -4.387  -5.821  1.00  0.00     0.176 A 
ATOM     21  C   UNL     1      -5.004  -3.810  -5.134  1.00  0.00     0.146 A 
ATOM     22  C   UNL     1      -5.950  -4.784  -5.528  1.00  0.00     0.111 A 
ATOM     23  O   UNL     1      -3.759  -4.160  -4.819  1.00  0.00    -0.456 OA
ATOM     24  C   UNL     1      -5.511  -6.123  -5.603  1.00  0.00     0.197 A 
ATOM     25  C   UNL     1      -3.321  -5.416  -4.851  1.00  0.00     0.138 A 
ATOM     26  C   UNL     1      -4.192  -6.436  -5.271  1.00  0.00     0.100 A 
ATOM     27  O   UNL     1      -6.285  -7.051  -5.964  1.00  0.00    -0.289 OA
BRANCH  18  28
ATOM     28  O   UNL     1      -8.933  -2.561  -5.982  1.00  0.00    -0.502 OA
ATOM     29  H   UNL     1      -9.744  -3.157  -6.076  1.00  0.00     0.293 HD
ENDBRANCH  18  28
BRANCH  20  30
ATOM     30  O   UNL     1      -8.213  -5.359  -6.201  1.00  0.00    -0.504 OA
ATOM     31  H   UNL     1      -8.382  -5.656  -7.151  1.00  0.00     0.293 HD
ENDBRANCH  20  30
BRANCH  25  32
ATOM     32  C   UNL     1      -1.921  -5.697  -4.437  1.00  0.00     0.017 A 
ATOM     33  C   UNL     1      -0.820  -5.236  -5.191  1.00  0.00     0.012 A 
ATOM     34  C   UNL     1      -1.677  -6.486  -3.295  1.00  0.00     0.012 A 
ATOM     35  C   UNL     1       0.486  -5.541  -4.795  1.00  0.00     0.001 A 
ATOM     36  C   UNL     1      -0.368  -6.789  -2.906  1.00  0.00     0.001 A 
ATOM     37  C   UNL     1       0.711  -6.314  -3.653  1.00  0.00     0.000 A 
ENDBRANCH  25  32
ENDBRANCH   1  17
TORSDOF 9
ENDMDL
