MODEL 1
REMARK VINA RESULT:    -4.214      0.000      0.000
REMARK INTER + INTRA:          -5.946
REMARK INTER:                  -5.323
REMARK INTRA:                  -0.623
REMARK UNBOUND:                -0.623
REMARK SMILES O=C(C=Cc1ccc(O)cc1)c1ccc(O)cc1O
REMARK SMILES IDX 4 1 3 2 5 3 6 4 7 5 8 6 11 7 10 8 9 9 2 11 1 12 12 13 18 14
REMARK SMILES IDX 13 15 17 16 14 17 15 18 19 19 16 21
REMARK H PARENT 9 10 19 20 16 22
REMARK Flexibility Score: inf
ROOT
ATOM      1  C   UNL     1       4.108  23.955   4.850  1.00  0.00     0.012 C 
ATOM      2  C   UNL     1       3.207  23.190   4.216  1.00  0.00     0.053 C 
ENDROOT
BRANCH   1   3
ATOM      3  C   UNL     1       4.901  23.495   6.015  1.00  0.00    -0.025 A 
ATOM      4  C   UNL     1       6.104  24.118   6.405  1.00  0.00     0.012 A 
ATOM      5  C   UNL     1       6.825  23.639   7.504  1.00  0.00     0.047 A 
ATOM      6  C   UNL     1       6.364  22.530   8.221  1.00  0.00     0.115 A 
ATOM      7  C   UNL     1       4.455  22.371   6.733  1.00  0.00     0.012 A 
ATOM      8  C   UNL     1       5.178  21.896   7.831  1.00  0.00     0.047 A 
BRANCH   6   9
ATOM      9  O   UNL     1       7.093  22.066   9.314  1.00  0.00    -0.508 OA
ATOM     10  H   UNL     1       7.366  21.094   9.393  1.00  0.00     0.293 HD
ENDBRANCH   6   9
ENDBRANCH   1   3
BRANCH   2  11
ATOM     11  C   UNL     1       2.448  23.659   3.038  1.00  0.00     0.189 C 
ATOM     12  O   UNL     1       3.065  24.317   2.157  1.00  0.00    -0.289 OA
BRANCH  11  13
ATOM     13  C   UNL     1       1.007  23.367   2.839  1.00  0.00     0.064 A 
ATOM     14  C   UNL     1       0.084  24.409   2.610  1.00  0.00     0.130 A 
ATOM     15  C   UNL     1       0.552  22.036   2.834  1.00  0.00     0.020 A 
ATOM     16  C   UNL     1      -1.271  24.110   2.397  1.00  0.00     0.093 A 
ATOM     17  C   UNL     1      -0.799  21.748   2.624  1.00  0.00     0.047 A 
ATOM     18  C   UNL     1      -1.713  22.785   2.405  1.00  0.00     0.119 A 
BRANCH  14  19
ATOM     19  O   UNL     1       0.510  25.738   2.608  1.00  0.00    -0.507 OA
ATOM     20  H   UNL     1       0.929  26.163   3.427  1.00  0.00     0.293 HD
ENDBRANCH  14  19
BRANCH  18  21
ATOM     21  O   UNL     1      -3.062  22.509   2.194  1.00  0.00    -0.508 OA
ATOM     22  H   UNL     1      -3.519  22.737   1.319  1.00  0.00     0.293 HD
ENDBRANCH  18  21
ENDBRANCH  11  13
ENDBRANCH   2  11
TORSDOF 6
ENDMDL
MODEL 2
REMARK VINA RESULT:    -3.564      1.619      7.433
REMARK INTER + INTRA:          -5.124
REMARK INTER:                  -4.519
REMARK INTRA:                  -0.606
REMARK UNBOUND:                -0.623
REMARK SMILES O=C(C=Cc1ccc(O)cc1)c1ccc(O)cc1O
REMARK SMILES IDX 4 1 3 2 5 3 6 4 7 5 8 6 11 7 10 8 9 9 2 11 1 12 12 13 18 14
REMARK SMILES IDX 13 15 17 16 14 17 15 18 19 19 16 21
REMARK H PARENT 9 10 19 20 16 22
REMARK Flexibility Score: inf
ROOT
ATOM      1  C   UNL     1       1.368  22.269   3.179  1.00  0.00     0.012 C 
ATOM      2  C   UNL     1       1.990  23.455   3.257  1.00  0.00     0.053 C 
ENDROOT
BRANCH   1   3
ATOM      3  C   UNL     1      -0.106  22.117   3.124  1.00  0.00    -0.025 A 
ATOM      4  C   UNL     1      -0.844  21.518   4.166  1.00  0.00     0.012 A 
ATOM      5  C   UNL     1      -2.233  21.385   4.062  1.00  0.00     0.047 A 
ATOM      6  C   UNL     1      -2.902  21.836   2.920  1.00  0.00     0.115 A 
ATOM      7  C   UNL     1      -0.787  22.552   1.973  1.00  0.00     0.012 A 
ATOM      8  C   UNL     1      -2.174  22.418   1.875  1.00  0.00     0.047 A 
BRANCH   6   9
ATOM      9  O   UNL     1      -4.285  21.697   2.833  1.00  0.00    -0.508 OA
ATOM     10  H   UNL     1      -4.724  21.276   2.024  1.00  0.00     0.293 HD
ENDBRANCH   6   9
ENDBRANCH   1   3
BRANCH   2  11
ATOM     11  C   UNL     1       3.462  23.585   3.281  1.00  0.00     0.189 C 
ATOM     12  O   UNL     1       4.073  23.629   2.179  1.00  0.00    -0.289 OA
BRANCH  11  13
ATOM     13  C   UNL     1       4.242  23.692   4.539  1.00  0.00     0.064 A 
ATOM     14  C   UNL     1       5.343  24.569   4.633  1.00  0.00     0.130 A 
ATOM     15  C   UNL     1       3.860  22.948   5.670  1.00  0.00     0.020 A 
ATOM     16  C   UNL     1       6.051  24.676   5.840  1.00  0.00     0.093 A 
ATOM     17  C   UNL     1       4.573  23.059   6.866  1.00  0.00     0.047 A 
ATOM     18  C   UNL     1       5.670  23.924   6.954  1.00  0.00     0.119 A 
BRANCH  14  19
ATOM     19  O   UNL     1       5.740  25.320   3.527  1.00  0.00    -0.507 OA
ATOM     20  H   UNL     1       5.838  26.328   3.576  1.00  0.00     0.293 HD
ENDBRANCH  14  19
BRANCH  18  21
ATOM     21  O   UNL     1       6.387  24.043   8.142  1.00  0.00    -0.508 OA
ATOM     22  H   UNL     1       7.392  23.916   8.170  1.00  0.00     0.293 HD
ENDBRANCH  18  21
ENDBRANCH  11  13
ENDBRANCH   2  11
TORSDOF 6
ENDMDL
MODEL 3
REMARK VINA RESULT:    -3.513      1.610      7.357
REMARK INTER + INTRA:          -5.060
REMARK INTER:                  -4.503
REMARK INTRA:                  -0.557
REMARK UNBOUND:                -0.623
REMARK SMILES O=C(C=Cc1ccc(O)cc1)c1ccc(O)cc1O
REMARK SMILES IDX 4 1 3 2 5 3 6 4 7 5 8 6 11 7 10 8 9 9 2 11 1 12 12 13 18 14
REMARK SMILES IDX 13 15 17 16 14 17 15 18 19 19 16 21
REMARK H PARENT 9 10 19 20 16 22
REMARK Flexibility Score: inf
ROOT
ATOM      1  C   UNL     1       1.638  22.422   3.072  1.00  0.00     0.012 C 
ATOM      2  C   UNL     1       2.288  23.594   3.016  1.00  0.00     0.053 C 
ENDROOT
BRANCH   1   3
ATOM      3  C   UNL     1       0.167  22.292   2.933  1.00  0.00    -0.025 A 
ATOM      4  C   UNL     1      -0.567  22.997   1.958  1.00  0.00     0.012 A 
ATOM      5  C   UNL     1      -1.955  22.851   1.875  1.00  0.00     0.047 A 
ATOM      6  C   UNL     1      -2.631  22.012   2.766  1.00  0.00     0.115 A 
ATOM      7  C   UNL     1      -0.524  21.463   3.835  1.00  0.00     0.012 A 
ATOM      8  C   UNL     1      -1.912  21.320   3.748  1.00  0.00     0.047 A 
BRANCH   6   9
ATOM      9  O   UNL     1      -4.015  21.877   2.670  1.00  0.00    -0.508 OA
ATOM     10  H   UNL     1      -4.501  22.026   1.795  1.00  0.00     0.293 HD
ENDBRANCH   6   9
ENDBRANCH   1   3
BRANCH   2  11
ATOM     11  C   UNL     1       3.758  23.698   3.128  1.00  0.00     0.189 C 
ATOM     12  O   UNL     1       4.432  23.752   2.063  1.00  0.00    -0.289 OA
BRANCH  11  13
ATOM     13  C   UNL     1       4.465  23.768   4.430  1.00  0.00     0.064 A 
ATOM     14  C   UNL     1       5.569  24.628   4.607  1.00  0.00     0.130 A 
ATOM     15  C   UNL     1       4.010  23.005   5.521  1.00  0.00     0.020 A 
ATOM     16  C   UNL     1       6.207  24.701   5.855  1.00  0.00     0.093 A 
ATOM     17  C   UNL     1       4.653  23.081   6.758  1.00  0.00     0.047 A 
ATOM     18  C   UNL     1       5.753  23.930   6.928  1.00  0.00     0.119 A 
BRANCH  14  19
ATOM     19  O   UNL     1       6.039  25.398   3.542  1.00  0.00    -0.507 OA
ATOM     20  H   UNL     1       6.584  24.989   2.791  1.00  0.00     0.293 HD
ENDBRANCH  14  19
BRANCH  18  21
ATOM     21  O   UNL     1       6.402  24.014   8.158  1.00  0.00    -0.508 OA
ATOM     22  H   UNL     1       6.623  23.186   8.698  1.00  0.00     0.293 HD
ENDBRANCH  18  21
ENDBRANCH  11  13
ENDBRANCH   2  11
TORSDOF 6
ENDMDL
MODEL 4
REMARK VINA RESULT:    -3.350      2.565      7.607
REMARK INTER + INTRA:          -4.854
REMARK INTER:                  -4.304
REMARK INTRA:                  -0.550
REMARK UNBOUND:                -0.623
REMARK SMILES O=C(C=Cc1ccc(O)cc1)c1ccc(O)cc1O
REMARK SMILES IDX 4 1 3 2 5 3 6 4 7 5 8 6 11 7 10 8 9 9 2 11 1 12 12 13 18 14
REMARK SMILES IDX 13 15 17 16 14 17 15 18 19 19 16 21
REMARK H PARENT 9 10 19 20 16 22
REMARK Flexibility Score: inf
ROOT
ATOM      1  C   UNL     1       0.337  21.960   5.087  1.00  0.00     0.012 C 
ATOM      2  C   UNL     1       1.511  22.268   4.517  1.00  0.00     0.053 C 
ENDROOT
BRANCH   1   3
ATOM      3  C   UNL     1      -0.932  21.821   4.332  1.00  0.00    -0.025 A 
ATOM      4  C   UNL     1      -1.162  22.487   3.111  1.00  0.00     0.012 A 
ATOM      5  C   UNL     1      -2.381  22.334   2.441  1.00  0.00     0.047 A 
ATOM      6  C   UNL     1      -3.387  21.528   2.982  1.00  0.00     0.115 A 
ATOM      7  C   UNL     1      -1.956  21.026   4.875  1.00  0.00     0.012 A 
ATOM      8  C   UNL     1      -3.172  20.876   4.202  1.00  0.00     0.047 A 
BRANCH   6   9
ATOM      9  O   UNL     1      -4.596  21.386   2.303  1.00  0.00    -0.508 OA
ATOM     10  H   UNL     1      -5.381  21.998   2.487  1.00  0.00     0.293 HD
ENDBRANCH   6   9
ENDBRANCH   1   3
BRANCH   2  11
ATOM     11  C   UNL     1       2.769  22.374   5.285  1.00  0.00     0.189 C 
ATOM     12  O   UNL     1       2.893  21.665   6.321  1.00  0.00    -0.289 OA
BRANCH  11  13
ATOM     13  C   UNL     1       3.893  23.251   4.875  1.00  0.00     0.064 A 
ATOM     14  C   UNL     1       4.742  23.835   5.839  1.00  0.00     0.130 A 
ATOM     15  C   UNL     1       4.151  23.475   3.511  1.00  0.00     0.020 A 
ATOM     16  C   UNL     1       5.816  24.640   5.430  1.00  0.00     0.093 A 
ATOM     17  C   UNL     1       5.220  24.281   3.113  1.00  0.00     0.047 A 
ATOM     18  C   UNL     1       6.055  24.865   4.073  1.00  0.00     0.119 A 
BRANCH  14  19
ATOM     19  O   UNL     1       4.509  23.626   7.199  1.00  0.00    -0.507 OA
ATOM     20  H   UNL     1       3.658  23.187   7.532  1.00  0.00     0.293 HD
ENDBRANCH  14  19
BRANCH  18  21
ATOM     21  O   UNL     1       7.125  25.669   3.687  1.00  0.00    -0.508 OA
ATOM     22  H   UNL     1       7.005  26.658   3.501  1.00  0.00     0.293 HD
ENDBRANCH  18  21
ENDBRANCH  11  13
ENDBRANCH   2  11
TORSDOF 6
ENDMDL
MODEL 5
REMARK VINA RESULT:    -3.273      1.654      7.431
REMARK INTER + INTRA:          -4.757
REMARK INTER:                  -4.144
REMARK INTRA:                  -0.614
REMARK UNBOUND:                -0.623
REMARK SMILES O=C(C=Cc1ccc(O)cc1)c1ccc(O)cc1O
REMARK SMILES IDX 4 1 3 2 5 3 6 4 7 5 8 6 11 7 10 8 9 9 2 11 1 12 12 13 18 14
REMARK SMILES IDX 13 15 17 16 14 17 15 18 19 19 16 21
REMARK H PARENT 9 10 19 20 16 22
REMARK Flexibility Score: inf
ROOT
ATOM      1  C   UNL     1       2.597  23.156   4.088  1.00  0.00     0.012 C 
ATOM      2  C   UNL     1       3.532  23.572   3.220  1.00  0.00     0.053 C 
ENDROOT
BRANCH   1   3
ATOM      3  C   UNL     1       1.167  22.982   3.733  1.00  0.00    -0.025 A 
ATOM      4  C   UNL     1       0.303  22.145   4.466  1.00  0.00     0.012 A 
ATOM      5  C   UNL     1      -1.036  22.003   4.085  1.00  0.00     0.047 A 
ATOM      6  C   UNL     1      -1.526  22.682   2.966  1.00  0.00     0.115 A 
ATOM      7  C   UNL     1       0.668  23.648   2.600  1.00  0.00     0.012 A 
ATOM      8  C   UNL     1      -0.670  23.504   2.223  1.00  0.00     0.047 A 
BRANCH   6   9
ATOM      9  O   UNL     1      -2.862  22.531   2.599  1.00  0.00    -0.508 OA
ATOM     10  H   UNL     1      -3.589  23.109   3.001  1.00  0.00     0.293 HD
ENDBRANCH   6   9
ENDBRANCH   1   3
BRANCH   2  11
ATOM     11  C   UNL     1       4.957  23.711   3.588  1.00  0.00     0.189 C 
ATOM     12  O   UNL     1       5.766  24.087   2.697  1.00  0.00    -0.289 OA
BRANCH  11  13
ATOM     13  C   UNL     1       5.465  23.454   4.957  1.00  0.00     0.064 A 
ATOM     14  C   UNL     1       5.857  22.157   5.351  1.00  0.00     0.130 A 
ATOM     15  C   UNL     1       5.603  24.516   5.869  1.00  0.00     0.020 A 
ATOM     16  C   UNL     1       6.361  21.939   6.642  1.00  0.00     0.093 A 
ATOM     17  C   UNL     1       6.102  24.290   7.154  1.00  0.00     0.047 A 
ATOM     18  C   UNL     1       6.482  23.000   7.543  1.00  0.00     0.119 A 
BRANCH  14  19
ATOM     19  O   UNL     1       5.734  21.086   4.464  1.00  0.00    -0.507 OA
ATOM     20  H   UNL     1       5.018  21.070   3.746  1.00  0.00     0.293 HD
ENDBRANCH  14  19
BRANCH  18  21
ATOM     21  O   UNL     1       6.982  22.763   8.821  1.00  0.00    -0.508 OA
ATOM     22  H   UNL     1       7.564  21.957   9.022  1.00  0.00     0.293 HD
ENDBRANCH  18  21
ENDBRANCH  11  13
ENDBRANCH   2  11
TORSDOF 6
ENDMDL
MODEL 6
REMARK VINA RESULT:    -3.204      4.761      9.831
REMARK INTER + INTRA:          -4.670
REMARK INTER:                  -4.038
REMARK INTRA:                  -0.632
REMARK UNBOUND:                -0.623
REMARK SMILES O=C(C=Cc1ccc(O)cc1)c1ccc(O)cc1O
REMARK SMILES IDX 4 1 3 2 5 3 6 4 7 5 8 6 11 7 10 8 9 9 2 11 1 12 12 13 18 14
REMARK SMILES IDX 13 15 17 16 14 17 15 18 19 19 16 21
REMARK H PARENT 9 10 19 20 16 22
REMARK Flexibility Score: inf
ROOT
ATOM      1  C   UNL     1      -5.117  21.431   3.177  1.00  0.00     0.012 C 
ATOM      2  C   UNL     1      -4.026  21.002   3.829  1.00  0.00     0.053 C 
ENDROOT
BRANCH   1   3
ATOM      3  C   UNL     1      -6.498  21.278   3.698  1.00  0.00    -0.025 A 
ATOM      4  C   UNL     1      -7.632  21.343   2.864  1.00  0.00     0.012 A 
ATOM      5  C   UNL     1      -8.915  21.207   3.404  1.00  0.00     0.047 A 
ATOM      6  C   UNL     1      -9.086  21.014   4.778  1.00  0.00     0.115 A 
ATOM      7  C   UNL     1      -6.681  21.100   5.081  1.00  0.00     0.012 A 
ATOM      8  C   UNL     1      -7.965  20.963   5.615  1.00  0.00     0.047 A 
BRANCH   6   9
ATOM      9  O   UNL     1     -10.370  20.879   5.300  1.00  0.00    -0.508 OA
ATOM     10  H   UNL     1     -10.948  21.686   5.498  1.00  0.00     0.293 HD
ENDBRANCH   6   9
ENDBRANCH   1   3
BRANCH   2  11
ATOM     11  C   UNL     1      -2.657  21.191   3.305  1.00  0.00     0.189 C 
ATOM     12  O   UNL     1      -2.433  20.880   2.104  1.00  0.00    -0.289 OA
BRANCH  11  13
ATOM     13  C   UNL     1      -1.552  21.752   4.120  1.00  0.00     0.064 A 
ATOM     14  C   UNL     1      -0.906  22.945   3.737  1.00  0.00     0.130 A 
ATOM     15  C   UNL     1      -1.166  21.118   5.315  1.00  0.00     0.020 A 
ATOM     16  C   UNL     1       0.119  23.475   4.536  1.00  0.00     0.093 A 
ATOM     17  C   UNL     1      -0.142  21.650   6.103  1.00  0.00     0.047 A 
ATOM     18  C   UNL     1       0.503  22.830   5.714  1.00  0.00     0.119 A 
BRANCH  14  19
ATOM     19  O   UNL     1      -1.271  23.595   2.557  1.00  0.00    -0.507 OA
ATOM     20  H   UNL     1      -0.713  23.521   1.714  1.00  0.00     0.293 HD
ENDBRANCH  14  19
BRANCH  18  21
ATOM     21  O   UNL     1       1.524  23.370   6.492  1.00  0.00    -0.508 OA
ATOM     22  H   UNL     1       1.923  22.860   7.271  1.00  0.00     0.293 HD
ENDBRANCH  18  21
ENDBRANCH  11  13
ENDBRANCH   2  11
TORSDOF 6
ENDMDL
