MODEL 1
REMARK VINA RESULT:    -6.556      0.000      0.000
REMARK INTER + INTRA:          -7.131
REMARK INTER:                  -7.131
REMARK INTRA:                   0.000
REMARK UNBOUND:                 0.000
REMARK SMILES Cc1cc(O)c2c(c1)C(=O)c1cc(O)cc(O)c1C2=O
REMARK SMILES IDX 1 1 2 2 8 3 7 4 6 5 4 6 3 7 19 8 20 9 18 10 11 11 9 12 10 13
REMARK SMILES IDX 12 14 13 15 15 16 16 17 5 18 17 20 14 22
REMARK H PARENT 5 19 17 21 14 23
REMARK Flexibility Score: inf
ROOT
ATOM      1  C   UNL     1      86.371   4.250  -6.629  1.00  0.00     0.044 C 
ATOM      2  C   UNL     1      85.689   3.010  -7.129  1.00  0.00    -0.047 A 
ATOM      3  C   UNL     1      86.170   1.747  -6.764  1.00  0.00     0.016 A 
ATOM      4  C   UNL     1      85.522   0.580  -7.204  1.00  0.00     0.038 A 
ATOM      5  C   UNL     1      84.375   0.679  -8.022  1.00  0.00     0.076 A 
ATOM      6  C   UNL     1      83.844   1.961  -8.318  1.00  0.00     0.127 A 
ATOM      7  C   UNL     1      84.518   3.107  -7.885  1.00  0.00     0.050 A 
ATOM      8  C   UNL     1      83.805  -0.572  -8.588  1.00  0.00     0.201 C 
ATOM      9  O   UNL     1      83.213  -0.543  -9.700  1.00  0.00    -0.288 OA
ATOM     10  C   UNL     1      84.099  -1.875  -7.940  1.00  0.00     0.076 A 
ATOM     11  C   UNL     1      85.246  -1.971  -7.120  1.00  0.00     0.041 A 
ATOM     12  C   UNL     1      86.033  -0.754  -6.808  1.00  0.00     0.194 C 
ATOM     13  O   UNL     1      87.125  -0.851  -6.183  1.00  0.00    -0.289 OA
ATOM     14  C   UNL     1      85.633  -3.218  -6.601  1.00  0.00     0.059 A 
ATOM     15  C   UNL     1      84.884  -4.364  -6.876  1.00  0.00     0.120 A 
ATOM     16  C   UNL     1      83.729  -4.267  -7.651  1.00  0.00     0.093 A 
ATOM     17  C   UNL     1      83.310  -3.035  -8.163  1.00  0.00     0.131 A 
ENDROOT
BRANCH   6  18
ATOM     18  O   UNL     1      82.639   2.140  -9.001  1.00  0.00    -0.507 OA
ATOM     19  H   UNL     1      81.800   2.500  -8.569  1.00  0.00     0.293 HD
ENDBRANCH   6  18
BRANCH  17  20
ATOM     20  O   UNL     1      82.095  -3.002  -8.852  1.00  0.00    -0.507 OA
ATOM     21  H   UNL     1      81.221  -3.318  -8.457  1.00  0.00     0.293 HD
ENDBRANCH  17  20
BRANCH  15  22
ATOM     22  O   UNL     1      85.271  -5.604  -6.373  1.00  0.00    -0.508 OA
ATOM     23  H   UNL     1      84.674  -6.418  -6.453  1.00  0.00     0.293 HD
ENDBRANCH  15  22
TORSDOF 3
ENDMDL
MODEL 2
REMARK VINA RESULT:    -5.980      7.755      8.716
REMARK INTER + INTRA:          -6.504
REMARK INTER:                  -6.504
REMARK INTRA:                   0.000
REMARK UNBOUND:                 0.000
REMARK SMILES Cc1cc(O)c2c(c1)C(=O)c1cc(O)cc(O)c1C2=O
REMARK SMILES IDX 1 1 2 2 8 3 7 4 6 5 4 6 3 7 19 8 20 9 18 10 11 11 9 12 10 13
REMARK SMILES IDX 12 14 13 15 15 16 16 17 5 18 17 20 14 22
REMARK H PARENT 5 19 17 21 14 23
REMARK Flexibility Score: inf
ROOT
ATOM      1  C   UNL     1      87.045   5.072  -2.678  1.00  0.00     0.044 C 
ATOM      2  C   UNL     1      86.269   4.059  -1.888  1.00  0.00    -0.047 A 
ATOM      3  C   UNL     1      84.874   4.145  -1.810  1.00  0.00     0.016 A 
ATOM      4  C   UNL     1      84.136   3.186  -1.096  1.00  0.00     0.038 A 
ATOM      5  C   UNL     1      84.806   2.124  -0.449  1.00  0.00     0.076 A 
ATOM      6  C   UNL     1      86.210   1.995  -0.603  1.00  0.00     0.127 A 
ATOM      7  C   UNL     1      86.924   2.972  -1.301  1.00  0.00     0.050 A 
ATOM      8  C   UNL     1      84.009   1.215   0.417  1.00  0.00     0.201 C 
ATOM      9  O   UNL     1      84.552   0.664   1.412  1.00  0.00    -0.288 OA
ATOM     10  C   UNL     1      82.541   1.110   0.222  1.00  0.00     0.076 A 
ATOM     11  C   UNL     1      81.874   2.173  -0.428  1.00  0.00     0.041 A 
ATOM     12  C   UNL     1      82.659   3.281  -1.024  1.00  0.00     0.194 C 
ATOM     13  O   UNL     1      82.068   4.292  -1.492  1.00  0.00    -0.289 OA
ATOM     14  C   UNL     1      80.472   2.174  -0.510  1.00  0.00     0.059 A 
ATOM     15  C   UNL     1      79.729   1.123   0.033  1.00  0.00     0.120 A 
ATOM     16  C   UNL     1      80.385   0.052   0.639  1.00  0.00     0.093 A 
ATOM     17  C   UNL     1      81.781   0.017   0.716  1.00  0.00     0.131 A 
ENDROOT
BRANCH   6  18
ATOM     18  O   UNL     1      86.925   0.899  -0.113  1.00  0.00    -0.507 OA
ATOM     19  H   UNL     1      87.819   0.605  -0.481  1.00  0.00     0.293 HD
ENDBRANCH   6  18
BRANCH  17  20
ATOM     20  O   UNL     1      82.368  -1.131   1.254  1.00  0.00    -0.507 OA
ATOM     21  H   UNL     1      83.367  -1.275   1.305  1.00  0.00     0.293 HD
ENDBRANCH  17  20
BRANCH  15  22
ATOM     22  O   UNL     1      78.337   1.126  -0.035  1.00  0.00    -0.508 OA
ATOM     23  H   UNL     1      77.840   0.573  -0.723  1.00  0.00     0.293 HD
ENDBRANCH  15  22
TORSDOF 3
ENDMDL
MODEL 3
REMARK VINA RESULT:    -5.969      8.279      9.708
REMARK INTER + INTRA:          -6.492
REMARK INTER:                  -6.492
REMARK INTRA:                   0.000
REMARK UNBOUND:                 0.000
REMARK SMILES Cc1cc(O)c2c(c1)C(=O)c1cc(O)cc(O)c1C2=O
REMARK SMILES IDX 1 1 2 2 8 3 7 4 6 5 4 6 3 7 19 8 20 9 18 10 11 11 9 12 10 13
REMARK SMILES IDX 12 14 13 15 15 16 16 17 5 18 17 20 14 22
REMARK H PARENT 5 19 17 21 14 23
REMARK Flexibility Score: inf
ROOT
ATOM      1  C   UNL     1      87.125  -1.221   2.183  1.00  0.00     0.044 C 
ATOM      2  C   UNL     1      86.279  -0.192   1.492  1.00  0.00    -0.047 A 
ATOM      3  C   UNL     1      84.887  -0.330   1.462  1.00  0.00     0.016 A 
ATOM      4  C   UNL     1      84.084   0.642   0.842  1.00  0.00     0.038 A 
ATOM      5  C   UNL     1      84.685   1.771   0.243  1.00  0.00     0.076 A 
ATOM      6  C   UNL     1      86.088   1.947   0.350  1.00  0.00     0.127 A 
ATOM      7  C   UNL     1      86.868   0.957   0.954  1.00  0.00     0.050 A 
ATOM      8  C   UNL     1      83.819   2.701  -0.530  1.00  0.00     0.201 C 
ATOM      9  O   UNL     1      84.299   3.337  -1.506  1.00  0.00    -0.288 OA
ATOM     10  C   UNL     1      82.357   2.733  -0.271  1.00  0.00     0.076 A 
ATOM     11  C   UNL     1      81.759   1.603   0.331  1.00  0.00     0.041 A 
ATOM     12  C   UNL     1      82.609   0.492   0.821  1.00  0.00     0.194 C 
ATOM     13  O   UNL     1      82.077  -0.571   1.244  1.00  0.00    -0.289 OA
ATOM     14  C   UNL     1      80.362   1.540   0.467  1.00  0.00     0.059 A 
ATOM     15  C   UNL     1      79.558   2.593   0.024  1.00  0.00     0.120 A 
ATOM     16  C   UNL     1      80.147   3.727  -0.534  1.00  0.00     0.093 A 
ATOM     17  C   UNL     1      81.536   3.824  -0.662  1.00  0.00     0.131 A 
ENDROOT
BRANCH   6  18
ATOM     18  O   UNL     1      86.740   3.101  -0.092  1.00  0.00    -0.507 OA
ATOM     19  H   UNL     1      86.621   3.491  -1.017  1.00  0.00     0.293 HD
ENDBRANCH   6  18
BRANCH  17  20
ATOM     20  O   UNL     1      82.056   5.027  -1.145  1.00  0.00    -0.507 OA
ATOM     21  H   UNL     1      81.668   5.527  -1.933  1.00  0.00     0.293 HD
ENDBRANCH  17  20
BRANCH  15  22
ATOM     22  O   UNL     1      78.171   2.528   0.146  1.00  0.00    -0.508 OA
ATOM     23  H   UNL     1      77.713   2.628   1.043  1.00  0.00     0.293 HD
ENDBRANCH  15  22
TORSDOF 3
ENDMDL
MODEL 4
REMARK VINA RESULT:    -5.293     15.106     16.573
REMARK INTER + INTRA:          -5.758
REMARK INTER:                  -5.758
REMARK INTRA:                   0.000
REMARK UNBOUND:                 0.000
REMARK SMILES Cc1cc(O)c2c(c1)C(=O)c1cc(O)cc(O)c1C2=O
REMARK SMILES IDX 1 1 2 2 8 3 7 4 6 5 4 6 3 7 19 8 20 9 18 10 11 11 9 12 10 13
REMARK SMILES IDX 12 14 13 15 15 16 16 17 5 18 17 20 14 22
REMARK H PARENT 5 19 17 21 14 23
REMARK Flexibility Score: inf
ROOT
ATOM      1  C   UNL     1      86.933  -0.976   7.115  1.00  0.00     0.044 C 
ATOM      2  C   UNL     1      86.012   0.178   7.385  1.00  0.00    -0.047 A 
ATOM      3  C   UNL     1      86.394   1.478   7.038  1.00  0.00     0.016 A 
ATOM      4  C   UNL     1      85.528   2.562   7.261  1.00  0.00     0.038 A 
ATOM      5  C   UNL     1      84.260   2.340   7.842  1.00  0.00     0.076 A 
ATOM      6  C   UNL     1      83.846   1.010   8.114  1.00  0.00     0.127 A 
ATOM      7  C   UNL     1      84.733  -0.049   7.902  1.00  0.00     0.050 A 
ATOM      8  C   UNL     1      83.433   3.523   8.198  1.00  0.00     0.201 C 
ATOM      9  O   UNL     1      82.634   3.459   9.171  1.00  0.00    -0.288 OA
ATOM     10  C   UNL     1      83.686   4.827   7.533  1.00  0.00     0.076 A 
ATOM     11  C   UNL     1      84.955   5.045   6.951  1.00  0.00     0.041 A 
ATOM     12  C   UNL     1      85.937   3.936   6.883  1.00  0.00     0.194 C 
ATOM     13  O   UNL     1      87.112   4.157   6.481  1.00  0.00    -0.289 OA
ATOM     14  C   UNL     1      85.279   6.311   6.434  1.00  0.00     0.059 A 
ATOM     15  C   UNL     1      84.350   7.353   6.478  1.00  0.00     0.120 A 
ATOM     16  C   UNL     1      83.083   7.131   7.015  1.00  0.00     0.093 A 
ATOM     17  C   UNL     1      82.728   5.875   7.518  1.00  0.00     0.131 A 
ENDROOT
BRANCH   6  18
ATOM     18  O   UNL     1      82.559   0.696   8.557  1.00  0.00    -0.507 OA
ATOM     19  H   UNL     1      82.327   0.525   9.525  1.00  0.00     0.293 HD
ENDBRANCH   6  18
BRANCH  17  20
ATOM     20  O   UNL     1      81.412   5.704   7.954  1.00  0.00    -0.507 OA
ATOM     21  H   UNL     1      81.133   4.996   8.619  1.00  0.00     0.293 HD
ENDBRANCH  17  20
BRANCH  15  22
ATOM     22  O   UNL     1      84.673   8.614   5.978  1.00  0.00    -0.508 OA
ATOM     23  H   UNL     1      85.601   8.825   5.633  1.00  0.00     0.293 HD
ENDBRANCH  15  22
TORSDOF 3
ENDMDL
MODEL 5
REMARK VINA RESULT:    -4.814     14.614     15.853
REMARK INTER + INTRA:          -5.236
REMARK INTER:                  -5.236
REMARK INTRA:                   0.000
REMARK UNBOUND:                 0.000
REMARK SMILES Cc1cc(O)c2c(c1)C(=O)c1cc(O)cc(O)c1C2=O
REMARK SMILES IDX 1 1 2 2 8 3 7 4 6 5 4 6 3 7 19 8 20 9 18 10 11 11 9 12 10 13
REMARK SMILES IDX 12 14 13 15 15 16 16 17 5 18 17 20 14 22
REMARK H PARENT 5 19 17 21 14 23
REMARK Flexibility Score: inf
ROOT
ATOM      1  C   UNL     1      79.552   4.413   9.442  1.00  0.00     0.044 C 
ATOM      2  C   UNL     1      80.914   4.290   8.825  1.00  0.00    -0.047 A 
ATOM      3  C   UNL     1      81.589   3.065   8.847  1.00  0.00     0.016 A 
ATOM      4  C   UNL     1      82.853   2.932   8.248  1.00  0.00     0.038 A 
ATOM      5  C   UNL     1      83.451   4.045   7.616  1.00  0.00     0.076 A 
ATOM      6  C   UNL     1      82.726   5.261   7.524  1.00  0.00     0.127 A 
ATOM      7  C   UNL     1      81.479   5.374   8.145  1.00  0.00     0.050 A 
ATOM      8  C   UNL     1      84.847   3.908   7.125  1.00  0.00     0.201 C 
ATOM      9  O   UNL     1      85.603   4.916   7.096  1.00  0.00    -0.288 OA
ATOM     10  C   UNL     1      85.403   2.558   6.851  1.00  0.00     0.076 A 
ATOM     11  C   UNL     1      84.801   1.446   7.482  1.00  0.00     0.041 A 
ATOM     12  C   UNL     1      83.558   1.628   8.269  1.00  0.00     0.194 C 
ATOM     13  O   UNL     1      83.087   0.667   8.937  1.00  0.00    -0.289 OA
ATOM     14  C   UNL     1      85.381   0.173   7.357  1.00  0.00     0.059 A 
ATOM     15  C   UNL     1      86.541  -0.007   6.600  1.00  0.00     0.120 A 
ATOM     16  C   UNL     1      87.115   1.079   5.943  1.00  0.00     0.093 A 
ATOM     17  C   UNL     1      86.547   2.354   6.034  1.00  0.00     0.131 A 
ENDROOT
BRANCH   6  18
ATOM     18  O   UNL     1      83.187   6.362   6.798  1.00  0.00    -0.507 OA
ATOM     19  H   UNL     1      82.581   6.985   6.283  1.00  0.00     0.293 HD
ENDBRANCH   6  18
BRANCH  17  20
ATOM     20  O   UNL     1      87.125   3.374   5.274  1.00  0.00    -0.507 OA
ATOM     21  H   UNL     1      87.293   3.302   4.280  1.00  0.00     0.293 HD
ENDBRANCH  17  20
BRANCH  15  22
ATOM     22  O   UNL     1      87.125  -1.267   6.484  1.00  0.00    -0.508 OA
ATOM     23  H   UNL     1      87.526  -1.741   7.284  1.00  0.00     0.293 HD
ENDBRANCH  15  22
TORSDOF 3
ENDMDL
MODEL 6
REMARK VINA RESULT:    -4.640      3.951      6.307
REMARK INTER + INTRA:          -5.047
REMARK INTER:                  -5.047
REMARK INTRA:                   0.000
REMARK UNBOUND:                 0.000
REMARK SMILES Cc1cc(O)c2c(c1)C(=O)c1cc(O)cc(O)c1C2=O
REMARK SMILES IDX 1 1 2 2 8 3 7 4 6 5 4 6 3 7 19 8 20 9 18 10 11 11 9 12 10 13
REMARK SMILES IDX 12 14 13 15 15 16 16 17 5 18 17 20 14 22
REMARK H PARENT 5 19 17 21 14 23
REMARK Flexibility Score: inf
ROOT
ATOM      1  C   UNL     1      87.123   2.727   0.318  1.00  0.00     0.044 C 
ATOM      2  C   UNL     1      86.955   3.167  -1.107  1.00  0.00    -0.047 A 
ATOM      3  C   UNL     1      86.796   2.218  -2.123  1.00  0.00     0.016 A 
ATOM      4  C   UNL     1      86.610   2.621  -3.456  1.00  0.00     0.038 A 
ATOM      5  C   UNL     1      86.583   3.996  -3.778  1.00  0.00     0.076 A 
ATOM      6  C   UNL     1      86.661   4.953  -2.733  1.00  0.00     0.127 A 
ATOM      7  C   UNL     1      86.865   4.528  -1.417  1.00  0.00     0.050 A 
ATOM      8  C   UNL     1      86.533   4.381  -5.213  1.00  0.00     0.201 C 
ATOM      9  O   UNL     1      87.062   5.461  -5.589  1.00  0.00    -0.288 OA
ATOM     10  C   UNL     1      86.032   3.412  -6.219  1.00  0.00     0.076 A 
ATOM     11  C   UNL     1      86.057   2.037  -5.894  1.00  0.00     0.041 A 
ATOM     12  C   UNL     1      86.435   1.609  -4.526  1.00  0.00     0.194 C 
ATOM     13  O   UNL     1      86.581   0.384  -4.265  1.00  0.00    -0.289 OA
ATOM     14  C   UNL     1      85.722   1.081  -6.868  1.00  0.00     0.059 A 
ATOM     15  C   UNL     1      85.347   1.480  -8.153  1.00  0.00     0.120 A 
ATOM     16  C   UNL     1      85.282   2.837  -8.466  1.00  0.00     0.093 A 
ATOM     17  C   UNL     1      85.592   3.809  -7.510  1.00  0.00     0.131 A 
ENDROOT
BRANCH   6  18
ATOM     18  O   UNL     1      86.502   6.323  -2.951  1.00  0.00    -0.507 OA
ATOM     19  H   UNL     1      86.519   7.013  -2.213  1.00  0.00     0.293 HD
ENDBRANCH   6  18
BRANCH  17  20
ATOM     20  O   UNL     1      85.414   5.147  -7.869  1.00  0.00    -0.507 OA
ATOM     21  H   UNL     1      84.537   5.640  -7.769  1.00  0.00     0.293 HD
ENDBRANCH  17  20
BRANCH  15  22
ATOM     22  O   UNL     1      85.025   0.534  -9.125  1.00  0.00    -0.508 OA
ATOM     23  H   UNL     1      84.436  -0.262  -8.914  1.00  0.00     0.293 HD
ENDBRANCH  15  22
TORSDOF 3
ENDMDL
MODEL 7
REMARK VINA RESULT:    -3.745     11.734     13.232
REMARK INTER + INTRA:          -4.074
REMARK INTER:                  -4.074
REMARK INTRA:                   0.000
REMARK UNBOUND:                 0.000
REMARK SMILES Cc1cc(O)c2c(c1)C(=O)c1cc(O)cc(O)c1C2=O
REMARK SMILES IDX 1 1 2 2 8 3 7 4 6 5 4 6 3 7 19 8 20 9 18 10 11 11 9 12 10 13
REMARK SMILES IDX 12 14 13 15 15 16 16 17 5 18 17 20 14 22
REMARK H PARENT 5 19 17 21 14 23
REMARK Flexibility Score: inf
ROOT
ATOM      1  C   UNL     1      86.789   2.402  -0.293  1.00  0.00     0.044 C 
ATOM      2  C   UNL     1      86.722   1.642   0.999  1.00  0.00    -0.047 A 
ATOM      3  C   UNL     1      86.674   2.329   2.217  1.00  0.00     0.016 A 
ATOM      4  C   UNL     1      86.583   1.628   3.432  1.00  0.00     0.038 A 
ATOM      5  C   UNL     1      86.540   0.216   3.426  1.00  0.00     0.076 A 
ATOM      6  C   UNL     1      86.504  -0.470   2.185  1.00  0.00     0.127 A 
ATOM      7  C   UNL     1      86.616   0.248   0.991  1.00  0.00     0.050 A 
ATOM      8  C   UNL     1      86.594  -0.493   4.732  1.00  0.00     0.201 C 
ATOM      9  O   UNL     1      87.118  -1.638   4.801  1.00  0.00    -0.288 OA
ATOM     10  C   UNL     1      86.205   0.220   5.975  1.00  0.00     0.076 A 
ATOM     11  C   UNL     1      86.247   1.632   5.977  1.00  0.00     0.041 A 
ATOM     12  C   UNL     1      86.526   2.364   4.718  1.00  0.00     0.194 C 
ATOM     13  O   UNL     1      86.688   3.614   4.737  1.00  0.00    -0.289 OA
ATOM     14  C   UNL     1      86.020   2.337   7.171  1.00  0.00     0.059 A 
ATOM     15  C   UNL     1      85.738   1.653   8.355  1.00  0.00     0.120 A 
ATOM     16  C   UNL     1      85.656   0.261   8.349  1.00  0.00     0.093 A 
ATOM     17  C   UNL     1      85.858  -0.463   7.170  1.00  0.00     0.131 A 
ENDROOT
BRANCH   6  18
ATOM     18  O   UNL     1      86.322  -1.852   2.092  1.00  0.00    -0.507 OA
ATOM     19  H   UNL     1      86.823  -2.439   1.440  1.00  0.00     0.293 HD
ENDBRANCH   6  18
BRANCH  17  20
ATOM     20  O   UNL     1      85.668  -1.847   7.223  1.00  0.00    -0.507 OA
ATOM     21  H   UNL     1      86.361  -2.517   6.918  1.00  0.00     0.293 HD
ENDBRANCH  17  20
BRANCH  15  22
ATOM     22  O   UNL     1      85.524   2.349   9.544  1.00  0.00    -0.508 OA
ATOM     23  H   UNL     1      86.095   2.184  10.364  1.00  0.00     0.293 HD
ENDBRANCH  15  22
TORSDOF 3
ENDMDL
MODEL 8
REMARK VINA RESULT:    -3.656     15.108     16.678
REMARK INTER + INTRA:          -3.976
REMARK INTER:                  -3.976
REMARK INTRA:                   0.000
REMARK UNBOUND:                 0.000
REMARK SMILES Cc1cc(O)c2c(c1)C(=O)c1cc(O)cc(O)c1C2=O
REMARK SMILES IDX 1 1 2 2 8 3 7 4 6 5 4 6 3 7 19 8 20 9 18 10 11 11 9 12 10 13
REMARK SMILES IDX 12 14 13 15 15 16 16 17 5 18 17 20 14 22
REMARK H PARENT 5 19 17 21 14 23
REMARK Flexibility Score: inf
ROOT
ATOM      1  C   UNL     1      87.125  -0.840   7.045  1.00  0.00     0.044 C 
ATOM      2  C   UNL     1      86.382   0.464   7.089  1.00  0.00    -0.047 A 
ATOM      3  C   UNL     1      85.050   0.500   7.517  1.00  0.00     0.016 A 
ATOM      4  C   UNL     1      84.354   1.719   7.589  1.00  0.00     0.038 A 
ATOM      5  C   UNL     1      85.003   2.921   7.226  1.00  0.00     0.076 A 
ATOM      6  C   UNL     1      86.377   2.887   6.875  1.00  0.00     0.127 A 
ATOM      7  C   UNL     1      87.042   1.660   6.791  1.00  0.00     0.050 A 
ATOM      8  C   UNL     1      84.194   4.167   7.173  1.00  0.00     0.201 C 
ATOM      9  O   UNL     1      84.504   5.080   6.361  1.00  0.00    -0.288 OA
ATOM     10  C   UNL     1      82.922   4.254   7.934  1.00  0.00     0.076 A 
ATOM     11  C   UNL     1      82.277   3.050   8.298  1.00  0.00     0.041 A 
ATOM     12  C   UNL     1      82.946   1.750   8.050  1.00  0.00     0.194 C 
ATOM     13  O   UNL     1      82.325   0.672   8.255  1.00  0.00    -0.289 OA
ATOM     14  C   UNL     1      81.007   3.090   8.896  1.00  0.00     0.059 A 
ATOM     15  C   UNL     1      80.381   4.313   9.149  1.00  0.00     0.120 A 
ATOM     16  C   UNL     1      81.031   5.504   8.829  1.00  0.00     0.093 A 
ATOM     17  C   UNL     1      82.304   5.492   8.251  1.00  0.00     0.131 A 
ENDROOT
BRANCH   6  18
ATOM     18  O   UNL     1      87.124   4.043   6.639  1.00  0.00    -0.507 OA
ATOM     19  H   UNL     1      86.747   4.874   6.204  1.00  0.00     0.293 HD
ENDBRANCH   6  18
BRANCH  17  20
ATOM     20  O   UNL     1      82.930   6.724   8.044  1.00  0.00    -0.507 OA
ATOM     21  H   UNL     1      83.154   7.368   8.790  1.00  0.00     0.293 HD
ENDBRANCH  17  20
BRANCH  15  22
ATOM     22  O   UNL     1      79.115   4.356   9.732  1.00  0.00    -0.508 OA
ATOM     23  H   UNL     1      78.455   3.596   9.622  1.00  0.00     0.293 HD
ENDBRANCH  15  22
TORSDOF 3
ENDMDL
