MODEL 1
REMARK VINA RESULT:    -3.773      0.000      0.000
REMARK INTER + INTRA:          -5.158
REMARK INTER:                  -5.318
REMARK INTRA:                   0.160
REMARK UNBOUND:                 0.160
REMARK SMILES CC1=CCC(=C(C)C)C(=O)CC(C)=CCC1
REMARK SMILES IDX 12 1 14 2 13 3 15 4 16 5 2 6 1 7 3 8 11 10 9 11 10 12 5 13
REMARK SMILES IDX 6 14 7 15 8 16 4 17
REMARK H PARENT
REMARK Flexibility Score: 60.00
ROOT
ATOM      1  C   UNL     1      22.812  -2.944  17.706  1.00  0.00    -0.070 C 
ATOM      2  C   UNL     1      23.993  -2.833  17.045  1.00  0.00    -0.027 C 
ATOM      3  C   UNL     1      21.632  -3.473  16.930  1.00  0.00     0.039 C 
ENDROOT
BRANCH   2   4
ATOM      4  C   UNL     1      25.268  -2.237  17.591  1.00  0.00     0.032 C 
BRANCH   4   5
ATOM      5  C   UNL     1      25.221  -0.708  17.710  1.00  0.00     0.034 C 
BRANCH   5   6
ATOM      6  C   UNL     1      25.750  -0.270  19.062  1.00  0.00    -0.077 C 
ATOM      7  C   UNL     1      27.200  -0.532  19.382  1.00  0.00     0.039 C 
ATOM      8  C   UNL     1      25.010   0.415  19.966  1.00  0.00    -0.023 CG0
ATOM      9  G   UNL     1      23.545   0.754  19.829  1.00  0.00     0.000 G0
ENDBRANCH   5   6
ENDBRANCH   4   5
ENDBRANCH   2   4
BRANCH   1  10
ATOM     10  C   UNL     1      22.625  -2.648  19.191  1.00  0.00     0.111 C 
BRANCH  10  11
ATOM     11  C   UNL     1      22.003  -1.305  19.476  1.00  0.00     0.163 C 
ATOM     12  O   UNL     1      20.890  -1.050  18.937  1.00  0.00    -0.294 OA
BRANCH  11  13
ATOM     13  C   UNL     1      22.623  -0.303  20.406  1.00  0.00    -0.002 C 
ATOM     14  C   UNL     1      22.331  -0.317  21.745  1.00  0.00    -0.069 C 
ATOM     15  C   UNL     1      21.499  -1.417  22.366  1.00  0.00     0.039 C 
ATOM     16  C   UNL     1      22.866   0.739  22.687  1.00  0.00     0.039 C 
BRANCH  13  17
ATOM     17  C   UNL     1      23.543   0.769  19.824  1.00  0.00     0.066 CG0
ATOM     18  G   UNL     1      25.002   0.408  19.971  1.00  0.00     0.000 G0
ENDBRANCH  13  17
ENDBRANCH  11  13
ENDBRANCH  10  11
ENDBRANCH   1  10
TORSDOF 0
ENDMDL
MODEL 2
REMARK VINA RESULT:    -3.548      2.011      3.827
REMARK INTER + INTRA:          -4.841
REMARK INTER:                  -5.171
REMARK INTRA:                   0.330
REMARK UNBOUND:                 0.160
REMARK SMILES CC1=CCC(=C(C)C)C(=O)CC(C)=CCC1
REMARK SMILES IDX 12 1 14 2 13 3 15 4 16 5 2 6 1 7 3 8 11 10 9 11 10 12 5 13
REMARK SMILES IDX 6 14 7 15 8 16 4 17
REMARK H PARENT
REMARK Flexibility Score: 60.00
ROOT
ATOM      1  C   UNL     1      25.743  -1.383  18.465  1.00  0.00    -0.070 C 
ATOM      2  C   UNL     1      25.724  -1.547  17.117  1.00  0.00    -0.027 C 
ATOM      3  C   UNL     1      26.803  -0.473  19.035  1.00  0.00     0.039 C 
ENDROOT
BRANCH   2   4
ATOM      4  C   UNL     1      24.825  -2.482  16.346  1.00  0.00     0.032 C 
BRANCH   4   5
ATOM      5  C   UNL     1      23.356  -2.037  16.331  1.00  0.00     0.034 C 
BRANCH   5   6
ATOM      6  C   UNL     1      22.463  -3.160  16.821  1.00  0.00    -0.077 C 
ATOM      7  C   UNL     1      22.622  -4.524  16.200  1.00  0.00     0.039 C 
ATOM      8  C   UNL     1      21.584  -3.021  17.843  1.00  0.00    -0.023 CG0
ATOM      9  G   UNL     1      21.278  -1.736  18.574  1.00  0.00     0.000 G0
ENDBRANCH   5   6
ENDBRANCH   4   5
ENDBRANCH   2   4
BRANCH   1  10
ATOM     10  C   UNL     1      24.722  -1.990  19.422  1.00  0.00     0.111 C 
BRANCH  10  11
ATOM     11  C   UNL     1      23.544  -1.095  19.710  1.00  0.00     0.163 C 
ATOM     12  O   UNL     1      23.759   0.146  19.791  1.00  0.00    -0.294 OA
BRANCH  11  13
ATOM     13  C   UNL     1      22.142  -1.615  19.844  1.00  0.00    -0.002 C 
ATOM     14  C   UNL     1      21.656  -2.012  21.063  1.00  0.00    -0.069 C 
ATOM     15  C   UNL     1      22.445  -1.809  22.338  1.00  0.00     0.039 C 
ATOM     16  C   UNL     1      20.283  -2.630  21.209  1.00  0.00     0.039 C 
BRANCH  13  17
ATOM     17  C   UNL     1      21.284  -1.748  18.587  1.00  0.00     0.066 CG0
ATOM     18  G   UNL     1      21.575  -3.022  17.831  1.00  0.00     0.000 G0
ENDBRANCH  13  17
ENDBRANCH  11  13
ENDBRANCH  10  11
ENDBRANCH   1  10
TORSDOF 0
ENDMDL
MODEL 3
REMARK VINA RESULT:    -3.399      1.798      4.132
REMARK INTER + INTRA:          -4.630
REMARK INTER:                  -5.098
REMARK INTRA:                   0.467
REMARK UNBOUND:                 0.160
REMARK SMILES CC1=CCC(=C(C)C)C(=O)CC(C)=CCC1
REMARK SMILES IDX 12 1 14 2 13 3 15 4 16 5 2 6 1 7 3 8 11 10 9 11 10 12 5 13
REMARK SMILES IDX 6 14 7 15 8 16 4 17
REMARK H PARENT
REMARK Flexibility Score: 60.00
ROOT
ATOM      1  C   UNL     1      21.413  -3.398  18.427  1.00  0.00    -0.070 C 
ATOM      2  C   UNL     1      20.821  -3.157  19.625  1.00  0.00    -0.027 C 
ATOM      3  C   UNL     1      21.292  -4.792  17.864  1.00  0.00     0.039 C 
ENDROOT
BRANCH   2   4
ATOM      4  C   UNL     1      20.901  -1.874  20.417  1.00  0.00     0.032 C 
BRANCH   4   5
ATOM      5  C   UNL     1      22.109  -1.818  21.361  1.00  0.00     0.034 C 
BRANCH   5   6
ATOM      6  C   UNL     1      23.000  -0.644  21.004  1.00  0.00    -0.077 C 
ATOM      7  C   UNL     1      22.648   0.715  21.553  1.00  0.00     0.039 C 
ATOM      8  C   UNL     1      24.140  -0.766  20.282  1.00  0.00    -0.023 CG0
ATOM      9  G   UNL     1      24.645  -2.036  19.639  1.00  0.00     0.000 G0
ENDBRANCH   5   6
ENDBRANCH   4   5
ENDBRANCH   2   4
BRANCH   1  10
ATOM     10  C   UNL     1      22.116  -2.338  17.584  1.00  0.00     0.111 C 
BRANCH  10  11
ATOM     11  C   UNL     1      23.576  -2.622  17.334  1.00  0.00     0.163 C 
ATOM     12  O   UNL     1      23.865  -3.412  16.395  1.00  0.00    -0.294 OA
BRANCH  11  13
ATOM     13  C   UNL     1      24.676  -1.962  18.114  1.00  0.00    -0.002 C 
ATOM     14  C   UNL     1      25.710  -1.335  17.471  1.00  0.00    -0.069 C 
ATOM     15  C   UNL     1      25.719  -1.150  15.970  1.00  0.00     0.039 C 
ATOM     16  C   UNL     1      26.879  -0.746  18.230  1.00  0.00     0.039 C 
BRANCH  13  17
ATOM     17  C   UNL     1      24.651  -2.050  19.639  1.00  0.00     0.066 CG0
ATOM     18  G   UNL     1      24.160  -0.772  20.276  1.00  0.00     0.000 G0
ENDBRANCH  13  17
ENDBRANCH  11  13
ENDBRANCH  10  11
ENDBRANCH   1  10
TORSDOF 0
ENDMDL
MODEL 4
REMARK VINA RESULT:    -3.389      2.035      3.899
REMARK INTER + INTRA:          -4.616
REMARK INTER:                  -5.491
REMARK INTRA:                   0.874
REMARK UNBOUND:                 0.160
REMARK SMILES CC1=CCC(=C(C)C)C(=O)CC(C)=CCC1
REMARK SMILES IDX 12 1 14 2 13 3 15 4 16 5 2 6 1 7 3 8 11 10 9 11 10 12 5 13
REMARK SMILES IDX 6 14 7 15 8 16 4 17
REMARK H PARENT
REMARK Flexibility Score: 60.00
ROOT
ATOM      1  C   UNL     1      24.797  -1.964  16.886  1.00  0.00    -0.070 C 
ATOM      2  C   UNL     1      23.725  -2.461  16.216  1.00  0.00    -0.027 C 
ATOM      3  C   UNL     1      25.700  -1.015  16.138  1.00  0.00     0.039 C 
ENDROOT
BRANCH   2   4
ATOM      4  C   UNL     1      22.754  -3.495  16.731  1.00  0.00     0.032 C 
BRANCH   4   5
ATOM      5  C   UNL     1      22.447  -3.348  18.227  1.00  0.00     0.034 C 
BRANCH   5   6
ATOM      6  C   UNL     1      21.405  -2.269  18.446  1.00  0.00    -0.077 C 
ATOM      7  C   UNL     1      20.136  -2.324  17.634  1.00  0.00     0.039 C 
ATOM      8  C   UNL     1      21.520  -1.303  19.388  1.00  0.00    -0.023 CG0
ATOM      9  G   UNL     1      22.717  -1.079  20.281  1.00  0.00     0.000 G0
ENDBRANCH   5   6
ENDBRANCH   4   5
ENDBRANCH   2   4
BRANCH   1  10
ATOM     10  C   UNL     1      25.096  -2.236  18.357  1.00  0.00     0.111 C 
BRANCH  10  11
ATOM     11  C   UNL     1      25.090  -1.002  19.224  1.00  0.00     0.163 C 
ATOM     12  O   UNL     1      26.205  -0.543  19.594  1.00  0.00    -0.294 OA
BRANCH  11  13
ATOM     13  C   UNL     1      23.828  -0.284  19.603  1.00  0.00    -0.002 C 
ATOM     14  C   UNL     1      23.695   1.062  19.380  1.00  0.00    -0.069 C 
ATOM     15  C   UNL     1      24.737   1.848  18.615  1.00  0.00     0.039 C 
ATOM     16  C   UNL     1      22.474   1.828  19.840  1.00  0.00     0.039 C 
BRANCH  13  17
ATOM     17  C   UNL     1      22.716  -1.068  20.296  1.00  0.00     0.066 CG0
ATOM     18  G   UNL     1      21.527  -1.291  19.392  1.00  0.00     0.000 G0
ENDBRANCH  13  17
ENDBRANCH  11  13
ENDBRANCH  10  11
ENDBRANCH   1  10
TORSDOF 0
ENDMDL
MODEL 5
REMARK VINA RESULT:    -3.270      1.781      4.059
REMARK INTER + INTRA:          -4.448
REMARK INTER:                  -4.686
REMARK INTRA:                   0.238
REMARK UNBOUND:                 0.160
REMARK SMILES CC1=CCC(=C(C)C)C(=O)CC(C)=CCC1
REMARK SMILES IDX 12 1 14 2 13 3 15 4 16 5 2 6 1 7 3 8 11 10 9 11 10 12 5 13
REMARK SMILES IDX 6 14 7 15 8 16 4 17
REMARK H PARENT
REMARK Flexibility Score: 60.00
ROOT
ATOM      1  C   UNL     1      25.274  -1.319  17.710  1.00  0.00    -0.070 C 
ATOM      2  C   UNL     1      25.560  -0.292  18.552  1.00  0.00    -0.027 C 
ATOM      3  C   UNL     1      25.883  -1.271  16.330  1.00  0.00     0.039 C 
ENDROOT
BRANCH   2   4
ATOM      4  C   UNL     1      24.983  -0.083  19.931  1.00  0.00     0.032 C 
BRANCH   4   5
ATOM      5  C   UNL     1      23.507   0.332  19.915  1.00  0.00     0.034 C 
BRANCH   5   6
ATOM      6  C   UNL     1      22.693  -0.585  20.807  1.00  0.00    -0.077 C 
ATOM      7  C   UNL     1      22.979  -0.582  22.287  1.00  0.00     0.039 C 
ATOM      8  C   UNL     1      21.670  -1.349  20.356  1.00  0.00    -0.023 CG0
ATOM      9  G   UNL     1      21.247  -1.493  18.913  1.00  0.00     0.000 G0
ENDBRANCH   5   6
ENDBRANCH   4   5
ENDBRANCH   2   4
BRANCH   1  10
ATOM     10  C   UNL     1      24.452  -2.545  18.094  1.00  0.00     0.111 C 
BRANCH  10  11
ATOM     11  C   UNL     1      23.088  -2.595  17.453  1.00  0.00     0.163 C 
ATOM     12  O   UNL     1      23.034  -2.570  16.192  1.00  0.00    -0.294 OA
BRANCH  11  13
ATOM     13  C   UNL     1      21.822  -2.730  18.247  1.00  0.00    -0.002 C 
ATOM     14  C   UNL     1      21.172  -3.934  18.328  1.00  0.00    -0.069 C 
ATOM     15  C   UNL     1      21.767  -5.200  17.754  1.00  0.00     0.039 C 
ATOM     16  C   UNL     1      19.845  -4.075  19.040  1.00  0.00     0.039 C 
BRANCH  13  17
ATOM     17  C   UNL     1      21.239  -1.488  18.918  1.00  0.00     0.066 CG0
ATOM     18  G   UNL     1      21.683  -1.355  20.355  1.00  0.00     0.000 G0
ENDBRANCH  13  17
ENDBRANCH  11  13
ENDBRANCH  10  11
ENDBRANCH   1  10
TORSDOF 0
ENDMDL
MODEL 6
REMARK VINA RESULT:    -3.246      4.795      6.554
REMARK INTER + INTRA:          -4.414
REMARK INTER:                  -5.178
REMARK INTRA:                   0.764
REMARK UNBOUND:                 0.160
REMARK SMILES CC1=CCC(=C(C)C)C(=O)CC(C)=CCC1
REMARK SMILES IDX 12 1 14 2 13 3 15 4 16 5 2 6 1 7 3 8 11 10 9 11 10 12 5 13
REMARK SMILES IDX 6 14 7 15 8 16 4 17
REMARK H PARENT
REMARK Flexibility Score: 60.00
ROOT
ATOM      1  C   UNL     1      27.585  -0.177  13.128  1.00  0.00    -0.070 C 
ATOM      2  C   UNL     1      26.861   0.450  12.165  1.00  0.00    -0.027 C 
ATOM      3  C   UNL     1      28.942   0.395  13.455  1.00  0.00     0.039 C 
ENDROOT
BRANCH   2   4
ATOM      4  C   UNL     1      25.534  -0.005  11.610  1.00  0.00     0.032 C 
BRANCH   4   5
ATOM      5  C   UNL     1      24.451   1.081  11.657  1.00  0.00     0.034 C 
BRANCH   5   6
ATOM      6  C   UNL     1      24.412   1.725  13.029  1.00  0.00    -0.077 C 
ATOM      7  C   UNL     1      24.577   3.220  13.123  1.00  0.00     0.039 C 
ATOM      8  C   UNL     1      24.159   1.037  14.169  1.00  0.00    -0.023 CG0
ATOM      9  G   UNL     1      23.983  -0.459  14.275  1.00  0.00     0.000 G0
ENDBRANCH   5   6
ENDBRANCH   4   5
ENDBRANCH   2   4
BRANCH   1  10
ATOM     10  C   UNL     1      27.085  -1.363  13.948  1.00  0.00     0.111 C 
BRANCH  10  11
ATOM     11  C   UNL     1      26.360  -0.972  15.212  1.00  0.00     0.163 C 
ATOM     12  O   UNL     1      27.047  -0.490  16.154  1.00  0.00    -0.294 OA
BRANCH  11  13
ATOM     13  C   UNL     1      24.870  -1.083  15.360  1.00  0.00    -0.002 C 
ATOM     14  C   UNL     1      24.321  -1.769  16.411  1.00  0.00    -0.069 C 
ATOM     15  C   UNL     1      25.172  -2.314  17.538  1.00  0.00     0.039 C 
ATOM     16  C   UNL     1      22.828  -1.978  16.533  1.00  0.00     0.039 C 
BRANCH  13  17
ATOM     17  C   UNL     1      23.977  -0.464  14.287  1.00  0.00     0.066 CG0
ATOM     18  G   UNL     1      24.168   1.030  14.179  1.00  0.00     0.000 G0
ENDBRANCH  13  17
ENDBRANCH  11  13
ENDBRANCH  10  11
ENDBRANCH   1  10
TORSDOF 0
ENDMDL
MODEL 7
REMARK VINA RESULT:    -3.114      4.899      6.532
REMARK INTER + INTRA:          -4.229
REMARK INTER:                  -4.709
REMARK INTRA:                   0.480
REMARK UNBOUND:                 0.160
REMARK SMILES CC1=CCC(=C(C)C)C(=O)CC(C)=CCC1
REMARK SMILES IDX 12 1 14 2 13 3 15 4 16 5 2 6 1 7 3 8 11 10 9 11 10 12 5 13
REMARK SMILES IDX 6 14 7 15 8 16 4 17
REMARK H PARENT
REMARK Flexibility Score: 60.00
ROOT
ATOM      1  C   UNL     1      24.630   1.935  13.039  1.00  0.00    -0.070 C 
ATOM      2  C   UNL     1      25.798   1.967  12.346  1.00  0.00    -0.027 C 
ATOM      3  C   UNL     1      23.357   2.144  12.257  1.00  0.00     0.039 C 
ENDROOT
BRANCH   2   4
ATOM      4  C   UNL     1      27.185   1.884  12.934  1.00  0.00     0.032 C 
BRANCH   4   5
ATOM      5  C   UNL     1      28.011   0.715  12.380  1.00  0.00     0.034 C 
BRANCH   5   6
ATOM      6  C   UNL     1      27.172  -0.547  12.339  1.00  0.00    -0.077 C 
ATOM      7  C   UNL     1      26.831  -1.136  10.994  1.00  0.00     0.039 C 
ATOM      8  C   UNL     1      26.779  -1.218  13.449  1.00  0.00    -0.023 CG0
ATOM      9  G   UNL     1      27.012  -0.777  14.874  1.00  0.00     0.000 G0
ENDBRANCH   5   6
ENDBRANCH   4   5
ENDBRANCH   2   4
BRANCH   1  10
ATOM     10  C   UNL     1      24.520   1.623  14.528  1.00  0.00     0.111 C 
BRANCH  10  11
ATOM     11  C   UNL     1      24.576   0.152  14.853  1.00  0.00     0.163 C 
ATOM     12  O   UNL     1      23.648  -0.580  14.410  1.00  0.00    -0.294 OA
BRANCH  11  13
ATOM     13  C   UNL     1      25.707  -0.468  15.621  1.00  0.00    -0.002 C 
ATOM     14  C   UNL     1      25.594  -0.702  16.966  1.00  0.00    -0.069 C 
ATOM     15  C   UNL     1      24.291  -0.489  17.704  1.00  0.00     0.039 C 
ATOM     16  C   UNL     1      26.752  -1.235  17.781  1.00  0.00     0.039 C 
BRANCH  13  17
ATOM     17  C   UNL     1      27.009  -0.781  14.886  1.00  0.00     0.066 CG0
ATOM     18  G   UNL     1      26.769  -1.203  13.456  1.00  0.00     0.000 G0
ENDBRANCH  13  17
ENDBRANCH  11  13
ENDBRANCH  10  11
ENDBRANCH   1  10
TORSDOF 0
ENDMDL
MODEL 8
REMARK VINA RESULT:    -2.984      1.199      1.993
REMARK INTER + INTRA:          -4.045
REMARK INTER:                  -4.759
REMARK INTRA:                   0.714
REMARK UNBOUND:                 0.160
REMARK SMILES CC1=CCC(=C(C)C)C(=O)CC(C)=CCC1
REMARK SMILES IDX 12 1 14 2 13 3 15 4 16 5 2 6 1 7 3 8 11 10 9 11 10 12 5 13
REMARK SMILES IDX 6 14 7 15 8 16 4 17
REMARK H PARENT
REMARK Flexibility Score: 60.00
ROOT
ATOM      1  C   UNL     1      24.062  -2.242  17.290  1.00  0.00    -0.070 C 
ATOM      2  C   UNL     1      25.229  -1.664  17.673  1.00  0.00    -0.027 C 
ATOM      3  C   UNL     1      23.752  -2.261  15.813  1.00  0.00     0.039 C 
ENDROOT
BRANCH   2   4
ATOM      4  C   UNL     1      25.690  -1.444  19.093  1.00  0.00     0.032 C 
BRANCH   4   5
ATOM      5  C   UNL     1      25.963   0.029  19.423  1.00  0.00     0.034 C 
BRANCH   5   6
ATOM      6  C   UNL     1      24.685   0.838  19.307  1.00  0.00    -0.077 C 
ATOM      7  C   UNL     1      24.693   2.067  18.434  1.00  0.00     0.039 C 
ATOM      8  C   UNL     1      23.516   0.471  19.883  1.00  0.00    -0.023 CG0
ATOM      9  G   UNL     1      23.318  -0.713  20.799  1.00  0.00     0.000 G0
ENDBRANCH   5   6
ENDBRANCH   4   5
ENDBRANCH   2   4
BRANCH   1  10
ATOM     10  C   UNL     1      23.092  -2.939  18.239  1.00  0.00     0.111 C 
BRANCH  10  11
ATOM     11  C   UNL     1      22.090  -2.013  18.882  1.00  0.00     0.163 C 
ATOM     12  O   UNL     1      21.134  -1.602  18.169  1.00  0.00    -0.294 OA
BRANCH  11  13
ATOM     13  C   UNL     1      22.160  -1.619  20.328  1.00  0.00    -0.002 C 
ATOM     14  C   UNL     1      21.192  -2.022  21.211  1.00  0.00    -0.069 C 
ATOM     15  C   UNL     1      20.102  -2.991  20.808  1.00  0.00     0.039 C 
ATOM     16  C   UNL     1      21.186  -1.560  22.651  1.00  0.00     0.039 C 
BRANCH  13  17
ATOM     17  C   UNL     1      23.300  -0.714  20.789  1.00  0.00     0.066 CG0
ATOM     18  G   UNL     1      23.492   0.472  19.874  1.00  0.00     0.000 G0
ENDBRANCH  13  17
ENDBRANCH  11  13
ENDBRANCH  10  11
ENDBRANCH   1  10
TORSDOF 0
ENDMDL
MODEL 9
REMARK VINA RESULT:    -2.848      1.736      4.114
REMARK INTER + INTRA:          -3.854
REMARK INTER:                  -4.230
REMARK INTRA:                   0.377
REMARK UNBOUND:                 0.160
REMARK SMILES CC1=CCC(=C(C)C)C(=O)CC(C)=CCC1
REMARK SMILES IDX 12 1 14 2 13 3 15 4 16 5 2 6 1 7 3 8 11 10 9 11 10 12 5 13
REMARK SMILES IDX 6 14 7 15 8 16 4 17
REMARK H PARENT
REMARK Flexibility Score: 60.00
ROOT
ATOM      1  C   UNL     1      23.725   0.064  20.677  1.00  0.00    -0.070 C 
ATOM      2  C   UNL     1      24.930   0.547  20.276  1.00  0.00    -0.027 C 
ATOM      3  C   UNL     1      23.476  -0.025  22.162  1.00  0.00     0.039 C 
ENDROOT
BRANCH   2   4
ATOM      4  C   UNL     1      25.429   0.627  18.854  1.00  0.00     0.032 C 
BRANCH   4   5
ATOM      5  C   UNL     1      26.097  -0.667  18.371  1.00  0.00     0.034 C 
BRANCH   5   6
ATOM      6  C   UNL     1      25.392  -1.192  17.136  1.00  0.00    -0.077 C 
ATOM      7  C   UNL     1      25.728  -0.574  15.803  1.00  0.00     0.039 C 
ATOM      8  C   UNL     1      24.534  -2.240  17.156  1.00  0.00    -0.023 CG0
ATOM      9  G   UNL     1      24.066  -2.973  18.391  1.00  0.00     0.000 G0
ENDBRANCH   5   6
ENDBRANCH   4   5
ENDBRANCH   2   4
BRANCH   1  10
ATOM     10  C   UNL     1      22.589  -0.313  19.731  1.00  0.00     0.111 C 
BRANCH  10  11
ATOM     11  C   UNL     1      22.212  -1.773  19.776  1.00  0.00     0.163 C 
ATOM     12  O   UNL     1      21.520  -2.167  20.754  1.00  0.00    -0.294 OA
BRANCH  11  13
ATOM     13  C   UNL     1      22.577  -2.739  18.687  1.00  0.00    -0.002 C 
ATOM     14  C   UNL     1      21.606  -3.427  18.007  1.00  0.00    -0.069 C 
ATOM     15  C   UNL     1      20.135  -3.140  18.215  1.00  0.00     0.039 C 
ATOM     16  C   UNL     1      21.949  -4.476  16.973  1.00  0.00     0.039 C 
BRANCH  13  17
ATOM     17  C   UNL     1      24.055  -2.986  18.388  1.00  0.00     0.066 CG0
ATOM     18  G   UNL     1      24.518  -2.245  17.156  1.00  0.00     0.000 G0
ENDBRANCH  13  17
ENDBRANCH  11  13
ENDBRANCH  10  11
ENDBRANCH   1  10
TORSDOF 0
ENDMDL
