MODEL 1
REMARK VINA RESULT:    -2.566      0.000      0.000
REMARK INTER + INTRA:          -2.880
REMARK INTER:                  -2.866
REMARK INTRA:                  -0.014
REMARK UNBOUND:                -0.014
REMARK SMILES CCCC(=O)[O-]
REMARK SMILES IDX 3 1 4 2 5 3 6 4 2 5 1 6
REMARK H PARENT
REMARK Flexibility Score: inf
ROOT
ATOM      1  C   UNL     1     -21.655 -20.889  -1.095  1.00  0.00     0.052 C 
ENDROOT
BRANCH   1   2
ATOM      2  C   UNL     1     -22.401 -22.023  -0.460  1.00  0.00     0.041 C 
ATOM      3  O   UNL     1     -22.554 -23.107  -1.081  1.00  0.00    -0.550 OA
ATOM      4  O   UNL     1     -22.901 -21.891   0.828  1.00  0.00    -0.550 OA
ENDBRANCH   1   2
BRANCH   1   5
ATOM      5  C   UNL     1     -21.757 -19.605  -0.262  1.00  0.00     0.003 C 
ATOM      6  C   UNL     1     -20.540 -19.399   0.640  1.00  0.00     0.004 C 
ENDBRANCH   1   5
TORSDOF 2
ENDMDL
MODEL 2
REMARK VINA RESULT:    -2.564      1.014      2.026
REMARK INTER + INTRA:          -2.877
REMARK INTER:                  -2.835
REMARK INTRA:                  -0.042
REMARK UNBOUND:                -0.014
REMARK SMILES CCCC(=O)[O-]
REMARK SMILES IDX 3 1 4 2 5 3 6 4 2 5 1 6
REMARK H PARENT
REMARK Flexibility Score: inf
ROOT
ATOM      1  C   UNL     1     -21.480 -20.695  -0.200  1.00  0.00     0.052 C 
ENDROOT
BRANCH   1   2
ATOM      2  C   UNL     1     -22.291 -21.905   0.151  1.00  0.00     0.041 C 
ATOM      3  O   UNL     1     -22.755 -22.041   1.313  1.00  0.00    -0.550 OA
ATOM      4  O   UNL     1     -22.559 -22.867  -0.814  1.00  0.00    -0.550 OA
ENDBRANCH   1   2
BRANCH   1   5
ATOM      5  C   UNL     1     -21.839 -20.156  -1.591  1.00  0.00     0.003 C 
ATOM      6  C   UNL     1     -22.941 -19.098  -1.537  1.00  0.00     0.004 C 
ENDBRANCH   1   5
TORSDOF 2
ENDMDL
MODEL 3
REMARK VINA RESULT:    -2.564      5.796      6.628
REMARK INTER + INTRA:          -2.877
REMARK INTER:                  -2.827
REMARK INTRA:                  -0.050
REMARK UNBOUND:                -0.014
REMARK SMILES CCCC(=O)[O-]
REMARK SMILES IDX 3 1 4 2 5 3 6 4 2 5 1 6
REMARK H PARENT
REMARK Flexibility Score: inf
ROOT
ATOM      1  C   UNL     1     -16.529 -19.925   1.808  1.00  0.00     0.052 C 
ENDROOT
BRANCH   1   2
ATOM      2  C   UNL     1     -16.017 -20.197   3.190  1.00  0.00     0.041 C 
ATOM      3  O   UNL     1     -14.792 -20.066   3.449  1.00  0.00    -0.550 OA
ATOM      4  O   UNL     1     -16.899 -20.562   4.198  1.00  0.00    -0.550 OA
ENDBRANCH   1   2
BRANCH   1   5
ATOM      5  C   UNL     1     -17.909 -19.257   1.835  1.00  0.00     0.003 C 
ATOM      6  C   UNL     1     -17.816 -17.739   1.990  1.00  0.00     0.004 C 
ENDBRANCH   1   5
TORSDOF 2
ENDMDL
MODEL 4
REMARK VINA RESULT:    -2.507      8.041      8.745
REMARK INTER + INTRA:          -2.813
REMARK INTER:                  -2.766
REMARK INTRA:                  -0.047
REMARK UNBOUND:                -0.014
REMARK SMILES CCCC(=O)[O-]
REMARK SMILES IDX 3 1 4 2 5 3 6 4 2 5 1 6
REMARK H PARENT
REMARK Flexibility Score: inf
ROOT
ATOM      1  C   UNL     1     -17.113 -14.665  -2.597  1.00  0.00     0.052 C 
ENDROOT
BRANCH   1   2
ATOM      2  C   UNL     1     -18.158 -13.779  -3.204  1.00  0.00     0.041 C 
ATOM      3  O   UNL     1     -18.916 -14.220  -4.107  1.00  0.00    -0.550 OA
ATOM      4  O   UNL     1     -18.314 -12.476  -2.749  1.00  0.00    -0.550 OA
ENDBRANCH   1   2
BRANCH   1   5
ATOM      5  C   UNL     1     -16.856 -14.313  -1.126  1.00  0.00     0.003 C 
ATOM      6  C   UNL     1     -17.816 -15.034  -0.180  1.00  0.00     0.004 C 
ENDBRANCH   1   5
TORSDOF 2
ENDMDL
MODEL 5
REMARK VINA RESULT:    -2.414      9.045      9.504
REMARK INTER + INTRA:          -2.710
REMARK INTER:                  -2.677
REMARK INTRA:                  -0.033
REMARK UNBOUND:                -0.014
REMARK SMILES CCCC(=O)[O-]
REMARK SMILES IDX 3 1 4 2 5 3 6 4 2 5 1 6
REMARK H PARENT
REMARK Flexibility Score: inf
ROOT
ATOM      1  C   UNL     1     -18.567 -14.008  -3.506  1.00  0.00     0.052 C 
ENDROOT
BRANCH   1   2
ATOM      2  C   UNL     1     -19.258 -12.698  -3.730  1.00  0.00     0.041 C 
ATOM      3  O   UNL     1     -19.281 -11.829  -2.819  1.00  0.00    -0.550 OA
ATOM      4  O   UNL     1     -19.850 -12.425  -4.956  1.00  0.00    -0.550 OA
ENDBRANCH   1   2
BRANCH   1   5
ATOM      5  C   UNL     1     -17.233 -13.828  -2.771  1.00  0.00     0.003 C 
ATOM      6  C   UNL     1     -17.138 -14.697  -1.517  1.00  0.00     0.004 C 
ENDBRANCH   1   5
TORSDOF 2
ENDMDL
MODEL 6
REMARK VINA RESULT:    -2.409      5.685      6.631
REMARK INTER + INTRA:          -2.705
REMARK INTER:                  -2.676
REMARK INTRA:                  -0.029
REMARK UNBOUND:                -0.014
REMARK SMILES CCCC(=O)[O-]
REMARK SMILES IDX 3 1 4 2 5 3 6 4 2 5 1 6
REMARK H PARENT
REMARK Flexibility Score: inf
ROOT
ATOM      1  C   UNL     1     -17.303 -20.332   3.691  1.00  0.00     0.052 C 
ENDROOT
BRANCH   1   2
ATOM      2  C   UNL     1     -16.142 -20.181   2.757  1.00  0.00     0.041 C 
ATOM      3  O   UNL     1     -16.337 -20.031   1.522  1.00  0.00    -0.550 OA
ATOM      4  O   UNL     1     -14.846 -20.176   3.255  1.00  0.00    -0.550 OA
ENDBRANCH   1   2
BRANCH   1   5
ATOM      5  C   UNL     1     -18.167 -21.548   3.331  1.00  0.00     0.003 C 
ATOM      6  C   UNL     1     -19.648 -21.192   3.203  1.00  0.00     0.004 C 
ENDBRANCH   1   5
TORSDOF 2
ENDMDL
MODEL 7
REMARK VINA RESULT:    -2.376      6.549      7.704
REMARK INTER + INTRA:          -2.667
REMARK INTER:                  -2.639
REMARK INTRA:                  -0.028
REMARK UNBOUND:                -0.014
REMARK SMILES CCCC(=O)[O-]
REMARK SMILES IDX 3 1 4 2 5 3 6 4 2 5 1 6
REMARK H PARENT
REMARK Flexibility Score: inf
ROOT
ATOM      1  C   UNL     1     -15.813 -19.531   3.983  1.00  0.00     0.052 C 
ENDROOT
BRANCH   1   2
ATOM      2  C   UNL     1     -16.028 -20.465   5.135  1.00  0.00     0.041 C 
ATOM      3  O   UNL     1     -17.191 -20.846   5.433  1.00  0.00    -0.550 OA
ATOM      4  O   UNL     1     -14.942 -20.938   5.858  1.00  0.00    -0.550 OA
ENDBRANCH   1   2
BRANCH   1   5
ATOM      5  C   UNL     1     -16.080 -20.218   2.638  1.00  0.00     0.003 C 
ATOM      6  C   UNL     1     -17.106 -19.463   1.793  1.00  0.00     0.004 C 
ENDBRANCH   1   5
TORSDOF 2
ENDMDL
MODEL 8
REMARK VINA RESULT:    -2.313     18.826     19.337
REMARK INTER + INTRA:          -2.597
REMARK INTER:                  -2.589
REMARK INTRA:                  -0.008
REMARK UNBOUND:                -0.014
REMARK SMILES CCCC(=O)[O-]
REMARK SMILES IDX 3 1 4 2 5 3 6 4 2 5 1 6
REMARK H PARENT
REMARK Flexibility Score: inf
ROOT
ATOM      1  C   UNL     1     -11.330  -9.127 -10.633  1.00  0.00     0.052 C 
ENDROOT
BRANCH   1   2
ATOM      2  C   UNL     1     -12.732  -8.780 -10.234  1.00  0.00     0.041 C 
ATOM      3  O   UNL     1     -12.946  -8.091  -9.202  1.00  0.00    -0.550 OA
ATOM      4  O   UNL     1     -13.800  -9.192 -11.021  1.00  0.00    -0.550 OA
ENDBRANCH   1   2
BRANCH   1   5
ATOM      5  C   UNL     1     -10.509  -7.875 -10.969  1.00  0.00     0.003 C 
ATOM      6  C   UNL     1      -9.014  -8.173 -11.077  1.00  0.00     0.004 C 
ENDBRANCH   1   5
TORSDOF 2
ENDMDL
MODEL 9
REMARK VINA RESULT:    -2.304      7.899      8.996
REMARK INTER + INTRA:          -2.587
REMARK INTER:                  -2.555
REMARK INTRA:                  -0.032
REMARK UNBOUND:                -0.014
REMARK SMILES CCCC(=O)[O-]
REMARK SMILES IDX 3 1 4 2 5 3 6 4 2 5 1 6
REMARK H PARENT
REMARK Flexibility Score: inf
ROOT
ATOM      1  C   UNL     1     -22.519 -26.238  -7.275  1.00  0.00     0.052 C 
ENDROOT
BRANCH   1   2
ATOM      2  C   UNL     1     -22.725 -24.762  -7.124  1.00  0.00     0.041 C 
ATOM      3  O   UNL     1     -22.146 -23.958  -7.901  1.00  0.00    -0.550 OA
ATOM      4  O   UNL     1     -23.581 -24.277  -6.144  1.00  0.00    -0.550 OA
ENDBRANCH   1   2
BRANCH   1   5
ATOM      5  C   UNL     1     -21.825 -26.581  -8.600  1.00  0.00     0.003 C 
ATOM      6  C   UNL     1     -20.552 -27.402  -8.393  1.00  0.00     0.004 C 
ENDBRANCH   1   5
TORSDOF 2
ENDMDL
