MODEL 1
REMARK VINA RESULT:    -3.637      0.000      0.000
REMARK INTER + INTRA:          -5.498
REMARK INTER:                  -4.913
REMARK INTRA:                  -0.584
REMARK UNBOUND:                -0.584
REMARK SMILES CCCCCCC=CC(=O)[O-]
REMARK SMILES IDX 5 1 6 2 7 3 8 4 9 5 10 6 11 7 4 8 3 9 2 10 1 11
REMARK H PARENT
REMARK Flexibility Score: inf
ROOT
ATOM      1  C   UNL     1      -1.363  15.017  -6.100  1.00  0.00     0.004 C 
ENDROOT
BRANCH   1   2
ATOM      2  C   UNL     1      -0.353  14.847  -4.957  1.00  0.00     0.027 C 
BRANCH   2   3
ATOM      3  C   UNL     1       0.156  16.179  -4.477  1.00  0.00    -0.025 C 
ATOM      4  C   UNL     1       0.032  16.671  -3.234  1.00  0.00     0.020 C 
BRANCH   4   5
ATOM      5  C   UNL     1      -0.664  16.031  -2.097  1.00  0.00     0.064 C 
ATOM      6  O   UNL     1       0.019  15.587  -1.138  1.00  0.00    -0.545 OA
ATOM      7  O   UNL     1      -2.047  15.925  -2.039  1.00  0.00    -0.545 OA
ENDBRANCH   4   5
ENDBRANCH   2   3
ENDBRANCH   1   2
BRANCH   1   8
ATOM      8  C   UNL     1      -2.786  15.194  -5.554  1.00  0.00     0.000 C 
BRANCH   8   9
ATOM      9  C   UNL     1      -3.265  13.990  -4.722  1.00  0.00    -0.000 C 
BRANCH   9  10
ATOM     10  C   UNL     1      -3.123  12.626  -5.419  1.00  0.00    -0.003 C 
ATOM     11  C   UNL     1      -2.379  11.595  -4.570  1.00  0.00     0.004 C 
ENDBRANCH   9  10
ENDBRANCH   8   9
ENDBRANCH   1   8
TORSDOF 6
ENDMDL
MODEL 2
REMARK VINA RESULT:    -3.629      2.225      4.573
REMARK INTER + INTRA:          -5.487
REMARK INTER:                  -5.235
REMARK INTRA:                  -0.252
REMARK UNBOUND:                -0.584
REMARK SMILES CCCCCCC=CC(=O)[O-]
REMARK SMILES IDX 5 1 6 2 7 3 8 4 9 5 10 6 11 7 4 8 3 9 2 10 1 11
REMARK H PARENT
REMARK Flexibility Score: inf
ROOT
ATOM      1  C   UNL     1      -1.574  16.191  -5.367  1.00  0.00     0.004 C 
ENDROOT
BRANCH   1   2
ATOM      2  C   UNL     1      -2.718  15.269  -4.924  1.00  0.00     0.027 C 
BRANCH   2   3
ATOM      3  C   UNL     1      -3.111  14.320  -6.024  1.00  0.00    -0.025 C 
ATOM      4  C   UNL     1      -2.991  12.983  -5.994  1.00  0.00     0.020 C 
BRANCH   4   5
ATOM      5  C   UNL     1      -2.413  12.173  -4.900  1.00  0.00     0.064 C 
ATOM      6  O   UNL     1      -3.135  11.314  -4.332  1.00  0.00    -0.545 OA
ATOM      7  O   UNL     1      -1.092  12.310  -4.494  1.00  0.00    -0.545 OA
ENDBRANCH   4   5
ENDBRANCH   2   3
ENDBRANCH   1   2
BRANCH   1   8
ATOM      8  C   UNL     1      -0.252  15.783  -4.702  1.00  0.00     0.000 C 
BRANCH   8   9
ATOM      9  C   UNL     1      -0.005  16.505  -3.365  1.00  0.00    -0.000 C 
BRANCH   9  10
ATOM     10  C   UNL     1      -0.804  15.949  -2.173  1.00  0.00    -0.003 C 
ATOM     11  C   UNL     1       0.002  15.917  -0.875  1.00  0.00     0.004 C 
ENDBRANCH   9  10
ENDBRANCH   8   9
ENDBRANCH   1   8
TORSDOF 6
ENDMDL
MODEL 3
REMARK VINA RESULT:    -3.559      7.768      9.132
REMARK INTER + INTRA:          -5.392
REMARK INTER:                  -4.949
REMARK INTRA:                  -0.443
REMARK UNBOUND:                -0.584
REMARK SMILES CCCCCCC=CC(=O)[O-]
REMARK SMILES IDX 5 1 6 2 7 3 8 4 9 5 10 6 11 7 4 8 3 9 2 10 1 11
REMARK H PARENT
REMARK Flexibility Score: inf
ROOT
ATOM      1  C   UNL     1       0.998   8.734  -0.424  1.00  0.00     0.004 C 
ENDROOT
BRANCH   1   2
ATOM      2  C   UNL     1       1.775   9.626  -1.402  1.00  0.00     0.027 C 
BRANCH   2   3
ATOM      3  C   UNL     1       3.254   9.365  -1.321  1.00  0.00    -0.025 C 
ATOM      4  C   UNL     1       4.124   9.422  -2.343  1.00  0.00     0.020 C 
BRANCH   4   5
ATOM      5  C   UNL     1       3.804   9.708  -3.758  1.00  0.00     0.064 C 
ATOM      6  O   UNL     1       3.626   8.744  -4.547  1.00  0.00    -0.545 OA
ATOM      7  O   UNL     1       3.667  11.002  -4.241  1.00  0.00    -0.545 OA
ENDBRANCH   4   5
ENDBRANCH   2   3
ENDBRANCH   1   2
BRANCH   1   8
ATOM      8  C   UNL     1       1.736   7.410  -0.183  1.00  0.00     0.000 C 
BRANCH   8   9
ATOM      9  C   UNL     1       1.954   7.107   1.311  1.00  0.00    -0.000 C 
BRANCH   9  10
ATOM     10  C   UNL     1       3.420   6.875   1.717  1.00  0.00    -0.003 C 
ATOM     11  C   UNL     1       3.821   5.400   1.691  1.00  0.00     0.004 C 
ENDBRANCH   9  10
ENDBRANCH   8   9
ENDBRANCH   1   8
TORSDOF 6
ENDMDL
MODEL 4
REMARK VINA RESULT:    -3.559      2.739      4.782
REMARK INTER + INTRA:          -5.392
REMARK INTER:                  -4.746
REMARK INTRA:                  -0.646
REMARK UNBOUND:                -0.584
REMARK SMILES CCCCCCC=CC(=O)[O-]
REMARK SMILES IDX 5 1 6 2 7 3 8 4 9 5 10 6 11 7 4 8 3 9 2 10 1 11
REMARK H PARENT
REMARK Flexibility Score: inf
ROOT
ATOM      1  C   UNL     1      -0.976  15.667  -3.844  1.00  0.00     0.004 C 
ENDROOT
BRANCH   1   2
ATOM      2  C   UNL     1      -2.437  15.197  -3.865  1.00  0.00     0.027 C 
BRANCH   2   3
ATOM      3  C   UNL     1      -2.817  14.658  -5.217  1.00  0.00    -0.025 C 
ATOM      4  C   UNL     1      -2.788  13.368  -5.590  1.00  0.00     0.020 C 
BRANCH   4   5
ATOM      5  C   UNL     1      -2.339  12.223  -4.770  1.00  0.00     0.064 C 
ATOM      6  O   UNL     1      -3.188  11.372  -4.396  1.00  0.00    -0.545 OA
ATOM      7  O   UNL     1      -1.008  12.038  -4.419  1.00  0.00    -0.545 OA
ENDBRANCH   4   5
ENDBRANCH   2   3
ENDBRANCH   1   2
BRANCH   1   8
ATOM      8  C   UNL     1      -0.616  16.400  -5.143  1.00  0.00     0.000 C 
BRANCH   8   9
ATOM      9  C   UNL     1      -0.503  17.925  -4.961  1.00  0.00    -0.000 C 
BRANCH   9  10
ATOM     10  C   UNL     1      -1.415  18.755  -5.882  1.00  0.00    -0.003 C 
ATOM     11  C   UNL     1      -2.902  18.485  -5.652  1.00  0.00     0.004 C 
ENDBRANCH   9  10
ENDBRANCH   8   9
ENDBRANCH   1   8
TORSDOF 6
ENDMDL
MODEL 5
REMARK VINA RESULT:    -3.534      2.157      4.226
REMARK INTER + INTRA:          -5.358
REMARK INTER:                  -4.849
REMARK INTRA:                  -0.509
REMARK UNBOUND:                -0.584
REMARK SMILES CCCCCCC=CC(=O)[O-]
REMARK SMILES IDX 5 1 6 2 7 3 8 4 9 5 10 6 11 7 4 8 3 9 2 10 1 11
REMARK H PARENT
REMARK Flexibility Score: inf
ROOT
ATOM      1  C   UNL     1      -0.347  16.959  -5.099  1.00  0.00     0.004 C 
ENDROOT
BRANCH   1   2
ATOM      2  C   UNL     1      -1.877  16.947  -4.967  1.00  0.00     0.027 C 
BRANCH   2   3
ATOM      3  C   UNL     1      -2.519  16.226  -6.120  1.00  0.00    -0.025 C 
ATOM      4  C   UNL     1      -2.976  14.963  -6.106  1.00  0.00     0.020 C 
BRANCH   4   5
ATOM      5  C   UNL     1      -2.906  14.012  -4.976  1.00  0.00     0.064 C 
ATOM      6  O   UNL     1      -2.031  13.107  -4.996  1.00  0.00    -0.545 OA
ATOM      7  O   UNL     1      -3.755  14.097  -3.880  1.00  0.00    -0.545 OA
ENDBRANCH   4   5
ENDBRANCH   2   3
ENDBRANCH   1   2
BRANCH   1   8
ATOM      8  C   UNL     1       0.322  16.650  -3.753  1.00  0.00     0.000 C 
BRANCH   8   9
ATOM      9  C   UNL     1      -0.391  15.533  -2.970  1.00  0.00    -0.000 C 
BRANCH   9  10
ATOM     10  C   UNL     1      -0.997  15.971  -1.625  1.00  0.00    -0.003 C 
ATOM     11  C   UNL     1       0.046  16.109  -0.516  1.00  0.00     0.004 C 
ENDBRANCH   9  10
ENDBRANCH   8   9
ENDBRANCH   1   8
TORSDOF 6
ENDMDL
MODEL 6
REMARK VINA RESULT:    -3.404      2.242      2.612
REMARK INTER + INTRA:          -5.182
REMARK INTER:                  -4.508
REMARK INTRA:                  -0.674
REMARK UNBOUND:                -0.584
REMARK SMILES CCCCCCC=CC(=O)[O-]
REMARK SMILES IDX 5 1 6 2 7 3 8 4 9 5 10 6 11 7 4 8 3 9 2 10 1 11
REMARK H PARENT
REMARK Flexibility Score: inf
ROOT
ATOM      1  C   UNL     1      -1.899  15.892  -4.054  1.00  0.00     0.004 C 
ENDROOT
BRANCH   1   2
ATOM      2  C   UNL     1      -0.560  15.232  -3.694  1.00  0.00     0.027 C 
BRANCH   2   3
ATOM      3  C   UNL     1       0.257  14.948  -4.924  1.00  0.00    -0.025 C 
ATOM      4  C   UNL     1       1.117  15.794  -5.515  1.00  0.00     0.020 C 
BRANCH   4   5
ATOM      5  C   UNL     1       1.405  17.186  -5.107  1.00  0.00     0.064 C 
ATOM      6  O   UNL     1       2.429  17.416  -4.414  1.00  0.00    -0.545 OA
ATOM      7  O   UNL     1       0.598  18.251  -5.484  1.00  0.00    -0.545 OA
ENDBRANCH   4   5
ENDBRANCH   2   3
ENDBRANCH   1   2
BRANCH   1   8
ATOM      8  C   UNL     1      -2.552  15.189  -5.252  1.00  0.00     0.000 C 
BRANCH   8   9
ATOM      9  C   UNL     1      -3.423  13.988  -4.842  1.00  0.00    -0.000 C 
BRANCH   9  10
ATOM     10  C   UNL     1      -3.062  12.661  -5.533  1.00  0.00    -0.003 C 
ATOM     11  C   UNL     1      -2.126  11.788  -4.698  1.00  0.00     0.004 C 
ENDBRANCH   9  10
ENDBRANCH   8   9
ENDBRANCH   1   8
TORSDOF 6
ENDMDL
MODEL 7
REMARK VINA RESULT:    -3.346      2.566      4.933
REMARK INTER + INTRA:          -5.104
REMARK INTER:                  -4.646
REMARK INTRA:                  -0.458
REMARK UNBOUND:                -0.584
REMARK SMILES CCCCCCC=CC(=O)[O-]
REMARK SMILES IDX 5 1 6 2 7 3 8 4 9 5 10 6 11 7 4 8 3 9 2 10 1 11
REMARK H PARENT
REMARK Flexibility Score: inf
ROOT
ATOM      1  C   UNL     1      -0.744  15.517  -4.410  1.00  0.00     0.004 C 
ENDROOT
BRANCH   1   2
ATOM      2  C   UNL     1      -2.221  15.163  -4.190  1.00  0.00     0.027 C 
BRANCH   2   3
ATOM      3  C   UNL     1      -2.817  14.522  -5.414  1.00  0.00    -0.025 C 
ATOM      4  C   UNL     1      -2.906  13.203  -5.651  1.00  0.00     0.020 C 
BRANCH   4   5
ATOM      5  C   UNL     1      -2.402  12.115  -4.784  1.00  0.00     0.064 C 
ATOM      6  O   UNL     1      -3.218  11.269  -4.335  1.00  0.00    -0.545 OA
ATOM      7  O   UNL     1      -1.057  11.980  -4.469  1.00  0.00    -0.545 OA
ENDBRANCH   4   5
ENDBRANCH   2   3
ENDBRANCH   1   2
BRANCH   1   8
ATOM      8  C   UNL     1      -0.523  16.104  -5.811  1.00  0.00     0.000 C 
BRANCH   8   9
ATOM      9  C   UNL     1      -0.422  17.640  -5.809  1.00  0.00    -0.000 C 
BRANCH   9  10
ATOM     10  C   UNL     1       0.321  18.238  -4.602  1.00  0.00    -0.003 C 
ATOM     11  C   UNL     1       1.842  18.170  -4.742  1.00  0.00     0.004 C 
ENDBRANCH   9  10
ENDBRANCH   8   9
ENDBRANCH   1   8
TORSDOF 6
ENDMDL
MODEL 8
REMARK VINA RESULT:    -3.176      2.568      3.092
REMARK INTER + INTRA:          -4.874
REMARK INTER:                  -4.467
REMARK INTRA:                  -0.407
REMARK UNBOUND:                -0.584
REMARK SMILES CCCCCCC=CC(=O)[O-]
REMARK SMILES IDX 5 1 6 2 7 3 8 4 9 5 10 6 11 7 4 8 3 9 2 10 1 11
REMARK H PARENT
REMARK Flexibility Score: inf
ROOT
ATOM      1  C   UNL     1      -1.667  15.915  -3.764  1.00  0.00     0.004 C 
ENDROOT
BRANCH   1   2
ATOM      2  C   UNL     1      -0.266  16.482  -3.497  1.00  0.00     0.027 C 
BRANCH   2   3
ATOM      3  C   UNL     1      -0.011  17.716  -4.317  1.00  0.00    -0.025 C 
ATOM      4  C   UNL     1       1.081  17.959  -5.061  1.00  0.00     0.020 C 
BRANCH   4   5
ATOM      5  C   UNL     1       2.270  17.090  -5.192  1.00  0.00     0.064 C 
ATOM      6  O   UNL     1       3.342  17.436  -4.631  1.00  0.00    -0.545 OA
ATOM      7  O   UNL     1       2.239  15.891  -5.893  1.00  0.00    -0.545 OA
ENDBRANCH   4   5
ENDBRANCH   2   3
ENDBRANCH   1   2
BRANCH   1   8
ATOM      8  C   UNL     1      -2.026  16.018  -5.253  1.00  0.00     0.000 C 
BRANCH   8   9
ATOM      9  C   UNL     1      -2.937  14.873  -5.732  1.00  0.00    -0.000 C 
BRANCH   9  10
ATOM     10  C   UNL     1      -3.261  13.815  -4.663  1.00  0.00    -0.003 C 
ATOM     11  C   UNL     1      -2.729  12.426  -5.015  1.00  0.00     0.004 C 
ENDBRANCH   9  10
ENDBRANCH   8   9
ENDBRANCH   1   8
TORSDOF 6
ENDMDL
MODEL 9
REMARK VINA RESULT:    -3.119      2.649      4.508
REMARK INTER + INTRA:          -4.798
REMARK INTER:                  -4.461
REMARK INTRA:                  -0.336
REMARK UNBOUND:                -0.584
REMARK SMILES CCCCCCC=CC(=O)[O-]
REMARK SMILES IDX 5 1 6 2 7 3 8 4 9 5 10 6 11 7 4 8 3 9 2 10 1 11
REMARK H PARENT
REMARK Flexibility Score: inf
ROOT
ATOM      1  C   UNL     1      -0.340  16.709  -4.140  1.00  0.00     0.004 C 
ENDROOT
BRANCH   1   2
ATOM      2  C   UNL     1      -0.132  15.650  -5.232  1.00  0.00     0.027 C 
BRANCH   2   3
ATOM      3  C   UNL     1      -0.065  14.267  -4.645  1.00  0.00    -0.025 C 
ATOM      4  C   UNL     1      -1.083  13.395  -4.559  1.00  0.00     0.020 C 
BRANCH   4   5
ATOM      5  C   UNL     1      -2.481  13.627  -4.980  1.00  0.00     0.064 C 
ATOM      6  O   UNL     1      -2.860  13.191  -6.098  1.00  0.00    -0.545 OA
ATOM      7  O   UNL     1      -3.398  14.288  -4.174  1.00  0.00    -0.545 OA
ENDBRANCH   4   5
ENDBRANCH   2   3
ENDBRANCH   1   2
BRANCH   1   8
ATOM      8  C   UNL     1      -0.162  18.124  -4.707  1.00  0.00     0.000 C 
BRANCH   8   9
ATOM      9  C   UNL     1      -1.207  18.476  -5.781  1.00  0.00    -0.000 C 
BRANCH   9  10
ATOM     10  C   UNL     1      -2.655  18.094  -5.425  1.00  0.00    -0.003 C 
ATOM     11  C   UNL     1      -3.665  19.186  -5.775  1.00  0.00     0.004 C 
ENDBRANCH   9  10
ENDBRANCH   8   9
ENDBRANCH   1   8
TORSDOF 6
ENDMDL
