MODEL 1
REMARK VINA RESULT:    -2.553      0.000      0.000
REMARK INTER + INTRA:          -2.553
REMARK INTER:                  -2.553
REMARK INTRA:                   0.000
REMARK UNBOUND:                 0.000
REMARK SMILES CC(=O)[O-]
REMARK SMILES IDX 1 1 2 2 3 3 4 4
REMARK H PARENT
REMARK Flexibility Score: inf
ROOT
ATOM      1  C   UNL     1      11.627 -33.973 -25.011  1.00  0.00     0.063 C 
ATOM      2  C   UNL     1      12.352 -35.111 -25.645  1.00  0.00     0.038 C 
ATOM      3  O   UNL     1      12.721 -35.034 -26.846  1.00  0.00    -0.550 OA
ATOM      4  O   UNL     1      12.671 -36.238 -24.898  1.00  0.00    -0.550 OA
ENDROOT
TORSDOF 0
ENDMDL
MODEL 2
REMARK VINA RESULT:    -2.340      2.001      2.252
REMARK INTER + INTRA:          -2.340
REMARK INTER:                  -2.340
REMARK INTRA:                   0.000
REMARK UNBOUND:                 0.000
REMARK SMILES CC(=O)[O-]
REMARK SMILES IDX 1 1 2 2 3 3 4 4
REMARK H PARENT
REMARK Flexibility Score: inf
ROOT
ATOM      1  C   UNL     1      12.708 -35.274 -25.427  1.00  0.00     0.063 C 
ATOM      2  C   UNL     1      11.388 -34.580 -25.397  1.00  0.00     0.038 C 
ATOM      3  O   UNL     1      11.309 -33.392 -24.985  1.00  0.00    -0.550 OA
ATOM      4  O   UNL     1      10.252 -35.221 -25.871  1.00  0.00    -0.550 OA
ENDROOT
TORSDOF 0
ENDMDL
MODEL 3
REMARK VINA RESULT:    -2.238     11.455     11.947
REMARK INTER + INTRA:          -2.238
REMARK INTER:                  -2.238
REMARK INTRA:                   0.000
REMARK UNBOUND:                 0.000
REMARK SMILES CC(=O)[O-]
REMARK SMILES IDX 1 1 2 2 3 3 4 4
REMARK H PARENT
REMARK Flexibility Score: inf
ROOT
ATOM      1  C   UNL     1       9.347 -44.472 -19.432  1.00  0.00     0.063 C 
ATOM      2  C   UNL     1      10.398 -45.384 -19.968  1.00  0.00     0.038 C 
ATOM      3  O   UNL     1      11.557 -44.947 -20.195  1.00  0.00    -0.550 OA
ATOM      4  O   UNL     1      10.118 -46.729 -20.168  1.00  0.00    -0.550 OA
ENDROOT
TORSDOF 0
ENDMDL
MODEL 4
REMARK VINA RESULT:    -2.224     11.130     11.617
REMARK INTER + INTRA:          -2.224
REMARK INTER:                  -2.224
REMARK INTRA:                   0.000
REMARK UNBOUND:                 0.000
REMARK SMILES CC(=O)[O-]
REMARK SMILES IDX 1 1 2 2 3 3 4 4
REMARK H PARENT
REMARK Flexibility Score: inf
ROOT
ATOM      1  C   UNL     1       8.249 -27.619 -17.877  1.00  0.00     0.063 C 
ATOM      2  C   UNL     1       7.823 -28.798 -17.069  1.00  0.00     0.038 C 
ATOM      3  O   UNL     1       7.467 -29.861 -17.642  1.00  0.00    -0.550 OA
ATOM      4  O   UNL     1       7.869 -28.745 -15.682  1.00  0.00    -0.550 OA
ENDROOT
TORSDOF 0
ENDMDL
MODEL 5
REMARK VINA RESULT:    -2.180     19.118     19.572
REMARK INTER + INTRA:          -2.180
REMARK INTER:                  -2.180
REMARK INTRA:                   0.000
REMARK UNBOUND:                 0.000
REMARK SMILES CC(=O)[O-]
REMARK SMILES IDX 1 1 2 2 3 3 4 4
REMARK H PARENT
REMARK Flexibility Score: inf
ROOT
ATOM      1  C   UNL     1      -2.639 -46.050 -17.891  1.00  0.00     0.063 C 
ATOM      2  C   UNL     1      -2.184 -44.856 -17.122  1.00  0.00     0.038 C 
ATOM      3  O   UNL     1      -2.131 -44.898 -15.864  1.00  0.00    -0.550 OA
ATOM      4  O   UNL     1      -1.766 -43.714 -17.791  1.00  0.00    -0.550 OA
ENDROOT
TORSDOF 0
ENDMDL
MODEL 6
REMARK VINA RESULT:    -2.174     19.164     19.552
REMARK INTER + INTRA:          -2.174
REMARK INTER:                  -2.174
REMARK INTRA:                   0.000
REMARK UNBOUND:                 0.000
REMARK SMILES CC(=O)[O-]
REMARK SMILES IDX 1 1 2 2 3 3 4 4
REMARK H PARENT
REMARK Flexibility Score: inf
ROOT
ATOM      1  C   UNL     1      -2.654 -46.067 -17.900  1.00  0.00     0.063 C 
ATOM      2  C   UNL     1      -2.189 -44.860 -17.157  1.00  0.00     0.038 C 
ATOM      3  O   UNL     1      -1.889 -43.810 -17.783  1.00  0.00    -0.550 OA
ATOM      4  O   UNL     1      -2.137 -44.873 -15.769  1.00  0.00    -0.550 OA
ENDROOT
TORSDOF 0
ENDMDL
MODEL 7
REMARK VINA RESULT:    -2.156     11.170     11.723
REMARK INTER + INTRA:          -2.156
REMARK INTER:                  -2.156
REMARK INTRA:                   0.000
REMARK UNBOUND:                 0.000
REMARK SMILES CC(=O)[O-]
REMARK SMILES IDX 1 1 2 2 3 3 4 4
REMARK H PARENT
REMARK Flexibility Score: inf
ROOT
ATOM      1  C   UNL     1       7.177 -29.843 -17.778  1.00  0.00     0.063 C 
ATOM      2  C   UNL     1       7.842 -28.701 -17.087  1.00  0.00     0.038 C 
ATOM      3  O   UNL     1       7.877 -28.659 -15.828  1.00  0.00    -0.550 OA
ATOM      4  O   UNL     1       8.470 -27.708 -17.826  1.00  0.00    -0.550 OA
ENDROOT
TORSDOF 0
ENDMDL
MODEL 8
REMARK VINA RESULT:    -2.147     11.063     11.582
REMARK INTER + INTRA:          -2.147
REMARK INTER:                  -2.147
REMARK INTRA:                   0.000
REMARK UNBOUND:                 0.000
REMARK SMILES CC(=O)[O-]
REMARK SMILES IDX 1 1 2 2 3 3 4 4
REMARK H PARENT
REMARK Flexibility Score: inf
ROOT
ATOM      1  C   UNL     1       7.556 -28.624 -15.774  1.00  0.00     0.063 C 
ATOM      2  C   UNL     1       7.861 -28.751 -17.228  1.00  0.00     0.038 C 
ATOM      3  O   UNL     1       7.483 -29.769 -17.866  1.00  0.00    -0.550 OA
ATOM      4  O   UNL     1       8.517 -27.725 -17.895  1.00  0.00    -0.550 OA
ENDROOT
TORSDOF 0
ENDMDL
