MODEL 1
REMARK VINA RESULT:    -3.587      0.000      0.000
REMARK INTER + INTRA:          -5.524
REMARK INTER:                  -5.474
REMARK INTRA:                  -0.050
REMARK UNBOUND:                -0.050
REMARK SMILES CC1=CCC[C@@H](C)C(=O)C[C@@H](C(C)C)C(=O)C1
REMARK SMILES IDX 8 1 9 2 6 3 7 4 5 5 4 6 3 7 2 8 1 9 10 11 11 12 15 13 16 14
REMARK SMILES IDX 17 15 12 17 13 18 14 19
REMARK H PARENT
REMARK Flexibility Score: 70.00
ROOT
ATOM      1  C   UNL     1       3.963  15.588  -9.062  1.00  0.00     0.136 C 
ATOM      2  O   UNL     1       5.025  16.190  -9.123  1.00  0.00    -0.299 OA
ENDROOT
BRANCH   1   3
ATOM      3  C   UNL     1       3.999  14.068  -9.125  1.00  0.00     0.053 C 
ATOM      4  C   UNL     1       2.618  13.519  -8.749  1.00  0.00     0.016 C 
BRANCH   3   5
ATOM      5  C   UNL     1       5.079  13.482  -8.179  1.00  0.00     0.015 C 
BRANCH   5   6
ATOM      6  C   UNL     1       4.667  13.412  -6.698  1.00  0.00     0.028 C 
BRANCH   6   7
ATOM      7  C   UNL     1       5.015  14.679  -5.953  1.00  0.00    -0.028 C 
ATOM      8  C   UNL     1       4.129  15.592  -5.490  1.00  0.00    -0.070 CG0
ATOM      9  C   UNL     1       4.676  16.774  -4.728  1.00  0.00     0.039 C 
ATOM     10  G   UNL     1       2.637  15.529  -5.768  1.00  0.00     0.000 G0
ENDBRANCH   6   7
ENDBRANCH   5   6
ENDBRANCH   3   5
ENDBRANCH   1   3
BRANCH   1  11
ATOM     11  C   UNL     1       2.706  16.422  -8.879  1.00  0.00     0.087 C 
BRANCH  11  12
ATOM     12  C   UNL     1       2.655  17.436  -7.704  1.00  0.00     0.066 C 
BRANCH  12  13
ATOM     13  C   UNL     1       2.107  16.835  -6.414  1.00  0.00     0.140 C 
ATOM     14  O   UNL     1       1.093  17.325  -5.940  1.00  0.00    -0.299 OA
BRANCH  13  15
ATOM     15  C   UNL     1       2.646  15.571  -5.775  1.00  0.00     0.106 CG0
ATOM     16  G   UNL     1       4.136  15.596  -5.477  1.00  0.00     0.000 G0
ENDBRANCH  13  15
ENDBRANCH  12  13
BRANCH  12  17
ATOM     17  C   UNL     1       1.854  18.726  -8.083  1.00  0.00    -0.006 C 
ATOM     18  C   UNL     1       0.737  18.442  -9.106  1.00  0.00     0.008 C 
ATOM     19  C   UNL     1       2.778  19.820  -8.652  1.00  0.00     0.008 C 
ENDBRANCH  12  17
ENDBRANCH  11  12
ENDBRANCH   1  11
TORSDOF 1
ENDMDL
MODEL 2
REMARK VINA RESULT:    -3.416      2.229      3.040
REMARK INTER + INTRA:          -5.263
REMARK INTER:                  -5.334
REMARK INTRA:                   0.071
REMARK UNBOUND:                -0.050
REMARK SMILES CC1=CCC[C@@H](C)C(=O)C[C@@H](C(C)C)C(=O)C1
REMARK SMILES IDX 8 1 9 2 6 3 7 4 5 5 4 6 3 7 2 8 1 9 10 11 11 12 15 13 16 14
REMARK SMILES IDX 17 15 12 17 13 18 14 19
REMARK H PARENT
REMARK Flexibility Score: 70.00
ROOT
ATOM      1  C   UNL     1       2.518  12.868  -7.689  1.00  0.00     0.136 C 
ATOM      2  O   UNL     1       2.640  12.278  -6.625  1.00  0.00    -0.299 OA
ENDROOT
BRANCH   1   3
ATOM      3  C   UNL     1       2.734  12.081  -8.972  1.00  0.00     0.053 C 
ATOM      4  C   UNL     1       1.740  10.914  -9.017  1.00  0.00     0.016 C 
BRANCH   3   5
ATOM      5  C   UNL     1       4.186  11.546  -9.078  1.00  0.00     0.015 C 
BRANCH   5   6
ATOM      6  C   UNL     1       5.277  12.576  -8.734  1.00  0.00     0.028 C 
BRANCH   6   7
ATOM      7  C   UNL     1       5.879  12.329  -7.371  1.00  0.00    -0.028 C 
ATOM      8  C   UNL     1       6.003  13.248  -6.384  1.00  0.00    -0.070 CG0
ATOM      9  C   UNL     1       6.593  12.792  -5.073  1.00  0.00     0.039 C 
ATOM     10  G   UNL     1       5.660  14.718  -6.558  1.00  0.00     0.000 G0
ENDBRANCH   6   7
ENDBRANCH   5   6
ENDBRANCH   3   5
ENDBRANCH   1   3
BRANCH   1  11
ATOM     11  C   UNL     1       2.113  14.331  -7.623  1.00  0.00     0.087 C 
BRANCH  11  12
ATOM     12  C   UNL     1       3.227  15.401  -7.460  1.00  0.00     0.066 C 
BRANCH  12  13
ATOM     13  C   UNL     1       4.203  15.087  -6.331  1.00  0.00     0.140 C 
ATOM     14  O   UNL     1       3.754  14.989  -5.198  1.00  0.00    -0.299 OA
BRANCH  13  15
ATOM     15  C   UNL     1       5.659  14.730  -6.547  1.00  0.00     0.106 CG0
ATOM     16  G   UNL     1       5.986  13.258  -6.366  1.00  0.00     0.000 G0
ENDBRANCH  13  15
ENDBRANCH  12  13
BRANCH  12  17
ATOM     17  C   UNL     1       2.632  16.837  -7.278  1.00  0.00    -0.006 C 
ATOM     18  C   UNL     1       1.176  16.935  -7.769  1.00  0.00     0.008 C 
ATOM     19  C   UNL     1       3.474  17.897  -8.017  1.00  0.00     0.008 C 
ENDBRANCH  12  17
ENDBRANCH  11  12
ENDBRANCH   1  11
TORSDOF 1
ENDMDL
MODEL 3
REMARK VINA RESULT:    -3.243      2.304      3.817
REMARK INTER + INTRA:          -4.999
REMARK INTER:                  -4.976
REMARK INTRA:                  -0.024
REMARK UNBOUND:                -0.050
REMARK SMILES CC1=CCC[C@@H](C)C(=O)C[C@@H](C(C)C)C(=O)C1
REMARK SMILES IDX 8 1 9 2 6 3 7 4 5 5 4 6 3 7 2 8 1 9 10 11 11 12 15 13 16 14
REMARK SMILES IDX 17 15 12 17 13 18 14 19
REMARK H PARENT
REMARK Flexibility Score: 70.00
ROOT
ATOM      1  C   UNL     1       5.607  14.527  -6.459  1.00  0.00     0.136 C 
ATOM      2  O   UNL     1       6.016  15.053  -5.434  1.00  0.00    -0.299 OA
ENDROOT
BRANCH   1   3
ATOM      3  C   UNL     1       5.770  13.021  -6.603  1.00  0.00     0.053 C 
ATOM      4  C   UNL     1       6.684  12.507  -5.484  1.00  0.00     0.016 C 
BRANCH   3   5
ATOM      5  C   UNL     1       6.357  12.639  -7.986  1.00  0.00     0.015 C 
BRANCH   5   6
ATOM      6  C   UNL     1       5.319  12.533  -9.118  1.00  0.00     0.028 C 
BRANCH   6   7
ATOM      7  C   UNL     1       4.164  11.635  -8.744  1.00  0.00    -0.028 C 
ATOM      8  C   UNL     1       2.875  12.024  -8.601  1.00  0.00    -0.070 CG0
ATOM      9  C   UNL     1       1.856  10.963  -8.266  1.00  0.00     0.039 C 
ATOM     10  G   UNL     1       2.422  13.472  -8.678  1.00  0.00     0.000 G0
ENDBRANCH   6   7
ENDBRANCH   5   6
ENDBRANCH   3   5
ENDBRANCH   1   3
BRANCH   1  11
ATOM     11  C   UNL     1       4.928  15.430  -7.474  1.00  0.00     0.087 C 
BRANCH  11  12
ATOM     12  C   UNL     1       3.389  15.621  -7.383  1.00  0.00     0.066 C 
BRANCH  12  13
ATOM     13  C   UNL     1       2.616  14.307  -7.424  1.00  0.00     0.140 C 
ATOM     14  O   UNL     1       2.018  13.963  -6.414  1.00  0.00    -0.299 OA
BRANCH  13  15
ATOM     15  C   UNL     1       2.409  13.487  -8.681  1.00  0.00     0.106 CG0
ATOM     16  G   UNL     1       2.869  12.043  -8.580  1.00  0.00     0.000 G0
ENDBRANCH  13  15
ENDBRANCH  12  13
BRANCH  12  17
ATOM     17  C   UNL     1       2.858  16.597  -8.485  1.00  0.00    -0.006 C 
ATOM     18  C   UNL     1       3.850  17.735  -8.788  1.00  0.00     0.008 C 
ATOM     19  C   UNL     1       1.502  17.216  -8.088  1.00  0.00     0.008 C 
ENDBRANCH  12  17
ENDBRANCH  11  12
ENDBRANCH   1  11
TORSDOF 1
ENDMDL
MODEL 4
REMARK VINA RESULT:    -3.184      1.642      4.214
REMARK INTER + INTRA:          -4.909
REMARK INTER:                  -5.912
REMARK INTRA:                   1.004
REMARK UNBOUND:                -0.050
REMARK SMILES CC1=CCC[C@@H](C)C(=O)C[C@@H](C(C)C)C(=O)C1
REMARK SMILES IDX 8 1 9 2 6 3 7 4 5 5 4 6 3 7 2 8 1 9 10 11 11 12 15 13 16 14
REMARK SMILES IDX 17 15 12 17 13 18 14 19
REMARK H PARENT
REMARK Flexibility Score: 70.00
ROOT
ATOM      1  C   UNL     1       1.343  18.262  -8.297  1.00  0.00     0.136 C 
ATOM      2  O   UNL     1       0.187  17.873  -8.379  1.00  0.00    -0.299 OA
ENDROOT
BRANCH   1   3
ATOM      3  C   UNL     1       1.585  19.688  -7.827  1.00  0.00     0.053 C 
ATOM      4  C   UNL     1       1.345  20.649  -8.997  1.00  0.00     0.016 C 
BRANCH   3   5
ATOM      5  C   UNL     1       3.023  19.873  -7.276  1.00  0.00     0.015 C 
BRANCH   5   6
ATOM      6  C   UNL     1       3.161  19.665  -5.756  1.00  0.00     0.028 C 
BRANCH   6   7
ATOM      7  C   UNL     1       4.123  18.550  -5.423  1.00  0.00    -0.028 C 
ATOM      8  C   UNL     1       3.838  17.227  -5.448  1.00  0.00    -0.070 CG0
ATOM      9  C   UNL     1       4.954  16.264  -5.124  1.00  0.00     0.039 C 
ATOM     10  G   UNL     1       2.446  16.673  -5.701  1.00  0.00     0.000 G0
ENDBRANCH   6   7
ENDBRANCH   5   6
ENDBRANCH   3   5
ENDBRANCH   1   3
BRANCH   1  11
ATOM     11  C   UNL     1       2.434  17.258  -8.630  1.00  0.00     0.087 C 
BRANCH  11  12
ATOM     12  C   UNL     1       2.228  15.776  -8.212  1.00  0.00     0.066 C 
BRANCH  12  13
ATOM     13  C   UNL     1       2.362  15.550  -6.710  1.00  0.00     0.140 C 
ATOM     14  O   UNL     1       2.537  14.405  -6.317  1.00  0.00    -0.299 OA
BRANCH  13  15
ATOM     15  C   UNL     1       2.455  16.668  -5.692  1.00  0.00     0.106 CG0
ATOM     16  G   UNL     1       3.860  17.199  -5.459  1.00  0.00     0.000 G0
ENDBRANCH  13  15
ENDBRANCH  12  13
BRANCH  12  17
ATOM     17  C   UNL     1       3.185  14.814  -8.993  1.00  0.00    -0.006 C 
ATOM     18  C   UNL     1       2.805  13.333  -8.807  1.00  0.00     0.008 C 
ATOM     19  C   UNL     1       4.653  15.005  -8.564  1.00  0.00     0.008 C 
ENDBRANCH  12  17
ENDBRANCH  11  12
ENDBRANCH   1  11
TORSDOF 1
ENDMDL
MODEL 5
REMARK VINA RESULT:    -3.110      1.657      2.504
REMARK INTER + INTRA:          -4.797
REMARK INTER:                  -5.950
REMARK INTRA:                   1.153
REMARK UNBOUND:                -0.050
REMARK SMILES CC1=CCC[C@@H](C)C(=O)C[C@@H](C(C)C)C(=O)C1
REMARK SMILES IDX 8 1 9 2 6 3 7 4 5 5 4 6 3 7 2 8 1 9 10 11 11 12 15 13 16 14
REMARK SMILES IDX 17 15 12 17 13 18 14 19
REMARK H PARENT
REMARK Flexibility Score: 70.00
ROOT
ATOM      1  C   UNL     1       3.297  15.058  -8.544  1.00  0.00     0.136 C 
ATOM      2  O   UNL     1       3.023  13.944  -8.968  1.00  0.00    -0.299 OA
ENDROOT
BRANCH   1   3
ATOM      3  C   UNL     1       4.745  15.345  -8.176  1.00  0.00     0.053 C 
ATOM      4  C   UNL     1       5.666  14.568  -9.124  1.00  0.00     0.016 C 
BRANCH   3   5
ATOM      5  C   UNL     1       5.049  14.960  -6.705  1.00  0.00     0.015 C 
BRANCH   5   6
ATOM      6  C   UNL     1       4.687  16.040  -5.670  1.00  0.00     0.028 C 
BRANCH   6   7
ATOM      7  C   UNL     1       3.230  15.982  -5.278  1.00  0.00    -0.028 C 
ATOM      8  C   UNL     1       2.306  16.940  -5.526  1.00  0.00    -0.070 CG0
ATOM      9  C   UNL     1       0.886  16.673  -5.092  1.00  0.00     0.039 C 
ATOM     10  G   UNL     1       2.640  18.290  -6.138  1.00  0.00     0.000 G0
ENDBRANCH   6   7
ENDBRANCH   5   6
ENDBRANCH   3   5
ENDBRANCH   1   3
BRANCH   1  11
ATOM     11  C   UNL     1       2.164  16.067  -8.472  1.00  0.00     0.087 C 
BRANCH  11  12
ATOM     12  C   UNL     1       2.489  17.564  -8.727  1.00  0.00     0.066 C 
BRANCH  12  13
ATOM     13  C   UNL     1       3.197  18.234  -7.554  1.00  0.00     0.140 C 
ATOM     14  O   UNL     1       4.210  18.878  -7.790  1.00  0.00    -0.299 OA
BRANCH  13  15
ATOM     15  C   UNL     1       2.638  18.287  -6.148  1.00  0.00     0.106 CG0
ATOM     16  G   UNL     1       2.312  16.932  -5.542  1.00  0.00     0.000 G0
ENDBRANCH  13  15
ENDBRANCH  12  13
BRANCH  12  17
ATOM     17  C   UNL     1       1.211  18.377  -9.124  1.00  0.00    -0.006 C 
ATOM     18  C   UNL     1       1.364  19.883  -8.840  1.00  0.00     0.008 C 
ATOM     19  C   UNL     1      -0.041  17.860  -8.388  1.00  0.00     0.008 C 
ENDBRANCH  12  17
ENDBRANCH  11  12
ENDBRANCH   1  11
TORSDOF 1
ENDMDL
MODEL 6
REMARK VINA RESULT:    -2.811      1.961      3.534
REMARK INTER + INTRA:          -4.340
REMARK INTER:                  -4.386
REMARK INTRA:                   0.047
REMARK UNBOUND:                -0.050
REMARK SMILES CC1=CCC[C@@H](C)C(=O)C[C@@H](C(C)C)C(=O)C1
REMARK SMILES IDX 8 1 9 2 6 3 7 4 5 5 4 6 3 7 2 8 1 9 10 11 11 12 15 13 16 14
REMARK SMILES IDX 17 15 12 17 13 18 14 19
REMARK H PARENT
REMARK Flexibility Score: 70.00
ROOT
ATOM      1  C   UNL     1       3.557  16.189  -5.315  1.00  0.00     0.136 C 
ATOM      2  O   UNL     1       4.116  15.741  -4.324  1.00  0.00    -0.299 OA
ENDROOT
BRANCH   1   3
ATOM      3  C   UNL     1       2.306  15.481  -5.811  1.00  0.00     0.053 C 
ATOM      4  C   UNL     1       1.197  15.631  -4.762  1.00  0.00     0.016 C 
BRANCH   3   5
ATOM      5  C   UNL     1       2.571  13.979  -6.092  1.00  0.00     0.015 C 
BRANCH   5   6
ATOM      6  C   UNL     1       2.722  13.620  -7.581  1.00  0.00     0.028 C 
BRANCH   6   7
ATOM      7  C   UNL     1       4.118  13.888  -8.090  1.00  0.00    -0.028 C 
ATOM      8  C   UNL     1       4.536  15.029  -8.688  1.00  0.00    -0.070 CG0
ATOM      9  C   UNL     1       5.989  15.119  -9.086  1.00  0.00     0.039 C 
ATOM     10  G   UNL     1       3.607  16.175  -9.051  1.00  0.00     0.000 G0
ENDBRANCH   6   7
ENDBRANCH   5   6
ENDBRANCH   3   5
ENDBRANCH   1   3
BRANCH   1  11
ATOM     11  C   UNL     1       4.147  17.447  -5.929  1.00  0.00     0.087 C 
BRANCH  11  12
ATOM     12  C   UNL     1       3.440  18.068  -7.165  1.00  0.00     0.066 C 
BRANCH  12  13
ATOM     13  C   UNL     1       3.978  17.545  -8.493  1.00  0.00     0.140 C 
ATOM     14  O   UNL     1       4.841  18.200  -9.059  1.00  0.00    -0.299 OA
BRANCH  13  15
ATOM     15  C   UNL     1       3.629  16.188  -9.069  1.00  0.00     0.106 CG0
ATOM     16  G   UNL     1       4.562  15.063  -8.655  1.00  0.00     0.000 G0
ENDBRANCH  13  15
ENDBRANCH  12  13
BRANCH  12  17
ATOM     17  C   UNL     1       3.491  19.633  -7.139  1.00  0.00    -0.006 C 
ATOM     18  C   UNL     1       2.992  20.214  -5.803  1.00  0.00     0.008 C 
ATOM     19  C   UNL     1       2.663  20.246  -8.285  1.00  0.00     0.008 C 
ENDBRANCH  12  17
ENDBRANCH  11  12
ENDBRANCH   1  11
TORSDOF 1
ENDMDL
MODEL 7
REMARK VINA RESULT:    -2.523      1.895      5.132
REMARK INTER + INTRA:          -3.900
REMARK INTER:                  -5.549
REMARK INTRA:                   1.648
REMARK UNBOUND:                -0.050
REMARK SMILES CC1=CCC[C@@H](C)C(=O)C[C@@H](C(C)C)C(=O)C1
REMARK SMILES IDX 8 1 9 2 6 3 7 4 5 5 4 6 3 7 2 8 1 9 10 11 11 12 15 13 16 14
REMARK SMILES IDX 17 15 12 17 13 18 14 19
REMARK H PARENT
REMARK Flexibility Score: 70.00
ROOT
ATOM      1  C   UNL     1       4.087  17.417  -5.658  1.00  0.00     0.136 C 
ATOM      2  O   UNL     1       4.786  17.519  -4.659  1.00  0.00    -0.299 OA
ENDROOT
BRANCH   1   3
ATOM      3  C   UNL     1       3.654  18.695  -6.360  1.00  0.00     0.053 C 
ATOM      4  C   UNL     1       2.280  19.118  -5.826  1.00  0.00     0.016 C 
BRANCH   3   5
ATOM      5  C   UNL     1       3.592  18.509  -7.899  1.00  0.00     0.015 C 
BRANCH   5   6
ATOM      6  C   UNL     1       2.172  18.339  -8.469  1.00  0.00     0.028 C 
BRANCH   6   7
ATOM      7  C   UNL     1       1.836  16.889  -8.725  1.00  0.00    -0.028 C 
ATOM      8  C   UNL     1       2.731  15.895  -8.930  1.00  0.00    -0.070 CG0
ATOM      9  C   UNL     1       2.195  14.498  -9.125  1.00  0.00     0.039 C 
ATOM     10  G   UNL     1       4.228  16.126  -9.057  1.00  0.00     0.000 G0
ENDBRANCH   6   7
ENDBRANCH   5   6
ENDBRANCH   3   5
ENDBRANCH   1   3
BRANCH   1  11
ATOM     11  C   UNL     1       3.758  16.010  -6.129  1.00  0.00     0.087 C 
BRANCH  11  12
ATOM     12  C   UNL     1       4.908  15.130  -6.689  1.00  0.00     0.066 C 
BRANCH  12  13
ATOM     13  C   UNL     1       5.135  15.318  -8.186  1.00  0.00     0.140 C 
ATOM     14  O   UNL     1       6.022  14.664  -8.716  1.00  0.00    -0.299 OA
BRANCH  13  15
ATOM     15  C   UNL     1       4.230  16.139  -9.081  1.00  0.00     0.106 CG0
ATOM     16  G   UNL     1       2.745  15.881  -8.891  1.00  0.00     0.000 G0
ENDBRANCH  13  15
ENDBRANCH  12  13
BRANCH  12  17
ATOM     17  C   UNL     1       4.693  13.614  -6.361  1.00  0.00    -0.006 C 
ATOM     18  C   UNL     1       3.635  13.397  -5.263  1.00  0.00     0.008 C 
ATOM     19  C   UNL     1       6.007  12.938  -5.921  1.00  0.00     0.008 C 
ENDBRANCH  12  17
ENDBRANCH  11  12
ENDBRANCH   1  11
TORSDOF 1
ENDMDL
MODEL 8
REMARK VINA RESULT:    -2.518      1.370      4.168
REMARK INTER + INTRA:          -3.892
REMARK INTER:                  -4.524
REMARK INTRA:                   0.632
REMARK UNBOUND:                -0.050
REMARK SMILES CC1=CCC[C@@H](C)C(=O)C[C@@H](C(C)C)C(=O)C1
REMARK SMILES IDX 8 1 9 2 6 3 7 4 5 5 4 6 3 7 2 8 1 9 10 11 11 12 15 13 16 14
REMARK SMILES IDX 17 15 12 17 13 18 14 19
REMARK H PARENT
REMARK Flexibility Score: 70.00
ROOT
ATOM      1  C   UNL     1       2.525  17.356  -8.684  1.00  0.00     0.136 C 
ATOM      2  O   UNL     1       3.544  18.031  -8.709  1.00  0.00    -0.299 OA
ENDROOT
BRANCH   1   3
ATOM      3  C   UNL     1       1.229  18.034  -8.265  1.00  0.00     0.053 C 
ATOM      4  C   UNL     1       1.407  19.554  -8.356  1.00  0.00     0.016 C 
BRANCH   3   5
ATOM      5  C   UNL     1       0.814  17.633  -6.825  1.00  0.00     0.015 C 
BRANCH   5   6
ATOM      6  C   UNL     1       1.963  17.634  -5.801  1.00  0.00     0.028 C 
BRANCH   6   7
ATOM      7  C   UNL     1       2.132  16.287  -5.140  1.00  0.00    -0.028 C 
ATOM      8  C   UNL     1       3.256  15.532  -5.161  1.00  0.00    -0.070 CG0
ATOM      9  C   UNL     1       3.240  14.230  -4.398  1.00  0.00     0.039 C 
ATOM     10  G   UNL     1       4.490  15.887  -5.974  1.00  0.00     0.000 G0
ENDBRANCH   6   7
ENDBRANCH   5   6
ENDBRANCH   3   5
ENDBRANCH   1   3
BRANCH   1  11
ATOM     11  C   UNL     1       2.646  15.907  -9.125  1.00  0.00     0.087 C 
BRANCH  11  12
ATOM     12  C   UNL     1       3.228  14.874  -8.121  1.00  0.00     0.066 C 
BRANCH  12  13
ATOM     13  C   UNL     1       4.479  15.371  -7.405  1.00  0.00     0.140 C 
ATOM     14  O   UNL     1       5.507  15.480  -8.058  1.00  0.00    -0.299 OA
BRANCH  13  15
ATOM     15  C   UNL     1       4.488  15.890  -5.982  1.00  0.00     0.106 CG0
ATOM     16  G   UNL     1       3.271  15.506  -5.157  1.00  0.00     0.000 G0
ENDBRANCH  13  15
ENDBRANCH  12  13
BRANCH  12  17
ATOM     17  C   UNL     1       3.506  13.494  -8.804  1.00  0.00    -0.006 C 
ATOM     18  C   UNL     1       2.222  12.668  -9.001  1.00  0.00     0.008 C 
ATOM     19  C   UNL     1       4.513  12.654  -7.993  1.00  0.00     0.008 C 
ENDBRANCH  12  17
ENDBRANCH  11  12
ENDBRANCH   1  11
TORSDOF 1
ENDMDL
MODEL 9
REMARK VINA RESULT:    -2.309      1.844      4.995
REMARK INTER + INTRA:          -3.574
REMARK INTER:                  -3.573
REMARK INTRA:                  -0.001
REMARK UNBOUND:                -0.050
REMARK SMILES CC1=CCC[C@@H](C)C(=O)C[C@@H](C(C)C)C(=O)C1
REMARK SMILES IDX 8 1 9 2 6 3 7 4 5 5 4 6 3 7 2 8 1 9 10 11 11 12 15 13 16 14
REMARK SMILES IDX 17 15 12 17 13 18 14 19
REMARK H PARENT
REMARK Flexibility Score: 70.00
ROOT
ATOM      1  C   UNL     1       2.280  15.757  -5.676  1.00  0.00     0.136 C 
ATOM      2  O   UNL     1       2.716  15.482  -4.567  1.00  0.00    -0.299 OA
ENDROOT
BRANCH   1   3
ATOM      3  C   UNL     1       1.345  16.950  -5.802  1.00  0.00     0.053 C 
ATOM      4  C   UNL     1       0.362  16.942  -4.625  1.00  0.00     0.016 C 
BRANCH   3   5
ATOM      5  C   UNL     1       0.568  16.928  -7.143  1.00  0.00     0.015 C 
BRANCH   5   6
ATOM      6  C   UNL     1       0.724  18.200  -7.997  1.00  0.00     0.028 C 
BRANCH   6   7
ATOM      7  C   UNL     1       2.106  18.796  -7.876  1.00  0.00    -0.028 C 
ATOM      8  C   UNL     1       3.247  18.252  -8.363  1.00  0.00    -0.070 CG0
ATOM      9  C   UNL     1       4.527  19.028  -8.177  1.00  0.00     0.039 C 
ATOM     10  G   UNL     1       3.313  16.876  -9.004  1.00  0.00     0.000 G0
ENDBRANCH   6   7
ENDBRANCH   5   6
ENDBRANCH   3   5
ENDBRANCH   1   3
BRANCH   1  11
ATOM     11  C   UNL     1       2.759  14.900  -6.836  1.00  0.00     0.087 C 
BRANCH  11  12
ATOM     12  C   UNL     1       4.237  15.034  -7.294  1.00  0.00     0.066 C 
BRANCH  12  13
ATOM     13  C   UNL     1       4.414  15.968  -8.487  1.00  0.00     0.140 C 
ATOM     14  O   UNL     1       5.454  15.890  -9.125  1.00  0.00    -0.299 OA
BRANCH  13  15
ATOM     15  C   UNL     1       3.321  16.868  -9.025  1.00  0.00     0.106 CG0
ATOM     16  G   UNL     1       3.240  18.234  -8.365  1.00  0.00     0.000 G0
ENDBRANCH  13  15
ENDBRANCH  12  13
BRANCH  12  17
ATOM     17  C   UNL     1       4.880  13.639  -7.599  1.00  0.00    -0.006 C 
ATOM     18  C   UNL     1       3.822  12.546  -7.840  1.00  0.00     0.008 C 
ATOM     19  C   UNL     1       5.810  13.183  -6.457  1.00  0.00     0.008 C 
ENDBRANCH  12  17
ENDBRANCH  11  12
ENDBRANCH   1  11
TORSDOF 1
ENDMDL
