MODEL 1
REMARK VINA RESULT:    -1.567      0.000      0.000
REMARK INTER + INTRA:          -4.822
REMARK INTER:                  -3.400
REMARK INTRA:                  -1.423
REMARK UNBOUND:                -1.423
REMARK SMILES CCCCCCCCCCCCCCCCCCCCCC(=O)[O-]
REMARK SMILES IDX 12 1 11 2 10 3 9 4 8 5 7 6 6 7 5 8 4 9 3 10 2 11 1 12 13 13
REMARK SMILES IDX 14 14 15 15 16 16 17 17 18 18 19 19 20 20 21 21 22 22 23 23
REMARK SMILES IDX 24 24
REMARK H PARENT
REMARK Flexibility Score: inf
ROOT
ATOM      1  C   UNL     1      13.275  11.690   9.602  1.00  0.00     0.000 C 
ENDROOT
BRANCH   1   2
ATOM      2  C   UNL     1      13.866  12.957   8.943  1.00  0.00     0.000 C 
BRANCH   2   3
ATOM      3  C   UNL     1      13.770  12.959   7.405  1.00  0.00     0.000 C 
BRANCH   3   4
ATOM      4  C   UNL     1      15.107  12.753   6.671  1.00  0.00    -0.000 C 
BRANCH   4   5
ATOM      5  C   UNL     1      16.190  13.809   6.976  1.00  0.00    -0.000 C 
BRANCH   5   6
ATOM      6  C   UNL     1      16.991  13.574   8.269  1.00  0.00    -0.000 C 
BRANCH   6   7
ATOM      7  C   UNL     1      17.125  14.845   9.127  1.00  0.00    -0.000 C 
BRANCH   7   8
ATOM      8  C   UNL     1      16.313  16.023   8.566  1.00  0.00    -0.000 C 
BRANCH   8   9
ATOM      9  C   UNL     1      17.125  17.325   8.500  1.00  0.00    -0.000 C 
BRANCH   9  10
ATOM     10  C   UNL     1      16.196  18.548   8.545  1.00  0.00    -0.000 C 
BRANCH  10  11
ATOM     11  C   UNL     1      16.965  19.879   8.515  1.00  0.00    -0.003 C 
ATOM     12  C   UNL     1      17.106  20.514   9.897  1.00  0.00     0.004 C 
ENDBRANCH  10  11
ENDBRANCH   9  10
ENDBRANCH   8   9
ENDBRANCH   7   8
ENDBRANCH   6   7
ENDBRANCH   5   6
ENDBRANCH   4   5
ENDBRANCH   3   4
ENDBRANCH   2   3
ENDBRANCH   1   2
BRANCH   1  13
ATOM     13  C   UNL     1      13.450  11.683  11.130  1.00  0.00     0.000 C 
BRANCH  13  14
ATOM     14  C   UNL     1      14.185  12.929  11.654  1.00  0.00     0.000 C 
BRANCH  14  15
ATOM     15  C   UNL     1      15.694  12.941  11.323  1.00  0.00     0.000 C 
BRANCH  15  16
ATOM     16  C   UNL     1      16.564  13.061  12.588  1.00  0.00     0.000 C 
BRANCH  16  17
ATOM     17  C   UNL     1      17.111  14.484  12.802  1.00  0.00     0.000 C 
BRANCH  17  18
ATOM     18  C   UNL     1      16.040  15.592  12.877  1.00  0.00     0.000 C 
BRANCH  18  19
ATOM     19  C   UNL     1      16.585  17.035  12.871  1.00  0.00     0.000 C 
BRANCH  19  20
ATOM     20  C   UNL     1      15.665  18.071  12.200  1.00  0.00     0.006 C 
BRANCH  20  21
ATOM     21  C   UNL     1      14.534  18.547  13.125  1.00  0.00     0.053 C 
BRANCH  21  22
ATOM     22  C   UNL     1      13.801  19.704  12.517  1.00  0.00     0.041 C 
ATOM     23  O   UNL     1      14.418  20.552  11.817  1.00  0.00    -0.550 OA
ATOM     24  O   UNL     1      12.436  19.855  12.737  1.00  0.00    -0.550 OA
ENDBRANCH  21  22
ENDBRANCH  20  21
ENDBRANCH  19  20
ENDBRANCH  18  19
ENDBRANCH  17  18
ENDBRANCH  16  17
ENDBRANCH  15  16
ENDBRANCH  14  15
ENDBRANCH  13  14
ENDBRANCH   1  13
TORSDOF 20
ENDMDL
MODEL 2
REMARK VINA RESULT:    -1.433      3.660      6.023
REMARK INTER + INTRA:          -4.532
REMARK INTER:                  -4.914
REMARK INTRA:                   0.382
REMARK UNBOUND:                -1.423
REMARK SMILES CCCCCCCCCCCCCCCCCCCCCC(=O)[O-]
REMARK SMILES IDX 12 1 11 2 10 3 9 4 8 5 7 6 6 7 5 8 4 9 3 10 2 11 1 12 13 13
REMARK SMILES IDX 14 14 15 15 16 16 17 17 18 18 19 19 20 20 21 21 22 22 23 23
REMARK SMILES IDX 24 24
REMARK H PARENT
REMARK Flexibility Score: inf
ROOT
ATOM      1  C   UNL     1      15.484  14.938   7.127  1.00  0.00     0.000 C 
ENDROOT
BRANCH   1   2
ATOM      2  C   UNL     1      16.871  15.607   7.251  1.00  0.00     0.000 C 
BRANCH   2   3
ATOM      3  C   UNL     1      16.967  16.628   8.403  1.00  0.00     0.000 C 
BRANCH   3   4
ATOM      4  C   UNL     1      15.924  17.759   8.355  1.00  0.00    -0.000 C 
BRANCH   4   5
ATOM      5  C   UNL     1      15.719  18.516   9.684  1.00  0.00    -0.000 C 
BRANCH   5   6
ATOM      6  C   UNL     1      16.342  19.922   9.741  1.00  0.00    -0.000 C 
BRANCH   6   7
ATOM      7  C   UNL     1      16.956  20.247  11.115  1.00  0.00    -0.000 C 
BRANCH   7   8
ATOM      8  C   UNL     1      15.894  20.624  12.161  1.00  0.00    -0.000 C 
BRANCH   8   9
ATOM      9  C   UNL     1      14.850  19.518  12.372  1.00  0.00    -0.000 C 
BRANCH   9  10
ATOM     10  C   UNL     1      13.490  19.936  11.790  1.00  0.00    -0.000 C 
BRANCH  10  11
ATOM     11  C   UNL     1      13.345  21.460  11.656  1.00  0.00    -0.003 C 
ATOM     12  C   UNL     1      12.578  22.087  12.819  1.00  0.00     0.004 C 
ENDBRANCH  10  11
ENDBRANCH   9  10
ENDBRANCH   8   9
ENDBRANCH   7   8
ENDBRANCH   6   7
ENDBRANCH   5   6
ENDBRANCH   4   5
ENDBRANCH   3   4
ENDBRANCH   2   3
ENDBRANCH   1   2
BRANCH   1  13
ATOM     13  C   UNL     1      14.832  14.673   8.494  1.00  0.00     0.000 C 
BRANCH  13  14
ATOM     14  C   UNL     1      15.600  13.636   9.333  1.00  0.00     0.000 C 
BRANCH  14  15
ATOM     15  C   UNL     1      17.029  14.082   9.709  1.00  0.00     0.000 C 
BRANCH  15  16
ATOM     16  C   UNL     1      17.120  14.573  11.165  1.00  0.00     0.000 C 
BRANCH  16  17
ATOM     17  C   UNL     1      15.737  14.788  11.809  1.00  0.00     0.000 C 
BRANCH  17  18
ATOM     18  C   UNL     1      15.501  14.017  13.124  1.00  0.00     0.000 C 
BRANCH  18  19
ATOM     19  C   UNL     1      15.991  12.554  13.125  1.00  0.00     0.000 C 
BRANCH  19  20
ATOM     20  C   UNL     1      14.912  11.511  12.780  1.00  0.00     0.006 C 
BRANCH  20  21
ATOM     21  C   UNL     1      15.258  10.692  11.526  1.00  0.00     0.053 C 
BRANCH  21  22
ATOM     22  C   UNL     1      16.469   9.841  11.763  1.00  0.00     0.041 C 
ATOM     23  O   UNL     1      17.123   9.380  10.790  1.00  0.00    -0.550 OA
ATOM     24  O   UNL     1      16.864   9.543  13.063  1.00  0.00    -0.550 OA
ENDBRANCH  21  22
ENDBRANCH  20  21
ENDBRANCH  19  20
ENDBRANCH  18  19
ENDBRANCH  17  18
ENDBRANCH  16  17
ENDBRANCH  15  16
ENDBRANCH  14  15
ENDBRANCH  13  14
ENDBRANCH   1  13
TORSDOF 20
ENDMDL
MODEL 3
REMARK VINA RESULT:    -1.172      4.490      6.955
REMARK INTER + INTRA:          -3.964
REMARK INTER:                  -2.212
REMARK INTRA:                  -1.752
REMARK UNBOUND:                -1.423
REMARK SMILES CCCCCCCCCCCCCCCCCCCCCC(=O)[O-]
REMARK SMILES IDX 12 1 11 2 10 3 9 4 8 5 7 6 6 7 5 8 4 9 3 10 2 11 1 12 13 13
REMARK SMILES IDX 14 14 15 15 16 16 17 17 18 18 19 19 20 20 21 21 22 22 23 23
REMARK SMILES IDX 24 24
REMARK H PARENT
REMARK Flexibility Score: inf
ROOT
ATOM      1  C   UNL     1      14.596  13.122   8.892  1.00  0.00     0.000 C 
ENDROOT
BRANCH   1   2
ATOM      2  C   UNL     1      14.080  12.398  10.156  1.00  0.00     0.000 C 
BRANCH   2   3
ATOM      3  C   UNL     1      15.097  12.372  11.314  1.00  0.00     0.000 C 
BRANCH   3   4
ATOM      4  C   UNL     1      14.566  12.908  12.656  1.00  0.00    -0.000 C 
BRANCH   4   5
ATOM      5  C   UNL     1      15.141  14.273  13.089  1.00  0.00    -0.000 C 
BRANCH   5   6
ATOM      6  C   UNL     1      16.408  14.720  12.338  1.00  0.00    -0.000 C 
BRANCH   6   7
ATOM      7  C   UNL     1      16.157  15.918  11.404  1.00  0.00    -0.000 C 
BRANCH   7   8
ATOM      8  C   UNL     1      16.840  17.204  11.897  1.00  0.00    -0.000 C 
BRANCH   8   9
ATOM      9  C   UNL     1      15.836  18.260  12.382  1.00  0.00    -0.000 C 
BRANCH   9  10
ATOM     10  C   UNL     1      16.126  19.623  11.733  1.00  0.00    -0.000 C 
BRANCH  10  11
ATOM     11  C   UNL     1      14.975  20.111  10.839  1.00  0.00    -0.003 C 
ATOM     12  C   UNL     1      13.666  20.297  11.606  1.00  0.00     0.004 C 
ENDBRANCH  10  11
ENDBRANCH   9  10
ENDBRANCH   8   9
ENDBRANCH   7   8
ENDBRANCH   6   7
ENDBRANCH   5   6
ENDBRANCH   4   5
ENDBRANCH   3   4
ENDBRANCH   2   3
ENDBRANCH   1   2
BRANCH   1  13
ATOM     13  C   UNL     1      16.119  13.335   8.914  1.00  0.00     0.000 C 
BRANCH  13  14
ATOM     14  C   UNL     1      16.644  14.023   7.642  1.00  0.00     0.000 C 
BRANCH  14  15
ATOM     15  C   UNL     1      16.862  15.543   7.806  1.00  0.00     0.000 C 
BRANCH  15  16
ATOM     16  C   UNL     1      15.663  16.360   7.291  1.00  0.00     0.000 C 
BRANCH  16  17
ATOM     17  C   UNL     1      15.403  16.154   5.787  1.00  0.00     0.000 C 
BRANCH  17  18
ATOM     18  C   UNL     1      14.099  16.786   5.258  1.00  0.00     0.000 C 
BRANCH  18  19
ATOM     19  C   UNL     1      13.840  16.592   3.749  1.00  0.00     0.000 C 
BRANCH  19  20
ATOM     20  C   UNL     1      14.727  17.446   2.825  1.00  0.00     0.006 C 
BRANCH  20  21
ATOM     21  C   UNL     1      14.096  17.676   1.443  1.00  0.00     0.053 C 
BRANCH  21  22
ATOM     22  C   UNL     1      14.776  18.804   0.728  1.00  0.00     0.041 C 
ATOM     23  O   UNL     1      14.109  19.597   0.010  1.00  0.00    -0.550 OA
ATOM     24  O   UNL     1      16.152  18.968   0.842  1.00  0.00    -0.550 OA
ENDBRANCH  21  22
ENDBRANCH  20  21
ENDBRANCH  19  20
ENDBRANCH  18  19
ENDBRANCH  17  18
ENDBRANCH  16  17
ENDBRANCH  15  16
ENDBRANCH  14  15
ENDBRANCH  13  14
ENDBRANCH   1  13
TORSDOF 20
ENDMDL
MODEL 4
REMARK VINA RESULT:    -0.758      6.417      7.986
REMARK INTER + INTRA:          -3.067
REMARK INTER:                  -2.001
REMARK INTRA:                  -1.067
REMARK UNBOUND:                -1.423
REMARK SMILES CCCCCCCCCCCCCCCCCCCCCC(=O)[O-]
REMARK SMILES IDX 12 1 11 2 10 3 9 4 8 5 7 6 6 7 5 8 4 9 3 10 2 11 1 12 13 13
REMARK SMILES IDX 14 14 15 15 16 16 17 17 18 18 19 19 20 20 21 21 22 22 23 23
REMARK SMILES IDX 24 24
REMARK H PARENT
REMARK Flexibility Score: inf
ROOT
ATOM      1  C   UNL     1      14.131  15.969   5.156  1.00  0.00     0.000 C 
ENDROOT
BRANCH   1   2
ATOM      2  C   UNL     1      13.437  16.886   4.125  1.00  0.00     0.000 C 
BRANCH   2   3
ATOM      3  C   UNL     1      14.104  16.875   2.736  1.00  0.00     0.000 C 
BRANCH   3   4
ATOM      4  C   UNL     1      15.287  17.846   2.576  1.00  0.00    -0.000 C 
BRANCH   4   5
ATOM      5  C   UNL     1      15.465  18.434   1.161  1.00  0.00    -0.000 C 
BRANCH   5   6
ATOM      6  C   UNL     1      16.845  19.052   0.875  1.00  0.00    -0.000 C 
BRANCH   6   7
ATOM      7  C   UNL     1      16.784  20.201  -0.147  1.00  0.00    -0.000 C 
BRANCH   7   8
ATOM      8  C   UNL     1      15.511  21.051  -0.005  1.00  0.00    -0.000 C 
BRANCH   8   9
ATOM      9  C   UNL     1      14.534  20.856  -1.173  1.00  0.00    -0.000 C 
BRANCH   9  10
ATOM     10  C   UNL     1      13.092  20.724  -0.659  1.00  0.00    -0.000 C 
BRANCH  10  11
ATOM     11  C   UNL     1      12.640  19.262  -0.527  1.00  0.00    -0.003 C 
ATOM     12  C   UNL     1      11.446  18.927  -1.421  1.00  0.00     0.004 C 
ENDBRANCH  10  11
ENDBRANCH   9  10
ENDBRANCH   8   9
ENDBRANCH   7   8
ENDBRANCH   6   7
ENDBRANCH   5   6
ENDBRANCH   4   5
ENDBRANCH   3   4
ENDBRANCH   2   3
ENDBRANCH   1   2
BRANCH   1  13
ATOM     13  C   UNL     1      15.264  16.682   5.914  1.00  0.00     0.000 C 
BRANCH  13  14
ATOM     14  C   UNL     1      15.409  16.198   7.367  1.00  0.00     0.000 C 
BRANCH  14  15
ATOM     15  C   UNL     1      16.822  15.676   7.706  1.00  0.00     0.000 C 
BRANCH  15  16
ATOM     16  C   UNL     1      16.793  14.239   8.256  1.00  0.00     0.000 C 
BRANCH  16  17
ATOM     17  C   UNL     1      15.678  13.382   7.628  1.00  0.00     0.000 C 
BRANCH  17  18
ATOM     18  C   UNL     1      14.455  13.134   8.535  1.00  0.00     0.000 C 
BRANCH  18  19
ATOM     19  C   UNL     1      14.711  13.312  10.046  1.00  0.00     0.000 C 
BRANCH  19  20
ATOM     20  C   UNL     1      13.843  12.425  10.958  1.00  0.00     0.006 C 
BRANCH  20  21
ATOM     21  C   UNL     1      14.436  12.264  12.367  1.00  0.00     0.053 C 
BRANCH  21  22
ATOM     22  C   UNL     1      15.732  11.514  12.317  1.00  0.00     0.041 C 
ATOM     23  O   UNL     1      16.660  11.791  13.125  1.00  0.00    -0.550 OA
ATOM     24  O   UNL     1      15.922  10.519  11.365  1.00  0.00    -0.550 OA
ENDBRANCH  21  22
ENDBRANCH  20  21
ENDBRANCH  19  20
ENDBRANCH  18  19
ENDBRANCH  17  18
ENDBRANCH  16  17
ENDBRANCH  15  16
ENDBRANCH  14  15
ENDBRANCH  13  14
ENDBRANCH   1  13
TORSDOF 20
ENDMDL
MODEL 5
REMARK VINA RESULT:    -0.701      1.725      5.314
REMARK INTER + INTRA:          -2.943
REMARK INTER:                  -2.493
REMARK INTRA:                  -0.450
REMARK UNBOUND:                -1.423
REMARK SMILES CCCCCCCCCCCCCCCCCCCCCC(=O)[O-]
REMARK SMILES IDX 12 1 11 2 10 3 9 4 8 5 7 6 6 7 5 8 4 9 3 10 2 11 1 12 13 13
REMARK SMILES IDX 14 14 15 15 16 16 17 17 18 18 19 19 20 20 21 21 22 22 23 23
REMARK SMILES IDX 24 24
REMARK H PARENT
REMARK Flexibility Score: inf
ROOT
ATOM      1  C   UNL     1      15.119  17.075   7.731  1.00  0.00     0.000 C 
ENDROOT
BRANCH   1   2
ATOM      2  C   UNL     1      16.000  15.928   8.275  1.00  0.00     0.000 C 
BRANCH   2   3
ATOM      3  C   UNL     1      16.075  14.706   7.338  1.00  0.00     0.000 C 
BRANCH   3   4
ATOM      4  C   UNL     1      17.032  13.592   7.799  1.00  0.00    -0.000 C 
BRANCH   4   5
ATOM      5  C   UNL     1      16.839  13.128   9.258  1.00  0.00    -0.000 C 
BRANCH   5   6
ATOM      6  C   UNL     1      15.404  12.716   9.633  1.00  0.00    -0.000 C 
BRANCH   6   7
ATOM      7  C   UNL     1      14.819  13.565  10.776  1.00  0.00    -0.000 C 
BRANCH   7   8
ATOM      8  C   UNL     1      15.903  14.114  11.718  1.00  0.00    -0.000 C 
BRANCH   8   9
ATOM      9  C   UNL     1      15.992  13.333  13.038  1.00  0.00    -0.000 C 
BRANCH   9  10
ATOM     10  C   UNL     1      16.965  12.151  12.905  1.00  0.00    -0.000 C 
BRANCH  10  11
ATOM     11  C   UNL     1      16.262  10.789  13.013  1.00  0.00    -0.003 C 
ATOM     12  C   UNL     1      16.668   9.822  11.901  1.00  0.00     0.004 C 
ENDBRANCH  10  11
ENDBRANCH   9  10
ENDBRANCH   8   9
ENDBRANCH   7   8
ENDBRANCH   6   7
ENDBRANCH   5   6
ENDBRANCH   4   5
ENDBRANCH   3   4
ENDBRANCH   2   3
ENDBRANCH   1   2
BRANCH   1  13
ATOM     13  C   UNL     1      15.260  18.368   8.553  1.00  0.00     0.000 C 
BRANCH  13  14
ATOM     14  C   UNL     1      16.471  18.344   9.502  1.00  0.00     0.000 C 
BRANCH  14  15
ATOM     15  C   UNL     1      16.200  17.608  10.831  1.00  0.00     0.000 C 
BRANCH  15  16
ATOM     16  C   UNL     1      17.125  18.093  11.962  1.00  0.00     0.000 C 
BRANCH  16  17
ATOM     17  C   UNL     1      16.711  19.465  12.525  1.00  0.00     0.000 C 
BRANCH  17  18
ATOM     18  C   UNL     1      17.123  20.676  11.663  1.00  0.00     0.000 C 
BRANCH  18  19
ATOM     19  C   UNL     1      16.661  22.049  12.195  1.00  0.00     0.000 C 
BRANCH  19  20
ATOM     20  C   UNL     1      15.435  22.005  13.124  1.00  0.00     0.006 C 
BRANCH  20  21
ATOM     21  C   UNL     1      14.488  20.838  12.802  1.00  0.00     0.053 C 
BRANCH  21  22
ATOM     22  C   UNL     1      13.204  21.341  12.215  1.00  0.00     0.041 C 
ATOM     23  O   UNL     1      12.346  21.901  12.949  1.00  0.00    -0.550 OA
ATOM     24  O   UNL     1      12.948  21.175  10.859  1.00  0.00    -0.550 OA
ENDBRANCH  21  22
ENDBRANCH  20  21
ENDBRANCH  19  20
ENDBRANCH  18  19
ENDBRANCH  17  18
ENDBRANCH  16  17
ENDBRANCH  15  16
ENDBRANCH  14  15
ENDBRANCH  13  14
ENDBRANCH   1  13
TORSDOF 20
ENDMDL
MODEL 6
REMARK VINA RESULT:    -0.624      4.198      4.949
REMARK INTER + INTRA:          -2.777
REMARK INTER:                  -1.126
REMARK INTRA:                  -1.652
REMARK UNBOUND:                -1.423
REMARK SMILES CCCCCCCCCCCCCCCCCCCCCC(=O)[O-]
REMARK SMILES IDX 12 1 11 2 10 3 9 4 8 5 7 6 6 7 5 8 4 9 3 10 2 11 1 12 13 13
REMARK SMILES IDX 14 14 15 15 16 16 17 17 18 18 19 19 20 20 21 21 22 22 23 23
REMARK SMILES IDX 24 24
REMARK H PARENT
REMARK Flexibility Score: inf
ROOT
ATOM      1  C   UNL     1      14.927  14.403   7.781  1.00  0.00     0.000 C 
ENDROOT
BRANCH   1   2
ATOM      2  C   UNL     1      15.446  15.506   8.731  1.00  0.00     0.000 C 
BRANCH   2   3
ATOM      3  C   UNL     1      16.648  16.293   8.170  1.00  0.00     0.000 C 
BRANCH   3   4
ATOM      4  C   UNL     1      16.968  16.020   6.690  1.00  0.00    -0.000 C 
BRANCH   4   5
ATOM      5  C   UNL     1      17.057  17.276   5.797  1.00  0.00    -0.000 C 
BRANCH   5   6
ATOM      6  C   UNL     1      16.593  17.082   4.343  1.00  0.00    -0.000 C 
BRANCH   6   7
ATOM      7  C   UNL     1      17.120  18.177   3.398  1.00  0.00    -0.000 C 
BRANCH   7   8
ATOM      8  C   UNL     1      16.197  18.408   2.190  1.00  0.00    -0.000 C 
BRANCH   8   9
ATOM      9  C   UNL     1      16.920  19.074   1.010  1.00  0.00    -0.000 C 
BRANCH   9  10
ATOM     10  C   UNL     1      15.989  20.062   0.290  1.00  0.00    -0.000 C 
BRANCH  10  11
ATOM     11  C   UNL     1      14.576  19.496   0.075  1.00  0.00    -0.003 C 
ATOM     12  C   UNL     1      13.628  20.502  -0.577  1.00  0.00     0.004 C 
ENDBRANCH  10  11
ENDBRANCH   9  10
ENDBRANCH   8   9
ENDBRANCH   7   8
ENDBRANCH   6   7
ENDBRANCH   5   6
ENDBRANCH   4   5
ENDBRANCH   3   4
ENDBRANCH   2   3
ENDBRANCH   1   2
BRANCH   1  13
ATOM     13  C   UNL     1      14.745  13.051   8.490  1.00  0.00     0.000 C 
BRANCH  13  14
ATOM     14  C   UNL     1      15.480  12.980   9.840  1.00  0.00     0.000 C 
BRANCH  14  15
ATOM     15  C   UNL     1      14.539  13.076  11.061  1.00  0.00     0.000 C 
BRANCH  15  16
ATOM     16  C   UNL     1      15.213  13.768  12.260  1.00  0.00     0.000 C 
BRANCH  16  17
ATOM     17  C   UNL     1      16.565  14.409  11.896  1.00  0.00     0.000 C 
BRANCH  17  18
ATOM     18  C   UNL     1      16.774  15.841  12.430  1.00  0.00     0.000 C 
BRANCH  18  19
ATOM     19  C   UNL     1      15.481  16.612  12.769  1.00  0.00     0.000 C 
BRANCH  19  20
ATOM     20  C   UNL     1      15.674  18.116  13.031  1.00  0.00     0.006 C 
BRANCH  20  21
ATOM     21  C   UNL     1      16.814  18.722  12.197  1.00  0.00     0.053 C 
BRANCH  21  22
ATOM     22  C   UNL     1      16.280  19.360  10.950  1.00  0.00     0.041 C 
ATOM     23  O   UNL     1      15.069  19.704  10.879  1.00  0.00    -0.550 OA
ATOM     24  O   UNL     1      17.118  19.559   9.859  1.00  0.00    -0.550 OA
ENDBRANCH  21  22
ENDBRANCH  20  21
ENDBRANCH  19  20
ENDBRANCH  18  19
ENDBRANCH  17  18
ENDBRANCH  16  17
ENDBRANCH  15  16
ENDBRANCH  14  15
ENDBRANCH  13  14
ENDBRANCH   1  13
TORSDOF 20
ENDMDL
MODEL 7
REMARK VINA RESULT:    -0.591      6.474      9.556
REMARK INTER + INTRA:          -2.706
REMARK INTER:                  -1.945
REMARK INTRA:                  -0.761
REMARK UNBOUND:                -1.423
REMARK SMILES CCCCCCCCCCCCCCCCCCCCCC(=O)[O-]
REMARK SMILES IDX 12 1 11 2 10 3 9 4 8 5 7 6 6 7 5 8 4 9 3 10 2 11 1 12 13 13
REMARK SMILES IDX 14 14 15 15 16 16 17 17 18 18 19 19 20 20 21 21 22 22 23 23
REMARK SMILES IDX 24 24
REMARK H PARENT
REMARK Flexibility Score: inf
ROOT
ATOM      1  C   UNL     1      15.322  16.519   5.402  1.00  0.00     0.000 C 
ENDROOT
BRANCH   1   2
ATOM      2  C   UNL     1      15.209  15.904   6.815  1.00  0.00     0.000 C 
BRANCH   2   3
ATOM      3  C   UNL     1      16.260  16.437   7.809  1.00  0.00     0.000 C 
BRANCH   3   4
ATOM      4  C   UNL     1      15.706  17.378   8.894  1.00  0.00    -0.000 C 
BRANCH   4   5
ATOM      5  C   UNL     1      16.748  17.883   9.915  1.00  0.00    -0.000 C 
BRANCH   5   6
ATOM      6  C   UNL     1      16.193  18.801  11.019  1.00  0.00    -0.000 C 
BRANCH   6   7
ATOM      7  C   UNL     1      15.551  20.084  10.461  1.00  0.00    -0.000 C 
BRANCH   7   8
ATOM      8  C   UNL     1      16.094  21.356  11.131  1.00  0.00    -0.000 C 
BRANCH   8   9
ATOM      9  C   UNL     1      15.015  22.125  11.907  1.00  0.00    -0.000 C 
BRANCH   9  10
ATOM     10  C   UNL     1      13.616  21.578  11.580  1.00  0.00    -0.000 C 
BRANCH  10  11
ATOM     11  C   UNL     1      12.874  21.065  12.824  1.00  0.00    -0.003 C 
ATOM     12  C   UNL     1      13.165  19.596  13.125  1.00  0.00     0.004 C 
ENDBRANCH  10  11
ENDBRANCH   9  10
ENDBRANCH   8   9
ENDBRANCH   7   8
ENDBRANCH   6   7
ENDBRANCH   5   6
ENDBRANCH   4   5
ENDBRANCH   3   4
ENDBRANCH   2   3
ENDBRANCH   1   2
BRANCH   1  13
ATOM     13  C   UNL     1      13.976  16.542   4.659  1.00  0.00     0.000 C 
BRANCH  13  14
ATOM     14  C   UNL     1      14.110  16.983   3.191  1.00  0.00     0.000 C 
BRANCH  14  15
ATOM     15  C   UNL     1      15.427  17.731   2.889  1.00  0.00     0.000 C 
BRANCH  15  16
ATOM     16  C   UNL     1      15.487  18.237   1.436  1.00  0.00     0.000 C 
BRANCH  16  17
ATOM     17  C   UNL     1      16.854  18.845   1.072  1.00  0.00     0.000 C 
BRANCH  17  18
ATOM     18  C   UNL     1      16.808  19.978   0.026  1.00  0.00     0.000 C 
BRANCH  18  19
ATOM     19  C   UNL     1      15.555  20.877   0.085  1.00  0.00     0.000 C 
BRANCH  19  20
ATOM     20  C   UNL     1      14.609  20.748  -1.122  1.00  0.00     0.006 C 
BRANCH  20  21
ATOM     21  C   UNL     1      13.126  20.810  -0.722  1.00  0.00     0.053 C 
BRANCH  21  22
ATOM     22  C   UNL     1      12.517  19.440  -0.720  1.00  0.00     0.041 C 
ATOM     23  O   UNL     1      11.587  19.155  -1.522  1.00  0.00    -0.550 OA
ATOM     24  O   UNL     1      12.968  18.481   0.180  1.00  0.00    -0.550 OA
ENDBRANCH  21  22
ENDBRANCH  20  21
ENDBRANCH  19  20
ENDBRANCH  18  19
ENDBRANCH  17  18
ENDBRANCH  16  17
ENDBRANCH  15  16
ENDBRANCH  14  15
ENDBRANCH  13  14
ENDBRANCH   1  13
TORSDOF 20
ENDMDL
MODEL 8
REMARK VINA RESULT:    -0.507      2.690      4.958
REMARK INTER + INTRA:          -2.523
REMARK INTER:                  -2.532
REMARK INTRA:                   0.009
REMARK UNBOUND:                -1.423
REMARK SMILES CCCCCCCCCCCCCCCCCCCCCC(=O)[O-]
REMARK SMILES IDX 12 1 11 2 10 3 9 4 8 5 7 6 6 7 5 8 4 9 3 10 2 11 1 12 13 13
REMARK SMILES IDX 14 14 15 15 16 16 17 17 18 18 19 19 20 20 21 21 22 22 23 23
REMARK SMILES IDX 24 24
REMARK H PARENT
REMARK Flexibility Score: inf
ROOT
ATOM      1  C   UNL     1      15.157  14.418   6.746  1.00  0.00     0.000 C 
ENDROOT
BRANCH   1   2
ATOM      2  C   UNL     1      15.216  15.963   6.727  1.00  0.00     0.000 C 
BRANCH   2   3
ATOM      3  C   UNL     1      14.326  16.631   7.794  1.00  0.00     0.000 C 
BRANCH   3   4
ATOM      4  C   UNL     1      15.076  17.137   9.039  1.00  0.00    -0.000 C 
BRANCH   4   5
ATOM      5  C   UNL     1      16.292  18.041   8.747  1.00  0.00    -0.000 C 
BRANCH   5   6
ATOM      6  C   UNL     1      17.097  18.477   9.984  1.00  0.00    -0.000 C 
BRANCH   6   7
ATOM      7  C   UNL     1      17.044  19.996  10.226  1.00  0.00    -0.000 C 
BRANCH   7   8
ATOM      8  C   UNL     1      17.125  20.359  11.717  1.00  0.00    -0.000 C 
BRANCH   8   9
ATOM      9  C   UNL     1      15.796  20.893  12.271  1.00  0.00    -0.000 C 
BRANCH   9  10
ATOM     10  C   UNL     1      14.670  20.727  11.238  1.00  0.00    -0.000 C 
BRANCH  10  11
ATOM     11  C   UNL     1      13.484  19.914  11.778  1.00  0.00    -0.003 C 
ATOM     12  C   UNL     1      12.829  20.559  12.999  1.00  0.00     0.004 C 
ENDBRANCH  10  11
ENDBRANCH   9  10
ENDBRANCH   8   9
ENDBRANCH   7   8
ENDBRANCH   6   7
ENDBRANCH   5   6
ENDBRANCH   4   5
ENDBRANCH   3   4
ENDBRANCH   2   3
ENDBRANCH   1   2
BRANCH   1  13
ATOM     13  C   UNL     1      14.247  13.876   7.861  1.00  0.00     0.000 C 
BRANCH  13  14
ATOM     14  C   UNL     1      14.982  13.701   9.201  1.00  0.00     0.000 C 
BRANCH  14  15
ATOM     15  C   UNL     1      16.436  14.222   9.181  1.00  0.00     0.000 C 
BRANCH  15  16
ATOM     16  C   UNL     1      17.124  14.073  10.549  1.00  0.00     0.000 C 
BRANCH  16  17
ATOM     17  C   UNL     1      17.092  15.371  11.378  1.00  0.00     0.000 C 
BRANCH  17  18
ATOM     18  C   UNL     1      16.444  15.241  12.771  1.00  0.00     0.000 C 
BRANCH  18  19
ATOM     19  C   UNL     1      15.431  14.087  12.921  1.00  0.00     0.000 C 
BRANCH  19  20
ATOM     20  C   UNL     1      16.055  12.680  12.968  1.00  0.00     0.006 C 
BRANCH  20  21
ATOM     21  C   UNL     1      15.190  11.623  12.264  1.00  0.00     0.053 C 
BRANCH  21  22
ATOM     22  C   UNL     1      13.791  12.123  12.071  1.00  0.00     0.041 C 
ATOM     23  O   UNL     1      13.033  12.293  13.064  1.00  0.00    -0.550 OA
ATOM     24  O   UNL     1      13.318  12.386  10.791  1.00  0.00    -0.550 OA
ENDBRANCH  21  22
ENDBRANCH  20  21
ENDBRANCH  19  20
ENDBRANCH  18  19
ENDBRANCH  17  18
ENDBRANCH  16  17
ENDBRANCH  15  16
ENDBRANCH  14  15
ENDBRANCH  13  14
ENDBRANCH   1  13
TORSDOF 20
ENDMDL
