MODEL 1
REMARK VINA RESULT:    -5.733      0.000      0.000
REMARK INTER + INTRA:          -6.661
REMARK INTER:                  -6.236
REMARK INTRA:                  -0.425
REMARK UNBOUND:                -0.425
REMARK SMILES C=C1C[C@]2(O)O[C@]3(C[C@@H]2C(C)C)[C@H](C)CC[C@@H]13
REMARK SMILES IDX 14 1 13 2 15 3 16 4 17 5 7 6 8 7 9 8 4 9 6 10 3 11 2 12 1 13
REMARK SMILES IDX 10 14 11 15 12 16 5 17
REMARK H PARENT 5 18
REMARK Flexibility Score: inf
ROOT
ATOM      1  C   UNL     1      31.216  -4.580  20.452  1.00  0.00     0.011 C 
ATOM      2  C   UNL     1      29.965  -4.827  21.312  1.00  0.00     0.019 C 
ATOM      3  C   UNL     1      28.699  -4.192  20.678  1.00  0.00     0.007 C 
ATOM      4  C   UNL     1      28.313  -2.970  21.535  1.00  0.00     0.011 C 
ATOM      5  C   UNL     1      29.519  -2.754  22.436  1.00  0.00     0.047 C 
ATOM      6  C   UNL     1      30.052  -4.164  22.699  1.00  0.00     0.081 C 
ATOM      7  C   UNL     1      29.223  -4.943  23.759  1.00  0.00     0.046 C 
ATOM      8  C   UNL     1      30.058  -4.808  25.026  1.00  0.00     0.054 C 
ATOM      9  C   UNL     1      31.080  -3.729  24.610  1.00  0.00     0.173 C 
ATOM     10  O   UNL     1      31.344  -4.018  23.245  1.00  0.00    -0.342 OA
ATOM     11  C   UNL     1      30.524  -2.262  24.738  1.00  0.00     0.096 C 
ATOM     12  C   UNL     1      29.391  -2.023  23.751  1.00  0.00    -0.066 C 
ATOM     13  C   UNL     1      28.475  -1.068  23.959  1.00  0.00     0.008 C 
ENDROOT
BRANCH   8  14
ATOM     14  C   UNL     1      29.218  -4.556  26.317  1.00  0.00    -0.009 C 
ATOM     15  C   UNL     1      27.716  -4.504  25.988  1.00  0.00     0.008 C 
ATOM     16  C   UNL     1      29.457  -5.655  27.366  1.00  0.00     0.008 C 
ENDBRANCH   8  14
BRANCH   9  17
ATOM     17  O   UNL     1      32.257  -3.873  25.363  1.00  0.00    -0.365 OA
ATOM     18  H   UNL     1      32.146  -3.321  26.181  1.00  0.00     0.214 HD
ENDBRANCH   9  17
TORSDOF 2
ENDMDL
MODEL 2
REMARK VINA RESULT:    -5.703      2.532      4.861
REMARK INTER + INTRA:          -6.628
REMARK INTER:                  -6.203
REMARK INTRA:                  -0.425
REMARK UNBOUND:                -0.425
REMARK SMILES C=C1C[C@]2(O)O[C@]3(C[C@@H]2C(C)C)[C@H](C)CC[C@@H]13
REMARK SMILES IDX 14 1 13 2 15 3 16 4 17 5 7 6 8 7 9 8 4 9 6 10 3 11 2 12 1 13
REMARK SMILES IDX 10 14 11 15 12 16 5 17
REMARK H PARENT 5 18
REMARK Flexibility Score: inf
ROOT
ATOM      1  C   UNL     1      27.865  -1.753  23.629  1.00  0.00     0.011 C 
ATOM      2  C   UNL     1      28.411  -3.172  23.861  1.00  0.00     0.019 C 
ATOM      3  C   UNL     1      29.845  -3.144  24.454  1.00  0.00     0.007 C 
ATOM      4  C   UNL     1      30.815  -3.600  23.347  1.00  0.00     0.011 C 
ATOM      5  C   UNL     1      29.969  -3.579  22.082  1.00  0.00     0.047 C 
ATOM      6  C   UNL     1      28.569  -3.974  22.557  1.00  0.00     0.081 C 
ATOM      7  C   UNL     1      28.415  -5.502  22.803  1.00  0.00     0.046 C 
ATOM      8  C   UNL     1      27.707  -5.990  21.545  1.00  0.00     0.054 C 
ATOM      9  C   UNL     1      27.822  -4.756  20.626  1.00  0.00     0.173 C 
ATOM     10  O   UNL     1      27.677  -3.656  21.513  1.00  0.00    -0.342 OA
ATOM     11  C   UNL     1      29.209  -4.656  19.888  1.00  0.00     0.096 C 
ATOM     12  C   UNL     1      30.337  -4.418  20.882  1.00  0.00    -0.066 C 
ATOM     13  C   UNL     1      31.602  -4.747  20.592  1.00  0.00     0.008 C 
ENDROOT
BRANCH   8  14
ATOM     14  C   UNL     1      28.239  -7.353  21.004  1.00  0.00    -0.009 C 
ATOM     15  C   UNL     1      29.366  -7.893  21.902  1.00  0.00     0.008 C 
ATOM     16  C   UNL     1      27.119  -8.405  20.931  1.00  0.00     0.008 C 
ENDBRANCH   8  14
BRANCH   9  17
ATOM     17  O   UNL     1      26.772  -4.758  19.693  1.00  0.00    -0.365 OA
ATOM     18  H   UNL     1      26.128  -5.456  19.983  1.00  0.00     0.214 HD
ENDBRANCH   9  17
TORSDOF 2
ENDMDL
MODEL 3
REMARK VINA RESULT:    -5.678      2.069      3.787
REMARK INTER + INTRA:          -6.601
REMARK INTER:                  -6.176
REMARK INTRA:                  -0.425
REMARK UNBOUND:                -0.425
REMARK SMILES C=C1C[C@]2(O)O[C@]3(C[C@@H]2C(C)C)[C@H](C)CC[C@@H]13
REMARK SMILES IDX 14 1 13 2 15 3 16 4 17 5 7 6 8 7 9 8 4 9 6 10 3 11 2 12 1 13
REMARK SMILES IDX 10 14 11 15 12 16 5 17
REMARK H PARENT 5 18
REMARK Flexibility Score: inf
ROOT
ATOM      1  C   UNL     1      28.976  -4.753  19.897  1.00  0.00     0.011 C 
ATOM      2  C   UNL     1      29.768  -3.979  20.964  1.00  0.00     0.019 C 
ATOM      3  C   UNL     1      31.042  -4.748  21.402  1.00  0.00     0.007 C 
ATOM      4  C   UNL     1      30.798  -5.277  22.829  1.00  0.00     0.011 C 
ATOM      5  C   UNL     1      29.307  -5.071  23.050  1.00  0.00     0.047 C 
ATOM      6  C   UNL     1      28.984  -3.792  22.275  1.00  0.00     0.081 C 
ATOM      7  C   UNL     1      29.417  -2.498  23.021  1.00  0.00     0.046 C 
ATOM      8  C   UNL     1      28.116  -1.994  23.635  1.00  0.00     0.054 C 
ATOM      9  C   UNL     1      27.185  -3.207  23.424  1.00  0.00     0.173 C 
ATOM     10  O   UNL     1      27.580  -3.725  22.162  1.00  0.00    -0.342 OA
ATOM     11  C   UNL     1      27.353  -4.321  24.524  1.00  0.00     0.096 C 
ATOM     12  C   UNL     1      28.731  -4.961  24.442  1.00  0.00    -0.066 C 
ATOM     13  C   UNL     1      29.279  -5.573  25.499  1.00  0.00     0.008 C 
ENDROOT
BRANCH   8  14
ATOM     14  C   UNL     1      28.271  -1.439  25.085  1.00  0.00    -0.009 C 
ATOM     15  C   UNL     1      29.734  -1.531  25.551  1.00  0.00     0.008 C 
ATOM     16  C   UNL     1      27.815   0.027  25.177  1.00  0.00     0.008 C 
ENDBRANCH   8  14
BRANCH   9  17
ATOM     17  O   UNL     1      25.850  -2.776  23.366  1.00  0.00    -0.365 OA
ATOM     18  H   UNL     1      25.823  -1.995  22.754  1.00  0.00     0.214 HD
ENDBRANCH   9  17
TORSDOF 2
ENDMDL
MODEL 4
REMARK VINA RESULT:    -5.531      3.577      5.475
REMARK INTER + INTRA:          -6.441
REMARK INTER:                  -6.025
REMARK INTRA:                  -0.416
REMARK UNBOUND:                -0.425
REMARK SMILES C=C1C[C@]2(O)O[C@]3(C[C@@H]2C(C)C)[C@H](C)CC[C@@H]13
REMARK SMILES IDX 14 1 13 2 15 3 16 4 17 5 7 6 8 7 9 8 4 9 6 10 3 11 2 12 1 13
REMARK SMILES IDX 10 14 11 15 12 16 5 17
REMARK H PARENT 5 18
REMARK Flexibility Score: inf
ROOT
ATOM      1  C   UNL     1      25.334  -2.769  21.307  1.00  0.00     0.011 C 
ATOM      2  C   UNL     1      26.224  -3.714  22.132  1.00  0.00     0.019 C 
ATOM      3  C   UNL     1      27.308  -2.935  22.923  1.00  0.00     0.007 C 
ATOM      4  C   UNL     1      28.666  -3.217  22.249  1.00  0.00     0.011 C 
ATOM      5  C   UNL     1      28.296  -3.883  20.933  1.00  0.00     0.047 C 
ATOM      6  C   UNL     1      27.035  -4.688  21.258  1.00  0.00     0.081 C 
ATOM      7  C   UNL     1      27.334  -6.016  22.009  1.00  0.00     0.046 C 
ATOM      8  C   UNL     1      27.254  -7.067  20.908  1.00  0.00     0.054 C 
ATOM      9  C   UNL     1      27.227  -6.187  19.642  1.00  0.00     0.173 C 
ATOM     10  O   UNL     1      26.456  -5.058  20.027  1.00  0.00    -0.342 OA
ATOM     11  C   UNL     1      28.655  -5.714  19.180  1.00  0.00     0.096 C 
ATOM     12  C   UNL     1      29.273  -4.774  20.205  1.00  0.00    -0.066 C 
ATOM     13  C   UNL     1      30.600  -4.607  20.287  1.00  0.00     0.008 C 
ENDROOT
BRANCH   8  14
ATOM     14  C   UNL     1      28.352  -8.172  21.003  1.00  0.00    -0.009 C 
ATOM     15  C   UNL     1      29.318  -7.882  22.164  1.00  0.00     0.008 C 
ATOM     16  C   UNL     1      27.732  -9.564  21.212  1.00  0.00     0.008 C 
ENDBRANCH   8  14
BRANCH   9  17
ATOM     17  O   UNL     1      26.580  -6.872  18.600  1.00  0.00    -0.365 OA
ATOM     18  H   UNL     1      27.180  -6.833  17.811  1.00  0.00     0.214 HD
ENDBRANCH   9  17
TORSDOF 2
ENDMDL
MODEL 5
REMARK VINA RESULT:    -5.524      2.036      3.600
REMARK INTER + INTRA:          -6.433
REMARK INTER:                  -6.011
REMARK INTRA:                  -0.422
REMARK UNBOUND:                -0.425
REMARK SMILES C=C1C[C@]2(O)O[C@]3(C[C@@H]2C(C)C)[C@H](C)CC[C@@H]13
REMARK SMILES IDX 14 1 13 2 15 3 16 4 17 5 7 6 8 7 9 8 4 9 6 10 3 11 2 12 1 13
REMARK SMILES IDX 10 14 11 15 12 16 5 17
REMARK H PARENT 5 18
REMARK Flexibility Score: inf
ROOT
ATOM      1  C   UNL     1      26.748  -7.610  20.954  1.00  0.00     0.011 C 
ATOM      2  C   UNL     1      26.946  -6.085  20.946  1.00  0.00     0.019 C 
ATOM      3  C   UNL     1      27.243  -5.553  19.519  1.00  0.00     0.007 C 
ATOM      4  C   UNL     1      28.729  -5.144  19.476  1.00  0.00     0.011 C 
ATOM      5  C   UNL     1      29.311  -5.729  20.753  1.00  0.00     0.047 C 
ATOM      6  C   UNL     1      28.169  -5.636  21.767  1.00  0.00     0.081 C 
ATOM      7  C   UNL     1      27.977  -4.204  22.342  1.00  0.00     0.046 C 
ATOM      8  C   UNL     1      28.661  -4.278  23.702  1.00  0.00     0.054 C 
ATOM      9  C   UNL     1      29.411  -5.623  23.598  1.00  0.00     0.173 C 
ATOM     10  O   UNL     1      28.524  -6.452  22.861  1.00  0.00    -0.342 OA
ATOM     11  C   UNL     1      30.784  -5.514  22.836  1.00  0.00     0.096 C 
ATOM     12  C   UNL     1      30.566  -5.160  21.373  1.00  0.00    -0.066 C 
ATOM     13  C   UNL     1      31.527  -4.575  20.647  1.00  0.00     0.008 C 
ENDROOT
BRANCH   8  14
ATOM     14  C   UNL     1      29.492  -3.008  24.064  1.00  0.00    -0.009 C 
ATOM     15  C   UNL     1      29.445  -1.981  22.920  1.00  0.00     0.008 C 
ATOM     16  C   UNL     1      28.968  -2.341  25.347  1.00  0.00     0.008 C 
ENDBRANCH   8  14
BRANCH   9  17
ATOM     17  O   UNL     1      29.606  -6.158  24.882  1.00  0.00    -0.365 OA
ATOM     18  H   UNL     1      30.538  -6.498  24.916  1.00  0.00     0.214 HD
ENDBRANCH   9  17
TORSDOF 2
ENDMDL
MODEL 6
REMARK VINA RESULT:    -5.476      3.689      5.815
REMARK INTER + INTRA:          -6.381
REMARK INTER:                  -5.981
REMARK INTRA:                  -0.400
REMARK UNBOUND:                -0.425
REMARK SMILES C=C1C[C@]2(O)O[C@]3(C[C@@H]2C(C)C)[C@H](C)CC[C@@H]13
REMARK SMILES IDX 14 1 13 2 15 3 16 4 17 5 7 6 8 7 9 8 4 9 6 10 3 11 2 12 1 13
REMARK SMILES IDX 10 14 11 15 12 16 5 17
REMARK H PARENT 5 18
REMARK Flexibility Score: inf
ROOT
ATOM      1  C   UNL     1      31.299  -7.524  23.208  1.00  0.00     0.011 C 
ATOM      2  C   UNL     1      30.496  -6.533  22.348  1.00  0.00     0.019 C 
ATOM      3  C   UNL     1      30.343  -5.158  23.051  1.00  0.00     0.007 C 
ATOM      4  C   UNL     1      28.875  -5.028  23.503  1.00  0.00     0.011 C 
ATOM      5  C   UNL     1      28.310  -6.429  23.331  1.00  0.00     0.047 C 
ATOM      6  C   UNL     1      29.045  -6.987  22.110  1.00  0.00     0.081 C 
ATOM      7  C   UNL     1      28.490  -6.445  20.762  1.00  0.00     0.046 C 
ATOM      8  C   UNL     1      27.604  -7.580  20.265  1.00  0.00     0.054 C 
ATOM      9  C   UNL     1      27.523  -8.480  21.517  1.00  0.00     0.173 C 
ATOM     10  O   UNL     1      28.817  -8.378  22.094  1.00  0.00    -0.342 OA
ATOM     11  C   UNL     1      26.444  -8.002  22.558  1.00  0.00     0.096 C 
ATOM     12  C   UNL     1      26.827  -6.658  23.159  1.00  0.00    -0.066 C 
ATOM     13  C   UNL     1      25.905  -5.844  23.691  1.00  0.00     0.008 C 
ENDROOT
BRANCH   8  14
ATOM     14  C   UNL     1      26.264  -7.106  19.622  1.00  0.00    -0.009 C 
ATOM     15  C   UNL     1      26.097  -5.584  19.768  1.00  0.00     0.008 C 
ATOM     16  C   UNL     1      26.198  -7.468  18.129  1.00  0.00     0.008 C 
ENDBRANCH   8  14
BRANCH   9  17
ATOM     17  O   UNL     1      27.276  -9.808  21.132  1.00  0.00    -0.365 OA
ATOM     18  H   UNL     1      26.680  -9.775  20.339  1.00  0.00     0.214 HD
ENDBRANCH   9  17
TORSDOF 2
ENDMDL
MODEL 7
REMARK VINA RESULT:    -5.447      1.514      4.293
REMARK INTER + INTRA:          -6.350
REMARK INTER:                  -5.935
REMARK INTRA:                  -0.415
REMARK UNBOUND:                -0.425
REMARK SMILES C=C1C[C@]2(O)O[C@]3(C[C@@H]2C(C)C)[C@H](C)CC[C@@H]13
REMARK SMILES IDX 14 1 13 2 15 3 16 4 17 5 7 6 8 7 9 8 4 9 6 10 3 11 2 12 1 13
REMARK SMILES IDX 10 14 11 15 12 16 5 17
REMARK H PARENT 5 18
REMARK Flexibility Score: inf
ROOT
ATOM      1  C   UNL     1      29.025  -0.653  26.395  1.00  0.00     0.011 C 
ATOM      2  C   UNL     1      28.612  -0.889  24.933  1.00  0.00     0.019 C 
ATOM      3  C   UNL     1      27.080  -0.734  24.737  1.00  0.00     0.007 C 
ATOM      4  C   UNL     1      26.498  -2.141  24.501  1.00  0.00     0.011 C 
ATOM      5  C   UNL     1      27.636  -3.080  24.869  1.00  0.00     0.047 C 
ATOM      6  C   UNL     1      28.900  -2.323  24.454  1.00  0.00     0.081 C 
ATOM      7  C   UNL     1      29.166  -2.372  22.922  1.00  0.00     0.046 C 
ATOM      8  C   UNL     1      30.234  -3.450  22.786  1.00  0.00     0.054 C 
ATOM      9  C   UNL     1      30.216  -4.083  24.193  1.00  0.00     0.173 C 
ATOM     10  O   UNL     1      29.990  -2.980  25.060  1.00  0.00    -0.342 OA
ATOM     11  C   UNL     1      29.070  -5.145  24.385  1.00  0.00     0.096 C 
ATOM     12  C   UNL     1      27.701  -4.484  24.317  1.00  0.00    -0.066 C 
ATOM     13  C   UNL     1      26.606  -5.183  23.994  1.00  0.00     0.008 C 
ENDROOT
BRANCH   8  14
ATOM     14  C   UNL     1      30.030  -4.395  21.561  1.00  0.00    -0.009 C 
ATOM     15  C   UNL     1      28.865  -3.906  20.683  1.00  0.00     0.008 C 
ATOM     16  C   UNL     1      31.299  -4.475  20.696  1.00  0.00     0.008 C 
ENDBRANCH   8  14
BRANCH   9  17
ATOM     17  O   UNL     1      31.467  -4.658  24.472  1.00  0.00    -0.365 OA
ATOM     18  H   UNL     1      31.600  -5.393  23.817  1.00  0.00     0.214 HD
ENDBRANCH   9  17
TORSDOF 2
ENDMDL
MODEL 8
REMARK VINA RESULT:    -5.408      2.374      3.734
REMARK INTER + INTRA:          -6.307
REMARK INTER:                  -5.884
REMARK INTRA:                  -0.423
REMARK UNBOUND:                -0.425
REMARK SMILES C=C1C[C@]2(O)O[C@]3(C[C@@H]2C(C)C)[C@H](C)CC[C@@H]13
REMARK SMILES IDX 14 1 13 2 15 3 16 4 17 5 7 6 8 7 9 8 4 9 6 10 3 11 2 12 1 13
REMARK SMILES IDX 10 14 11 15 12 16 5 17
REMARK H PARENT 5 18
REMARK Flexibility Score: inf
ROOT
ATOM      1  C   UNL     1      25.057  -3.946  20.805  1.00  0.00     0.011 C 
ATOM      2  C   UNL     1      25.734  -4.450  22.091  1.00  0.00     0.019 C 
ATOM      3  C   UNL     1      25.253  -3.661  23.338  1.00  0.00     0.007 C 
ATOM      4  C   UNL     1      26.417  -2.759  23.794  1.00  0.00     0.011 C 
ATOM      5  C   UNL     1      27.406  -2.818  22.639  1.00  0.00     0.047 C 
ATOM      6  C   UNL     1      27.258  -4.238  22.088  1.00  0.00     0.081 C 
ATOM      7  C   UNL     1      27.986  -5.308  22.951  1.00  0.00     0.046 C 
ATOM      8  C   UNL     1      29.278  -5.559  22.184  1.00  0.00     0.054 C 
ATOM      9  C   UNL     1      29.264  -4.398  21.167  1.00  0.00     0.173 C 
ATOM     10  O   UNL     1      27.892  -4.257  20.829  1.00  0.00    -0.342 OA
ATOM     11  C   UNL     1      29.800  -3.042  21.762  1.00  0.00     0.096 C 
ATOM     12  C   UNL     1      28.871  -2.522  22.849  1.00  0.00    -0.066 C 
ATOM     13  C   UNL     1      29.309  -1.681  23.795  1.00  0.00     0.008 C 
ENDROOT
BRANCH   8  14
ATOM     14  C   UNL     1      30.537  -5.715  23.093  1.00  0.00    -0.009 C 
ATOM     15  C   UNL     1      30.164  -5.544  24.575  1.00  0.00     0.008 C 
ATOM     16  C   UNL     1      31.197  -7.092  22.906  1.00  0.00     0.008 C 
ENDBRANCH   8  14
BRANCH   9  17
ATOM     17  O   UNL     1      30.002  -4.756  20.027  1.00  0.00    -0.365 OA
ATOM     18  H   UNL     1      30.944  -4.493  20.196  1.00  0.00     0.214 HD
ENDBRANCH   9  17
TORSDOF 2
ENDMDL
MODEL 9
REMARK VINA RESULT:    -5.352      2.574      4.601
REMARK INTER + INTRA:          -6.246
REMARK INTER:                  -5.822
REMARK INTRA:                  -0.424
REMARK UNBOUND:                -0.425
REMARK SMILES C=C1C[C@]2(O)O[C@]3(C[C@@H]2C(C)C)[C@H](C)CC[C@@H]13
REMARK SMILES IDX 14 1 13 2 15 3 16 4 17 5 7 6 8 7 9 8 4 9 6 10 3 11 2 12 1 13
REMARK SMILES IDX 10 14 11 15 12 16 5 17
REMARK H PARENT 5 18
REMARK Flexibility Score: inf
ROOT
ATOM      1  C   UNL     1      26.965  -0.285  25.149  1.00  0.00     0.011 C 
ATOM      2  C   UNL     1      27.649  -1.644  25.370  1.00  0.00     0.019 C 
ATOM      3  C   UNL     1      29.060  -1.482  25.994  1.00  0.00     0.007 C 
ATOM      4  C   UNL     1      30.093  -1.815  24.900  1.00  0.00     0.011 C 
ATOM      5  C   UNL     1      29.275  -1.856  23.618  1.00  0.00     0.047 C 
ATOM      6  C   UNL     1      27.914  -2.401  24.056  1.00  0.00     0.081 C 
ATOM      7  C   UNL     1      27.913  -3.941  24.273  1.00  0.00     0.046 C 
ATOM      8  C   UNL     1      27.283  -4.476  22.993  1.00  0.00     0.054 C 
ATOM      9  C   UNL     1      27.289  -3.219  22.097  1.00  0.00     0.173 C 
ATOM     10  O   UNL     1      27.014  -2.156  22.998  1.00  0.00    -0.342 OA
ATOM     11  C   UNL     1      28.673  -2.965  21.391  1.00  0.00     0.096 C 
ATOM     12  C   UNL     1      29.750  -2.631  22.412  1.00  0.00    -0.066 C 
ATOM     13  C   UNL     1      31.048  -2.823  22.144  1.00  0.00     0.008 C 
ENDROOT
BRANCH   8  14
ATOM     14  C   UNL     1      27.963  -5.767  22.440  1.00  0.00    -0.009 C 
ATOM     15  C   UNL     1      29.105  -6.220  23.366  1.00  0.00     0.008 C 
ATOM     16  C   UNL     1      26.953  -6.919  22.302  1.00  0.00     0.008 C 
ENDBRANCH   8  14
BRANCH   9  17
ATOM     17  O   UNL     1      26.263  -3.311  21.142  1.00  0.00    -0.365 OA
ATOM     18  H   UNL     1      26.253  -2.451  20.645  1.00  0.00     0.214 HD
ENDBRANCH   9  17
TORSDOF 2
ENDMDL
