MODEL 1
REMARK VINA RESULT:    -4.212      0.000      0.000
REMARK INTER + INTRA:          -7.236
REMARK INTER:                  -6.429
REMARK INTRA:                  -0.808
REMARK UNBOUND:                -0.808
REMARK SMILES CCCCCCCCCC=CC(=O)[O-]
REMARK SMILES IDX 7 1 8 2 9 3 10 4 11 5 12 6 13 7 14 8 6 9 5 10 4 11 3 12 2 13
REMARK SMILES IDX 1 14
REMARK H PARENT
REMARK Flexibility Score: inf
ROOT
ATOM      1  C   UNL     1      -2.803  -6.043   2.799  1.00  0.00     0.000 C 
ENDROOT
BRANCH   1   2
ATOM      2  C   UNL     1      -3.106  -4.590   3.192  1.00  0.00     0.004 C 
BRANCH   2   3
ATOM      3  C   UNL     1      -4.105  -4.502   4.357  1.00  0.00     0.027 C 
BRANCH   3   4
ATOM      4  C   UNL     1      -3.552  -3.734   5.529  1.00  0.00    -0.025 C 
ATOM      5  C   UNL     1      -4.250  -3.300   6.591  1.00  0.00     0.020 C 
BRANCH   5   6
ATOM      6  C   UNL     1      -5.686  -3.530   6.854  1.00  0.00     0.064 C 
ATOM      7  O   UNL     1      -6.021  -4.475   7.616  1.00  0.00    -0.545 OA
ATOM      8  O   UNL     1      -6.681  -2.760   6.266  1.00  0.00    -0.545 OA
ENDBRANCH   5   6
ENDBRANCH   3   4
ENDBRANCH   2   3
ENDBRANCH   1   2
BRANCH   1   9
ATOM      9  C   UNL     1      -1.369  -6.430   3.190  1.00  0.00     0.000 C 
BRANCH   9  10
ATOM     10  C   UNL     1      -1.321  -7.459   4.331  1.00  0.00     0.000 C 
BRANCH  10  11
ATOM     11  C   UNL     1      -1.434  -6.807   5.720  1.00  0.00    -0.000 C 
BRANCH  11  12
ATOM     12  C   UNL     1      -0.744  -7.633   6.817  1.00  0.00    -0.000 C 
BRANCH  12  13
ATOM     13  C   UNL     1       0.114  -8.773   6.251  1.00  0.00    -0.003 C 
ATOM     14  C   UNL     1       1.599  -8.514   6.489  1.00  0.00     0.004 C 
ENDBRANCH  12  13
ENDBRANCH  11  12
ENDBRANCH  10  11
ENDBRANCH   9  10
ENDBRANCH   1   9
TORSDOF 9
ENDMDL
MODEL 2
REMARK VINA RESULT:    -4.204      6.010      7.706
REMARK INTER + INTRA:          -7.223
REMARK INTER:                  -6.230
REMARK INTRA:                  -0.993
REMARK UNBOUND:                -0.808
REMARK SMILES CCCCCCCCCC=CC(=O)[O-]
REMARK SMILES IDX 7 1 8 2 9 3 10 4 11 5 12 6 13 7 14 8 6 9 5 10 4 11 3 12 2 13
REMARK SMILES IDX 1 14
REMARK H PARENT
REMARK Flexibility Score: inf
ROOT
ATOM      1  C   UNL     1      -2.456  -5.079  -2.584  1.00  0.00     0.000 C 
ENDROOT
BRANCH   1   2
ATOM      2  C   UNL     1      -2.964  -6.525  -2.489  1.00  0.00     0.004 C 
BRANCH   2   3
ATOM      3  C   UNL     1      -4.361  -6.606  -1.854  1.00  0.00     0.027 C 
BRANCH   3   4
ATOM      4  C   UNL     1      -5.023  -5.257  -1.752  1.00  0.00    -0.025 C 
ATOM      5  C   UNL     1      -5.867  -4.720  -2.647  1.00  0.00     0.020 C 
BRANCH   5   6
ATOM      6  C   UNL     1      -6.360  -5.358  -3.886  1.00  0.00     0.064 C 
ATOM      7  O   UNL     1      -7.459  -5.973  -3.858  1.00  0.00    -0.545 OA
ATOM      8  O   UNL     1      -5.639  -5.330  -5.072  1.00  0.00    -0.545 OA
ENDBRANCH   5   6
ENDBRANCH   3   4
ENDBRANCH   2   3
ENDBRANCH   1   2
BRANCH   1   9
ATOM      9  C   UNL     1      -1.237  -4.864  -1.674  1.00  0.00     0.000 C 
BRANCH   9  10
ATOM     10  C   UNL     1      -1.580  -4.087  -0.393  1.00  0.00     0.000 C 
BRANCH  10  11
ATOM     11  C   UNL     1      -1.591  -4.984   0.857  1.00  0.00    -0.000 C 
BRANCH  11  12
ATOM     12  C   UNL     1      -2.995  -5.128   1.467  1.00  0.00    -0.000 C 
BRANCH  12  13
ATOM     13  C   UNL     1      -2.963  -5.613   2.923  1.00  0.00    -0.003 C 
ATOM     14  C   UNL     1      -1.662  -6.349   3.228  1.00  0.00     0.004 C 
ENDBRANCH  12  13
ENDBRANCH  11  12
ENDBRANCH  10  11
ENDBRANCH   9  10
ENDBRANCH   1   9
TORSDOF 9
ENDMDL
MODEL 3
REMARK VINA RESULT:    -4.188     13.991     15.644
REMARK INTER + INTRA:          -7.199
REMARK INTER:                  -6.096
REMARK INTRA:                  -1.103
REMARK UNBOUND:                -0.808
REMARK SMILES CCCCCCCCCC=CC(=O)[O-]
REMARK SMILES IDX 7 1 8 2 9 3 10 4 11 5 12 6 13 7 14 8 6 9 5 10 4 11 3 12 2 13
REMARK SMILES IDX 1 14
REMARK H PARENT
REMARK Flexibility Score: inf
ROOT
ATOM      1  C   UNL     1       3.107   6.719  -2.474  1.00  0.00     0.000 C 
ENDROOT
BRANCH   1   2
ATOM      2  C   UNL     1       4.354   6.481  -1.609  1.00  0.00     0.004 C 
BRANCH   2   3
ATOM      3  C   UNL     1       5.655   6.639  -2.413  1.00  0.00     0.027 C 
BRANCH   3   4
ATOM      4  C   UNL     1       6.455   5.364  -2.465  1.00  0.00    -0.025 C 
ATOM      5  C   UNL     1       6.365   4.412  -3.407  1.00  0.00     0.020 C 
BRANCH   5   6
ATOM      6  C   UNL     1       5.507   4.441  -4.611  1.00  0.00     0.064 C 
ATOM      7  O   UNL     1       5.870   5.130  -5.600  1.00  0.00    -0.545 OA
ATOM      8  O   UNL     1       4.299   3.761  -4.676  1.00  0.00    -0.545 OA
ENDBRANCH   5   6
ENDBRANCH   3   4
ENDBRANCH   2   3
ENDBRANCH   1   2
BRANCH   1   9
ATOM      9  C   UNL     1       2.225   5.462  -2.521  1.00  0.00     0.000 C 
BRANCH   9  10
ATOM     10  C   UNL     1       2.430   4.545  -1.304  1.00  0.00     0.000 C 
BRANCH  10  11
ATOM     11  C   UNL     1       1.216   4.537  -0.359  1.00  0.00    -0.000 C 
BRANCH  11  12
ATOM     12  C   UNL     1       1.431   5.413   0.885  1.00  0.00    -0.000 C 
BRANCH  12  13
ATOM     13  C   UNL     1       2.822   5.230   1.508  1.00  0.00    -0.003 C 
ATOM     14  C   UNL     1       2.861   5.773   2.934  1.00  0.00     0.004 C 
ENDBRANCH  12  13
ENDBRANCH  11  12
ENDBRANCH  10  11
ENDBRANCH   9  10
ENDBRANCH   1   9
TORSDOF 9
ENDMDL
MODEL 4
REMARK VINA RESULT:    -4.132     13.731     15.423
REMARK INTER + INTRA:          -7.113
REMARK INTER:                  -6.656
REMARK INTRA:                  -0.457
REMARK UNBOUND:                -0.808
REMARK SMILES CCCCCCCCCC=CC(=O)[O-]
REMARK SMILES IDX 7 1 8 2 9 3 10 4 11 5 12 6 13 7 14 8 6 9 5 10 4 11 3 12 2 13
REMARK SMILES IDX 1 14
REMARK H PARENT
REMARK Flexibility Score: inf
ROOT
ATOM      1  C   UNL     1       3.267   5.259  -0.153  1.00  0.00     0.000 C 
ENDROOT
BRANCH   1   2
ATOM      2  C   UNL     1       2.493   5.405  -1.471  1.00  0.00     0.004 C 
BRANCH   2   3
ATOM      3  C   UNL     1       3.143   6.432  -2.413  1.00  0.00     0.027 C 
BRANCH   3   4
ATOM      4  C   UNL     1       4.549   6.779  -1.998  1.00  0.00    -0.025 C 
ATOM      5  C   UNL     1       5.673   6.211  -2.463  1.00  0.00     0.020 C 
BRANCH   5   6
ATOM      6  C   UNL     1       5.768   5.171  -3.509  1.00  0.00     0.064 C 
ATOM      7  O   UNL     1       5.969   3.977  -3.164  1.00  0.00    -0.545 OA
ATOM      8  O   UNL     1       5.673   5.470  -4.862  1.00  0.00    -0.545 OA
ENDBRANCH   5   6
ENDBRANCH   3   4
ENDBRANCH   2   3
ENDBRANCH   1   2
BRANCH   1   9
ATOM      9  C   UNL     1       2.308   5.235   1.047  1.00  0.00     0.000 C 
BRANCH   9  10
ATOM     10  C   UNL     1       2.993   4.784   2.347  1.00  0.00     0.000 C 
BRANCH  10  11
ATOM     11  C   UNL     1       3.008   5.886   3.420  1.00  0.00    -0.000 C 
BRANCH  11  12
ATOM     12  C   UNL     1       1.595   6.343   3.816  1.00  0.00    -0.000 C 
BRANCH  12  13
ATOM     13  C   UNL     1       1.472   7.870   3.922  1.00  0.00    -0.003 C 
ATOM     14  C   UNL     1       0.430   8.267   4.963  1.00  0.00     0.004 C 
ENDBRANCH  12  13
ENDBRANCH  11  12
ENDBRANCH  10  11
ENDBRANCH   9  10
ENDBRANCH   1   9
TORSDOF 9
ENDMDL
MODEL 5
REMARK VINA RESULT:    -4.111     12.348     13.782
REMARK INTER + INTRA:          -7.081
REMARK INTER:                  -6.072
REMARK INTRA:                  -1.009
REMARK UNBOUND:                -0.808
REMARK SMILES CCCCCCCCCC=CC(=O)[O-]
REMARK SMILES IDX 7 1 8 2 9 3 10 4 11 5 12 6 13 7 14 8 6 9 5 10 4 11 3 12 2 13
REMARK SMILES IDX 1 14
REMARK H PARENT
REMARK Flexibility Score: inf
ROOT
ATOM      1  C   UNL     1       1.071   6.360   7.182  1.00  0.00     0.000 C 
ENDROOT
BRANCH   1   2
ATOM      2  C   UNL     1       2.526   5.937   7.431  1.00  0.00     0.004 C 
BRANCH   2   3
ATOM      3  C   UNL     1       2.774   4.468   7.056  1.00  0.00     0.027 C 
BRANCH   3   4
ATOM      4  C   UNL     1       3.461   4.325   5.723  1.00  0.00    -0.025 C 
ATOM      5  C   UNL     1       4.761   4.055   5.528  1.00  0.00     0.020 C 
BRANCH   5   6
ATOM      6  C   UNL     1       5.772   3.791   6.573  1.00  0.00     0.064 C 
ATOM      7  O   UNL     1       6.355   2.675   6.588  1.00  0.00    -0.545 OA
ATOM      8  O   UNL     1       6.079   4.719   7.559  1.00  0.00    -0.545 OA
ENDBRANCH   5   6
ENDBRANCH   3   4
ENDBRANCH   2   3
ENDBRANCH   1   2
BRANCH   1   9
ATOM      9  C   UNL     1       1.009   7.706   6.444  1.00  0.00     0.000 C 
BRANCH   9  10
ATOM     10  C   UNL     1       0.455   7.575   5.015  1.00  0.00     0.000 C 
BRANCH  10  11
ATOM     11  C   UNL     1       1.566   7.548   3.951  1.00  0.00    -0.000 C 
BRANCH  11  12
ATOM     12  C   UNL     1       1.535   6.268   3.100  1.00  0.00    -0.000 C 
BRANCH  12  13
ATOM     13  C   UNL     1       2.915   5.890   2.545  1.00  0.00    -0.003 C 
ATOM     14  C   UNL     1       2.811   4.736   1.552  1.00  0.00     0.004 C 
ENDBRANCH  12  13
ENDBRANCH  11  12
ENDBRANCH  10  11
ENDBRANCH   9  10
ENDBRANCH   1   9
TORSDOF 9
ENDMDL
MODEL 6
REMARK VINA RESULT:    -4.105      5.354      6.824
REMARK INTER + INTRA:          -7.072
REMARK INTER:                  -6.422
REMARK INTRA:                  -0.650
REMARK UNBOUND:                -0.808
REMARK SMILES CCCCCCCCCC=CC(=O)[O-]
REMARK SMILES IDX 7 1 8 2 9 3 10 4 11 5 12 6 13 7 14 8 6 9 5 10 4 11 3 12 2 13
REMARK SMILES IDX 1 14
REMARK H PARENT
REMARK Flexibility Score: inf
ROOT
ATOM      1  C   UNL     1      -3.346  -4.965   0.143  1.00  0.00     0.000 C 
ENDROOT
BRANCH   1   2
ATOM      2  C   UNL     1      -2.383  -5.224  -1.025  1.00  0.00     0.004 C 
BRANCH   2   3
ATOM      3  C   UNL     1      -2.979  -6.188  -2.063  1.00  0.00     0.027 C 
BRANCH   3   4
ATOM      4  C   UNL     1      -4.423  -6.511  -1.782  1.00  0.00    -0.025 C 
ATOM      5  C   UNL     1      -5.483  -6.058  -2.470  1.00  0.00     0.020 C 
BRANCH   5   6
ATOM      6  C   UNL     1      -5.451  -5.197  -3.671  1.00  0.00     0.064 C 
ATOM      7  O   UNL     1      -5.847  -5.670  -4.769  1.00  0.00    -0.545 OA
ATOM      8  O   UNL     1      -4.971  -3.895  -3.637  1.00  0.00    -0.545 OA
ENDBRANCH   5   6
ENDBRANCH   3   4
ENDBRANCH   2   3
ENDBRANCH   1   2
BRANCH   1   9
ATOM      9  C   UNL     1      -2.642  -5.179   1.492  1.00  0.00     0.000 C 
BRANCH   9  10
ATOM     10  C   UNL     1      -1.124  -5.373   1.347  1.00  0.00     0.000 C 
BRANCH  10  11
ATOM     11  C   UNL     1      -0.545  -6.319   2.413  1.00  0.00    -0.000 C 
BRANCH  11  12
ATOM     12  C   UNL     1      -1.598  -6.766   3.440  1.00  0.00    -0.000 C 
BRANCH  12  13
ATOM     13  C   UNL     1      -1.039  -7.754   4.472  1.00  0.00    -0.003 C 
ATOM     14  C   UNL     1       0.480  -7.647   4.568  1.00  0.00     0.004 C 
ENDBRANCH  12  13
ENDBRANCH  11  12
ENDBRANCH  10  11
ENDBRANCH   9  10
ENDBRANCH   1   9
TORSDOF 9
ENDMDL
MODEL 7
REMARK VINA RESULT:    -4.040      4.690      7.157
REMARK INTER + INTRA:          -6.973
REMARK INTER:                  -6.174
REMARK INTRA:                  -0.799
REMARK UNBOUND:                -0.808
REMARK SMILES CCCCCCCCCC=CC(=O)[O-]
REMARK SMILES IDX 7 1 8 2 9 3 10 4 11 5 12 6 13 7 14 8 6 9 5 10 4 11 3 12 2 13
REMARK SMILES IDX 1 14
REMARK H PARENT
REMARK Flexibility Score: inf
ROOT
ATOM      1  C   UNL     1      -1.896  -3.684  -0.403  1.00  0.00     0.000 C 
ENDROOT
BRANCH   1   2
ATOM      2  C   UNL     1      -2.744  -3.804   0.872  1.00  0.00     0.004 C 
BRANCH   2   3
ATOM      3  C   UNL     1      -2.622  -5.193   1.519  1.00  0.00     0.027 C 
BRANCH   3   4
ATOM      4  C   UNL     1      -2.825  -5.150   3.011  1.00  0.00    -0.025 C 
ATOM      5  C   UNL     1      -2.221  -5.936   3.915  1.00  0.00     0.020 C 
BRANCH   5   6
ATOM      6  C   UNL     1      -1.197  -6.967   3.641  1.00  0.00     0.064 C 
ATOM      7  O   UNL     1      -1.441  -8.163   3.947  1.00  0.00    -0.545 OA
ATOM      8  O   UNL     1       0.038  -6.656   3.087  1.00  0.00    -0.545 OA
ENDBRANCH   5   6
ENDBRANCH   3   4
ENDBRANCH   2   3
ENDBRANCH   1   2
BRANCH   1   9
ATOM      9  C   UNL     1      -1.560  -5.072  -0.971  1.00  0.00     0.000 C 
BRANCH   9  10
ATOM     10  C   UNL     1      -2.066  -5.263  -2.411  1.00  0.00     0.000 C 
BRANCH  10  11
ATOM     11  C   UNL     1      -3.135  -6.363  -2.520  1.00  0.00    -0.000 C 
BRANCH  11  12
ATOM     12  C   UNL     1      -4.296  -6.158  -1.534  1.00  0.00    -0.000 C 
BRANCH  12  13
ATOM     13  C   UNL     1      -5.456  -5.357  -2.140  1.00  0.00    -0.003 C 
ATOM     14  C   UNL     1      -6.433  -6.273  -2.872  1.00  0.00     0.004 C 
ENDBRANCH  12  13
ENDBRANCH  11  12
ENDBRANCH  10  11
ENDBRANCH   9  10
ENDBRANCH   1   9
TORSDOF 9
ENDMDL
MODEL 8
REMARK VINA RESULT:    -4.038     11.919     13.506
REMARK INTER + INTRA:          -6.970
REMARK INTER:                  -5.605
REMARK INTRA:                  -1.365
REMARK UNBOUND:                -0.808
REMARK SMILES CCCCCCCCCC=CC(=O)[O-]
REMARK SMILES IDX 7 1 8 2 9 3 10 4 11 5 12 6 13 7 14 8 6 9 5 10 4 11 3 12 2 13
REMARK SMILES IDX 1 14
REMARK H PARENT
REMARK Flexibility Score: inf
ROOT
ATOM      1  C   UNL     1       1.390   5.394   3.419  1.00  0.00     0.000 C 
ENDROOT
BRANCH   1   2
ATOM      2  C   UNL     1       2.861   5.268   2.996  1.00  0.00     0.004 C 
BRANCH   2   3
ATOM      3  C   UNL     1       3.801   5.134   4.206  1.00  0.00     0.027 C 
BRANCH   3   4
ATOM      4  C   UNL     1       3.494   3.915   5.037  1.00  0.00    -0.025 C 
ATOM      5  C   UNL     1       4.362   3.250   5.815  1.00  0.00     0.020 C 
BRANCH   5   6
ATOM      6  C   UNL     1       5.776   3.603   6.059  1.00  0.00     0.064 C 
ATOM      7  O   UNL     1       6.085   4.167   7.141  1.00  0.00    -0.545 OA
ATOM      8  O   UNL     1       6.772   3.361   5.122  1.00  0.00    -0.545 OA
ENDBRANCH   5   6
ENDBRANCH   3   4
ENDBRANCH   2   3
ENDBRANCH   1   2
BRANCH   1   9
ATOM      9  C   UNL     1       0.853   6.802   3.124  1.00  0.00     0.000 C 
BRANCH   9  10
ATOM     10  C   UNL     1       1.148   7.801   4.255  1.00  0.00     0.000 C 
BRANCH  10  11
ATOM     11  C   UNL     1       0.425   7.440   5.564  1.00  0.00    -0.000 C 
BRANCH  11  12
ATOM     12  C   UNL     1       1.368   7.442   6.778  1.00  0.00    -0.000 C 
BRANCH  12  13
ATOM     13  C   UNL     1       1.582   6.040   7.366  1.00  0.00    -0.003 C 
ATOM     14  C   UNL     1       0.455   5.095   6.956  1.00  0.00     0.004 C 
ENDBRANCH  12  13
ENDBRANCH  11  12
ENDBRANCH  10  11
ENDBRANCH   9  10
ENDBRANCH   1   9
TORSDOF 9
ENDMDL
MODEL 9
REMARK VINA RESULT:    -4.031     12.910     14.322
REMARK INTER + INTRA:          -6.960
REMARK INTER:                  -6.039
REMARK INTRA:                  -0.921
REMARK UNBOUND:                -0.808
REMARK SMILES CCCCCCCCCC=CC(=O)[O-]
REMARK SMILES IDX 7 1 8 2 9 3 10 4 11 5 12 6 13 7 14 8 6 9 5 10 4 11 3 12 2 13
REMARK SMILES IDX 1 14
REMARK H PARENT
REMARK Flexibility Score: inf
ROOT
ATOM      1  C   UNL     1       2.481   4.857  -0.868  1.00  0.00     0.000 C 
ENDROOT
BRANCH   1   2
ATOM      2  C   UNL     1       1.165   4.713  -0.091  1.00  0.00     0.004 C 
BRANCH   2   3
ATOM      3  C   UNL     1       1.166   5.536   1.207  1.00  0.00     0.027 C 
BRANCH   3   4
ATOM      4  C   UNL     1       2.504   5.510   1.900  1.00  0.00    -0.025 C 
ATOM      5  C   UNL     1       2.777   6.020   3.111  1.00  0.00     0.020 C 
BRANCH   5   6
ATOM      6  C   UNL     1       1.817   6.663   4.033  1.00  0.00     0.064 C 
ATOM      7  O   UNL     1       1.539   7.880   3.872  1.00  0.00    -0.545 OA
ATOM      8  O   UNL     1       1.234   5.978   5.092  1.00  0.00    -0.545 OA
ENDBRANCH   5   6
ENDBRANCH   3   4
ENDBRANCH   2   3
ENDBRANCH   1   2
BRANCH   1   9
ATOM      9  C   UNL     1       2.239   5.492  -2.246  1.00  0.00     0.000 C 
BRANCH   9  10
ATOM     10  C   UNL     1       3.131   6.718  -2.501  1.00  0.00     0.000 C 
BRANCH  10  11
ATOM     11  C   UNL     1       4.434   6.681  -1.684  1.00  0.00    -0.000 C 
BRANCH  11  12
ATOM     12  C   UNL     1       5.685   6.608  -2.574  1.00  0.00    -0.000 C 
BRANCH  12  13
ATOM     13  C   UNL     1       5.716   5.351  -3.454  1.00  0.00    -0.003 C 
ATOM     14  C   UNL     1       5.927   4.096  -2.611  1.00  0.00     0.004 C 
ENDBRANCH  12  13
ENDBRANCH  11  12
ENDBRANCH  10  11
ENDBRANCH   9  10
ENDBRANCH   1   9
TORSDOF 9
ENDMDL
