MODEL 1
REMARK VINA RESULT:    -3.443      0.000      0.000
REMARK INTER + INTRA:         -15.209
REMARK INTER:                  -9.079
REMARK INTRA:                  -6.130
REMARK UNBOUND:                -6.130
REMARK SMILES CCCCCCCCCCCCCCCCCCCCCCCCCCCCCC(=O)[O-]
REMARK SMILES IDX 16 1 17 2 18 3 19 4 20 5 21 6 22 7 23 8 24 9 25 10 26 11
REMARK SMILES IDX 27 12 28 13 29 14 30 15 31 16 32 17 15 18 14 19 13 20 12 21
REMARK SMILES IDX 11 22 10 23 9 24 8 25 7 26 6 27 5 28 4 29 3 30 2 31 1 32
REMARK H PARENT
REMARK Flexibility Score: inf
ROOT
ATOM      1  C   UNL     1      76.579  81.350  76.787  1.00  0.00     0.000 C 
ENDROOT
BRANCH   1   2
ATOM      2  C   UNL     1      76.445  82.313  75.597  1.00  0.00     0.000 C 
BRANCH   2   3
ATOM      3  C   UNL     1      75.260  83.284  75.747  1.00  0.00     0.000 C 
BRANCH   3   4
ATOM      4  C   UNL     1      74.234  83.249  74.596  1.00  0.00     0.000 C 
BRANCH   4   5
ATOM      5  C   UNL     1      72.813  82.812  74.996  1.00  0.00     0.000 C 
BRANCH   5   6
ATOM      6  C   UNL     1      72.742  82.251  76.427  1.00  0.00     0.000 C 
BRANCH   6   7
ATOM      7  C   UNL     1      72.263  80.790  76.466  1.00  0.00     0.000 C 
BRANCH   7   8
ATOM      8  C   UNL     1      72.602  80.018  75.182  1.00  0.00     0.000 C 
BRANCH   8   9
ATOM      9  C   UNL     1      73.707  78.983  75.441  1.00  0.00     0.000 C 
BRANCH   9  10
ATOM     10  C   UNL     1      74.841  79.045  74.402  1.00  0.00     0.000 C 
BRANCH  10  11
ATOM     11  C   UNL     1      74.547  79.916  73.165  1.00  0.00     0.000 C 
BRANCH  11  12
ATOM     12  C   UNL     1      75.724  80.083  72.187  1.00  0.00     0.000 C 
BRANCH  12  13
ATOM     13  C   UNL     1      77.083  80.188  72.900  1.00  0.00     0.006 C 
BRANCH  13  14
ATOM     14  C   UNL     1      78.259  80.142  71.916  1.00  0.00     0.053 C 
BRANCH  14  15
ATOM     15  C   UNL     1      78.426  81.443  71.189  1.00  0.00     0.041 C 
ATOM     16  O   UNL     1      78.856  82.458  71.797  1.00  0.00    -0.550 OA
ATOM     17  O   UNL     1      78.080  81.538  69.846  1.00  0.00    -0.550 OA
ENDBRANCH  14  15
ENDBRANCH  13  14
ENDBRANCH  12  13
ENDBRANCH  11  12
ENDBRANCH  10  11
ENDBRANCH   9  10
ENDBRANCH   8   9
ENDBRANCH   7   8
ENDBRANCH   6   7
ENDBRANCH   5   6
ENDBRANCH   4   5
ENDBRANCH   3   4
ENDBRANCH   2   3
ENDBRANCH   1   2
BRANCH   1  18
ATOM     18  C   UNL     1      76.488  82.105  78.119  1.00  0.00     0.000 C 
BRANCH  18  19
ATOM     19  C   UNL     1      75.560  81.376  79.102  1.00  0.00     0.000 C 
BRANCH  19  20
ATOM     20  C   UNL     1      75.030  80.035  78.559  1.00  0.00     0.000 C 
BRANCH  20  21
ATOM     21  C   UNL     1      74.594  79.012  79.630  1.00  0.00     0.000 C 
BRANCH  21  22
ATOM     22  C   UNL     1      75.124  79.298  81.052  1.00  0.00     0.000 C 
BRANCH  22  23
ATOM     23  C   UNL     1      76.231  78.333  81.522  1.00  0.00     0.000 C 
BRANCH  23  24
ATOM     24  C   UNL     1      76.782  77.422  80.406  1.00  0.00    -0.000 C 
BRANCH  24  25
ATOM     25  C   UNL     1      78.231  77.778  80.031  1.00  0.00    -0.000 C 
BRANCH  25  26
ATOM     26  C   UNL     1      78.314  78.759  78.846  1.00  0.00    -0.000 C 
BRANCH  26  27
ATOM     27  C   UNL     1      79.736  79.250  78.513  1.00  0.00    -0.000 C 
BRANCH  27  28
ATOM     28  C   UNL     1      79.978  80.758  78.727  1.00  0.00    -0.000 C 
BRANCH  28  29
ATOM     29  C   UNL     1      80.366  81.544  77.462  1.00  0.00    -0.000 C 
BRANCH  29  30
ATOM     30  C   UNL     1      80.173  80.729  76.171  1.00  0.00    -0.000 C 
BRANCH  30  31
ATOM     31  C   UNL     1      80.374  81.576  74.905  1.00  0.00    -0.003 C 
ATOM     32  C   UNL     1      80.037  83.052  75.119  1.00  0.00     0.004 C 
ENDBRANCH  30  31
ENDBRANCH  29  30
ENDBRANCH  28  29
ENDBRANCH  27  28
ENDBRANCH  26  27
ENDBRANCH  25  26
ENDBRANCH  24  25
ENDBRANCH  23  24
ENDBRANCH  22  23
ENDBRANCH  21  22
ENDBRANCH  20  21
ENDBRANCH  19  20
ENDBRANCH  18  19
ENDBRANCH   1  18
TORSDOF 28
ENDMDL
MODEL 2
REMARK VINA RESULT:    -3.321      1.610      2.146
REMARK INTER + INTRA:         -14.887
REMARK INTER:                  -8.360
REMARK INTRA:                  -6.527
REMARK UNBOUND:                -6.130
REMARK SMILES CCCCCCCCCCCCCCCCCCCCCCCCCCCCCC(=O)[O-]
REMARK SMILES IDX 16 1 17 2 18 3 19 4 20 5 21 6 22 7 23 8 24 9 25 10 26 11
REMARK SMILES IDX 27 12 28 13 29 14 30 15 31 16 32 17 15 18 14 19 13 20 12 21
REMARK SMILES IDX 11 22 10 23 9 24 8 25 7 26 6 27 5 28 4 29 3 30 2 31 1 32
REMARK H PARENT
REMARK Flexibility Score: inf
ROOT
ATOM      1  C   UNL     1      76.299  81.915  76.508  1.00  0.00     0.000 C 
ENDROOT
BRANCH   1   2
ATOM      2  C   UNL     1      76.128  83.239  75.747  1.00  0.00     0.000 C 
BRANCH   2   3
ATOM      3  C   UNL     1      74.653  83.662  75.614  1.00  0.00     0.000 C 
BRANCH   3   4
ATOM      4  C   UNL     1      73.832  82.865  74.579  1.00  0.00     0.000 C 
BRANCH   4   5
ATOM      5  C   UNL     1      72.314  82.831  74.831  1.00  0.00     0.000 C 
BRANCH   5   6
ATOM      6  C   UNL     1      71.960  82.627  76.314  1.00  0.00     0.000 C 
BRANCH   6   7
ATOM      7  C   UNL     1      70.788  81.651  76.513  1.00  0.00     0.000 C 
BRANCH   7   8
ATOM      8  C   UNL     1      70.751  80.541  75.452  1.00  0.00     0.000 C 
BRANCH   8   9
ATOM      9  C   UNL     1      71.030  79.169  76.085  1.00  0.00     0.000 C 
BRANCH   9  10
ATOM     10  C   UNL     1      72.131  78.384  75.351  1.00  0.00     0.000 C 
BRANCH  10  11
ATOM     11  C   UNL     1      73.136  79.248  74.563  1.00  0.00     0.000 C 
BRANCH  11  12
ATOM     12  C   UNL     1      74.434  78.531  74.150  1.00  0.00     0.000 C 
BRANCH  12  13
ATOM     13  C   UNL     1      75.668  79.448  74.206  1.00  0.00     0.006 C 
BRANCH  13  14
ATOM     14  C   UNL     1      75.753  80.378  72.988  1.00  0.00     0.053 C 
BRANCH  14  15
ATOM     15  C   UNL     1      75.832  79.606  71.704  1.00  0.00     0.041 C 
ATOM     16  O   UNL     1      74.922  79.719  70.841  1.00  0.00    -0.550 OA
ATOM     17  O   UNL     1      76.897  78.743  71.476  1.00  0.00    -0.550 OA
ENDBRANCH  14  15
ENDBRANCH  13  14
ENDBRANCH  12  13
ENDBRANCH  11  12
ENDBRANCH  10  11
ENDBRANCH   9  10
ENDBRANCH   8   9
ENDBRANCH   7   8
ENDBRANCH   6   7
ENDBRANCH   5   6
ENDBRANCH   4   5
ENDBRANCH   3   4
ENDBRANCH   2   3
ENDBRANCH   1   2
BRANCH   1  18
ATOM     18  C   UNL     1      76.339  82.152  78.022  1.00  0.00     0.000 C 
BRANCH  18  19
ATOM     19  C   UNL     1      75.123  81.514  78.711  1.00  0.00     0.000 C 
BRANCH  19  20
ATOM     20  C   UNL     1      74.348  80.542  77.801  1.00  0.00     0.000 C 
BRANCH  20  21
ATOM     21  C   UNL     1      74.531  79.044  78.123  1.00  0.00     0.000 C 
BRANCH  21  22
ATOM     22  C   UNL     1      75.447  78.748  79.330  1.00  0.00     0.000 C 
BRANCH  22  23
ATOM     23  C   UNL     1      76.831  78.183  78.952  1.00  0.00     0.000 C 
BRANCH  23  24
ATOM     24  C   UNL     1      77.182  78.333  77.458  1.00  0.00    -0.000 C 
BRANCH  24  25
ATOM     25  C   UNL     1      78.495  79.105  77.245  1.00  0.00    -0.000 C 
BRANCH  25  26
ATOM     26  C   UNL     1      79.185  79.482  78.569  1.00  0.00    -0.000 C 
BRANCH  26  27
ATOM     27  C   UNL     1      79.737  80.919  78.624  1.00  0.00    -0.000 C 
BRANCH  27  28
ATOM     28  C   UNL     1      81.147  81.105  78.027  1.00  0.00    -0.000 C 
BRANCH  28  29
ATOM     29  C   UNL     1      81.179  81.580  76.562  1.00  0.00    -0.000 C 
BRANCH  29  30
ATOM     30  C   UNL     1      80.054  82.577  76.234  1.00  0.00    -0.000 C 
BRANCH  30  31
ATOM     31  C   UNL     1      79.731  82.626  74.733  1.00  0.00    -0.003 C 
ATOM     32  C   UNL     1      79.170  81.306  74.204  1.00  0.00     0.004 C 
ENDBRANCH  30  31
ENDBRANCH  29  30
ENDBRANCH  28  29
ENDBRANCH  27  28
ENDBRANCH  26  27
ENDBRANCH  25  26
ENDBRANCH  24  25
ENDBRANCH  23  24
ENDBRANCH  22  23
ENDBRANCH  21  22
ENDBRANCH  20  21
ENDBRANCH  19  20
ENDBRANCH  18  19
ENDBRANCH   1  18
TORSDOF 28
ENDMDL
MODEL 3
REMARK VINA RESULT:    -3.239      2.685      4.815
REMARK INTER + INTRA:         -14.671
REMARK INTER:                  -9.159
REMARK INTRA:                  -5.512
REMARK UNBOUND:                -6.130
REMARK SMILES CCCCCCCCCCCCCCCCCCCCCCCCCCCCCC(=O)[O-]
REMARK SMILES IDX 16 1 17 2 18 3 19 4 20 5 21 6 22 7 23 8 24 9 25 10 26 11
REMARK SMILES IDX 27 12 28 13 29 14 30 15 31 16 32 17 15 18 14 19 13 20 12 21
REMARK SMILES IDX 11 22 10 23 9 24 8 25 7 26 6 27 5 28 4 29 3 30 2 31 1 32
REMARK H PARENT
REMARK Flexibility Score: inf
ROOT
ATOM      1  C   UNL     1      75.810  83.402  76.489  1.00  0.00     0.000 C 
ENDROOT
BRANCH   1   2
ATOM      2  C   UNL     1      74.376  83.176  75.986  1.00  0.00     0.000 C 
BRANCH   2   3
ATOM      3  C   UNL     1      74.330  82.622  74.550  1.00  0.00     0.000 C 
BRANCH   3   4
ATOM      4  C   UNL     1      74.269  81.084  74.442  1.00  0.00     0.000 C 
BRANCH   4   5
ATOM      5  C   UNL     1      75.536  80.415  73.880  1.00  0.00     0.000 C 
BRANCH   5   6
ATOM      6  C   UNL     1      76.510  79.961  74.981  1.00  0.00     0.000 C 
BRANCH   6   7
ATOM      7  C   UNL     1      77.898  80.610  74.846  1.00  0.00     0.000 C 
BRANCH   7   8
ATOM      8  C   UNL     1      77.923  81.756  73.823  1.00  0.00     0.000 C 
BRANCH   8   9
ATOM      9  C   UNL     1      78.629  82.991  74.400  1.00  0.00     0.000 C 
BRANCH   9  10
ATOM     10  C   UNL     1      79.470  82.671  75.649  1.00  0.00     0.000 C 
BRANCH  10  11
ATOM     11  C   UNL     1      80.942  83.126  75.581  1.00  0.00     0.000 C 
BRANCH  11  12
ATOM     12  C   UNL     1      81.961  82.007  75.300  1.00  0.00     0.000 C 
BRANCH  12  13
ATOM     13  C   UNL     1      83.342  82.289  75.915  1.00  0.00     0.006 C 
BRANCH  13  14
ATOM     14  C   UNL     1      84.379  81.228  75.523  1.00  0.00     0.053 C 
BRANCH  14  15
ATOM     15  C   UNL     1      84.832  81.392  74.103  1.00  0.00     0.041 C 
ATOM     16  O   UNL     1      85.798  82.153  73.831  1.00  0.00    -0.550 OA
ATOM     17  O   UNL     1      84.170  80.725  73.080  1.00  0.00    -0.550 OA
ENDBRANCH  14  15
ENDBRANCH  13  14
ENDBRANCH  12  13
ENDBRANCH  11  12
ENDBRANCH  10  11
ENDBRANCH   9  10
ENDBRANCH   8   9
ENDBRANCH   7   8
ENDBRANCH   6   7
ENDBRANCH   5   6
ENDBRANCH   4   5
ENDBRANCH   3   4
ENDBRANCH   2   3
ENDBRANCH   1   2
BRANCH   1  18
ATOM     18  C   UNL     1      76.152  82.435  77.629  1.00  0.00     0.000 C 
BRANCH  18  19
ATOM     19  C   UNL     1      74.895  81.710  78.131  1.00  0.00     0.000 C 
BRANCH  19  20
ATOM     20  C   UNL     1      75.184  80.304  78.691  1.00  0.00     0.000 C 
BRANCH  20  21
ATOM     21  C   UNL     1      76.678  79.944  78.839  1.00  0.00     0.000 C 
BRANCH  21  22
ATOM     22  C   UNL     1      77.001  78.443  78.678  1.00  0.00     0.000 C 
BRANCH  22  23
ATOM     23  C   UNL     1      77.923  77.872  79.774  1.00  0.00     0.000 C 
BRANCH  23  24
ATOM     24  C   UNL     1      79.421  77.902  79.411  1.00  0.00    -0.000 C 
BRANCH  24  25
ATOM     25  C   UNL     1      79.649  78.117  77.905  1.00  0.00    -0.000 C 
BRANCH  25  26
ATOM     26  C   UNL     1      80.262  79.493  77.587  1.00  0.00    -0.000 C 
BRANCH  26  27
ATOM     27  C   UNL     1      80.393  80.437  78.798  1.00  0.00    -0.000 C 
BRANCH  27  28
ATOM     28  C   UNL     1      81.713  81.231  78.872  1.00  0.00    -0.000 C 
BRANCH  28  29
ATOM     29  C   UNL     1      82.488  81.087  80.195  1.00  0.00    -0.000 C 
BRANCH  29  30
ATOM     30  C   UNL     1      83.695  80.141  80.078  1.00  0.00    -0.000 C 
BRANCH  30  31
ATOM     31  C   UNL     1      83.278  78.683  79.829  1.00  0.00    -0.003 C 
ATOM     32  C   UNL     1      83.708  78.170  78.455  1.00  0.00     0.004 C 
ENDBRANCH  30  31
ENDBRANCH  29  30
ENDBRANCH  28  29
ENDBRANCH  27  28
ENDBRANCH  26  27
ENDBRANCH  25  26
ENDBRANCH  24  25
ENDBRANCH  23  24
ENDBRANCH  22  23
ENDBRANCH  21  22
ENDBRANCH  20  21
ENDBRANCH  19  20
ENDBRANCH  18  19
ENDBRANCH   1  18
TORSDOF 28
ENDMDL
MODEL 4
REMARK VINA RESULT:    -3.174      3.397      6.761
REMARK INTER + INTRA:         -14.498
REMARK INTER:                  -9.416
REMARK INTRA:                  -5.082
REMARK UNBOUND:                -6.130
REMARK SMILES CCCCCCCCCCCCCCCCCCCCCCCCCCCCCC(=O)[O-]
REMARK SMILES IDX 16 1 17 2 18 3 19 4 20 5 21 6 22 7 23 8 24 9 25 10 26 11
REMARK SMILES IDX 27 12 28 13 29 14 30 15 31 16 32 17 15 18 14 19 13 20 12 21
REMARK SMILES IDX 11 22 10 23 9 24 8 25 7 26 6 27 5 28 4 29 3 30 2 31 1 32
REMARK H PARENT
REMARK Flexibility Score: inf
ROOT
ATOM      1  C   UNL     1      76.349  81.640  74.444  1.00  0.00     0.000 C 
ENDROOT
BRANCH   1   2
ATOM      2  C   UNL     1      77.204  80.590  75.168  1.00  0.00     0.000 C 
BRANCH   2   3
ATOM      3  C   UNL     1      77.842  79.573  74.204  1.00  0.00     0.000 C 
BRANCH   3   4
ATOM      4  C   UNL     1      78.355  80.161  72.874  1.00  0.00     0.000 C 
BRANCH   4   5
ATOM      5  C   UNL     1      79.882  80.326  72.774  1.00  0.00     0.000 C 
BRANCH   5   6
ATOM      6  C   UNL     1      80.357  81.737  73.158  1.00  0.00     0.000 C 
BRANCH   6   7
ATOM      7  C   UNL     1      81.011  81.782  74.550  1.00  0.00     0.000 C 
BRANCH   7   8
ATOM      8  C   UNL     1      80.544  82.982  75.388  1.00  0.00     0.000 C 
BRANCH   8   9
ATOM      9  C   UNL     1      79.790  82.514  76.642  1.00  0.00     0.000 C 
BRANCH   9  10
ATOM     10  C   UNL     1      80.313  81.174  77.189  1.00  0.00     0.000 C 
BRANCH  10  11
ATOM     11  C   UNL     1      80.254  81.026  78.723  1.00  0.00     0.000 C 
BRANCH  11  12
ATOM     12  C   UNL     1      81.519  80.438  79.373  1.00  0.00     0.000 C 
BRANCH  12  13
ATOM     13  C   UNL     1      82.813  81.102  78.871  1.00  0.00     0.006 C 
BRANCH  13  14
ATOM     14  C   UNL     1      83.733  81.522  80.024  1.00  0.00     0.053 C 
BRANCH  14  15
ATOM     15  C   UNL     1      84.788  80.491  80.297  1.00  0.00     0.041 C 
ATOM     16  O   UNL     1      86.005  80.776  80.149  1.00  0.00    -0.550 OA
ATOM     17  O   UNL     1      84.422  79.209  80.688  1.00  0.00    -0.550 OA
ENDBRANCH  14  15
ENDBRANCH  13  14
ENDBRANCH  12  13
ENDBRANCH  11  12
ENDBRANCH  10  11
ENDBRANCH   9  10
ENDBRANCH   8   9
ENDBRANCH   7   8
ENDBRANCH   6   7
ENDBRANCH   5   6
ENDBRANCH   4   5
ENDBRANCH   3   4
ENDBRANCH   2   3
ENDBRANCH   1   2
BRANCH   1  18
ATOM     18  C   UNL     1      76.746  83.060  74.866  1.00  0.00     0.000 C 
BRANCH  18  19
ATOM     19  C   UNL     1      75.705  83.660  75.823  1.00  0.00     0.000 C 
BRANCH  19  20
ATOM     20  C   UNL     1      74.479  82.752  76.038  1.00  0.00     0.000 C 
BRANCH  20  21
ATOM     21  C   UNL     1      74.373  82.099  77.432  1.00  0.00     0.000 C 
BRANCH  21  22
ATOM     22  C   UNL     1      75.677  82.123  78.259  1.00  0.00     0.000 C 
BRANCH  22  23
ATOM     23  C   UNL     1      76.160  80.733  78.722  1.00  0.00     0.000 C 
BRANCH  23  24
ATOM     24  C   UNL     1      75.161  79.595  78.432  1.00  0.00    -0.000 C 
BRANCH  24  25
ATOM     25  C   UNL     1      74.651  78.928  79.721  1.00  0.00    -0.000 C 
BRANCH  25  26
ATOM     26  C   UNL     1      75.349  79.464  80.984  1.00  0.00    -0.000 C 
BRANCH  26  27
ATOM     27  C   UNL     1      76.116  78.404  81.798  1.00  0.00    -0.000 C 
BRANCH  27  28
ATOM     28  C   UNL     1      76.637  77.202  80.986  1.00  0.00    -0.000 C 
BRANCH  28  29
ATOM     29  C   UNL     1      78.120  77.284  80.577  1.00  0.00    -0.000 C 
BRANCH  29  30
ATOM     30  C   UNL     1      78.323  77.929  79.195  1.00  0.00    -0.000 C 
BRANCH  30  31
ATOM     31  C   UNL     1      79.590  77.420  78.489  1.00  0.00    -0.003 C 
ATOM     32  C   UNL     1      79.508  77.539  76.967  1.00  0.00     0.004 C 
ENDBRANCH  30  31
ENDBRANCH  29  30
ENDBRANCH  28  29
ENDBRANCH  27  28
ENDBRANCH  26  27
ENDBRANCH  25  26
ENDBRANCH  24  25
ENDBRANCH  23  24
ENDBRANCH  22  23
ENDBRANCH  21  22
ENDBRANCH  20  21
ENDBRANCH  19  20
ENDBRANCH  18  19
ENDBRANCH   1  18
TORSDOF 28
ENDMDL
MODEL 5
REMARK VINA RESULT:    -3.168     11.334     14.945
REMARK INTER + INTRA:         -14.484
REMARK INTER:                  -8.166
REMARK INTRA:                  -6.318
REMARK UNBOUND:                -6.130
REMARK SMILES CCCCCCCCCCCCCCCCCCCCCCCCCCCCCC(=O)[O-]
REMARK SMILES IDX 16 1 17 2 18 3 19 4 20 5 21 6 22 7 23 8 24 9 25 10 26 11
REMARK SMILES IDX 27 12 28 13 29 14 30 15 31 16 32 17 15 18 14 19 13 20 12 21
REMARK SMILES IDX 11 22 10 23 9 24 8 25 7 26 6 27 5 28 4 29 3 30 2 31 1 32
REMARK H PARENT
REMARK Flexibility Score: inf
ROOT
ATOM      1  C   UNL     1      82.281  88.526  80.311  1.00  0.00     0.000 C 
ENDROOT
BRANCH   1   2
ATOM      2  C   UNL     1      81.898  89.662  81.272  1.00  0.00     0.000 C 
BRANCH   2   3
ATOM      3  C   UNL     1      81.371  90.909  80.539  1.00  0.00     0.000 C 
BRANCH   3   4
ATOM      4  C   UNL     1      82.123  92.220  80.850  1.00  0.00     0.000 C 
BRANCH   4   5
ATOM      5  C   UNL     1      83.499  92.045  81.517  1.00  0.00     0.000 C 
BRANCH   5   6
ATOM      6  C   UNL     1      84.638  92.694  80.713  1.00  0.00     0.000 C 
BRANCH   6   7
ATOM      7  C   UNL     1      84.172  93.215  79.343  1.00  0.00     0.000 C 
BRANCH   7   8
ATOM      8  C   UNL     1      84.845  92.487  78.169  1.00  0.00     0.000 C 
BRANCH   8   9
ATOM      9  C   UNL     1      83.800  91.780  77.293  1.00  0.00     0.000 C 
BRANCH   9  10
ATOM     10  C   UNL     1      83.050  92.745  76.358  1.00  0.00     0.000 C 
BRANCH  10  11
ATOM     11  C   UNL     1      81.517  92.758  76.525  1.00  0.00     0.000 C 
BRANCH  11  12
ATOM     12  C   UNL     1      80.977  93.796  77.525  1.00  0.00     0.000 C 
BRANCH  12  13
ATOM     13  C   UNL     1      79.440  93.827  77.582  1.00  0.00     0.006 C 
BRANCH  13  14
ATOM     14  C   UNL     1      78.890  93.074  78.801  1.00  0.00     0.053 C 
BRANCH  14  15
ATOM     15  C   UNL     1      77.732  92.195  78.436  1.00  0.00     0.041 C 
ATOM     16  O   UNL     1      77.056  92.436  77.401  1.00  0.00    -0.550 OA
ATOM     17  O   UNL     1      77.383  91.128  79.255  1.00  0.00    -0.550 OA
ENDBRANCH  14  15
ENDBRANCH  13  14
ENDBRANCH  12  13
ENDBRANCH  11  12
ENDBRANCH  10  11
ENDBRANCH   9  10
ENDBRANCH   8   9
ENDBRANCH   7   8
ENDBRANCH   6   7
ENDBRANCH   5   6
ENDBRANCH   4   5
ENDBRANCH   3   4
ENDBRANCH   2   3
ENDBRANCH   1   2
BRANCH   1  18
ATOM     18  C   UNL     1      83.536  88.885  79.506  1.00  0.00     0.000 C 
BRANCH  18  19
ATOM     19  C   UNL     1      84.808  88.639  80.331  1.00  0.00     0.000 C 
BRANCH  19  20
ATOM     20  C   UNL     1      86.012  89.475  79.858  1.00  0.00     0.000 C 
BRANCH  20  21
ATOM     21  C   UNL     1      86.903  88.808  78.789  1.00  0.00     0.000 C 
BRANCH  21  22
ATOM     22  C   UNL     1      86.639  89.278  77.342  1.00  0.00     0.000 C 
BRANCH  22  23
ATOM     23  C   UNL     1      87.507  90.471  76.894  1.00  0.00     0.000 C 
BRANCH  23  24
ATOM     24  C   UNL     1      88.800  90.648  77.715  1.00  0.00    -0.000 C 
BRANCH  24  25
ATOM     25  C   UNL     1      88.997  92.101  78.181  1.00  0.00    -0.000 C 
BRANCH  25  26
ATOM     26  C   UNL     1      88.247  92.413  79.488  1.00  0.00    -0.000 C 
BRANCH  26  27
ATOM     27  C   UNL     1      88.037  93.914  79.769  1.00  0.00    -0.000 C 
BRANCH  27  28
ATOM     28  C   UNL     1      88.108  94.831  78.531  1.00  0.00    -0.000 C 
BRANCH  28  29
ATOM     29  C   UNL     1      86.821  95.620  78.228  1.00  0.00    -0.000 C 
BRANCH  29  30
ATOM     30  C   UNL     1      86.401  95.531  76.751  1.00  0.00    -0.000 C 
BRANCH  30  31
ATOM     31  C   UNL     1      87.269  94.548  75.951  1.00  0.00    -0.003 C 
ATOM     32  C   UNL     1      86.457  93.704  74.968  1.00  0.00     0.004 C 
ENDBRANCH  30  31
ENDBRANCH  29  30
ENDBRANCH  28  29
ENDBRANCH  27  28
ENDBRANCH  26  27
ENDBRANCH  25  26
ENDBRANCH  24  25
ENDBRANCH  23  24
ENDBRANCH  22  23
ENDBRANCH  21  22
ENDBRANCH  20  21
ENDBRANCH  19  20
ENDBRANCH  18  19
ENDBRANCH   1  18
TORSDOF 28
ENDMDL
MODEL 6
REMARK VINA RESULT:    -3.139      1.645      5.635
REMARK INTER + INTRA:         -14.408
REMARK INTER:                  -7.911
REMARK INTRA:                  -6.497
REMARK UNBOUND:                -6.130
REMARK SMILES CCCCCCCCCCCCCCCCCCCCCCCCCCCCCC(=O)[O-]
REMARK SMILES IDX 16 1 17 2 18 3 19 4 20 5 21 6 22 7 23 8 24 9 25 10 26 11
REMARK SMILES IDX 27 12 28 13 29 14 30 15 31 16 32 17 15 18 14 19 13 20 12 21
REMARK SMILES IDX 11 22 10 23 9 24 8 25 7 26 6 27 5 28 4 29 3 30 2 31 1 32
REMARK H PARENT
REMARK Flexibility Score: inf
ROOT
ATOM      1  C   UNL     1      75.284  82.856  74.910  1.00  0.00     0.000 C 
ENDROOT
BRANCH   1   2
ATOM      2  C   UNL     1      75.589  82.960  76.412  1.00  0.00     0.000 C 
BRANCH   2   3
ATOM      3  C   UNL     1      76.870  82.205  76.813  1.00  0.00     0.000 C 
BRANCH   3   4
ATOM      4  C   UNL     1      76.815  81.502  78.184  1.00  0.00     0.000 C 
BRANCH   4   5
ATOM      5  C   UNL     1      75.423  81.445  78.838  1.00  0.00     0.000 C 
BRANCH   5   6
ATOM      6  C   UNL     1      75.062  80.041  79.352  1.00  0.00     0.000 C 
BRANCH   6   7
ATOM      7  C   UNL     1      75.469  79.826  80.820  1.00  0.00     0.000 C 
BRANCH   7   8
ATOM      8  C   UNL     1      76.305  78.554  81.026  1.00  0.00     0.000 C 
BRANCH   8   9
ATOM      9  C   UNL     1      76.795  77.998  79.680  1.00  0.00     0.000 C 
BRANCH   9  10
ATOM     10  C   UNL     1      78.327  78.044  79.536  1.00  0.00     0.000 C 
BRANCH  10  11
ATOM     11  C   UNL     1      78.840  78.557  78.176  1.00  0.00     0.000 C 
BRANCH  11  12
ATOM     12  C   UNL     1      80.023  79.539  78.251  1.00  0.00     0.000 C 
BRANCH  12  13
ATOM     13  C   UNL     1      80.181  80.383  76.974  1.00  0.00     0.006 C 
BRANCH  13  14
ATOM     14  C   UNL     1      80.507  81.849  77.285  1.00  0.00     0.053 C 
BRANCH  14  15
ATOM     15  C   UNL     1      80.962  82.589  76.063  1.00  0.00     0.041 C 
ATOM     16  O   UNL     1      82.109  82.381  75.587  1.00  0.00    -0.550 OA
ATOM     17  O   UNL     1      80.129  83.529  75.468  1.00  0.00    -0.550 OA
ENDBRANCH  14  15
ENDBRANCH  13  14
ENDBRANCH  12  13
ENDBRANCH  11  12
ENDBRANCH  10  11
ENDBRANCH   9  10
ENDBRANCH   8   9
ENDBRANCH   7   8
ENDBRANCH   6   7
ENDBRANCH   5   6
ENDBRANCH   4   5
ENDBRANCH   3   4
ENDBRANCH   2   3
ENDBRANCH   1   2
BRANCH   1  18
ATOM     18  C   UNL     1      73.781  82.999  74.642  1.00  0.00     0.000 C 
BRANCH  18  19
ATOM     19  C   UNL     1      72.980  82.924  75.950  1.00  0.00     0.000 C 
BRANCH  19  20
ATOM     20  C   UNL     1      71.987  81.747  75.991  1.00  0.00     0.000 C 
BRANCH  20  21
ATOM     21  C   UNL     1      72.493  80.477  76.707  1.00  0.00     0.000 C 
BRANCH  21  22
ATOM     22  C   UNL     1      73.076  79.395  75.772  1.00  0.00     0.000 C 
BRANCH  22  23
ATOM     23  C   UNL     1      74.614  79.413  75.665  1.00  0.00     0.000 C 
BRANCH  23  24
ATOM     24  C   UNL     1      75.293  78.129  76.184  1.00  0.00    -0.000 C 
BRANCH  24  25
ATOM     25  C   UNL     1      76.606  77.826  75.441  1.00  0.00    -0.000 C 
BRANCH  25  26
ATOM     26  C   UNL     1      77.215  79.075  74.777  1.00  0.00    -0.000 C 
BRANCH  26  27
ATOM     27  C   UNL     1      77.566  78.907  73.286  1.00  0.00    -0.000 C 
BRANCH  27  28
ATOM     28  C   UNL     1      77.042  80.022  72.358  1.00  0.00    -0.000 C 
BRANCH  28  29
ATOM     29  C   UNL     1      75.513  80.205  72.356  1.00  0.00    -0.000 C 
BRANCH  29  30
ATOM     30  C   UNL     1      74.794  79.203  71.437  1.00  0.00    -0.000 C 
BRANCH  30  31
ATOM     31  C   UNL     1      73.737  78.374  72.184  1.00  0.00    -0.003 C 
ATOM     32  C   UNL     1      74.291  77.054  72.721  1.00  0.00     0.004 C 
ENDBRANCH  30  31
ENDBRANCH  29  30
ENDBRANCH  28  29
ENDBRANCH  27  28
ENDBRANCH  26  27
ENDBRANCH  25  26
ENDBRANCH  24  25
ENDBRANCH  23  24
ENDBRANCH  22  23
ENDBRANCH  21  22
ENDBRANCH  20  21
ENDBRANCH  19  20
ENDBRANCH  18  19
ENDBRANCH   1  18
TORSDOF 28
ENDMDL
MODEL 7
REMARK VINA RESULT:    -3.133      2.008      5.402
REMARK INTER + INTRA:         -14.392
REMARK INTER:                  -8.840
REMARK INTRA:                  -5.552
REMARK UNBOUND:                -6.130
REMARK SMILES CCCCCCCCCCCCCCCCCCCCCCCCCCCCCC(=O)[O-]
REMARK SMILES IDX 16 1 17 2 18 3 19 4 20 5 21 6 22 7 23 8 24 9 25 10 26 11
REMARK SMILES IDX 27 12 28 13 29 14 30 15 31 16 32 17 15 18 14 19 13 20 12 21
REMARK SMILES IDX 11 22 10 23 9 24 8 25 7 26 6 27 5 28 4 29 3 30 2 31 1 32
REMARK H PARENT
REMARK Flexibility Score: inf
ROOT
ATOM      1  C   UNL     1      76.482  80.345  79.360  1.00  0.00     0.000 C 
ENDROOT
BRANCH   1   2
ATOM      2  C   UNL     1      75.368  80.941  78.486  1.00  0.00     0.000 C 
BRANCH   2   3
ATOM      3  C   UNL     1      74.326  79.894  78.052  1.00  0.00     0.000 C 
BRANCH   3   4
ATOM      4  C   UNL     1      73.590  80.208  76.733  1.00  0.00     0.000 C 
BRANCH   4   5
ATOM      5  C   UNL     1      72.353  81.113  76.871  1.00  0.00     0.000 C 
BRANCH   5   6
ATOM      6  C   UNL     1      72.660  82.591  76.574  1.00  0.00     0.000 C 
BRANCH   6   7
ATOM      7  C   UNL     1      72.774  82.879  75.067  1.00  0.00     0.000 C 
BRANCH   7   8
ATOM      8  C   UNL     1      74.219  83.149  74.621  1.00  0.00     0.000 C 
BRANCH   8   9
ATOM      9  C   UNL     1      75.095  83.554  75.816  1.00  0.00     0.000 C 
BRANCH   9  10
ATOM     10  C   UNL     1      76.558  83.102  75.666  1.00  0.00     0.000 C 
BRANCH  10  11
ATOM     11  C   UNL     1      76.820  82.104  74.520  1.00  0.00     0.000 C 
BRANCH  11  12
ATOM     12  C   UNL     1      77.014  80.641  74.958  1.00  0.00     0.000 C 
BRANCH  12  13
ATOM     13  C   UNL     1      75.995  79.684  74.315  1.00  0.00     0.006 C 
BRANCH  13  14
ATOM     14  C   UNL     1      75.505  80.191  72.952  1.00  0.00     0.053 C 
BRANCH  14  15
ATOM     15  C   UNL     1      76.258  79.560  71.820  1.00  0.00     0.041 C 
ATOM     16  O   UNL     1      77.120  78.671  72.051  1.00  0.00    -0.550 OA
ATOM     17  O   UNL     1      76.028  79.975  70.514  1.00  0.00    -0.550 OA
ENDBRANCH  14  15
ENDBRANCH  13  14
ENDBRANCH  12  13
ENDBRANCH  11  12
ENDBRANCH  10  11
ENDBRANCH   9  10
ENDBRANCH   8   9
ENDBRANCH   7   8
ENDBRANCH   6   7
ENDBRANCH   5   6
ENDBRANCH   4   5
ENDBRANCH   3   4
ENDBRANCH   2   3
ENDBRANCH   1   2
BRANCH   1  18
ATOM     18  C   UNL     1      77.740  80.061  78.530  1.00  0.00     0.000 C 
BRANCH  18  19
ATOM     19  C   UNL     1      78.586  81.332  78.361  1.00  0.00     0.000 C 
BRANCH  19  20
ATOM     20  C   UNL     1      80.099  81.081  78.508  1.00  0.00     0.000 C 
BRANCH  20  21
ATOM     21  C   UNL     1      80.960  81.485  77.293  1.00  0.00     0.000 C 
BRANCH  21  22
ATOM     22  C   UNL     1      80.309  82.527  76.356  1.00  0.00     0.000 C 
BRANCH  22  23
ATOM     23  C   UNL     1      80.702  82.377  74.873  1.00  0.00     0.000 C 
BRANCH  23  24
ATOM     24  C   UNL     1      80.756  80.916  74.383  1.00  0.00    -0.000 C 
BRANCH  24  25
ATOM     25  C   UNL     1      80.097  80.742  73.003  1.00  0.00    -0.000 C 
BRANCH  25  26
ATOM     26  C   UNL     1      79.741  82.086  72.341  1.00  0.00    -0.000 C 
BRANCH  26  27
ATOM     27  C   UNL     1      78.879  81.970  71.069  1.00  0.00    -0.000 C 
BRANCH  27  28
ATOM     28  C   UNL     1      79.657  82.041  69.739  1.00  0.00    -0.000 C 
BRANCH  28  29
ATOM     29  C   UNL     1      81.002  82.788  69.808  1.00  0.00    -0.000 C 
BRANCH  29  30
ATOM     30  C   UNL     1      82.187  81.926  69.342  1.00  0.00    -0.000 C 
BRANCH  30  31
ATOM     31  C   UNL     1      82.746  81.037  70.464  1.00  0.00    -0.003 C 
ATOM     32  C   UNL     1      82.904  79.577  70.039  1.00  0.00     0.004 C 
ENDBRANCH  30  31
ENDBRANCH  29  30
ENDBRANCH  28  29
ENDBRANCH  27  28
ENDBRANCH  26  27
ENDBRANCH  25  26
ENDBRANCH  24  25
ENDBRANCH  23  24
ENDBRANCH  22  23
ENDBRANCH  21  22
ENDBRANCH  20  21
ENDBRANCH  19  20
ENDBRANCH  18  19
ENDBRANCH   1  18
TORSDOF 28
ENDMDL
MODEL 8
REMARK VINA RESULT:    -3.133      2.956      6.909
REMARK INTER + INTRA:         -14.390
REMARK INTER:                  -8.798
REMARK INTRA:                  -5.592
REMARK UNBOUND:                -6.130
REMARK SMILES CCCCCCCCCCCCCCCCCCCCCCCCCCCCCC(=O)[O-]
REMARK SMILES IDX 16 1 17 2 18 3 19 4 20 5 21 6 22 7 23 8 24 9 25 10 26 11
REMARK SMILES IDX 27 12 28 13 29 14 30 15 31 16 32 17 15 18 14 19 13 20 12 21
REMARK SMILES IDX 11 22 10 23 9 24 8 25 7 26 6 27 5 28 4 29 3 30 2 31 1 32
REMARK H PARENT
REMARK Flexibility Score: inf
ROOT
ATOM      1  C   UNL     1      75.398  83.290  76.397  1.00  0.00     0.000 C 
ENDROOT
BRANCH   1   2
ATOM      2  C   UNL     1      76.222  83.329  75.101  1.00  0.00     0.000 C 
BRANCH   2   3
ATOM      3  C   UNL     1      77.558  82.573  75.221  1.00  0.00     0.000 C 
BRANCH   3   4
ATOM      4  C   UNL     1      78.744  83.214  74.472  1.00  0.00     0.000 C 
BRANCH   4   5
ATOM      5  C   UNL     1      79.288  82.398  73.285  1.00  0.00     0.000 C 
BRANCH   5   6
ATOM      6  C   UNL     1      79.079  80.884  73.456  1.00  0.00     0.000 C 
BRANCH   6   7
ATOM      7  C   UNL     1      80.349  80.163  73.942  1.00  0.00     0.000 C 
BRANCH   7   8
ATOM      8  C   UNL     1      81.590  81.069  73.926  1.00  0.00     0.000 C 
BRANCH   8   9
ATOM      9  C   UNL     1      82.121  81.296  75.349  1.00  0.00     0.000 C 
BRANCH   9  10
ATOM     10  C   UNL     1      81.273  80.592  76.424  1.00  0.00     0.000 C 
BRANCH  10  11
ATOM     11  C   UNL     1      80.454  81.532  77.330  1.00  0.00     0.000 C 
BRANCH  11  12
ATOM     12  C   UNL     1      80.362  81.103  78.806  1.00  0.00     0.000 C 
BRANCH  12  13
ATOM     13  C   UNL     1      81.607  80.335  79.283  1.00  0.00     0.006 C 
BRANCH  13  14
ATOM     14  C   UNL     1      82.447  81.151  80.274  1.00  0.00     0.053 C 
BRANCH  14  15
ATOM     15  C   UNL     1      83.905  81.116  79.928  1.00  0.00     0.041 C 
ATOM     16  O   UNL     1      84.339  81.777  78.948  1.00  0.00    -0.550 OA
ATOM     17  O   UNL     1      84.778  80.332  80.672  1.00  0.00    -0.550 OA
ENDBRANCH  14  15
ENDBRANCH  13  14
ENDBRANCH  12  13
ENDBRANCH  11  12
ENDBRANCH  10  11
ENDBRANCH   9  10
ENDBRANCH   8   9
ENDBRANCH   7   8
ENDBRANCH   6   7
ENDBRANCH   5   6
ENDBRANCH   4   5
ENDBRANCH   3   4
ENDBRANCH   2   3
ENDBRANCH   1   2
BRANCH   1  18
ATOM     18  C   UNL     1      76.049  82.368  77.435  1.00  0.00     0.000 C 
BRANCH  18  19
ATOM     19  C   UNL     1      74.992  81.763  78.372  1.00  0.00     0.000 C 
BRANCH  19  20
ATOM     20  C   UNL     1      75.502  80.538  79.155  1.00  0.00     0.000 C 
BRANCH  20  21
ATOM     21  C   UNL     1      77.008  80.233  79.002  1.00  0.00     0.000 C 
BRANCH  21  22
ATOM     22  C   UNL     1      77.358  78.731  78.917  1.00  0.00     0.000 C 
BRANCH  22  23
ATOM     23  C   UNL     1      78.097  78.326  77.626  1.00  0.00     0.000 C 
BRANCH  23  24
ATOM     24  C   UNL     1      77.742  79.194  76.402  1.00  0.00    -0.000 C 
BRANCH  24  25
ATOM     25  C   UNL     1      76.565  78.612  75.600  1.00  0.00    -0.000 C 
BRANCH  25  26
ATOM     26  C   UNL     1      75.381  79.589  75.487  1.00  0.00    -0.000 C 
BRANCH  26  27
ATOM     27  C   UNL     1      74.179  79.059  74.682  1.00  0.00    -0.000 C 
BRANCH  27  28
ATOM     28  C   UNL     1      72.872  78.893  75.484  1.00  0.00    -0.000 C 
BRANCH  28  29
ATOM     29  C   UNL     1      71.836  80.014  75.283  1.00  0.00    -0.000 C 
BRANCH  29  30
ATOM     30  C   UNL     1      71.818  81.024  76.443  1.00  0.00    -0.000 C 
BRANCH  30  31
ATOM     31  C   UNL     1      71.950  82.477  75.960  1.00  0.00    -0.003 C 
ATOM     32  C   UNL     1      72.274  82.579  74.470  1.00  0.00     0.004 C 
ENDBRANCH  30  31
ENDBRANCH  29  30
ENDBRANCH  28  29
ENDBRANCH  27  28
ENDBRANCH  26  27
ENDBRANCH  25  26
ENDBRANCH  24  25
ENDBRANCH  23  24
ENDBRANCH  22  23
ENDBRANCH  21  22
ENDBRANCH  20  21
ENDBRANCH  19  20
ENDBRANCH  18  19
ENDBRANCH   1  18
TORSDOF 28
ENDMDL
MODEL 9
REMARK VINA RESULT:    -3.114     10.847     14.193
REMARK INTER + INTRA:         -14.341
REMARK INTER:                  -9.172
REMARK INTRA:                  -5.170
REMARK UNBOUND:                -6.130
REMARK SMILES CCCCCCCCCCCCCCCCCCCCCCCCCCCCCC(=O)[O-]
REMARK SMILES IDX 16 1 17 2 18 3 19 4 20 5 21 6 22 7 23 8 24 9 25 10 26 11
REMARK SMILES IDX 27 12 28 13 29 14 30 15 31 16 32 17 15 18 14 19 13 20 12 21
REMARK SMILES IDX 11 22 10 23 9 24 8 25 7 26 6 27 5 28 4 29 3 30 2 31 1 32
REMARK H PARENT
REMARK Flexibility Score: inf
ROOT
ATOM      1  C   UNL     1      75.288  90.687  65.438  1.00  0.00     0.000 C 
ENDROOT
BRANCH   1   2
ATOM      2  C   UNL     1      76.467  89.702  65.408  1.00  0.00     0.000 C 
BRANCH   2   3
ATOM      3  C   UNL     1      76.133  88.352  66.068  1.00  0.00     0.000 C 
BRANCH   3   4
ATOM      4  C   UNL     1      75.945  88.398  67.598  1.00  0.00     0.000 C 
BRANCH   4   5
ATOM      5  C   UNL     1      77.186  88.014  68.424  1.00  0.00     0.000 C 
BRANCH   5   6
ATOM      6  C   UNL     1      77.903  89.233  69.028  1.00  0.00     0.000 C 
BRANCH   6   7
ATOM      7  C   UNL     1      77.050  90.512  68.963  1.00  0.00     0.000 C 
BRANCH   7   8
ATOM      8  C   UNL     1      77.865  91.752  68.566  1.00  0.00     0.000 C 
BRANCH   8   9
ATOM      9  C   UNL     1      79.253  91.351  68.046  1.00  0.00     0.000 C 
BRANCH   9  10
ATOM     10  C   UNL     1      80.384  92.220  68.627  1.00  0.00     0.000 C 
BRANCH  10  11
ATOM     11  C   UNL     1      81.643  91.446  69.065  1.00  0.00     0.000 C 
BRANCH  11  12
ATOM     12  C   UNL     1      81.379  90.204  69.935  1.00  0.00     0.000 C 
BRANCH  12  13
ATOM     13  C   UNL     1      82.478  89.136  69.802  1.00  0.00     0.006 C 
BRANCH  13  14
ATOM     14  C   UNL     1      82.641  88.650  68.356  1.00  0.00     0.053 C 
BRANCH  14  15
ATOM     15  C   UNL     1      81.434  87.895  67.884  1.00  0.00     0.041 C 
ATOM     16  O   UNL     1      80.743  88.339  66.930  1.00  0.00    -0.550 OA
ATOM     17  O   UNL     1      81.060  86.716  68.517  1.00  0.00    -0.550 OA
ENDBRANCH  14  15
ENDBRANCH  13  14
ENDBRANCH  12  13
ENDBRANCH  11  12
ENDBRANCH  10  11
ENDBRANCH   9  10
ENDBRANCH   8   9
ENDBRANCH   7   8
ENDBRANCH   6   7
ENDBRANCH   5   6
ENDBRANCH   4   5
ENDBRANCH   3   4
ENDBRANCH   2   3
ENDBRANCH   1   2
BRANCH   1  18
ATOM     18  C   UNL     1      74.767  90.965  64.023  1.00  0.00     0.000 C 
BRANCH  18  19
ATOM     19  C   UNL     1      73.231  90.982  63.997  1.00  0.00     0.000 C 
BRANCH  19  20
ATOM     20  C   UNL     1      72.623  89.853  63.143  1.00  0.00     0.000 C 
BRANCH  20  21
ATOM     21  C   UNL     1      73.578  88.686  62.811  1.00  0.00     0.000 C 
BRANCH  21  22
ATOM     22  C   UNL     1      73.368  87.415  63.663  1.00  0.00     0.000 C 
BRANCH  22  23
ATOM     23  C   UNL     1      72.162  87.488  64.622  1.00  0.00     0.000 C 
BRANCH  23  24
ATOM     24  C   UNL     1      72.548  87.724  66.097  1.00  0.00    -0.000 C 
BRANCH  24  25
ATOM     25  C   UNL     1      71.624  86.967  67.066  1.00  0.00    -0.000 C 
BRANCH  25  26
ATOM     26  C   UNL     1      72.354  85.850  67.834  1.00  0.00    -0.000 C 
BRANCH  26  27
ATOM     27  C   UNL     1      73.835  85.664  67.450  1.00  0.00    -0.000 C 
BRANCH  27  28
ATOM     28  C   UNL     1      74.125  84.482  66.503  1.00  0.00    -0.000 C 
BRANCH  28  29
ATOM     29  C   UNL     1      72.928  83.552  66.233  1.00  0.00    -0.000 C 
BRANCH  29  30
ATOM     30  C   UNL     1      72.349  83.720  64.818  1.00  0.00    -0.000 C 
BRANCH  30  31
ATOM     31  C   UNL     1      70.832  83.964  64.827  1.00  0.00    -0.003 C 
ATOM     32  C   UNL     1      70.165  83.496  66.121  1.00  0.00     0.004 C 
ENDBRANCH  30  31
ENDBRANCH  29  30
ENDBRANCH  28  29
ENDBRANCH  27  28
ENDBRANCH  26  27
ENDBRANCH  25  26
ENDBRANCH  24  25
ENDBRANCH  23  24
ENDBRANCH  22  23
ENDBRANCH  21  22
ENDBRANCH  20  21
ENDBRANCH  19  20
ENDBRANCH  18  19
ENDBRANCH   1  18
TORSDOF 28
ENDMDL
