MODEL 1
REMARK VINA RESULT:    -2.264      0.000      0.000
REMARK INTER + INTRA:         -11.700
REMARK INTER:                  -5.903
REMARK INTRA:                  -5.797
REMARK UNBOUND:                -5.797
REMARK SMILES CCCCCCCCCCCCCCCCCCCCCCCCCCCCCO
REMARK SMILES IDX 16 1 15 2 14 3 13 4 12 5 11 6 10 7 9 8 8 9 7 10 6 11 5 12
REMARK SMILES IDX 4 13 3 14 2 15 1 16 17 17 18 18 19 19 20 20 21 21 22 22
REMARK SMILES IDX 23 23 24 24 25 25 26 26 27 27 28 28 29 29 30 30
REMARK H PARENT 30 31
REMARK Flexibility Score: inf
ROOT
ATOM      1  C   UNL     1     133.785 143.470 138.229  1.00  0.00     0.000 C 
ENDROOT
BRANCH   1   2
ATOM      2  C   UNL     1     133.803 142.738 139.582  1.00  0.00     0.000 C 
BRANCH   2   3
ATOM      3  C   UNL     1     132.394 142.532 140.160  1.00  0.00     0.000 C 
BRANCH   3   4
ATOM      4  C   UNL     1     132.250 141.194 140.909  1.00  0.00     0.000 C 
BRANCH   4   5
ATOM      5  C   UNL     1     130.932 140.472 140.581  1.00  0.00     0.000 C 
BRANCH   5   6
ATOM      6  C   UNL     1     129.724 141.422 140.566  1.00  0.00     0.000 C 
BRANCH   6   7
ATOM      7  C   UNL     1     128.930 141.361 139.242  1.00  0.00     0.000 C 
BRANCH   7   8
ATOM      8  C   UNL     1     128.247 142.688 138.864  1.00  0.00    -0.000 C 
BRANCH   8   9
ATOM      9  C   UNL     1     129.175 143.917 138.883  1.00  0.00    -0.000 C 
BRANCH   9  10
ATOM     10  C   UNL     1     128.860 144.913 140.023  1.00  0.00    -0.000 C 
BRANCH  10  11
ATOM     11  C   UNL     1     129.852 146.086 140.072  1.00  0.00    -0.000 C 
BRANCH  11  12
ATOM     12  C   UNL     1     130.605 146.279 138.746  1.00  0.00    -0.000 C 
BRANCH  12  13
ATOM     13  C   UNL     1     132.086 146.645 138.954  1.00  0.00    -0.000 C 
BRANCH  13  14
ATOM     14  C   UNL     1     132.419 146.964 140.424  1.00  0.00    -0.000 C 
BRANCH  14  15
ATOM     15  C   UNL     1     133.418 145.996 141.083  1.00  0.00    -0.003 C 
ATOM     16  C   UNL     1     132.998 145.568 142.488  1.00  0.00     0.004 C 
ENDBRANCH  14  15
ENDBRANCH  13  14
ENDBRANCH  12  13
ENDBRANCH  11  12
ENDBRANCH  10  11
ENDBRANCH   9  10
ENDBRANCH   8   9
ENDBRANCH   7   8
ENDBRANCH   6   7
ENDBRANCH   5   6
ENDBRANCH   4   5
ENDBRANCH   3   4
ENDBRANCH   2   3
ENDBRANCH   1   2
BRANCH   1  17
ATOM     17  C   UNL     1     132.445 143.322 137.486  1.00  0.00     0.000 C 
BRANCH  17  18
ATOM     18  C   UNL     1     132.429 142.253 136.375  1.00  0.00     0.000 C 
BRANCH  18  19
ATOM     19  C   UNL     1     131.491 141.058 136.637  1.00  0.00     0.000 C 
BRANCH  19  20
ATOM     20  C   UNL     1     132.118 139.672 136.386  1.00  0.00     0.000 C 
BRANCH  20  21
ATOM     21  C   UNL     1     132.436 138.863 137.657  1.00  0.00     0.000 C 
BRANCH  21  22
ATOM     22  C   UNL     1     133.767 139.274 138.307  1.00  0.00     0.000 C 
BRANCH  22  23
ATOM     23  C   UNL     1     134.931 139.144 137.313  1.00  0.00     0.000 C 
BRANCH  23  24
ATOM     24  C   UNL     1     135.689 140.468 137.116  1.00  0.00     0.000 C 
BRANCH  24  25
ATOM     25  C   UNL     1     135.968 140.775 135.634  1.00  0.00     0.000 C 
BRANCH  25  26
ATOM     26  C   UNL     1     135.982 142.284 135.335  1.00  0.00     0.000 C 
BRANCH  26  27
ATOM     27  C   UNL     1     136.962 143.059 136.232  1.00  0.00     0.002 C 
BRANCH  27  28
ATOM     28  C   UNL     1     137.851 144.025 135.432  1.00  0.00     0.028 C 
BRANCH  28  29
ATOM     29  C   UNL     1     139.338 143.652 135.489  1.00  0.00     0.156 C 
BRANCH  29  30
ATOM     30  O   UNL     1     140.110 144.789 135.762  1.00  0.00    -0.396 OA
ATOM     31  H   UNL     1     140.519 145.069 134.902  1.00  0.00     0.210 HD
ENDBRANCH  29  30
ENDBRANCH  28  29
ENDBRANCH  27  28
ENDBRANCH  26  27
ENDBRANCH  25  26
ENDBRANCH  24  25
ENDBRANCH  23  24
ENDBRANCH  22  23
ENDBRANCH  21  22
ENDBRANCH  20  21
ENDBRANCH  19  20
ENDBRANCH  18  19
ENDBRANCH  17  18
ENDBRANCH   1  17
TORSDOF 28
ENDMDL
MODEL 2
REMARK VINA RESULT:    -2.225      2.574      6.331
REMARK INTER + INTRA:         -11.599
REMARK INTER:                  -5.320
REMARK INTRA:                  -6.279
REMARK UNBOUND:                -5.797
REMARK SMILES CCCCCCCCCCCCCCCCCCCCCCCCCCCCCO
REMARK SMILES IDX 16 1 15 2 14 3 13 4 12 5 11 6 10 7 9 8 8 9 7 10 6 11 5 12
REMARK SMILES IDX 4 13 3 14 2 15 1 16 17 17 18 18 19 19 20 20 21 21 22 22
REMARK SMILES IDX 23 23 24 24 25 25 26 26 27 27 28 28 29 29 30 30
REMARK H PARENT 30 31
REMARK Flexibility Score: inf
ROOT
ATOM      1  C   UNL     1     129.342 146.236 138.030  1.00  0.00     0.000 C 
ENDROOT
BRANCH   1   2
ATOM      2  C   UNL     1     130.865 146.108 137.859  1.00  0.00     0.000 C 
BRANCH   2   3
ATOM      3  C   UNL     1     131.647 146.814 138.978  1.00  0.00     0.000 C 
BRANCH   3   4
ATOM      4  C   UNL     1     132.886 146.019 139.429  1.00  0.00     0.000 C 
BRANCH   4   5
ATOM      5  C   UNL     1     132.709 144.501 139.257  1.00  0.00     0.000 C 
BRANCH   5   6
ATOM      6  C   UNL     1     134.036 143.778 138.982  1.00  0.00     0.000 C 
BRANCH   6   7
ATOM      7  C   UNL     1     133.978 142.871 137.732  1.00  0.00     0.000 C 
BRANCH   7   8
ATOM      8  C   UNL     1     132.717 143.078 136.873  1.00  0.00    -0.000 C 
BRANCH   8   9
ATOM      9  C   UNL     1     132.255 141.830 136.098  1.00  0.00    -0.000 C 
BRANCH   9  10
ATOM     10  C   UNL     1     131.251 140.952 136.879  1.00  0.00    -0.000 C 
BRANCH  10  11
ATOM     11  C   UNL     1     130.387 141.768 137.853  1.00  0.00    -0.000 C 
BRANCH  11  12
ATOM     12  C   UNL     1     130.417 141.205 139.283  1.00  0.00    -0.000 C 
BRANCH  12  13
ATOM     13  C   UNL     1     131.566 140.204 139.501  1.00  0.00    -0.000 C 
BRANCH  13  14
ATOM     14  C   UNL     1     132.618 140.714 140.504  1.00  0.00    -0.000 C 
BRANCH  14  15
ATOM     15  C   UNL     1     132.058 141.607 141.626  1.00  0.00    -0.003 C 
ATOM     16  C   UNL     1     133.145 142.375 142.377  1.00  0.00     0.004 C 
ENDBRANCH  14  15
ENDBRANCH  13  14
ENDBRANCH  12  13
ENDBRANCH  11  12
ENDBRANCH  10  11
ENDBRANCH   9  10
ENDBRANCH   8   9
ENDBRANCH   7   8
ENDBRANCH   6   7
ENDBRANCH   5   6
ENDBRANCH   4   5
ENDBRANCH   3   4
ENDBRANCH   2   3
ENDBRANCH   1   2
BRANCH   1  17
ATOM     17  C   UNL     1     128.906 146.259 139.507  1.00  0.00     0.000 C 
BRANCH  17  18
ATOM     18  C   UNL     1     128.449 144.900 140.074  1.00  0.00     0.000 C 
BRANCH  18  19
ATOM     19  C   UNL     1     129.484 144.190 140.969  1.00  0.00     0.000 C 
BRANCH  19  20
ATOM     20  C   UNL     1     129.697 144.833 142.354  1.00  0.00     0.000 C 
BRANCH  20  21
ATOM     21  C   UNL     1     131.075 145.490 142.561  1.00  0.00     0.000 C 
BRANCH  21  22
ATOM     22  C   UNL     1     131.006 147.025 142.584  1.00  0.00     0.000 C 
BRANCH  22  23
ATOM     23  C   UNL     1     132.399 147.637 142.793  1.00  0.00     0.000 C 
BRANCH  23  24
ATOM     24  C   UNL     1     133.388 146.647 143.433  1.00  0.00     0.000 C 
BRANCH  24  25
ATOM     25  C   UNL     1     134.787 146.711 142.793  1.00  0.00     0.000 C 
BRANCH  25  26
ATOM     26  C   UNL     1     135.178 145.397 142.095  1.00  0.00     0.000 C 
BRANCH  26  27
ATOM     27  C   UNL     1     136.680 145.321 141.772  1.00  0.00     0.002 C 
BRANCH  27  28
ATOM     28  C   UNL     1     136.969 145.519 140.275  1.00  0.00     0.028 C 
BRANCH  28  29
ATOM     29  C   UNL     1     137.817 146.765 139.991  1.00  0.00     0.156 C 
BRANCH  29  30
ATOM     30  O   UNL     1     137.085 147.923 140.287  1.00  0.00    -0.396 OA
ATOM     31  H   UNL     1     137.746 148.623 140.529  1.00  0.00     0.210 HD
ENDBRANCH  29  30
ENDBRANCH  28  29
ENDBRANCH  27  28
ENDBRANCH  26  27
ENDBRANCH  25  26
ENDBRANCH  24  25
ENDBRANCH  23  24
ENDBRANCH  22  23
ENDBRANCH  21  22
ENDBRANCH  20  21
ENDBRANCH  19  20
ENDBRANCH  18  19
ENDBRANCH  17  18
ENDBRANCH   1  17
TORSDOF 28
ENDMDL
MODEL 3
REMARK VINA RESULT:    -2.181      3.424      6.716
REMARK INTER + INTRA:         -11.486
REMARK INTER:                  -6.386
REMARK INTRA:                  -5.100
REMARK UNBOUND:                -5.797
REMARK SMILES CCCCCCCCCCCCCCCCCCCCCCCCCCCCCO
REMARK SMILES IDX 16 1 15 2 14 3 13 4 12 5 11 6 10 7 9 8 8 9 7 10 6 11 5 12
REMARK SMILES IDX 4 13 3 14 2 15 1 16 17 17 18 18 19 19 20 20 21 21 22 22
REMARK SMILES IDX 23 23 24 24 25 25 26 26 27 27 28 28 29 29 30 30
REMARK H PARENT 30 31
REMARK Flexibility Score: inf
ROOT
ATOM      1  C   UNL     1     128.924 145.255 140.025  1.00  0.00     0.000 C 
ENDROOT
BRANCH   1   2
ATOM      2  C   UNL     1     128.614 145.591 138.556  1.00  0.00     0.000 C 
BRANCH   2   3
ATOM      3  C   UNL     1     129.722 146.426 137.894  1.00  0.00     0.000 C 
BRANCH   3   4
ATOM      4  C   UNL     1     131.107 145.761 137.997  1.00  0.00     0.000 C 
BRANCH   4   5
ATOM      5  C   UNL     1     132.065 146.531 138.920  1.00  0.00     0.000 C 
BRANCH   5   6
ATOM      6  C   UNL     1     133.174 145.639 139.499  1.00  0.00     0.000 C 
BRANCH   6   7
ATOM      7  C   UNL     1     133.071 144.171 139.027  1.00  0.00     0.000 C 
BRANCH   7   8
ATOM      8  C   UNL     1     134.427 143.538 138.665  1.00  0.00    -0.000 C 
BRANCH   8   9
ATOM      9  C   UNL     1     134.565 142.052 139.043  1.00  0.00    -0.000 C 
BRANCH   9  10
ATOM     10  C   UNL     1     133.511 141.574 140.069  1.00  0.00    -0.000 C 
BRANCH  10  11
ATOM     11  C   UNL     1     132.960 140.177 139.740  1.00  0.00    -0.000 C 
BRANCH  11  12
ATOM     12  C   UNL     1     131.789 139.774 140.651  1.00  0.00    -0.000 C 
BRANCH  12  13
ATOM     13  C   UNL     1     130.740 138.917 139.921  1.00  0.00    -0.000 C 
BRANCH  13  14
ATOM     14  C   UNL     1     129.320 139.102 140.488  1.00  0.00    -0.000 C 
BRANCH  14  15
ATOM     15  C   UNL     1     129.254 139.266 142.017  1.00  0.00    -0.003 C 
ATOM     16  C   UNL     1     128.702 140.624 142.450  1.00  0.00     0.004 C 
ENDBRANCH  14  15
ENDBRANCH  13  14
ENDBRANCH  12  13
ENDBRANCH  11  12
ENDBRANCH  10  11
ENDBRANCH   9  10
ENDBRANCH   8   9
ENDBRANCH   7   8
ENDBRANCH   6   7
ENDBRANCH   5   6
ENDBRANCH   4   5
ENDBRANCH   3   4
ENDBRANCH   2   3
ENDBRANCH   1   2
BRANCH   1  17
ATOM     17  C   UNL     1     129.048 143.742 140.279  1.00  0.00     0.000 C 
BRANCH  17  18
ATOM     18  C   UNL     1     128.038 142.866 139.511  1.00  0.00     0.000 C 
BRANCH  18  19
ATOM     19  C   UNL     1     128.651 141.994 138.396  1.00  0.00     0.000 C 
BRANCH  19  20
ATOM     20  C   UNL     1     130.170 142.169 138.195  1.00  0.00     0.000 C 
BRANCH  20  21
ATOM     21  C   UNL     1     130.773 141.335 137.050  1.00  0.00     0.000 C 
BRANCH  21  22
ATOM     22  C   UNL     1     131.953 142.039 136.359  1.00  0.00     0.000 C 
BRANCH  22  23
ATOM     23  C   UNL     1     132.975 141.018 135.836  1.00  0.00     0.000 C 
BRANCH  23  24
ATOM     24  C   UNL     1     132.330 139.669 135.475  1.00  0.00     0.000 C 
BRANCH  24  25
ATOM     25  C   UNL     1     133.100 138.470 136.055  1.00  0.00     0.000 C 
BRANCH  25  26
ATOM     26  C   UNL     1     132.234 137.603 136.985  1.00  0.00     0.000 C 
BRANCH  26  27
ATOM     27  C   UNL     1     132.871 136.236 137.288  1.00  0.00     0.002 C 
BRANCH  27  28
ATOM     28  C   UNL     1     132.765 135.264 136.101  1.00  0.00     0.028 C 
BRANCH  28  29
ATOM     29  C   UNL     1     132.063 133.950 136.468  1.00  0.00     0.156 C 
BRANCH  29  30
ATOM     30  O   UNL     1     130.817 133.876 135.832  1.00  0.00    -0.396 OA
ATOM     31  H   UNL     1     130.656 134.763 135.415  1.00  0.00     0.210 HD
ENDBRANCH  29  30
ENDBRANCH  28  29
ENDBRANCH  27  28
ENDBRANCH  26  27
ENDBRANCH  25  26
ENDBRANCH  24  25
ENDBRANCH  23  24
ENDBRANCH  22  23
ENDBRANCH  21  22
ENDBRANCH  20  21
ENDBRANCH  19  20
ENDBRANCH  18  19
ENDBRANCH  17  18
ENDBRANCH   1  17
TORSDOF 28
ENDMDL
MODEL 4
REMARK VINA RESULT:    -2.156      2.411      6.278
REMARK INTER + INTRA:         -11.420
REMARK INTER:                  -5.037
REMARK INTRA:                  -6.382
REMARK UNBOUND:                -5.797
REMARK SMILES CCCCCCCCCCCCCCCCCCCCCCCCCCCCCO
REMARK SMILES IDX 16 1 15 2 14 3 13 4 12 5 11 6 10 7 9 8 8 9 7 10 6 11 5 12
REMARK SMILES IDX 4 13 3 14 2 15 1 16 17 17 18 18 19 19 20 20 21 21 22 22
REMARK SMILES IDX 23 23 24 24 25 25 26 26 27 27 28 28 29 29 30 30
REMARK H PARENT 30 31
REMARK Flexibility Score: inf
ROOT
ATOM      1  C   UNL     1     132.671 139.462 139.435  1.00  0.00     0.000 C 
ENDROOT
BRANCH   1   2
ATOM      2  C   UNL     1     133.109 138.698 138.174  1.00  0.00     0.000 C 
BRANCH   2   3
ATOM      3  C   UNL     1     132.009 138.647 137.101  1.00  0.00     0.000 C 
BRANCH   3   4
ATOM      4  C   UNL     1     132.396 139.407 135.819  1.00  0.00     0.000 C 
BRANCH   4   5
ATOM      5  C   UNL     1     131.628 140.730 135.661  1.00  0.00     0.000 C 
BRANCH   5   6
ATOM      6  C   UNL     1     132.473 141.955 136.046  1.00  0.00     0.000 C 
BRANCH   6   7
ATOM      7  C   UNL     1     133.974 141.623 136.199  1.00  0.00     0.000 C 
BRANCH   7   8
ATOM      8  C   UNL     1     134.754 142.647 137.045  1.00  0.00    -0.000 C 
BRANCH   8   9
ATOM      9  C   UNL     1     135.045 142.199 138.489  1.00  0.00    -0.000 C 
BRANCH   9  10
ATOM     10  C   UNL     1     135.855 143.231 139.307  1.00  0.00    -0.000 C 
BRANCH  10  11
ATOM     11  C   UNL     1     135.281 143.448 140.716  1.00  0.00    -0.000 C 
BRANCH  11  12
ATOM     12  C   UNL     1     134.081 142.535 141.013  1.00  0.00    -0.000 C 
BRANCH  12  13
ATOM     13  C   UNL     1     134.114 141.960 142.440  1.00  0.00    -0.000 C 
BRANCH  13  14
ATOM     14  C   UNL     1     132.777 141.319 142.855  1.00  0.00    -0.000 C 
BRANCH  14  15
ATOM     15  C   UNL     1     131.566 142.270 142.811  1.00  0.00    -0.003 C 
ATOM     16  C   UNL     1     130.232 141.549 143.002  1.00  0.00     0.004 C 
ENDBRANCH  14  15
ENDBRANCH  13  14
ENDBRANCH  12  13
ENDBRANCH  11  12
ENDBRANCH  10  11
ENDBRANCH   9  10
ENDBRANCH   8   9
ENDBRANCH   7   8
ENDBRANCH   6   7
ENDBRANCH   5   6
ENDBRANCH   4   5
ENDBRANCH   3   4
ENDBRANCH   2   3
ENDBRANCH   1   2
BRANCH   1  17
ATOM     17  C   UNL     1     131.237 140.014 139.331  1.00  0.00     0.000 C 
BRANCH  17  18
ATOM     18  C   UNL     1     131.130 141.552 139.298  1.00  0.00     0.000 C 
BRANCH  18  19
ATOM     19  C   UNL     1     129.754 142.098 138.868  1.00  0.00     0.000 C 
BRANCH  19  20
ATOM     20  C   UNL     1     129.122 143.111 139.843  1.00  0.00     0.000 C 
BRANCH  20  21
ATOM     21  C   UNL     1     128.241 144.187 139.181  1.00  0.00     0.000 C 
BRANCH  21  22
ATOM     22  C   UNL     1     128.805 145.607 139.353  1.00  0.00     0.000 C 
BRANCH  22  23
ATOM     23  C   UNL     1     129.173 146.223 137.994  1.00  0.00     0.000 C 
BRANCH  23  24
ATOM     24  C   UNL     1     130.686 146.458 137.843  1.00  0.00     0.000 C 
BRANCH  24  25
ATOM     25  C   UNL     1     131.477 145.146 137.698  1.00  0.00     0.000 C 
BRANCH  25  26
ATOM     26  C   UNL     1     132.530 144.966 138.805  1.00  0.00     0.000 C 
BRANCH  26  27
ATOM     27  C   UNL     1     132.572 146.150 139.785  1.00  0.00     0.002 C 
BRANCH  27  28
ATOM     28  C   UNL     1     132.229 145.733 141.225  1.00  0.00     0.028 C 
BRANCH  28  29
ATOM     29  C   UNL     1     133.061 146.480 142.275  1.00  0.00     0.156 C 
BRANCH  29  30
ATOM     30  O   UNL     1     134.278 146.895 141.721  1.00  0.00    -0.396 OA
ATOM     31  H   UNL     1     134.071 147.267 140.824  1.00  0.00     0.210 HD
ENDBRANCH  29  30
ENDBRANCH  28  29
ENDBRANCH  27  28
ENDBRANCH  26  27
ENDBRANCH  25  26
ENDBRANCH  24  25
ENDBRANCH  23  24
ENDBRANCH  22  23
ENDBRANCH  21  22
ENDBRANCH  20  21
ENDBRANCH  19  20
ENDBRANCH  18  19
ENDBRANCH  17  18
ENDBRANCH   1  17
TORSDOF 28
ENDMDL
MODEL 5
REMARK VINA RESULT:    -2.110      2.654      6.706
REMARK INTER + INTRA:         -11.301
REMARK INTER:                  -4.799
REMARK INTRA:                  -6.502
REMARK UNBOUND:                -5.797
REMARK SMILES CCCCCCCCCCCCCCCCCCCCCCCCCCCCCO
REMARK SMILES IDX 16 1 15 2 14 3 13 4 12 5 11 6 10 7 9 8 8 9 7 10 6 11 5 12
REMARK SMILES IDX 4 13 3 14 2 15 1 16 17 17 18 18 19 19 20 20 21 21 22 22
REMARK SMILES IDX 23 23 24 24 25 25 26 26 27 27 28 28 29 29 30 30
REMARK H PARENT 30 31
REMARK Flexibility Score: inf
ROOT
ATOM      1  C   UNL     1     130.168 143.150 141.569  1.00  0.00     0.000 C 
ENDROOT
BRANCH   1   2
ATOM      2  C   UNL     1     130.460 142.622 140.154  1.00  0.00     0.000 C 
BRANCH   2   3
ATOM      3  C   UNL     1     129.185 142.444 139.315  1.00  0.00     0.000 C 
BRANCH   3   4
ATOM      4  C   UNL     1     129.473 141.873 137.914  1.00  0.00     0.000 C 
BRANCH   4   5
ATOM      5  C   UNL     1     130.880 141.265 137.801  1.00  0.00     0.000 C 
BRANCH   5   6
ATOM      6  C   UNL     1     131.512 141.488 136.417  1.00  0.00     0.000 C 
BRANCH   6   7
ATOM      7  C   UNL     1     132.575 142.610 136.418  1.00  0.00     0.000 C 
BRANCH   7   8
ATOM      8  C   UNL     1     133.879 142.231 137.144  1.00  0.00    -0.000 C 
BRANCH   8   9
ATOM      9  C   UNL     1     134.222 143.117 138.355  1.00  0.00    -0.000 C 
BRANCH   9  10
ATOM     10  C   UNL     1     134.003 142.418 139.717  1.00  0.00    -0.000 C 
BRANCH  10  11
ATOM     11  C   UNL     1     134.245 140.902 139.647  1.00  0.00    -0.000 C 
BRANCH  11  12
ATOM     12  C   UNL     1     133.122 140.093 140.315  1.00  0.00    -0.000 C 
BRANCH  12  13
ATOM     13  C   UNL     1     132.839 138.764 139.591  1.00  0.00    -0.000 C 
BRANCH  13  14
ATOM     14  C   UNL     1     131.424 138.224 139.870  1.00  0.00    -0.000 C 
BRANCH  14  15
ATOM     15  C   UNL     1     130.634 139.006 140.935  1.00  0.00    -0.003 C 
ATOM     16  C   UNL     1     129.130 139.034 140.664  1.00  0.00     0.004 C 
ENDBRANCH  14  15
ENDBRANCH  13  14
ENDBRANCH  12  13
ENDBRANCH  11  12
ENDBRANCH  10  11
ENDBRANCH   9  10
ENDBRANCH   8   9
ENDBRANCH   7   8
ENDBRANCH   6   7
ENDBRANCH   5   6
ENDBRANCH   4   5
ENDBRANCH   3   4
ENDBRANCH   2   3
ENDBRANCH   1   2
BRANCH   1  17
ATOM     17  C   UNL     1     130.892 144.474 141.875  1.00  0.00     0.000 C 
BRANCH  17  18
ATOM     18  C   UNL     1     129.972 145.703 142.019  1.00  0.00     0.000 C 
BRANCH  18  19
ATOM     19  C   UNL     1     128.584 145.556 141.365  1.00  0.00     0.000 C 
BRANCH  19  20
ATOM     20  C   UNL     1     128.320 146.506 140.179  1.00  0.00     0.000 C 
BRANCH  20  21
ATOM     21  C   UNL     1     128.439 145.857 138.788  1.00  0.00     0.000 C 
BRANCH  21  22
ATOM     22  C   UNL     1     129.580 146.453 137.947  1.00  0.00     0.000 C 
BRANCH  22  23
ATOM     23  C   UNL     1     130.725 145.444 137.776  1.00  0.00     0.000 C 
BRANCH  23  24
ATOM     24  C   UNL     1     131.935 145.768 138.669  1.00  0.00     0.000 C 
BRANCH  24  25
ATOM     25  C   UNL     1     131.857 147.176 139.285  1.00  0.00     0.000 C 
BRANCH  25  26
ATOM     26  C   UNL     1     133.084 147.513 140.149  1.00  0.00     0.000 C 
BRANCH  26  27
ATOM     27  C   UNL     1     134.083 146.346 140.243  1.00  0.00     0.002 C 
BRANCH  27  28
ATOM     28  C   UNL     1     134.289 145.866 141.689  1.00  0.00     0.028 C 
BRANCH  28  29
ATOM     29  C   UNL     1     135.609 145.108 141.883  1.00  0.00     0.156 C 
BRANCH  29  30
ATOM     30  O   UNL     1     135.941 145.058 143.243  1.00  0.00    -0.396 OA
ATOM     31  H   UNL     1     136.873 145.390 143.321  1.00  0.00     0.210 HD
ENDBRANCH  29  30
ENDBRANCH  28  29
ENDBRANCH  27  28
ENDBRANCH  26  27
ENDBRANCH  25  26
ENDBRANCH  24  25
ENDBRANCH  23  24
ENDBRANCH  22  23
ENDBRANCH  21  22
ENDBRANCH  20  21
ENDBRANCH  19  20
ENDBRANCH  18  19
ENDBRANCH  17  18
ENDBRANCH   1  17
TORSDOF 28
ENDMDL
MODEL 6
REMARK VINA RESULT:    -2.110      2.498      7.578
REMARK INTER + INTRA:         -11.298
REMARK INTER:                  -6.561
REMARK INTRA:                  -4.737
REMARK UNBOUND:                -5.797
REMARK SMILES CCCCCCCCCCCCCCCCCCCCCCCCCCCCCO
REMARK SMILES IDX 16 1 15 2 14 3 13 4 12 5 11 6 10 7 9 8 8 9 7 10 6 11 5 12
REMARK SMILES IDX 4 13 3 14 2 15 1 16 17 17 18 18 19 19 20 20 21 21 22 22
REMARK SMILES IDX 23 23 24 24 25 25 26 26 27 27 28 28 29 29 30 30
REMARK H PARENT 30 31
REMARK Flexibility Score: inf
ROOT
ATOM      1  C   UNL     1     134.385 143.081 139.937  1.00  0.00     0.000 C 
ENDROOT
BRANCH   1   2
ATOM      2  C   UNL     1     133.375 143.296 141.076  1.00  0.00     0.000 C 
BRANCH   2   3
ATOM      3  C   UNL     1     133.883 144.286 142.137  1.00  0.00     0.000 C 
BRANCH   3   4
ATOM      4  C   UNL     1     135.346 144.706 141.903  1.00  0.00     0.000 C 
BRANCH   4   5
ATOM      5  C   UNL     1     135.473 146.158 141.414  1.00  0.00     0.000 C 
BRANCH   5   6
ATOM      6  C   UNL     1     136.728 146.386 140.556  1.00  0.00     0.000 C 
BRANCH   6   7
ATOM      7  C   UNL     1     137.654 145.150 140.509  1.00  0.00     0.000 C 
BRANCH   7   8
ATOM      8  C   UNL     1     137.828 144.556 139.098  1.00  0.00    -0.000 C 
BRANCH   8   9
ATOM      9  C   UNL     1     137.962 143.023 139.058  1.00  0.00    -0.000 C 
BRANCH   9  10
ATOM     10  C   UNL     1     137.814 142.425 137.640  1.00  0.00    -0.000 C 
BRANCH  10  11
ATOM     11  C   UNL     1     137.209 143.422 136.640  1.00  0.00    -0.000 C 
BRANCH  11  12
ATOM     12  C   UNL     1     138.155 143.733 135.469  1.00  0.00    -0.000 C 
BRANCH  12  13
ATOM     13  C   UNL     1     139.586 143.223 135.714  1.00  0.00    -0.000 C 
BRANCH  13  14
ATOM     14  C   UNL     1     140.507 144.300 136.317  1.00  0.00    -0.000 C 
BRANCH  14  15
ATOM     15  C   UNL     1     141.349 143.829 137.517  1.00  0.00    -0.003 C 
ATOM     16  C   UNL     1     142.075 144.973 138.225  1.00  0.00     0.004 C 
ENDBRANCH  14  15
ENDBRANCH  13  14
ENDBRANCH  12  13
ENDBRANCH  11  12
ENDBRANCH  10  11
ENDBRANCH   9  10
ENDBRANCH   8   9
ENDBRANCH   7   8
ENDBRANCH   6   7
ENDBRANCH   5   6
ENDBRANCH   4   5
ENDBRANCH   3   4
ENDBRANCH   2   3
ENDBRANCH   1   2
BRANCH   1  17
ATOM     17  C   UNL     1     134.103 143.970 138.711  1.00  0.00     0.000 C 
BRANCH  17  18
ATOM     18  C   UNL     1     132.666 144.524 138.623  1.00  0.00     0.000 C 
BRANCH  18  19
ATOM     19  C   UNL     1     132.522 146.014 138.990  1.00  0.00     0.000 C 
BRANCH  19  20
ATOM     20  C   UNL     1     131.069 146.518 139.102  1.00  0.00     0.000 C 
BRANCH  20  21
ATOM     21  C   UNL     1     130.190 146.249 137.866  1.00  0.00     0.000 C 
BRANCH  21  22
ATOM     22  C   UNL     1     128.697 146.128 138.212  1.00  0.00     0.000 C 
BRANCH  22  23
ATOM     23  C   UNL     1     128.472 145.109 139.340  1.00  0.00     0.000 C 
BRANCH  23  24
ATOM     24  C   UNL     1     128.749 143.663 138.892  1.00  0.00     0.000 C 
BRANCH  24  25
ATOM     25  C   UNL     1     129.751 142.940 139.810  1.00  0.00     0.000 C 
BRANCH  25  26
ATOM     26  C   UNL     1     130.226 141.599 139.226  1.00  0.00     0.000 C 
BRANCH  26  27
ATOM     27  C   UNL     1     130.550 141.685 137.725  1.00  0.00     0.002 C 
BRANCH  27  28
ATOM     28  C   UNL     1     131.844 140.938 137.360  1.00  0.00     0.028 C 
BRANCH  28  29
ATOM     29  C   UNL     1     132.579 141.566 136.168  1.00  0.00     0.156 C 
BRANCH  29  30
ATOM     30  O   UNL     1     131.890 142.700 135.721  1.00  0.00    -0.396 OA
ATOM     31  H   UNL     1     132.552 143.267 135.246  1.00  0.00     0.210 HD
ENDBRANCH  29  30
ENDBRANCH  28  29
ENDBRANCH  27  28
ENDBRANCH  26  27
ENDBRANCH  25  26
ENDBRANCH  24  25
ENDBRANCH  23  24
ENDBRANCH  22  23
ENDBRANCH  21  22
ENDBRANCH  20  21
ENDBRANCH  19  20
ENDBRANCH  18  19
ENDBRANCH  17  18
ENDBRANCH   1  17
TORSDOF 28
ENDMDL
MODEL 7
REMARK VINA RESULT:    -2.103      7.856     11.493
REMARK INTER + INTRA:         -11.282
REMARK INTER:                  -5.917
REMARK INTRA:                  -5.366
REMARK UNBOUND:                -5.797
REMARK SMILES CCCCCCCCCCCCCCCCCCCCCCCCCCCCCO
REMARK SMILES IDX 16 1 15 2 14 3 13 4 12 5 11 6 10 7 9 8 8 9 7 10 6 11 5 12
REMARK SMILES IDX 4 13 3 14 2 15 1 16 17 17 18 18 19 19 20 20 21 21 22 22
REMARK SMILES IDX 23 23 24 24 25 25 26 26 27 27 28 28 29 29 30 30
REMARK H PARENT 30 31
REMARK Flexibility Score: inf
ROOT
ATOM      1  C   UNL     1     143.824 139.158 140.109  1.00  0.00     0.000 C 
ENDROOT
BRANCH   1   2
ATOM      2  C   UNL     1     145.267 139.466 139.672  1.00  0.00     0.000 C 
BRANCH   2   3
ATOM      3  C   UNL     1     145.839 140.715 140.362  1.00  0.00     0.000 C 
BRANCH   3   4
ATOM      4  C   UNL     1     144.856 141.899 140.355  1.00  0.00     0.000 C 
BRANCH   4   5
ATOM      5  C   UNL     1     144.655 142.510 141.752  1.00  0.00     0.000 C 
BRANCH   5   6
ATOM      6  C   UNL     1     143.210 142.975 141.992  1.00  0.00     0.000 C 
BRANCH   6   7
ATOM      7  C   UNL     1     143.128 144.258 142.851  1.00  0.00     0.000 C 
BRANCH   7   8
ATOM      8  C   UNL     1     142.089 145.277 142.348  1.00  0.00    -0.000 C 
BRANCH   8   9
ATOM      9  C   UNL     1     142.035 145.438 140.817  1.00  0.00    -0.000 C 
BRANCH   9  10
ATOM     10  C   UNL     1     142.333 146.876 140.334  1.00  0.00    -0.000 C 
BRANCH  10  11
ATOM     11  C   UNL     1     143.588 146.953 139.451  1.00  0.00    -0.000 C 
BRANCH  11  12
ATOM     12  C   UNL     1     144.208 145.572 139.183  1.00  0.00    -0.000 C 
BRANCH  12  13
ATOM     13  C   UNL     1     145.609 145.422 139.803  1.00  0.00    -0.000 C 
BRANCH  13  14
ATOM     14  C   UNL     1     146.021 146.644 140.646  1.00  0.00    -0.000 C 
BRANCH  14  15
ATOM     15  C   UNL     1     145.994 146.415 142.168  1.00  0.00    -0.003 C 
ATOM     16  C   UNL     1     145.152 147.449 142.914  1.00  0.00     0.004 C 
ENDBRANCH  14  15
ENDBRANCH  13  14
ENDBRANCH  12  13
ENDBRANCH  11  12
ENDBRANCH  10  11
ENDBRANCH   9  10
ENDBRANCH   8   9
ENDBRANCH   7   8
ENDBRANCH   6   7
ENDBRANCH   5   6
ENDBRANCH   4   5
ENDBRANCH   3   4
ENDBRANCH   2   3
ENDBRANCH   1   2
BRANCH   1  17
ATOM     17  C   UNL     1     143.392 137.719 139.772  1.00  0.00     0.000 C 
BRANCH  17  18
ATOM     18  C   UNL     1     144.426 136.896 138.978  1.00  0.00     0.000 C 
BRANCH  18  19
ATOM     19  C   UNL     1     143.849 136.103 137.788  1.00  0.00     0.000 C 
BRANCH  19  20
ATOM     20  C   UNL     1     143.526 136.948 136.539  1.00  0.00     0.000 C 
BRANCH  20  21
ATOM     21  C   UNL     1     144.557 138.045 136.212  1.00  0.00     0.000 C 
BRANCH  21  22
ATOM     22  C   UNL     1     143.922 139.438 136.077  1.00  0.00     0.000 C 
BRANCH  22  23
ATOM     23  C   UNL     1     142.437 139.409 136.470  1.00  0.00     0.000 C 
BRANCH  23  24
ATOM     24  C   UNL     1     141.850 140.817 136.665  1.00  0.00     0.000 C 
BRANCH  24  25
ATOM     25  C   UNL     1     141.870 141.269 138.137  1.00  0.00     0.000 C 
BRANCH  25  26
ATOM     26  C   UNL     1     142.019 142.793 138.285  1.00  0.00     0.000 C 
BRANCH  26  27
ATOM     27  C   UNL     1     141.333 143.571 137.149  1.00  0.00     0.002 C 
BRANCH  27  28
ATOM     28  C   UNL     1     140.263 144.546 137.668  1.00  0.00     0.028 C 
BRANCH  28  29
ATOM     29  C   UNL     1     139.119 144.763 136.670  1.00  0.00     0.156 C 
BRANCH  29  30
ATOM     30  O   UNL     1     139.631 145.175 135.433  1.00  0.00    -0.396 OA
ATOM     31  H   UNL     1     139.060 145.927 135.124  1.00  0.00     0.210 HD
ENDBRANCH  29  30
ENDBRANCH  28  29
ENDBRANCH  27  28
ENDBRANCH  26  27
ENDBRANCH  25  26
ENDBRANCH  24  25
ENDBRANCH  23  24
ENDBRANCH  22  23
ENDBRANCH  21  22
ENDBRANCH  20  21
ENDBRANCH  19  20
ENDBRANCH  18  19
ENDBRANCH  17  18
ENDBRANCH   1  17
TORSDOF 28
ENDMDL
MODEL 8
REMARK VINA RESULT:    -2.101      2.477      6.475
REMARK INTER + INTRA:         -11.275
REMARK INTER:                  -5.372
REMARK INTRA:                  -5.904
REMARK UNBOUND:                -5.797
REMARK SMILES CCCCCCCCCCCCCCCCCCCCCCCCCCCCCO
REMARK SMILES IDX 16 1 15 2 14 3 13 4 12 5 11 6 10 7 9 8 8 9 7 10 6 11 5 12
REMARK SMILES IDX 4 13 3 14 2 15 1 16 17 17 18 18 19 19 20 20 21 21 22 22
REMARK SMILES IDX 23 23 24 24 25 25 26 26 27 27 28 28 29 29 30 30
REMARK H PARENT 30 31
REMARK Flexibility Score: inf
ROOT
ATOM      1  C   UNL     1     133.008 139.371 139.099  1.00  0.00     0.000 C 
ENDROOT
BRANCH   1   2
ATOM      2  C   UNL     1     133.458 138.438 137.962  1.00  0.00     0.000 C 
BRANCH   2   3
ATOM      3  C   UNL     1     132.344 138.177 136.936  1.00  0.00     0.000 C 
BRANCH   3   4
ATOM      4  C   UNL     1     132.635 138.820 135.567  1.00  0.00     0.000 C 
BRANCH   4   5
ATOM      5  C   UNL     1     131.556 139.832 135.148  1.00  0.00     0.000 C 
BRANCH   5   6
ATOM      6  C   UNL     1     131.913 141.275 135.538  1.00  0.00     0.000 C 
BRANCH   6   7
ATOM      7  C   UNL     1     133.435 141.495 135.690  1.00  0.00     0.000 C 
BRANCH   7   8
ATOM      8  C   UNL     1     133.814 142.439 136.847  1.00  0.00    -0.000 C 
BRANCH   8   9
ATOM      9  C   UNL     1     135.081 142.032 137.620  1.00  0.00    -0.000 C 
BRANCH   9  10
ATOM     10  C   UNL     1     135.864 143.231 138.202  1.00  0.00    -0.000 C 
BRANCH  10  11
ATOM     11  C   UNL     1     135.861 143.248 139.739  1.00  0.00    -0.000 C 
BRANCH  11  12
ATOM     12  C   UNL     1     134.765 142.352 140.337  1.00  0.00    -0.000 C 
BRANCH  12  13
ATOM     13  C   UNL     1     135.311 141.376 141.395  1.00  0.00    -0.000 C 
BRANCH  13  14
ATOM     14  C   UNL     1     136.649 140.736 140.980  1.00  0.00    -0.000 C 
BRANCH  14  15
ATOM     15  C   UNL     1     136.517 139.461 140.128  1.00  0.00    -0.003 C 
ATOM     16  C   UNL     1     137.407 139.476 138.886  1.00  0.00     0.004 C 
ENDBRANCH  14  15
ENDBRANCH  13  14
ENDBRANCH  12  13
ENDBRANCH  11  12
ENDBRANCH  10  11
ENDBRANCH   9  10
ENDBRANCH   8   9
ENDBRANCH   7   8
ENDBRANCH   6   7
ENDBRANCH   5   6
ENDBRANCH   4   5
ENDBRANCH   3   4
ENDBRANCH   2   3
ENDBRANCH   1   2
BRANCH   1  17
ATOM     17  C   UNL     1     131.542 139.822 138.958  1.00  0.00     0.000 C 
BRANCH  17  18
ATOM     18  C   UNL     1     131.287 141.313 139.256  1.00  0.00     0.000 C 
BRANCH  18  19
ATOM     19  C   UNL     1     129.987 141.883 138.655  1.00  0.00     0.000 C 
BRANCH  19  20
ATOM     20  C   UNL     1     129.117 142.694 139.636  1.00  0.00     0.000 C 
BRANCH  20  21
ATOM     21  C   UNL     1     128.288 143.820 138.991  1.00  0.00     0.000 C 
BRANCH  21  22
ATOM     22  C   UNL     1     128.792 145.222 139.369  1.00  0.00     0.000 C 
BRANCH  22  23
ATOM     23  C   UNL     1     129.139 146.040 138.115  1.00  0.00     0.000 C 
BRANCH  23  24
ATOM     24  C   UNL     1     130.626 146.430 138.058  1.00  0.00     0.000 C 
BRANCH  24  25
ATOM     25  C   UNL     1     131.547 145.221 137.816  1.00  0.00     0.000 C 
BRANCH  25  26
ATOM     26  C   UNL     1     132.395 144.866 139.050  1.00  0.00     0.000 C 
BRANCH  26  27
ATOM     27  C   UNL     1     132.569 146.054 140.012  1.00  0.00     0.002 C 
BRANCH  27  28
ATOM     28  C   UNL     1     134.045 146.427 140.223  1.00  0.00     0.028 C 
BRANCH  28  29
ATOM     29  C   UNL     1     134.518 146.201 141.665  1.00  0.00     0.156 C 
BRANCH  29  30
ATOM     30  O   UNL     1     134.158 147.292 142.466  1.00  0.00    -0.396 OA
ATOM     31  H   UNL     1     133.223 147.525 142.228  1.00  0.00     0.210 HD
ENDBRANCH  29  30
ENDBRANCH  28  29
ENDBRANCH  27  28
ENDBRANCH  26  27
ENDBRANCH  25  26
ENDBRANCH  24  25
ENDBRANCH  23  24
ENDBRANCH  22  23
ENDBRANCH  21  22
ENDBRANCH  20  21
ENDBRANCH  19  20
ENDBRANCH  18  19
ENDBRANCH  17  18
ENDBRANCH   1  17
TORSDOF 28
ENDMDL
MODEL 9
REMARK VINA RESULT:    -2.048      2.879      5.233
REMARK INTER + INTRA:         -11.137
REMARK INTER:                  -5.321
REMARK INTRA:                  -5.816
REMARK UNBOUND:                -5.797
REMARK SMILES CCCCCCCCCCCCCCCCCCCCCCCCCCCCCO
REMARK SMILES IDX 16 1 15 2 14 3 13 4 12 5 11 6 10 7 9 8 8 9 7 10 6 11 5 12
REMARK SMILES IDX 4 13 3 14 2 15 1 16 17 17 18 18 19 19 20 20 21 21 22 22
REMARK SMILES IDX 23 23 24 24 25 25 26 26 27 27 28 28 29 29 30 30
REMARK H PARENT 30 31
REMARK Flexibility Score: inf
ROOT
ATOM      1  C   UNL     1     132.063 141.493 141.119  1.00  0.00     0.000 C 
ENDROOT
BRANCH   1   2
ATOM      2  C   UNL     1     130.547 141.247 141.201  1.00  0.00     0.000 C 
BRANCH   2   3
ATOM      3  C   UNL     1     129.957 140.743 139.874  1.00  0.00     0.000 C 
BRANCH   3   4
ATOM      4  C   UNL     1     129.238 141.852 139.086  1.00  0.00     0.000 C 
BRANCH   4   5
ATOM      5  C   UNL     1     128.967 143.103 139.937  1.00  0.00     0.000 C 
BRANCH   5   6
ATOM      6  C   UNL     1     129.584 144.375 139.333  1.00  0.00     0.000 C 
BRANCH   6   7
ATOM      7  C   UNL     1     130.893 144.098 138.561  1.00  0.00     0.000 C 
BRANCH   7   8
ATOM      8  C   UNL     1     131.752 145.354 138.324  1.00  0.00    -0.000 C 
BRANCH   8   9
ATOM      9  C   UNL     1     131.256 146.619 139.048  1.00  0.00    -0.000 C 
BRANCH   9  10
ATOM     10  C   UNL     1     132.374 147.388 139.788  1.00  0.00    -0.000 C 
BRANCH  10  11
ATOM     11  C   UNL     1     133.657 146.557 139.946  1.00  0.00    -0.000 C 
BRANCH  11  12
ATOM     12  C   UNL     1     133.950 146.194 141.410  1.00  0.00    -0.000 C 
BRANCH  12  13
ATOM     13  C   UNL     1     133.107 145.003 141.904  1.00  0.00    -0.000 C 
BRANCH  13  14
ATOM     14  C   UNL     1     132.114 145.396 143.013  1.00  0.00    -0.000 C 
BRANCH  14  15
ATOM     15  C   UNL     1     130.632 145.174 142.659  1.00  0.00    -0.003 C 
ATOM     16  C   UNL     1     129.844 146.478 142.538  1.00  0.00     0.004 C 
ENDBRANCH  14  15
ENDBRANCH  13  14
ENDBRANCH  12  13
ENDBRANCH  11  12
ENDBRANCH  10  11
ENDBRANCH   9  10
ENDBRANCH   8   9
ENDBRANCH   7   8
ENDBRANCH   6   7
ENDBRANCH   5   6
ENDBRANCH   4   5
ENDBRANCH   3   4
ENDBRANCH   2   3
ENDBRANCH   1   2
BRANCH   1  17
ATOM     17  C   UNL     1     132.714 140.812 139.901  1.00  0.00     0.000 C 
BRANCH  17  18
ATOM     18  C   UNL     1     134.152 141.272 139.586  1.00  0.00     0.000 C 
BRANCH  18  19
ATOM     19  C   UNL     1     134.298 142.773 139.264  1.00  0.00     0.000 C 
BRANCH  19  20
ATOM     20  C   UNL     1     134.678 143.091 137.804  1.00  0.00     0.000 C 
BRANCH  20  21
ATOM     21  C   UNL     1     135.071 141.868 136.954  1.00  0.00     0.000 C 
BRANCH  21  22
ATOM     22  C   UNL     1     134.100 141.615 135.789  1.00  0.00     0.000 C 
BRANCH  22  23
ATOM     23  C   UNL     1     132.730 142.255 136.064  1.00  0.00     0.000 C 
BRANCH  23  24
ATOM     24  C   UNL     1     131.628 141.209 136.306  1.00  0.00     0.000 C 
BRANCH  24  25
ATOM     25  C   UNL     1     132.050 139.793 135.874  1.00  0.00     0.000 C 
BRANCH  25  26
ATOM     26  C   UNL     1     132.050 138.793 137.042  1.00  0.00     0.000 C 
BRANCH  26  27
ATOM     27  C   UNL     1     132.603 137.414 136.644  1.00  0.00     0.002 C 
BRANCH  27  28
ATOM     28  C   UNL     1     132.051 136.283 137.527  1.00  0.00     0.028 C 
BRANCH  28  29
ATOM     29  C   UNL     1     132.617 134.906 137.157  1.00  0.00     0.156 C 
BRANCH  29  30
ATOM     30  O   UNL     1     132.405 134.647 135.797  1.00  0.00    -0.396 OA
ATOM     31  H   UNL     1     132.013 133.737 135.738  1.00  0.00     0.210 HD
ENDBRANCH  29  30
ENDBRANCH  28  29
ENDBRANCH  27  28
ENDBRANCH  26  27
ENDBRANCH  25  26
ENDBRANCH  24  25
ENDBRANCH  23  24
ENDBRANCH  22  23
ENDBRANCH  21  22
ENDBRANCH  20  21
ENDBRANCH  19  20
ENDBRANCH  18  19
ENDBRANCH  17  18
ENDBRANCH   1  17
TORSDOF 28
ENDMDL
