MODEL 1
REMARK VINA RESULT:    -3.694      0.000      0.000
REMARK INTER + INTRA:          -5.182
REMARK INTER:                  -4.774
REMARK INTRA:                  -0.408
REMARK UNBOUND:                -0.408
REMARK SMILES CCO[C@H]1O[C@H](CO)[C@H](O)[C@@H](O)[C@@H]1O
REMARK SMILES IDX 4 1 13 2 11 3 9 4 6 5 5 6 3 7 2 8 1 9 14 10 12 12 7 14 8 15
REMARK SMILES IDX 10 17
REMARK H PARENT 14 11 12 13 8 16 10 18
REMARK Flexibility Score: inf
ROOT
ATOM      1  C   UNL     1       8.143  -7.152  -4.860  1.00  0.00     0.281 C 
ATOM      2  C   UNL     1       8.913  -8.421  -4.417  1.00  0.00     0.202 C 
ATOM      3  C   UNL     1       8.231  -9.720  -4.911  1.00  0.00     0.179 C 
ATOM      4  C   UNL     1       6.700  -9.672  -4.714  1.00  0.00     0.177 C 
ATOM      5  C   UNL     1       6.132  -8.319  -5.198  1.00  0.00     0.178 C 
ATOM      6  O   UNL     1       6.766  -7.242  -4.527  1.00  0.00    -0.341 OA
ENDROOT
BRANCH   1   7
ATOM      7  O   UNL     1       8.300  -6.906  -6.252  1.00  0.00    -0.350 OA
BRANCH   7   8
ATOM      8  C   UNL     1       9.467  -6.155  -6.532  1.00  0.00     0.160 C 
ATOM      9  C   UNL     1       9.193  -4.665  -6.353  1.00  0.00     0.035 C 
ENDBRANCH   7   8
ENDBRANCH   1   7
BRANCH   2  10
ATOM     10  O   UNL     1       8.984  -8.430  -3.013  1.00  0.00    -0.385 OA
ATOM     11  H   UNL     1       9.935  -8.279  -2.771  1.00  0.00     0.211 HD
ENDBRANCH   2  10
BRANCH   3  12
ATOM     12  O   UNL     1       8.579 -10.011  -6.243  1.00  0.00    -0.387 OA
ATOM     13  H   UNL     1       7.910  -9.596  -6.843  1.00  0.00     0.211 HD
ENDBRANCH   3  12
BRANCH   5  14
ATOM     14  C   UNL     1       4.622  -8.238  -4.948  1.00  0.00     0.191 C 
BRANCH  14  15
ATOM     15  O   UNL     1       4.062  -9.520  -5.027  1.00  0.00    -0.394 OA
ATOM     16  H   UNL     1       3.108  -9.421  -4.772  1.00  0.00     0.210 HD
ENDBRANCH  14  15
ENDBRANCH   5  14
BRANCH   4  17
ATOM     17  O   UNL     1       6.395  -9.852  -3.353  1.00  0.00    -0.387 OA
ATOM     18  H   UNL     1       6.011  -8.996  -3.028  1.00  0.00     0.211 HD
ENDBRANCH   4  17
TORSDOF 7
ENDMDL
MODEL 2
REMARK VINA RESULT:    -3.374     20.976     22.689
REMARK INTER + INTRA:          -4.769
REMARK INTER:                  -4.336
REMARK INTRA:                  -0.432
REMARK UNBOUND:                -0.408
REMARK SMILES CCO[C@H]1O[C@H](CO)[C@H](O)[C@@H](O)[C@@H]1O
REMARK SMILES IDX 4 1 13 2 11 3 9 4 6 5 5 6 3 7 2 8 1 9 14 10 12 12 7 14 8 15
REMARK SMILES IDX 10 17
REMARK H PARENT 14 11 12 13 8 16 10 18
REMARK Flexibility Score: inf
ROOT
ATOM      1  C   UNL     1     -10.125   7.612  -2.953  1.00  0.00     0.281 C 
ATOM      2  C   UNL     1      -9.301   8.477  -1.967  1.00  0.00     0.202 C 
ATOM      3  C   UNL     1      -7.886   7.900  -1.725  1.00  0.00     0.179 C 
ATOM      4  C   UNL     1      -7.920   6.370  -1.522  1.00  0.00     0.177 C 
ATOM      5  C   UNL     1      -8.809   5.699  -2.593  1.00  0.00     0.178 C 
ATOM      6  O   UNL     1     -10.118   6.245  -2.569  1.00  0.00    -0.341 OA
ENDROOT
BRANCH   1   7
ATOM      7  O   UNL     1      -9.656   7.752  -4.289  1.00  0.00    -0.350 OA
BRANCH   7   8
ATOM      8  C   UNL     1      -9.852   9.063  -4.786  1.00  0.00     0.160 C 
ATOM      9  C   UNL     1      -8.667   9.484  -5.648  1.00  0.00     0.035 C 
ENDBRANCH   7   8
ENDBRANCH   1   7
BRANCH   2  10
ATOM     10  O   UNL     1      -9.998   8.545  -0.748  1.00  0.00    -0.385 OA
ATOM     11  H   UNL     1      -9.923   7.651  -0.321  1.00  0.00     0.211 HD
ENDBRANCH   2  10
BRANCH   3  12
ATOM     12  O   UNL     1      -6.995   8.273  -2.749  1.00  0.00    -0.387 OA
ATOM     13  H   UNL     1      -6.412   8.999  -2.414  1.00  0.00     0.211 HD
ENDBRANCH   3  12
BRANCH   5  14
ATOM     14  C   UNL     1      -8.900   4.186  -2.362  1.00  0.00     0.191 C 
BRANCH  14  15
ATOM     15  O   UNL     1      -7.860   3.776  -1.516  1.00  0.00    -0.394 OA
ATOM     16  H   UNL     1      -7.852   4.417  -0.758  1.00  0.00     0.210 HD
ENDBRANCH  14  15
ENDBRANCH   5  14
BRANCH   4  17
ATOM     17  O   UNL     1      -8.421   6.075  -0.241  1.00  0.00    -0.387 OA
ATOM     18  H   UNL     1      -8.358   5.091  -0.126  1.00  0.00     0.211 HD
ENDBRANCH   4  17
TORSDOF 7
ENDMDL
MODEL 3
REMARK VINA RESULT:    -3.027     17.527     19.709
REMARK INTER + INTRA:          -4.320
REMARK INTER:                  -4.057
REMARK INTRA:                  -0.264
REMARK UNBOUND:                -0.408
REMARK SMILES CCO[C@H]1O[C@H](CO)[C@H](O)[C@@H](O)[C@@H]1O
REMARK SMILES IDX 4 1 13 2 11 3 9 4 6 5 5 6 3 7 2 8 1 9 14 10 12 12 7 14 8 15
REMARK SMILES IDX 10 17
REMARK H PARENT 14 11 12 13 8 16 10 18
REMARK Flexibility Score: inf
ROOT
ATOM      1  C   UNL     1      -8.974   1.859  -7.492  1.00  0.00     0.281 C 
ATOM      2  C   UNL     1      -8.440   2.953  -8.450  1.00  0.00     0.202 C 
ATOM      3  C   UNL     1      -7.619   4.033  -7.705  1.00  0.00     0.179 C 
ATOM      4  C   UNL     1      -8.304   4.466  -6.391  1.00  0.00     0.177 C 
ATOM      5  C   UNL     1      -8.780   3.231  -5.594  1.00  0.00     0.178 C 
ATOM      6  O   UNL     1      -9.648   2.432  -6.381  1.00  0.00    -0.341 OA
ENDROOT
BRANCH   1   7
ATOM      7  O   UNL     1      -7.932   1.000  -7.047  1.00  0.00    -0.350 OA
BRANCH   7   8
ATOM      8  C   UNL     1      -7.403   0.217  -8.101  1.00  0.00     0.160 C 
ATOM      9  C   UNL     1      -5.934  -0.098  -7.839  1.00  0.00     0.035 C 
ENDBRANCH   7   8
ENDBRANCH   1   7
BRANCH   2  10
ATOM     10  O   UNL     1      -9.537   3.555  -9.092  1.00  0.00    -0.385 OA
ATOM     11  H   UNL     1      -9.211   3.888  -9.970  1.00  0.00     0.211 HD
ENDBRANCH   2  10
BRANCH   3  12
ATOM     12  O   UNL     1      -6.292   3.615  -7.491  1.00  0.00    -0.387 OA
ATOM     13  H   UNL     1      -6.227   3.214  -6.589  1.00  0.00     0.211 HD
ENDBRANCH   3  12
BRANCH   5  14
ATOM     14  C   UNL     1      -9.517   3.653  -4.318  1.00  0.00     0.191 C 
BRANCH  14  15
ATOM     15  O   UNL     1      -8.591   3.866  -3.288  1.00  0.00    -0.394 OA
ATOM     16  H   UNL     1      -7.693   3.768  -3.700  1.00  0.00     0.210 HD
ENDBRANCH  14  15
ENDBRANCH   5  14
BRANCH   4  17
ATOM     17  O   UNL     1      -9.404   5.292  -6.683  1.00  0.00    -0.387 OA
ATOM     18  H   UNL     1      -9.943   4.821  -7.370  1.00  0.00     0.211 HD
ENDBRANCH   4  17
TORSDOF 7
ENDMDL
MODEL 4
REMARK VINA RESULT:    -2.985     19.070     20.468
REMARK INTER + INTRA:          -4.266
REMARK INTER:                  -3.881
REMARK INTRA:                  -0.384
REMARK UNBOUND:                -0.408
REMARK SMILES CCO[C@H]1O[C@H](CO)[C@H](O)[C@@H](O)[C@@H]1O
REMARK SMILES IDX 4 1 13 2 11 3 9 4 6 5 5 6 3 7 2 8 1 9 14 10 12 12 7 14 8 15
REMARK SMILES IDX 10 17
REMARK H PARENT 14 11 12 13 8 16 10 18
REMARK Flexibility Score: inf
ROOT
ATOM      1  C   UNL     1      -7.903   4.996  -7.146  1.00  0.00     0.281 C 
ATOM      2  C   UNL     1      -7.674   3.731  -8.011  1.00  0.00     0.202 C 
ATOM      3  C   UNL     1      -8.832   2.714  -7.874  1.00  0.00     0.179 C 
ATOM      4  C   UNL     1      -9.270   2.539  -6.404  1.00  0.00     0.177 C 
ATOM      5  C   UNL     1      -9.421   3.915  -5.716  1.00  0.00     0.178 C 
ATOM      6  O   UNL     1      -8.214   4.653  -5.804  1.00  0.00    -0.341 OA
ENDROOT
BRANCH   1   7
ATOM      7  O   UNL     1      -8.921   5.826  -7.692  1.00  0.00    -0.350 OA
BRANCH   7   8
ATOM      8  C   UNL     1      -8.443   7.122  -7.999  1.00  0.00     0.160 C 
ATOM      9  C   UNL     1      -8.565   8.032  -6.781  1.00  0.00     0.035 C 
ENDBRANCH   7   8
ENDBRANCH   1   7
BRANCH   2  10
ATOM     10  O   UNL     1      -6.469   3.130  -7.609  1.00  0.00    -0.385 OA
ATOM     11  H   UNL     1      -6.343   2.326  -8.178  1.00  0.00     0.211 HD
ENDBRANCH   2  10
BRANCH   3  12
ATOM     12  O   UNL     1      -9.916   3.051  -8.707  1.00  0.00    -0.387 OA
ATOM     13  H   UNL     1     -10.758   2.873  -8.219  1.00  0.00     0.211 HD
ENDBRANCH   3  12
BRANCH   5  14
ATOM     14  C   UNL     1      -9.794   3.751  -4.238  1.00  0.00     0.191 C 
BRANCH  14  15
ATOM     15  O   UNL     1      -8.633   3.773  -3.454  1.00  0.00    -0.394 OA
ATOM     16  H   UNL     1      -8.849   3.270  -2.626  1.00  0.00     0.210 HD
ENDBRANCH  14  15
ENDBRANCH   5  14
BRANCH   4  17
ATOM     17  O   UNL     1      -8.315   1.771  -5.716  1.00  0.00    -0.387 OA
ATOM     18  H   UNL     1      -8.691   0.857  -5.625  1.00  0.00     0.211 HD
ENDBRANCH   4  17
TORSDOF 7
ENDMDL
MODEL 5
REMARK VINA RESULT:    -2.981     13.198     14.411
REMARK INTER + INTRA:          -4.261
REMARK INTER:                  -3.850
REMARK INTRA:                  -0.411
REMARK UNBOUND:                -0.408
REMARK SMILES CCO[C@H]1O[C@H](CO)[C@H](O)[C@@H](O)[C@@H]1O
REMARK SMILES IDX 4 1 13 2 11 3 9 4 6 5 5 6 3 7 2 8 1 9 14 10 12 12 7 14 8 15
REMARK SMILES IDX 10 17
REMARK H PARENT 14 11 12 13 8 16 10 18
REMARK Flexibility Score: inf
ROOT
ATOM      1  C   UNL     1       8.748  -2.821   6.814  1.00  0.00     0.281 C 
ATOM      2  C   UNL     1       9.883  -1.958   7.421  1.00  0.00     0.202 C 
ATOM      3  C   UNL     1       9.527  -1.433   8.832  1.00  0.00     0.179 C 
ATOM      4  C   UNL     1       8.078  -0.904   8.896  1.00  0.00     0.177 C 
ATOM      5  C   UNL     1       7.107  -1.899   8.221  1.00  0.00     0.178 C 
ATOM      6  O   UNL     1       7.499  -2.149   6.881  1.00  0.00    -0.341 OA
ENDROOT
BRANCH   1   7
ATOM      7  O   UNL     1       8.660  -4.090   7.450  1.00  0.00    -0.350 OA
BRANCH   7   8
ATOM      8  C   UNL     1       9.214  -5.122   6.654  1.00  0.00     0.160 C 
ATOM      9  C   UNL     1       8.839  -4.920   5.190  1.00  0.00     0.035 C 
ENDBRANCH   7   8
ENDBRANCH   1   7
BRANCH   2  10
ATOM     10  O   UNL     1      10.125  -0.874   6.560  1.00  0.00    -0.385 OA
ATOM     11  H   UNL     1       9.708  -0.075   6.977  1.00  0.00     0.211 HD
ENDBRANCH   2  10
BRANCH   3  12
ATOM     12  O   UNL     1       9.776  -2.402   9.822  1.00  0.00    -0.387 OA
ATOM     13  H   UNL     1       8.961  -2.509  10.373  1.00  0.00     0.211 HD
ENDBRANCH   3  12
BRANCH   5  14
ATOM     14  C   UNL     1       5.674  -1.355   8.224  1.00  0.00     0.191 C 
BRANCH  14  15
ATOM     15  O   UNL     1       5.505  -0.467   7.152  1.00  0.00    -0.394 OA
ATOM     16  H   UNL     1       5.898   0.396   7.444  1.00  0.00     0.210 HD
ENDBRANCH  14  15
ENDBRANCH   5  14
BRANCH   4  17
ATOM     17  O   UNL     1       8.001   0.342   8.250  1.00  0.00    -0.387 OA
ATOM     18  H   UNL     1       7.053   0.631   8.292  1.00  0.00     0.211 HD
ENDBRANCH   4  17
TORSDOF 7
ENDMDL
MODEL 6
REMARK VINA RESULT:    -2.981      1.742      4.265
REMARK INTER + INTRA:          -4.260
REMARK INTER:                  -3.815
REMARK INTRA:                  -0.445
REMARK UNBOUND:                -0.408
REMARK SMILES CCO[C@H]1O[C@H](CO)[C@H](O)[C@@H](O)[C@@H]1O
REMARK SMILES IDX 4 1 13 2 11 3 9 4 6 5 5 6 3 7 2 8 1 9 14 10 12 12 7 14 8 15
REMARK SMILES IDX 10 17
REMARK H PARENT 14 11 12 13 8 16 10 18
REMARK Flexibility Score: inf
ROOT
ATOM      1  C   UNL     1       6.948  -8.559  -5.408  1.00  0.00     0.281 C 
ATOM      2  C   UNL     1       8.007  -8.001  -4.423  1.00  0.00     0.202 C 
ATOM      3  C   UNL     1       8.630  -6.676  -4.924  1.00  0.00     0.179 C 
ATOM      4  C   UNL     1       8.974  -6.739  -6.428  1.00  0.00     0.177 C 
ATOM      5  C   UNL     1       7.799  -7.343  -7.229  1.00  0.00     0.178 C 
ATOM      6  O   UNL     1       7.460  -8.626  -6.730  1.00  0.00    -0.341 OA
ENDROOT
BRANCH   1   7
ATOM      7  O   UNL     1       5.752  -7.789  -5.380  1.00  0.00    -0.350 OA
BRANCH   7   8
ATOM      8  C   UNL     1       4.859  -8.230  -4.374  1.00  0.00     0.160 C 
ATOM      9  C   UNL     1       4.553  -9.713  -4.553  1.00  0.00     0.035 C 
ENDBRANCH   7   8
ENDBRANCH   1   7
BRANCH   2  10
ATOM     10  O   UNL     1       9.016  -8.966  -4.262  1.00  0.00    -0.385 OA
ATOM     11  H   UNL     1       9.431  -8.806  -3.374  1.00  0.00     0.211 HD
ENDBRANCH   2  10
BRANCH   3  12
ATOM     12  O   UNL     1       7.810  -5.573  -4.621  1.00  0.00    -0.387 OA
ATOM     13  H   UNL     1       8.304  -4.742  -4.832  1.00  0.00     0.211 HD
ENDBRANCH   3  12
BRANCH   5  14
ATOM     14  C   UNL     1       8.155  -7.468  -8.715  1.00  0.00     0.191 C 
BRANCH  14  15
ATOM     15  O   UNL     1       8.769  -8.706  -8.949  1.00  0.00    -0.394 OA
ATOM     16  H   UNL     1       8.163  -9.392  -8.563  1.00  0.00     0.210 HD
ENDBRANCH  14  15
ENDBRANCH   5  14
BRANCH   4  17
ATOM     17  O   UNL     1      10.125  -7.525  -6.615  1.00  0.00    -0.387 OA
ATOM     18  H   UNL     1      10.402  -7.848  -5.719  1.00  0.00     0.211 HD
ENDBRANCH   4  17
TORSDOF 7
ENDMDL
MODEL 7
REMARK VINA RESULT:    -2.937     13.842     15.144
REMARK INTER + INTRA:          -4.204
REMARK INTER:                  -4.037
REMARK INTRA:                  -0.167
REMARK UNBOUND:                -0.408
REMARK SMILES CCO[C@H]1O[C@H](CO)[C@H](O)[C@@H](O)[C@@H]1O
REMARK SMILES IDX 4 1 13 2 11 3 9 4 6 5 5 6 3 7 2 8 1 9 14 10 12 12 7 14 8 15
REMARK SMILES IDX 10 17
REMARK H PARENT 14 11 12 13 8 16 10 18
REMARK Flexibility Score: inf
ROOT
ATOM      1  C   UNL     1       6.983  -1.824   8.270  1.00  0.00     0.281 C 
ATOM      2  C   UNL     1       7.609  -2.129   9.654  1.00  0.00     0.202 C 
ATOM      3  C   UNL     1       9.091  -1.693   9.734  1.00  0.00     0.179 C 
ATOM      4  C   UNL     1       9.873  -2.087   8.462  1.00  0.00     0.177 C 
ATOM      5  C   UNL     1       9.069  -1.717   7.195  1.00  0.00     0.178 C 
ATOM      6  O   UNL     1       7.791  -2.329   7.218  1.00  0.00    -0.341 OA
ENDROOT
BRANCH   1   7
ATOM      7  O   UNL     1       6.758  -0.431   8.094  1.00  0.00    -0.350 OA
BRANCH   7   8
ATOM      8  C   UNL     1       5.406  -0.078   8.322  1.00  0.00     0.160 C 
ATOM      9  C   UNL     1       4.569  -0.365   7.079  1.00  0.00     0.035 C 
ENDBRANCH   7   8
ENDBRANCH   1   7
BRANCH   2  10
ATOM     10  O   UNL     1       7.511  -3.511   9.891  1.00  0.00    -0.385 OA
ATOM     11  H   UNL     1       7.950  -3.687  10.764  1.00  0.00     0.211 HD
ENDBRANCH   2  10
BRANCH   3  12
ATOM     12  O   UNL     1       9.210  -0.319  10.017  1.00  0.00    -0.387 OA
ATOM     13  H   UNL     1       8.391  -0.019  10.485  1.00  0.00     0.211 HD
ENDBRANCH   3  12
BRANCH   5  14
ATOM     14  C   UNL     1       9.809  -2.161   5.928  1.00  0.00     0.191 C 
BRANCH  14  15
ATOM     15  O   UNL     1       9.912  -1.081   5.041  1.00  0.00    -0.394 OA
ATOM     16  H   UNL     1       9.484  -0.309   5.494  1.00  0.00     0.210 HD
ENDBRANCH  14  15
ENDBRANCH   5  14
BRANCH   4  17
ATOM     17  O   UNL     1      10.125  -3.470   8.474  1.00  0.00    -0.387 OA
ATOM     18  H   UNL     1       9.798  -3.815   9.345  1.00  0.00     0.211 HD
ENDBRANCH   4  17
TORSDOF 7
ENDMDL
MODEL 8
REMARK VINA RESULT:    -2.924     17.163     18.897
REMARK INTER + INTRA:          -4.187
REMARK INTER:                  -3.993
REMARK INTRA:                  -0.194
REMARK UNBOUND:                -0.408
REMARK SMILES CCO[C@H]1O[C@H](CO)[C@H](O)[C@@H](O)[C@@H]1O
REMARK SMILES IDX 4 1 13 2 11 3 9 4 6 5 5 6 3 7 2 8 1 9 14 10 12 12 7 14 8 15
REMARK SMILES IDX 10 17
REMARK H PARENT 14 11 12 13 8 16 10 18
REMARK Flexibility Score: inf
ROOT
ATOM      1  C   UNL     1      -8.521   2.981  -7.614  1.00  0.00     0.281 C 
ATOM      2  C   UNL     1      -8.769   1.464  -7.807  1.00  0.00     0.202 C 
ATOM      3  C   UNL     1      -7.461   0.642  -7.719  1.00  0.00     0.179 C 
ATOM      4  C   UNL     1      -6.310   1.312  -8.501  1.00  0.00     0.177 C 
ATOM      5  C   UNL     1      -6.247   2.824  -8.184  1.00  0.00     0.178 C 
ATOM      6  O   UNL     1      -7.489   3.447  -8.470  1.00  0.00    -0.341 OA
ENDROOT
BRANCH   1   7
ATOM      7  O   UNL     1      -8.218   3.292  -6.259  1.00  0.00    -0.350 OA
BRANCH   7   8
ATOM      8  C   UNL     1      -9.304   3.018  -5.395  1.00  0.00     0.160 C 
ATOM      9  C   UNL     1      -9.152   3.795  -4.091  1.00  0.00     0.035 C 
ENDBRANCH   7   8
ENDBRANCH   1   7
BRANCH   2  10
ATOM     10  O   UNL     1      -9.365   1.268  -9.065  1.00  0.00    -0.385 OA
ATOM     11  H   UNL     1      -9.478   0.288  -9.182  1.00  0.00     0.211 HD
ENDBRANCH   2  10
BRANCH   3  12
ATOM     12  O   UNL     1      -7.103   0.383  -6.382  1.00  0.00    -0.387 OA
ATOM     13  H   UNL     1      -6.621   1.169  -6.024  1.00  0.00     0.211 HD
ENDBRANCH   3  12
BRANCH   5  14
ATOM     14  C   UNL     1      -5.149   3.510  -9.004  1.00  0.00     0.191 C 
BRANCH  14  15
ATOM     15  O   UNL     1      -4.436   4.398  -8.186  1.00  0.00    -0.394 OA
ATOM     16  H   UNL     1      -3.754   3.852  -7.715  1.00  0.00     0.210 HD
ENDBRANCH  14  15
ENDBRANCH   5  14
BRANCH   4  17
ATOM     17  O   UNL     1      -6.509   1.128  -9.881  1.00  0.00    -0.387 OA
ATOM     18  H   UNL     1      -7.418   0.744  -9.993  1.00  0.00     0.211 HD
ENDBRANCH   4  17
TORSDOF 7
ENDMDL
MODEL 9
REMARK VINA RESULT:    -2.923     16.002     17.731
REMARK INTER + INTRA:          -4.185
REMARK INTER:                  -3.813
REMARK INTRA:                  -0.373
REMARK UNBOUND:                -0.408
REMARK SMILES CCO[C@H]1O[C@H](CO)[C@H](O)[C@@H](O)[C@@H]1O
REMARK SMILES IDX 4 1 13 2 11 3 9 4 6 5 5 6 3 7 2 8 1 9 14 10 12 12 7 14 8 15
REMARK SMILES IDX 10 17
REMARK H PARENT 14 11 12 13 8 16 10 18
REMARK Flexibility Score: inf
ROOT
ATOM      1  C   UNL     1      -6.058   0.312  -8.346  1.00  0.00     0.281 C 
ATOM      2  C   UNL     1      -7.376   0.152  -7.546  1.00  0.00     0.202 C 
ATOM      3  C   UNL     1      -8.416   1.238  -7.911  1.00  0.00     0.179 C 
ATOM      4  C   UNL     1      -7.771   2.638  -8.007  1.00  0.00     0.177 C 
ATOM      5  C   UNL     1      -6.461   2.577  -8.824  1.00  0.00     0.178 C 
ATOM      6  O   UNL     1      -5.561   1.639  -8.257  1.00  0.00    -0.341 OA
ENDROOT
BRANCH   1   7
ATOM      7  O   UNL     1      -6.224  -0.064  -9.707  1.00  0.00    -0.350 OA
BRANCH   7   8
ATOM      8  C   UNL     1      -5.327  -1.091 -10.088  1.00  0.00     0.160 C 
ATOM      9  C   UNL     1      -5.874  -2.451  -9.671  1.00  0.00     0.035 C 
ENDBRANCH   7   8
ENDBRANCH   1   7
BRANCH   2  10
ATOM     10  O   UNL     1      -7.076   0.227  -6.175  1.00  0.00    -0.385 OA
ATOM     11  H   UNL     1      -7.073   1.190  -5.932  1.00  0.00     0.211 HD
ENDBRANCH   2  10
BRANCH   3  12
ATOM     12  O   UNL     1      -9.121   0.905  -9.083  1.00  0.00    -0.387 OA
ATOM     13  H   UNL     1     -10.000   0.530  -8.828  1.00  0.00     0.211 HD
ENDBRANCH   3  12
BRANCH   5  14
ATOM     14  C   UNL     1      -5.780   3.949  -8.873  1.00  0.00     0.191 C 
BRANCH  14  15
ATOM     15  O   UNL     1      -4.880   4.066  -7.805  1.00  0.00    -0.394 OA
ATOM     16  H   UNL     1      -4.135   4.634  -8.132  1.00  0.00     0.210 HD
ENDBRANCH  14  15
ENDBRANCH   5  14
BRANCH   4  17
ATOM     17  O   UNL     1      -7.498   3.121  -6.715  1.00  0.00    -0.387 OA
ATOM     18  H   UNL     1      -7.564   4.110  -6.757  1.00  0.00     0.211 HD
ENDBRANCH   4  17
TORSDOF 7
ENDMDL
