MODEL 1
REMARK VINA RESULT:    -6.185      0.000      0.000
REMARK INTER + INTRA:          -7.502
REMARK INTER:                  -7.270
REMARK INTRA:                  -0.232
REMARK UNBOUND:                -0.232
REMARK SMILES O=c1c(O)c(-c2ccc(O)c(O)c2)oc2cc(O)ccc12
REMARK SMILES IDX 5 1 3 2 2 3 1 4 21 5 15 6 14 7 16 8 17 9 19 10 20 11 6 12
REMARK SMILES IDX 7 13 8 14 9 15 13 16 11 17 10 18 12 20 4 22 18 24
REMARK H PARENT 10 19 12 21 4 23 18 25
REMARK Flexibility Score: inf
ROOT
ATOM      1  C   UNL     1      26.636  24.971 -12.692  1.00  0.00     0.180 A 
ATOM      2  C   UNL     1      26.395  25.352 -14.029  1.00  0.00     0.208 A 
ATOM      3  C   UNL     1      26.321  26.719 -14.340  1.00  0.00     0.235 A 
ATOM      4  O   UNL     1      26.096  27.085 -15.526  1.00  0.00    -0.285 OA
ATOM      5  C   UNL     1      26.507  27.669 -13.323  1.00  0.00     0.069 A 
ATOM      6  C   UNL     1      26.767  27.207 -12.015  1.00  0.00     0.142 A 
ATOM      7  O   UNL     1      26.820  25.905 -11.761  1.00  0.00    -0.452 OA
ATOM      8  C   UNL     1      26.967  28.123 -10.977  1.00  0.00     0.094 A 
ATOM      9  C   UNL     1      26.910  29.498 -11.227  1.00  0.00     0.119 A 
ATOM     10  C   UNL     1      26.649  29.960 -12.524  1.00  0.00     0.047 A 
ATOM     11  C   UNL     1      26.449  29.054 -13.570  1.00  0.00     0.020 A 
ENDROOT
BRANCH   1  12
ATOM     12  C   UNL     1      26.710  23.550 -12.281  1.00  0.00     0.025 A 
ATOM     13  C   UNL     1      25.541  22.780 -12.248  1.00  0.00     0.016 A 
ATOM     14  C   UNL     1      25.591  21.434 -11.882  1.00  0.00     0.051 A 
ATOM     15  C   UNL     1      26.809  20.828 -11.558  1.00  0.00     0.157 A 
ATOM     16  C   UNL     1      27.939  22.939 -11.978  1.00  0.00     0.062 A 
ATOM     17  C   UNL     1      28.000  21.588 -11.613  1.00  0.00     0.158 A 
BRANCH  15  18
ATOM     18  O   UNL     1      26.790  19.480 -11.193  1.00  0.00    -0.504 OA
ATOM     19  H   UNL     1      26.079  18.825 -11.490  1.00  0.00     0.293 HD
ENDBRANCH  15  18
BRANCH  17  20
ATOM     20  O   UNL     1      29.255  21.048 -11.323  1.00  0.00    -0.504 OA
ATOM     21  H   UNL     1      29.580  20.845 -10.389  1.00  0.00     0.293 HD
ENDBRANCH  17  20
ENDBRANCH   1  12
BRANCH   2  22
ATOM     22  O   UNL     1      26.264  24.385 -15.028  1.00  0.00    -0.502 OA
ATOM     23  H   UNL     1      25.650  24.508 -15.824  1.00  0.00     0.293 HD
ENDBRANCH   2  22
BRANCH   9  24
ATOM     24  O   UNL     1      27.111  30.396 -10.181  1.00  0.00    -0.508 OA
ATOM     25  H   UNL     1      27.231  31.387 -10.350  1.00  0.00     0.293 HD
ENDBRANCH   9  24
TORSDOF 5
ENDMDL
MODEL 2
REMARK VINA RESULT:    -6.151      6.165      7.450
REMARK INTER + INTRA:          -7.462
REMARK INTER:                  -7.506
REMARK INTRA:                   0.043
REMARK UNBOUND:                -0.232
REMARK SMILES O=c1c(O)c(-c2ccc(O)c(O)c2)oc2cc(O)ccc12
REMARK SMILES IDX 5 1 3 2 2 3 1 4 21 5 15 6 14 7 16 8 17 9 19 10 20 11 6 12
REMARK SMILES IDX 7 13 8 14 9 15 13 16 11 17 10 18 12 20 4 22 18 24
REMARK H PARENT 10 19 12 21 4 23 18 25
REMARK Flexibility Score: inf
ROOT
ATOM      1  C   UNL     1      25.166  30.666 -13.519  1.00  0.00     0.180 A 
ATOM      2  C   UNL     1      24.938  31.552 -14.592  1.00  0.00     0.208 A 
ATOM      3  C   UNL     1      23.654  31.614 -15.157  1.00  0.00     0.235 A 
ATOM      4  O   UNL     1      23.428  32.391 -16.125  1.00  0.00    -0.285 OA
ATOM      5  C   UNL     1      22.629  30.812 -14.630  1.00  0.00     0.069 A 
ATOM      6  C   UNL     1      22.933  29.969 -13.539  1.00  0.00     0.142 A 
ATOM      7  O   UNL     1      24.162  29.934 -13.040  1.00  0.00    -0.452 OA
ATOM      8  C   UNL     1      21.936  29.163 -12.981  1.00  0.00     0.094 A 
ATOM      9  C   UNL     1      20.636  29.185 -13.498  1.00  0.00     0.119 A 
ATOM     10  C   UNL     1      20.332  30.020 -14.582  1.00  0.00     0.047 A 
ATOM     11  C   UNL     1      21.321  30.831 -15.148  1.00  0.00     0.020 A 
ENDROOT
BRANCH   1  12
ATOM     12  C   UNL     1      26.496  30.529 -12.881  1.00  0.00     0.025 A 
ATOM     13  C   UNL     1      27.631  30.358 -13.684  1.00  0.00     0.016 A 
ATOM     14  C   UNL     1      28.896  30.247 -13.105  1.00  0.00     0.051 A 
ATOM     15  C   UNL     1      29.055  30.320 -11.717  1.00  0.00     0.157 A 
ATOM     16  C   UNL     1      26.653  30.626 -11.488  1.00  0.00     0.062 A 
ATOM     17  C   UNL     1      27.919  30.518 -10.898  1.00  0.00     0.158 A 
BRANCH  15  18
ATOM     18  O   UNL     1      30.346  30.194 -11.201  1.00  0.00    -0.504 OA
ATOM     19  H   UNL     1      30.958  30.976 -11.013  1.00  0.00     0.293 HD
ENDBRANCH  15  18
BRANCH  17  20
ATOM     20  O   UNL     1      28.001  30.621  -9.508  1.00  0.00    -0.504 OA
ATOM     21  H   UNL     1      28.134  29.833  -8.890  1.00  0.00     0.293 HD
ENDBRANCH  17  20
ENDBRANCH   1  12
BRANCH   2  22
ATOM     22  O   UNL     1      25.965  32.374 -15.063  1.00  0.00    -0.502 OA
ATOM     23  H   UNL     1      25.966  32.758 -15.999  1.00  0.00     0.293 HD
ENDBRANCH   2  22
BRANCH   9  24
ATOM     24  O   UNL     1      19.656  28.375 -12.930  1.00  0.00    -0.508 OA
ATOM     25  H   UNL     1      19.864  27.433 -12.618  1.00  0.00     0.293 HD
ENDBRANCH   9  24
TORSDOF 5
ENDMDL
MODEL 3
REMARK VINA RESULT:    -5.856      2.489      7.193
REMARK INTER + INTRA:          -7.115
REMARK INTER:                  -6.807
REMARK INTRA:                  -0.307
REMARK UNBOUND:                -0.232
REMARK SMILES O=c1c(O)c(-c2ccc(O)c(O)c2)oc2cc(O)ccc12
REMARK SMILES IDX 5 1 3 2 2 3 1 4 21 5 15 6 14 7 16 8 17 9 19 10 20 11 6 12
REMARK SMILES IDX 7 13 8 14 9 15 13 16 11 17 10 18 12 20 4 22 18 24
REMARK H PARENT 10 19 12 21 4 23 18 25
REMARK Flexibility Score: inf
ROOT
ATOM      1  C   UNL     1      25.170  27.638 -14.054  1.00  0.00     0.180 A 
ATOM      2  C   UNL     1      24.367  26.981 -15.011  1.00  0.00     0.208 A 
ATOM      3  C   UNL     1      24.597  25.620 -15.266  1.00  0.00     0.235 A 
ATOM      4  O   UNL     1      23.900  25.012 -16.125  1.00  0.00    -0.285 OA
ATOM      5  C   UNL     1      25.601  24.944 -14.553  1.00  0.00     0.069 A 
ATOM      6  C   UNL     1      26.344  25.667 -13.596  1.00  0.00     0.142 A 
ATOM      7  O   UNL     1      26.101  26.956 -13.391  1.00  0.00    -0.452 OA
ATOM      8  C   UNL     1      27.345  25.026 -12.859  1.00  0.00     0.094 A 
ATOM      9  C   UNL     1      27.616  23.669 -13.066  1.00  0.00     0.119 A 
ATOM     10  C   UNL     1      26.881  22.949 -14.018  1.00  0.00     0.047 A 
ATOM     11  C   UNL     1      25.877  23.579 -14.759  1.00  0.00     0.020 A 
ENDROOT
BRANCH   1  12
ATOM     12  C   UNL     1      25.002  29.076 -13.742  1.00  0.00     0.025 A 
ATOM     13  C   UNL     1      24.320  29.453 -12.578  1.00  0.00     0.016 A 
ATOM     14  C   UNL     1      24.168  30.802 -12.254  1.00  0.00     0.051 A 
ATOM     15  C   UNL     1      24.704  31.799 -13.076  1.00  0.00     0.157 A 
ATOM     16  C   UNL     1      25.562  30.073 -14.559  1.00  0.00     0.062 A 
ATOM     17  C   UNL     1      25.417  31.429 -14.241  1.00  0.00     0.158 A 
BRANCH  15  18
ATOM     18  O   UNL     1      24.510  33.129 -12.700  1.00  0.00    -0.504 OA
ATOM     19  H   UNL     1      23.744  33.446 -12.122  1.00  0.00     0.293 HD
ENDBRANCH  15  18
BRANCH  17  20
ATOM     20  O   UNL     1      25.997  32.365 -15.098  1.00  0.00    -0.504 OA
ATOM     21  H   UNL     1      25.536  33.208 -15.410  1.00  0.00     0.293 HD
ENDBRANCH  17  20
ENDBRANCH   1  12
BRANCH   2  22
ATOM     22  O   UNL     1      23.344  27.668 -15.668  1.00  0.00    -0.502 OA
ATOM     23  H   UNL     1      23.525  28.306 -16.433  1.00  0.00     0.293 HD
ENDBRANCH   2  22
BRANCH   9  24
ATOM     24  O   UNL     1      28.617  23.047 -12.323  1.00  0.00    -0.508 OA
ATOM     25  H   UNL     1      29.531  22.861 -12.719  1.00  0.00     0.293 HD
ENDBRANCH   9  24
TORSDOF 5
ENDMDL
MODEL 4
REMARK VINA RESULT:    -5.833      1.323      6.519
REMARK INTER + INTRA:          -7.088
REMARK INTER:                  -6.934
REMARK INTRA:                  -0.154
REMARK UNBOUND:                -0.232
REMARK SMILES O=c1c(O)c(-c2ccc(O)c(O)c2)oc2cc(O)ccc12
REMARK SMILES IDX 5 1 3 2 2 3 1 4 21 5 15 6 14 7 16 8 17 9 19 10 20 11 6 12
REMARK SMILES IDX 7 13 8 14 9 15 13 16 11 17 10 18 12 20 4 22 18 24
REMARK H PARENT 10 19 12 21 4 23 18 25
REMARK Flexibility Score: inf
ROOT
ATOM      1  C   UNL     1      26.635  26.327 -12.399  1.00  0.00     0.180 A 
ATOM      2  C   UNL     1      25.911  26.218 -13.605  1.00  0.00     0.208 A 
ATOM      3  C   UNL     1      25.636  24.940 -14.115  1.00  0.00     0.235 A 
ATOM      4  O   UNL     1      25.000  24.816 -15.198  1.00  0.00    -0.285 OA
ATOM      5  C   UNL     1      26.068  23.806 -13.407  1.00  0.00     0.069 A 
ATOM      6  C   UNL     1      26.765  24.000 -12.196  1.00  0.00     0.142 A 
ATOM      7  O   UNL     1      27.013  25.226 -11.752  1.00  0.00    -0.452 OA
ATOM      8  C   UNL     1      27.202  22.895 -11.457  1.00  0.00     0.094 A 
ATOM      9  C   UNL     1      26.953  21.597 -11.913  1.00  0.00     0.119 A 
ATOM     10  C   UNL     1      26.262  21.402 -13.117  1.00  0.00     0.047 A 
ATOM     11  C   UNL     1      25.820  22.498 -13.863  1.00  0.00     0.020 A 
ENDROOT
BRANCH   1  12
ATOM     12  C   UNL     1      26.980  27.639 -11.805  1.00  0.00     0.025 A 
ATOM     13  C   UNL     1      26.531  27.952 -10.516  1.00  0.00     0.016 A 
ATOM     14  C   UNL     1      26.862  29.175  -9.930  1.00  0.00     0.051 A 
ATOM     15  C   UNL     1      27.658  30.101 -10.612  1.00  0.00     0.157 A 
ATOM     16  C   UNL     1      27.799  28.557 -12.485  1.00  0.00     0.062 A 
ATOM     17  C   UNL     1      28.139  29.786 -11.904  1.00  0.00     0.158 A 
BRANCH  15  18
ATOM     18  O   UNL     1      27.946  31.309  -9.972  1.00  0.00    -0.504 OA
ATOM     19  H   UNL     1      27.329  31.759  -9.311  1.00  0.00     0.293 HD
ENDBRANCH  15  18
BRANCH  17  20
ATOM     20  O   UNL     1      28.955  30.650 -12.637  1.00  0.00    -0.504 OA
ATOM     21  H   UNL     1      28.759  31.632 -12.773  1.00  0.00     0.293 HD
ENDBRANCH  17  20
ENDBRANCH   1  12
BRANCH   2  22
ATOM     22  O   UNL     1      25.452  27.363 -14.261  1.00  0.00    -0.502 OA
ATOM     23  H   UNL     1      26.077  28.099 -14.566  1.00  0.00     0.293 HD
ENDBRANCH   2  22
BRANCH   9  24
ATOM     24  O   UNL     1      27.396  20.509 -11.165  1.00  0.00    -0.508 OA
ATOM     25  H   UNL     1      27.999  19.800 -11.567  1.00  0.00     0.293 HD
ENDBRANCH   9  24
TORSDOF 5
ENDMDL
MODEL 5
REMARK VINA RESULT:    -5.781     15.653     16.415
REMARK INTER + INTRA:          -7.027
REMARK INTER:                  -7.076
REMARK INTRA:                   0.049
REMARK UNBOUND:                -0.232
REMARK SMILES O=c1c(O)c(-c2ccc(O)c(O)c2)oc2cc(O)ccc12
REMARK SMILES IDX 5 1 3 2 2 3 1 4 21 5 15 6 14 7 16 8 17 9 19 10 20 11 6 12
REMARK SMILES IDX 7 13 8 14 9 15 13 16 11 17 10 18 12 20 4 22 18 24
REMARK H PARENT 10 19 12 21 4 23 18 25
REMARK Flexibility Score: inf
ROOT
ATOM      1  C   UNL     1      16.891  22.921  -0.181  1.00  0.00     0.180 A 
ATOM      2  C   UNL     1      17.448  24.162   0.195  1.00  0.00     0.208 A 
ATOM      3  C   UNL     1      16.835  25.342  -0.254  1.00  0.00     0.235 A 
ATOM      4  O   UNL     1      17.321  26.464   0.059  1.00  0.00    -0.285 OA
ATOM      5  C   UNL     1      15.679  25.261  -1.047  1.00  0.00     0.069 A 
ATOM      6  C   UNL     1      15.170  23.982  -1.359  1.00  0.00     0.142 A 
ATOM      7  O   UNL     1      15.785  22.890  -0.922  1.00  0.00    -0.452 OA
ATOM      8  C   UNL     1      14.014  23.861  -2.137  1.00  0.00     0.094 A 
ATOM      9  C   UNL     1      13.357  25.002  -2.610  1.00  0.00     0.119 A 
ATOM     10  C   UNL     1      13.861  26.273  -2.303  1.00  0.00     0.047 A 
ATOM     11  C   UNL     1      15.015  26.406  -1.525  1.00  0.00     0.020 A 
ENDROOT
BRANCH   1  12
ATOM     12  C   UNL     1      17.489  21.632   0.237  1.00  0.00     0.025 A 
ATOM     13  C   UNL     1      18.867  21.431   0.088  1.00  0.00     0.016 A 
ATOM     14  C   UNL     1      19.454  20.231   0.494  1.00  0.00     0.051 A 
ATOM     15  C   UNL     1      18.681  19.217   1.069  1.00  0.00     0.157 A 
ATOM     16  C   UNL     1      16.712  20.625   0.835  1.00  0.00     0.062 A 
ATOM     17  C   UNL     1      17.292  19.419   1.248  1.00  0.00     0.158 A 
BRANCH  15  18
ATOM     18  O   UNL     1      19.328  18.039   1.446  1.00  0.00    -0.504 OA
ATOM     19  H   UNL     1      20.321  17.882   1.344  1.00  0.00     0.293 HD
ENDBRANCH  15  18
BRANCH  17  20
ATOM     20  O   UNL     1      16.460  18.462   1.832  1.00  0.00    -0.504 OA
ATOM     21  H   UNL     1      16.671  17.982   2.696  1.00  0.00     0.293 HD
ENDBRANCH  17  20
ENDBRANCH   1  12
BRANCH   2  22
ATOM     22  O   UNL     1      18.571  24.211   1.025  1.00  0.00    -0.502 OA
ATOM     23  H   UNL     1      19.160  25.032   1.089  1.00  0.00     0.293 HD
ENDBRANCH   2  22
BRANCH   9  24
ATOM     24  O   UNL     1      12.208  24.861  -3.384  1.00  0.00    -0.508 OA
ATOM     25  H   UNL     1      11.403  25.462  -3.250  1.00  0.00     0.293 HD
ENDBRANCH   9  24
TORSDOF 5
ENDMDL
MODEL 6
REMARK VINA RESULT:    -5.742     14.272     16.669
REMARK INTER + INTRA:          -6.981
REMARK INTER:                  -6.662
REMARK INTRA:                  -0.319
REMARK UNBOUND:                -0.232
REMARK SMILES O=c1c(O)c(-c2ccc(O)c(O)c2)oc2cc(O)ccc12
REMARK SMILES IDX 5 1 3 2 2 3 1 4 21 5 15 6 14 7 16 8 17 9 19 10 20 11 6 12
REMARK SMILES IDX 7 13 8 14 9 15 13 16 11 17 10 18 12 20 4 22 18 24
REMARK H PARENT 10 19 12 21 4 23 18 25
REMARK Flexibility Score: inf
ROOT
ATOM      1  C   UNL     1      21.226  19.332   0.948  1.00  0.00     0.180 A 
ATOM      2  C   UNL     1      22.082  19.693   2.009  1.00  0.00     0.208 A 
ATOM      3  C   UNL     1      23.418  19.266   1.977  1.00  0.00     0.235 A 
ATOM      4  O   UNL     1      24.201  19.567   2.920  1.00  0.00    -0.285 OA
ATOM      5  C   UNL     1      23.874  18.510   0.885  1.00  0.00     0.069 A 
ATOM      6  C   UNL     1      22.962  18.210  -0.149  1.00  0.00     0.142 A 
ATOM      7  O   UNL     1      21.703  18.626  -0.076  1.00  0.00    -0.452 OA
ATOM      8  C   UNL     1      23.381  17.467  -1.258  1.00  0.00     0.094 A 
ATOM      9  C   UNL     1      24.703  17.018  -1.348  1.00  0.00     0.119 A 
ATOM     10  C   UNL     1      25.611  17.312  -0.322  1.00  0.00     0.047 A 
ATOM     11  C   UNL     1      25.203  18.055   0.790  1.00  0.00     0.020 A 
ENDROOT
BRANCH   1  12
ATOM     12  C   UNL     1      19.800  19.728   0.918  1.00  0.00     0.025 A 
ATOM     13  C   UNL     1      19.435  20.948   0.332  1.00  0.00     0.016 A 
ATOM     14  C   UNL     1      18.094  21.331   0.276  1.00  0.00     0.051 A 
ATOM     15  C   UNL     1      17.092  20.501   0.787  1.00  0.00     0.157 A 
ATOM     16  C   UNL     1      18.793  18.881   1.412  1.00  0.00     0.062 A 
ATOM     17  C   UNL     1      17.445  19.256   1.358  1.00  0.00     0.158 A 
BRANCH  15  18
ATOM     18  O   UNL     1      15.771  20.948   0.707  1.00  0.00    -0.504 OA
ATOM     19  H   UNL     1      14.976  20.338   0.577  1.00  0.00     0.293 HD
ENDBRANCH  15  18
BRANCH  17  20
ATOM     20  O   UNL     1      16.500  18.366   1.870  1.00  0.00    -0.504 OA
ATOM     21  H   UNL     1      16.723  17.600   2.491  1.00  0.00     0.293 HD
ENDBRANCH  17  20
ENDBRANCH   1  12
BRANCH   2  22
ATOM     22  O   UNL     1      21.612  20.488   3.058  1.00  0.00    -0.502 OA
ATOM     23  H   UNL     1      21.349  21.457   2.927  1.00  0.00     0.293 HD
ENDBRANCH   2  22
BRANCH   9  24
ATOM     24  O   UNL     1      25.103  16.279  -2.460  1.00  0.00    -0.508 OA
ATOM     25  H   UNL     1      25.571  15.386  -2.361  1.00  0.00     0.293 HD
ENDBRANCH   9  24
TORSDOF 5
ENDMDL
MODEL 7
REMARK VINA RESULT:    -5.598      2.598      6.489
REMARK INTER + INTRA:          -6.812
REMARK INTER:                  -6.492
REMARK INTRA:                  -0.320
REMARK UNBOUND:                -0.232
REMARK SMILES O=c1c(O)c(-c2ccc(O)c(O)c2)oc2cc(O)ccc12
REMARK SMILES IDX 5 1 3 2 2 3 1 4 21 5 15 6 14 7 16 8 17 9 19 10 20 11 6 12
REMARK SMILES IDX 7 13 8 14 9 15 13 16 11 17 10 18 12 20 4 22 18 24
REMARK H PARENT 10 19 12 21 4 23 18 25
REMARK Flexibility Score: inf
ROOT
ATOM      1  C   UNL     1      26.616  26.538 -12.260  1.00  0.00     0.180 A 
ATOM      2  C   UNL     1      27.155  25.379 -12.857  1.00  0.00     0.208 A 
ATOM      3  C   UNL     1      27.056  24.157 -12.173  1.00  0.00     0.235 A 
ATOM      4  O   UNL     1      27.540  23.109 -12.682  1.00  0.00    -0.285 OA
ATOM      5  C   UNL     1      26.409  24.114 -10.928  1.00  0.00     0.069 A 
ATOM      6  C   UNL     1      25.875  25.313 -10.409  1.00  0.00     0.142 A 
ATOM      7  O   UNL     1      25.998  26.450 -11.084  1.00  0.00    -0.452 OA
ATOM      8  C   UNL     1      25.215  25.309  -9.176  1.00  0.00     0.094 A 
ATOM      9  C   UNL     1      25.081  24.120  -8.451  1.00  0.00     0.119 A 
ATOM     10  C   UNL     1      25.612  22.928  -8.962  1.00  0.00     0.047 A 
ATOM     11  C   UNL     1      26.273  22.921 -10.194  1.00  0.00     0.020 A 
ENDROOT
BRANCH   1  12
ATOM     12  C   UNL     1      26.696  27.867 -12.909  1.00  0.00     0.025 A 
ATOM     13  C   UNL     1      25.674  28.273 -13.776  1.00  0.00     0.016 A 
ATOM     14  C   UNL     1      25.720  29.530 -14.383  1.00  0.00     0.051 A 
ATOM     15  C   UNL     1      26.777  30.409 -14.125  1.00  0.00     0.157 A 
ATOM     16  C   UNL     1      27.748  28.756 -12.629  1.00  0.00     0.062 A 
ATOM     17  C   UNL     1      27.801  30.020 -13.231  1.00  0.00     0.158 A 
BRANCH  15  18
ATOM     18  O   UNL     1      26.767  31.647 -14.770  1.00  0.00    -0.504 OA
ATOM     19  H   UNL     1      25.999  31.983 -15.335  1.00  0.00     0.293 HD
ENDBRANCH  15  18
BRANCH  17  20
ATOM     20  O   UNL     1      28.877  30.850 -12.909  1.00  0.00    -0.504 OA
ATOM     21  H   UNL     1      29.798  30.513 -12.668  1.00  0.00     0.293 HD
ENDBRANCH  17  20
ENDBRANCH   1  12
BRANCH   2  22
ATOM     22  O   UNL     1      27.749  25.445 -14.120  1.00  0.00    -0.502 OA
ATOM     23  H   UNL     1      27.475  24.834 -14.879  1.00  0.00     0.293 HD
ENDBRANCH   2  22
BRANCH   9  24
ATOM     24  O   UNL     1      24.421  24.135  -7.224  1.00  0.00    -0.508 OA
ATOM     25  H   UNL     1      24.879  24.462  -6.381  1.00  0.00     0.293 HD
ENDBRANCH   9  24
TORSDOF 5
ENDMDL
MODEL 8
REMARK VINA RESULT:    -5.495      4.699      7.896
REMARK INTER + INTRA:          -6.692
REMARK INTER:                  -6.405
REMARK INTRA:                  -0.287
REMARK UNBOUND:                -0.232
REMARK SMILES O=c1c(O)c(-c2ccc(O)c(O)c2)oc2cc(O)ccc12
REMARK SMILES IDX 5 1 3 2 2 3 1 4 21 5 15 6 14 7 16 8 17 9 19 10 20 11 6 12
REMARK SMILES IDX 7 13 8 14 9 15 13 16 11 17 10 18 12 20 4 22 18 24
REMARK H PARENT 10 19 12 21 4 23 18 25
REMARK Flexibility Score: inf
ROOT
ATOM      1  C   UNL     1      25.534  29.417 -10.911  1.00  0.00     0.180 A 
ATOM      2  C   UNL     1      26.546  29.526  -9.934  1.00  0.00     0.208 A 
ATOM      3  C   UNL     1      26.544  28.627  -8.856  1.00  0.00     0.235 A 
ATOM      4  O   UNL     1      27.432  28.711  -7.964  1.00  0.00    -0.285 OA
ATOM      5  C   UNL     1      25.553  27.635  -8.786  1.00  0.00     0.069 A 
ATOM      6  C   UNL     1      24.590  27.578  -9.816  1.00  0.00     0.142 A 
ATOM      7  O   UNL     1      24.621  28.453 -10.815  1.00  0.00    -0.452 OA
ATOM      8  C   UNL     1      23.593  26.597  -9.787  1.00  0.00     0.094 A 
ATOM      9  C   UNL     1      23.543  25.671  -8.740  1.00  0.00     0.119 A 
ATOM     10  C   UNL     1      24.497  25.727  -7.715  1.00  0.00     0.047 A 
ATOM     11  C   UNL     1      25.499  26.702  -7.735  1.00  0.00     0.020 A 
ENDROOT
BRANCH   1  12
ATOM     12  C   UNL     1      25.456  30.338 -12.069  1.00  0.00     0.025 A 
ATOM     13  C   UNL     1      24.590  31.438 -12.018  1.00  0.00     0.016 A 
ATOM     14  C   UNL     1      24.516  32.330 -13.089  1.00  0.00     0.051 A 
ATOM     15  C   UNL     1      25.315  32.150 -14.224  1.00  0.00     0.157 A 
ATOM     16  C   UNL     1      26.277  30.167 -13.197  1.00  0.00     0.062 A 
ATOM     17  C   UNL     1      26.212  31.058 -14.276  1.00  0.00     0.158 A 
BRANCH  15  18
ATOM     18  O   UNL     1      25.187  33.073 -15.264  1.00  0.00    -0.504 OA
ATOM     19  H   UNL     1      25.874  33.783 -15.476  1.00  0.00     0.293 HD
ENDBRANCH  15  18
BRANCH  17  20
ATOM     20  O   UNL     1      27.054  30.825 -15.364  1.00  0.00    -0.504 OA
ATOM     21  H   UNL     1      27.976  30.419 -15.288  1.00  0.00     0.293 HD
ENDBRANCH  17  20
ENDBRANCH   1  12
BRANCH   2  22
ATOM     22  O   UNL     1      27.547  30.492 -10.057  1.00  0.00    -0.502 OA
ATOM     23  H   UNL     1      27.746  30.958 -10.934  1.00  0.00     0.293 HD
ENDBRANCH   2  22
BRANCH   9  24
ATOM     24  O   UNL     1      22.542  24.702  -8.727  1.00  0.00    -0.508 OA
ATOM     25  H   UNL     1      22.351  24.150  -7.899  1.00  0.00     0.293 HD
ENDBRANCH   9  24
TORSDOF 5
ENDMDL
MODEL 9
REMARK VINA RESULT:    -5.426      2.827      4.328
REMARK INTER + INTRA:          -6.609
REMARK INTER:                  -6.321
REMARK INTRA:                  -0.288
REMARK UNBOUND:                -0.232
REMARK SMILES O=c1c(O)c(-c2ccc(O)c(O)c2)oc2cc(O)ccc12
REMARK SMILES IDX 5 1 3 2 2 3 1 4 21 5 15 6 14 7 16 8 17 9 19 10 20 11 6 12
REMARK SMILES IDX 7 13 8 14 9 15 13 16 11 17 10 18 12 20 4 22 18 24
REMARK H PARENT 10 19 12 21 4 23 18 25
REMARK Flexibility Score: inf
ROOT
ATOM      1  C   UNL     1      25.840  27.916 -13.535  1.00  0.00     0.180 A 
ATOM      2  C   UNL     1      26.806  28.943 -13.482  1.00  0.00     0.208 A 
ATOM      3  C   UNL     1      26.419  30.252 -13.810  1.00  0.00     0.235 A 
ATOM      4  O   UNL     1      27.267  31.186 -13.781  1.00  0.00    -0.285 OA
ATOM      5  C   UNL     1      25.085  30.510 -14.161  1.00  0.00     0.069 A 
ATOM      6  C   UNL     1      24.174  29.432 -14.167  1.00  0.00     0.142 A 
ATOM      7  O   UNL     1      24.581  28.207 -13.859  1.00  0.00    -0.452 OA
ATOM      8  C   UNL     1      22.833  29.652 -14.502  1.00  0.00     0.094 A 
ATOM      9  C   UNL     1      22.389  30.936 -14.833  1.00  0.00     0.119 A 
ATOM     10  C   UNL     1      23.291  32.008 -14.830  1.00  0.00     0.047 A 
ATOM     11  C   UNL     1      24.633  31.801 -14.496  1.00  0.00     0.020 A 
ENDROOT
BRANCH   1  12
ATOM     12  C   UNL     1      26.172  26.507 -13.222  1.00  0.00     0.025 A 
ATOM     13  C   UNL     1      26.224  26.092 -11.885  1.00  0.00     0.016 A 
ATOM     14  C   UNL     1      26.516  24.764 -11.568  1.00  0.00     0.051 A 
ATOM     15  C   UNL     1      26.747  23.824 -12.577  1.00  0.00     0.157 A 
ATOM     16  C   UNL     1      26.381  25.560 -14.239  1.00  0.00     0.062 A 
ATOM     17  C   UNL     1      26.672  24.225 -13.931  1.00  0.00     0.158 A 
BRANCH  15  18
ATOM     18  O   UNL     1      27.042  22.514 -12.192  1.00  0.00    -0.504 OA
ATOM     19  H   UNL     1      26.523  21.704 -12.502  1.00  0.00     0.293 HD
ENDBRANCH  15  18
BRANCH  17  20
ATOM     20  O   UNL     1      26.870  23.340 -14.992  1.00  0.00    -0.504 OA
ATOM     21  H   UNL     1      26.197  23.183 -15.730  1.00  0.00     0.293 HD
ENDBRANCH  17  20
ENDBRANCH   1  12
BRANCH   2  22
ATOM     22  O   UNL     1      28.115  28.664 -13.082  1.00  0.00    -0.502 OA
ATOM     23  H   UNL     1      28.751  28.119 -13.651  1.00  0.00     0.293 HD
ENDBRANCH   2  22
BRANCH   9  24
ATOM     24  O   UNL     1      21.051  31.135 -15.164  1.00  0.00    -0.508 OA
ATOM     25  H   UNL     1      20.750  31.211 -16.129  1.00  0.00     0.293 HD
ENDBRANCH   9  24
TORSDOF 5
ENDMDL
