MODEL 1
REMARK VINA RESULT:    -3.903      0.000      0.000
REMARK INTER + INTRA:          -5.844
REMARK INTER:                  -5.272
REMARK INTRA:                  -0.572
REMARK UNBOUND:                -0.572
REMARK SMILES CCCCCCC=CC(=O)[O-]
REMARK SMILES IDX 5 1 6 2 7 3 8 4 9 5 10 6 11 7 4 8 3 9 2 10 1 11
REMARK H PARENT
REMARK Flexibility Score: inf
ROOT
ATOM      1  C   UNL     1     -44.105  28.669  -0.650  1.00  0.00     0.004 C 
ENDROOT
BRANCH   1   2
ATOM      2  C   UNL     1     -43.022  27.887   0.106  1.00  0.00     0.027 C 
BRANCH   2   3
ATOM      3  C   UNL     1     -42.727  28.517   1.440  1.00  0.00    -0.025 C 
ATOM      4  C   UNL     1     -43.366  28.260   2.593  1.00  0.00     0.020 C 
BRANCH   4   5
ATOM      5  C   UNL     1     -44.457  27.284   2.798  1.00  0.00     0.064 C 
ATOM      6  O   UNL     1     -45.652  27.543   2.502  1.00  0.00    -0.545 OA
ATOM      7  O   UNL     1     -44.149  26.032   3.315  1.00  0.00    -0.545 OA
ENDBRANCH   4   5
ENDBRANCH   2   3
ENDBRANCH   1   2
BRANCH   1   8
ATOM      8  C   UNL     1     -45.282  27.759  -1.021  1.00  0.00     0.000 C 
BRANCH   8   9
ATOM      9  C   UNL     1     -44.818  26.306  -1.201  1.00  0.00    -0.000 C 
BRANCH   9  10
ATOM     10  C   UNL     1     -45.750  25.498  -2.119  1.00  0.00    -0.003 C 
ATOM     11  C   UNL     1     -46.198  26.287  -3.348  1.00  0.00     0.004 C 
ENDBRANCH   9  10
ENDBRANCH   8   9
ENDBRANCH   1   8
TORSDOF 6
ENDMDL
MODEL 2
REMARK VINA RESULT:    -3.778      1.083      1.693
REMARK INTER + INTRA:          -5.674
REMARK INTER:                  -5.106
REMARK INTRA:                  -0.568
REMARK UNBOUND:                -0.572
REMARK SMILES CCCCCCC=CC(=O)[O-]
REMARK SMILES IDX 5 1 6 2 7 3 8 4 9 5 10 6 11 7 4 8 3 9 2 10 1 11
REMARK H PARENT
REMARK Flexibility Score: inf
ROOT
ATOM      1  C   UNL     1     -42.615  28.319   0.779  1.00  0.00     0.004 C 
ENDROOT
BRANCH   1   2
ATOM      2  C   UNL     1     -43.598  29.143   1.622  1.00  0.00     0.027 C 
BRANCH   2   3
ATOM      3  C   UNL     1     -43.207  29.138   3.075  1.00  0.00    -0.025 C 
ATOM      4  C   UNL     1     -43.659  28.287   4.010  1.00  0.00     0.020 C 
BRANCH   4   5
ATOM      5  C   UNL     1     -44.598  27.164   3.802  1.00  0.00     0.064 C 
ATOM      6  O   UNL     1     -45.819  27.249   4.093  1.00  0.00    -0.545 OA
ATOM      7  O   UNL     1     -44.118  25.984   3.248  1.00  0.00    -0.545 OA
ENDBRANCH   4   5
ENDBRANCH   2   3
ENDBRANCH   1   2
BRANCH   1   8
ATOM      8  C   UNL     1     -43.358  27.485  -0.272  1.00  0.00     0.000 C 
BRANCH   8   9
ATOM      9  C   UNL     1     -44.870  27.484  -0.004  1.00  0.00    -0.000 C 
BRANCH   9  10
ATOM     10  C   UNL     1     -45.691  27.138  -1.257  1.00  0.00    -0.003 C 
ATOM     11  C   UNL     1     -45.316  25.781  -1.854  1.00  0.00     0.004 C 
ENDBRANCH   9  10
ENDBRANCH   8   9
ENDBRANCH   1   8
TORSDOF 6
ENDMDL
MODEL 3
REMARK VINA RESULT:    -3.664      2.867      4.815
REMARK INTER + INTRA:          -5.520
REMARK INTER:                  -5.167
REMARK INTRA:                  -0.354
REMARK UNBOUND:                -0.572
REMARK SMILES CCCCCCC=CC(=O)[O-]
REMARK SMILES IDX 5 1 6 2 7 3 8 4 9 5 10 6 11 7 4 8 3 9 2 10 1 11
REMARK H PARENT
REMARK Flexibility Score: inf
ROOT
ATOM      1  C   UNL     1     -46.681  27.528  -4.776  1.00  0.00     0.004 C 
ENDROOT
BRANCH   1   2
ATOM      2  C   UNL     1     -46.340  27.517  -3.280  1.00  0.00     0.027 C 
BRANCH   2   3
ATOM      3  C   UNL     1     -45.928  26.143  -2.825  1.00  0.00    -0.025 C 
ATOM      4  C   UNL     1     -45.257  25.854  -1.698  1.00  0.00     0.020 C 
BRANCH   4   5
ATOM      5  C   UNL     1     -44.821  26.811  -0.659  1.00  0.00     0.064 C 
ATOM      6  O   UNL     1     -43.735  27.439  -0.741  1.00  0.00    -0.545 OA
ATOM      7  O   UNL     1     -45.651  27.039   0.431  1.00  0.00    -0.545 OA
ENDBRANCH   4   5
ENDBRANCH   2   3
ENDBRANCH   1   2
BRANCH   1   8
ATOM      8  C   UNL     1     -45.900  28.624  -5.510  1.00  0.00     0.000 C 
BRANCH   8   9
ATOM      9  C   UNL     1     -45.517  28.172  -6.927  1.00  0.00    -0.000 C 
BRANCH   9  10
ATOM     10  C   UNL     1     -45.597  26.646  -7.101  1.00  0.00    -0.003 C 
ATOM     11  C   UNL     1     -46.622  26.223  -8.153  1.00  0.00     0.004 C 
ENDBRANCH   9  10
ENDBRANCH   8   9
ENDBRANCH   1   8
TORSDOF 6
ENDMDL
MODEL 4
REMARK VINA RESULT:    -3.657      1.657      2.839
REMARK INTER + INTRA:          -5.512
REMARK INTER:                  -5.302
REMARK INTRA:                  -0.210
REMARK UNBOUND:                -0.572
REMARK SMILES CCCCCCC=CC(=O)[O-]
REMARK SMILES IDX 5 1 6 2 7 3 8 4 9 5 10 6 11 7 4 8 3 9 2 10 1 11
REMARK H PARENT
REMARK Flexibility Score: inf
ROOT
ATOM      1  C   UNL     1     -45.636  26.015  -2.231  1.00  0.00     0.004 C 
ENDROOT
BRANCH   1   2
ATOM      2  C   UNL     1     -45.504  26.777  -0.906  1.00  0.00     0.027 C 
BRANCH   2   3
ATOM      3  C   UNL     1     -44.063  27.069  -0.587  1.00  0.00    -0.025 C 
ATOM      4  C   UNL     1     -43.576  27.414   0.617  1.00  0.00     0.020 C 
BRANCH   4   5
ATOM      5  C   UNL     1     -44.341  27.539   1.876  1.00  0.00     0.064 C 
ATOM      6  O   UNL     1     -45.052  28.546   2.130  1.00  0.00    -0.545 OA
ATOM      7  O   UNL     1     -44.288  26.502   2.798  1.00  0.00    -0.545 OA
ENDBRANCH   4   5
ENDBRANCH   2   3
ENDBRANCH   1   2
BRANCH   1   8
ATOM      8  C   UNL     1     -46.513  26.786  -3.224  1.00  0.00     0.000 C 
BRANCH   8   9
ATOM      9  C   UNL     1     -46.140  26.438  -4.673  1.00  0.00    -0.000 C 
BRANCH   9  10
ATOM     10  C   UNL     1     -46.057  27.679  -5.576  1.00  0.00    -0.003 C 
ATOM     11  C   UNL     1     -45.605  27.348  -6.998  1.00  0.00     0.004 C 
ENDBRANCH   9  10
ENDBRANCH   8   9
ENDBRANCH   1   8
TORSDOF 6
ENDMDL
MODEL 5
REMARK VINA RESULT:    -3.541      2.929      4.273
REMARK INTER + INTRA:          -5.355
REMARK INTER:                  -4.994
REMARK INTRA:                  -0.361
REMARK UNBOUND:                -0.572
REMARK SMILES CCCCCCC=CC(=O)[O-]
REMARK SMILES IDX 5 1 6 2 7 3 8 4 9 5 10 6 11 7 4 8 3 9 2 10 1 11
REMARK H PARENT
REMARK Flexibility Score: inf
ROOT
ATOM      1  C   UNL     1     -43.497  28.575   3.202  1.00  0.00     0.004 C 
ENDROOT
BRANCH   1   2
ATOM      2  C   UNL     1     -44.472  28.418   4.377  1.00  0.00     0.027 C 
BRANCH   2   3
ATOM      3  C   UNL     1     -44.381  27.044   4.982  1.00  0.00    -0.025 C 
ATOM      4  C   UNL     1     -43.767  26.729   6.135  1.00  0.00     0.020 C 
BRANCH   4   5
ATOM      5  C   UNL     1     -43.094  27.664   7.061  1.00  0.00     0.064 C 
ATOM      6  O   UNL     1     -41.972  28.171   6.803  1.00  0.00    -0.545 OA
ATOM      7  O   UNL     1     -43.732  28.010   8.246  1.00  0.00    -0.545 OA
ENDBRANCH   4   5
ENDBRANCH   2   3
ENDBRANCH   1   2
BRANCH   1   8
ATOM      8  C   UNL     1     -43.657  27.426   2.199  1.00  0.00     0.000 C 
BRANCH   8   9
ATOM      9  C   UNL     1     -42.586  27.503   1.100  1.00  0.00    -0.000 C 
BRANCH   9  10
ATOM     10  C   UNL     1     -43.179  27.834  -0.279  1.00  0.00    -0.003 C 
ATOM     11  C   UNL     1     -44.416  26.999  -0.607  1.00  0.00     0.004 C 
ENDBRANCH   9  10
ENDBRANCH   8   9
ENDBRANCH   1   8
TORSDOF 6
ENDMDL
MODEL 6
REMARK VINA RESULT:    -3.501      1.211      1.650
REMARK INTER + INTRA:          -5.301
REMARK INTER:                  -4.488
REMARK INTRA:                  -0.813
REMARK UNBOUND:                -0.572
REMARK SMILES CCCCCCC=CC(=O)[O-]
REMARK SMILES IDX 5 1 6 2 7 3 8 4 9 5 10 6 11 7 4 8 3 9 2 10 1 11
REMARK H PARENT
REMARK Flexibility Score: inf
ROOT
ATOM      1  C   UNL     1     -43.807  29.763  -0.694  1.00  0.00     0.004 C 
ENDROOT
BRANCH   1   2
ATOM      2  C   UNL     1     -42.853  29.441   0.464  1.00  0.00     0.027 C 
BRANCH   2   3
ATOM      3  C   UNL     1     -42.568  27.966   0.541  1.00  0.00    -0.025 C 
ATOM      4  C   UNL     1     -43.038  27.119   1.472  1.00  0.00     0.020 C 
BRANCH   4   5
ATOM      5  C   UNL     1     -43.956  27.450   2.583  1.00  0.00     0.064 C 
ATOM      6  O   UNL     1     -45.147  27.047   2.609  1.00  0.00    -0.545 OA
ATOM      7  O   UNL     1     -43.480  28.212   3.642  1.00  0.00    -0.545 OA
ENDBRANCH   4   5
ENDBRANCH   2   3
ENDBRANCH   1   2
BRANCH   1   8
ATOM      8  C   UNL     1     -45.249  29.384  -0.339  1.00  0.00     0.000 C 
BRANCH   8   9
ATOM      9  C   UNL     1     -45.834  28.414  -1.376  1.00  0.00    -0.000 C 
BRANCH   9  10
ATOM     10  C   UNL     1     -45.946  26.977  -0.842  1.00  0.00    -0.003 C 
ATOM     11  C   UNL     1     -45.231  25.958  -1.728  1.00  0.00     0.004 C 
ENDBRANCH   9  10
ENDBRANCH   8   9
ENDBRANCH   1   8
TORSDOF 6
ENDMDL
MODEL 7
REMARK VINA RESULT:    -3.429      2.439      3.327
REMARK INTER + INTRA:          -5.203
REMARK INTER:                  -4.876
REMARK INTRA:                  -0.327
REMARK UNBOUND:                -0.572
REMARK SMILES CCCCCCC=CC(=O)[O-]
REMARK SMILES IDX 5 1 6 2 7 3 8 4 9 5 10 6 11 7 4 8 3 9 2 10 1 11
REMARK H PARENT
REMARK Flexibility Score: inf
ROOT
ATOM      1  C   UNL     1     -43.184  27.221   1.765  1.00  0.00     0.004 C 
ENDROOT
BRANCH   1   2
ATOM      2  C   UNL     1     -43.372  28.304   2.836  1.00  0.00     0.027 C 
BRANCH   2   3
ATOM      3  C   UNL     1     -44.340  27.859   3.898  1.00  0.00    -0.025 C 
ATOM      4  C   UNL     1     -44.180  28.007   5.223  1.00  0.00     0.020 C 
BRANCH   4   5
ATOM      5  C   UNL     1     -43.049  28.668   5.907  1.00  0.00     0.064 C 
ATOM      6  O   UNL     1     -42.220  28.027   6.604  1.00  0.00    -0.545 OA
ATOM      7  O   UNL     1     -42.883  30.039   5.757  1.00  0.00    -0.545 OA
ENDBRANCH   4   5
ENDBRANCH   2   3
ENDBRANCH   1   2
BRANCH   1   8
ATOM      8  C   UNL     1     -42.708  27.832   0.442  1.00  0.00     0.000 C 
BRANCH   8   9
ATOM      9  C   UNL     1     -43.880  28.011  -0.535  1.00  0.00    -0.000 C 
BRANCH   9  10
ATOM     10  C   UNL     1     -44.944  26.911  -0.386  1.00  0.00    -0.003 C 
ATOM     11  C   UNL     1     -45.187  26.144  -1.686  1.00  0.00     0.004 C 
ENDBRANCH   9  10
ENDBRANCH   8   9
ENDBRANCH   1   8
TORSDOF 6
ENDMDL
MODEL 8
REMARK VINA RESULT:    -3.367      2.350      5.434
REMARK INTER + INTRA:          -5.119
REMARK INTER:                  -4.790
REMARK INTRA:                  -0.330
REMARK UNBOUND:                -0.572
REMARK SMILES CCCCCCC=CC(=O)[O-]
REMARK SMILES IDX 5 1 6 2 7 3 8 4 9 5 10 6 11 7 4 8 3 9 2 10 1 11
REMARK H PARENT
REMARK Flexibility Score: inf
ROOT
ATOM      1  C   UNL     1     -43.632  28.337   2.710  1.00  0.00     0.004 C 
ENDROOT
BRANCH   1   2
ATOM      2  C   UNL     1     -42.983  27.337   1.743  1.00  0.00     0.027 C 
BRANCH   2   3
ATOM      3  C   UNL     1     -42.954  27.878   0.340  1.00  0.00    -0.025 C 
ATOM      4  C   UNL     1     -43.823  27.577  -0.640  1.00  0.00     0.020 C 
BRANCH   4   5
ATOM      5  C   UNL     1     -45.002  26.690  -0.533  1.00  0.00     0.064 C 
ATOM      6  O   UNL     1     -45.125  25.652  -1.232  1.00  0.00    -0.545 OA
ATOM      7  O   UNL     1     -45.995  27.004   0.386  1.00  0.00    -0.545 OA
ENDBRANCH   4   5
ENDBRANCH   2   3
ENDBRANCH   1   2
BRANCH   1   8
ATOM      8  C   UNL     1     -44.717  27.660   3.555  1.00  0.00     0.000 C 
BRANCH   8   9
ATOM      9  C   UNL     1     -44.164  27.235   4.924  1.00  0.00    -0.000 C 
BRANCH   9  10
ATOM     10  C   UNL     1     -43.509  28.400   5.682  1.00  0.00    -0.003 C 
ATOM     11  C   UNL     1     -42.797  27.950   6.958  1.00  0.00     0.004 C 
ENDBRANCH   9  10
ENDBRANCH   8   9
ENDBRANCH   1   8
TORSDOF 6
ENDMDL
MODEL 9
REMARK VINA RESULT:    -3.322      4.822      7.390
REMARK INTER + INTRA:          -5.059
REMARK INTER:                  -4.710
REMARK INTRA:                  -0.349
REMARK UNBOUND:                -0.572
REMARK SMILES CCCCCCC=CC(=O)[O-]
REMARK SMILES IDX 5 1 6 2 7 3 8 4 9 5 10 6 11 7 4 8 3 9 2 10 1 11
REMARK H PARENT
REMARK Flexibility Score: inf
ROOT
ATOM      1  C   UNL     1     -46.275  26.954  -3.999  1.00  0.00     0.004 C 
ENDROOT
BRANCH   1   2
ATOM      2  C   UNL     1     -46.945  26.596  -5.333  1.00  0.00     0.027 C 
BRANCH   2   3
ATOM      3  C   UNL     1     -45.923  26.352  -6.408  1.00  0.00    -0.025 C 
ATOM      4  C   UNL     1     -45.438  27.270  -7.260  1.00  0.00     0.020 C 
BRANCH   4   5
ATOM      5  C   UNL     1     -45.777  28.709  -7.293  1.00  0.00     0.064 C 
ATOM      6  O   UNL     1     -46.588  29.187  -8.127  1.00  0.00    -0.545 OA
ATOM      7  O   UNL     1     -45.195  29.556  -6.358  1.00  0.00    -0.545 OA
ENDBRANCH   4   5
ENDBRANCH   2   3
ENDBRANCH   1   2
BRANCH   1   8
ATOM      8  C   UNL     1     -46.646  25.942  -2.908  1.00  0.00     0.000 C 
BRANCH   8   9
ATOM      9  C   UNL     1     -45.476  25.730  -1.936  1.00  0.00    -0.000 C 
BRANCH   9  10
ATOM     10  C   UNL     1     -45.408  26.814  -0.849  1.00  0.00    -0.003 C 
ATOM     11  C   UNL     1     -43.979  27.272  -0.558  1.00  0.00     0.004 C 
ENDBRANCH   9  10
ENDBRANCH   8   9
ENDBRANCH   1   8
TORSDOF 6
ENDMDL
