MODEL 1
REMARK VINA RESULT:    -4.377      0.000      0.000
REMARK INTER + INTRA:          -5.794
REMARK INTER:                  -5.657
REMARK INTRA:                  -0.137
REMARK UNBOUND:                -0.137
REMARK SMILES C=CC(=O)CCCCC
REMARK SMILES IDX 6 1 7 2 8 3 9 4 5 5 3 6 4 7 2 8 1 9
REMARK H PARENT
REMARK Flexibility Score: inf
ROOT
ATOM      1  C   UNL     1       5.051  -3.475  29.513  1.00  0.00     0.008 C 
ENDROOT
BRANCH   1   2
ATOM      2  C   UNL     1       5.423  -3.483  28.019  1.00  0.00     0.000 C 
BRANCH   2   3
ATOM      3  C   UNL     1       4.463  -4.332  27.173  1.00  0.00    -0.003 C 
ATOM      4  C   UNL     1       4.463  -3.872  25.717  1.00  0.00     0.004 C 
ENDBRANCH   2   3
ENDBRANCH   1   2
BRANCH   1   5
ATOM      5  C   UNL     1       6.252  -3.329  30.462  1.00  0.00     0.080 C 
BRANCH   5   6
ATOM      6  C   UNL     1       6.019  -4.019  31.775  1.00  0.00     0.155 C 
ATOM      7  O   UNL     1       6.970  -4.647  32.318  1.00  0.00    -0.295 OA
BRANCH   6   8
ATOM      8  C   UNL     1       4.685  -3.986  32.407  1.00  0.00     0.039 C 
ATOM      9  C   UNL     1       4.469  -4.431  33.644  1.00  0.00     0.012 C 
ENDBRANCH   6   8
ENDBRANCH   5   6
ENDBRANCH   1   5
TORSDOF 5
ENDMDL
MODEL 2
REMARK VINA RESULT:    -4.101     11.638     12.316
REMARK INTER + INTRA:          -5.436
REMARK INTER:                  -5.324
REMARK INTRA:                  -0.112
REMARK UNBOUND:                -0.137
REMARK SMILES C=CC(=O)CCCCC
REMARK SMILES IDX 6 1 7 2 8 3 9 4 5 5 3 6 4 7 2 8 1 9
REMARK H PARENT
REMARK Flexibility Score: inf
ROOT
ATOM      1  C   UNL     1      -5.648  -2.880  29.931  1.00  0.00     0.008 C 
ENDROOT
BRANCH   1   2
ATOM      2  C   UNL     1      -5.631  -2.149  31.285  1.00  0.00     0.000 C 
BRANCH   2   3
ATOM      3  C   UNL     1      -6.345  -0.790  31.235  1.00  0.00    -0.003 C 
ATOM      4  C   UNL     1      -5.381   0.320  30.825  1.00  0.00     0.004 C 
ENDBRANCH   2   3
ENDBRANCH   1   2
BRANCH   1   5
ATOM      5  C   UNL     1      -5.505  -4.408  30.036  1.00  0.00     0.080 C 
BRANCH   5   6
ATOM      6  C   UNL     1      -6.539  -5.128  29.219  1.00  0.00     0.155 C 
ATOM      7  O   UNL     1      -7.392  -4.457  28.576  1.00  0.00    -0.295 OA
BRANCH   6   8
ATOM      8  C   UNL     1      -6.572  -6.604  29.194  1.00  0.00     0.039 C 
ATOM      9  C   UNL     1      -7.303  -7.318  30.048  1.00  0.00     0.012 C 
ENDBRANCH   6   8
ENDBRANCH   5   6
ENDBRANCH   1   5
TORSDOF 5
ENDMDL
MODEL 3
REMARK VINA RESULT:    -4.035     11.351     11.863
REMARK INTER + INTRA:          -5.351
REMARK INTER:                  -5.264
REMARK INTRA:                  -0.087
REMARK UNBOUND:                -0.137
REMARK SMILES C=CC(=O)CCCCC
REMARK SMILES IDX 6 1 7 2 8 3 9 4 5 5 3 6 4 7 2 8 1 9
REMARK H PARENT
REMARK Flexibility Score: inf
ROOT
ATOM      1  C   UNL     1      -5.797  -4.608  29.866  1.00  0.00     0.008 C 
ENDROOT
BRANCH   1   2
ATOM      2  C   UNL     1      -6.784  -5.489  29.079  1.00  0.00     0.000 C 
BRANCH   2   3
ATOM      3  C   UNL     1      -7.233  -6.728  29.867  1.00  0.00    -0.003 C 
ATOM      4  C   UNL     1      -6.644  -8.002  29.268  1.00  0.00     0.004 C 
ENDBRANCH   2   3
ENDBRANCH   1   2
BRANCH   1   5
ATOM      5  C   UNL     1      -6.043  -3.097  29.721  1.00  0.00     0.080 C 
BRANCH   5   6
ATOM      6  C   UNL     1      -5.643  -2.340  30.954  1.00  0.00     0.155 C 
ATOM      7  O   UNL     1      -4.859  -2.881  31.782  1.00  0.00    -0.295 OA
BRANCH   6   8
ATOM      8  C   UNL     1      -6.183  -0.989  31.207  1.00  0.00     0.039 C 
ATOM      9  C   UNL     1      -5.499   0.118  30.923  1.00  0.00     0.012 C 
ENDBRANCH   6   8
ENDBRANCH   5   6
ENDBRANCH   1   5
TORSDOF 5
ENDMDL
MODEL 4
REMARK VINA RESULT:    -3.906      1.908      5.265
REMARK INTER + INTRA:          -5.184
REMARK INTER:                  -5.066
REMARK INTRA:                  -0.119
REMARK UNBOUND:                -0.137
REMARK SMILES C=CC(=O)CCCCC
REMARK SMILES IDX 6 1 7 2 8 3 9 4 5 5 3 6 4 7 2 8 1 9
REMARK H PARENT
REMARK Flexibility Score: inf
ROOT
ATOM      1  C   UNL     1       5.444  -3.528  29.950  1.00  0.00     0.008 C 
ENDROOT
BRANCH   1   2
ATOM      2  C   UNL     1       6.185  -2.815  31.096  1.00  0.00     0.000 C 
BRANCH   2   3
ATOM      3  C   UNL     1       5.529  -3.049  32.464  1.00  0.00    -0.003 C 
ATOM      4  C   UNL     1       4.418  -4.091  32.368  1.00  0.00     0.004 C 
ENDBRANCH   2   3
ENDBRANCH   1   2
BRANCH   1   5
ATOM      5  C   UNL     1       5.846  -3.052  28.544  1.00  0.00     0.080 C 
BRANCH   5   6
ATOM      6  C   UNL     1       5.154  -3.834  27.465  1.00  0.00     0.155 C 
ATOM      7  O   UNL     1       4.563  -4.908  27.766  1.00  0.00    -0.295 OA
BRANCH   6   8
ATOM      8  C   UNL     1       5.191  -3.366  26.066  1.00  0.00     0.039 C 
ATOM      9  C   UNL     1       4.382  -3.854  25.127  1.00  0.00     0.012 C 
ENDBRANCH   6   8
ENDBRANCH   5   6
ENDBRANCH   1   5
TORSDOF 5
ENDMDL
MODEL 5
REMARK VINA RESULT:    -3.896     11.616     12.228
REMARK INTER + INTRA:          -5.172
REMARK INTER:                  -5.050
REMARK INTRA:                  -0.122
REMARK UNBOUND:                -0.137
REMARK SMILES C=CC(=O)CCCCC
REMARK SMILES IDX 6 1 7 2 8 3 9 4 5 5 3 6 4 7 2 8 1 9
REMARK H PARENT
REMARK Flexibility Score: inf
ROOT
ATOM      1  C   UNL     1      -6.373  -6.266  29.224  1.00  0.00     0.008 C 
ENDROOT
BRANCH   1   2
ATOM      2  C   UNL     1      -7.358  -7.347  29.707  1.00  0.00     0.000 C 
BRANCH   2   3
ATOM      3  C   UNL     1      -6.713  -8.737  29.803  1.00  0.00    -0.003 C 
ATOM      4  C   UNL     1      -6.473  -9.327  28.416  1.00  0.00     0.004 C 
ENDBRANCH   2   3
ENDBRANCH   1   2
BRANCH   1   5
ATOM      5  C   UNL     1      -6.951  -4.841  29.222  1.00  0.00     0.080 C 
BRANCH   5   6
ATOM      6  C   UNL     1      -5.877  -3.797  29.327  1.00  0.00     0.155 C 
ATOM      7  O   UNL     1      -5.260  -3.441  28.285  1.00  0.00    -0.295 OA
BRANCH   6   8
ATOM      8  C   UNL     1      -5.528  -3.217  30.639  1.00  0.00     0.039 C 
ATOM      9  C   UNL     1      -5.719  -1.931  30.926  1.00  0.00     0.012 C 
ENDBRANCH   6   8
ENDBRANCH   5   6
ENDBRANCH   1   5
TORSDOF 5
ENDMDL
MODEL 6
REMARK VINA RESULT:    -3.828     10.565     11.054
REMARK INTER + INTRA:          -5.083
REMARK INTER:                  -4.594
REMARK INTRA:                  -0.489
REMARK UNBOUND:                -0.137
REMARK SMILES C=CC(=O)CCCCC
REMARK SMILES IDX 6 1 7 2 8 3 9 4 5 5 3 6 4 7 2 8 1 9
REMARK H PARENT
REMARK Flexibility Score: inf
ROOT
ATOM      1  C   UNL     1       2.072   5.929  28.972  1.00  0.00     0.008 C 
ENDROOT
BRANCH   1   2
ATOM      2  C   UNL     1       2.233   4.406  28.809  1.00  0.00     0.000 C 
BRANCH   2   3
ATOM      3  C   UNL     1       3.067   3.774  29.932  1.00  0.00    -0.003 C 
ATOM      4  C   UNL     1       2.182   3.359  31.104  1.00  0.00     0.004 C 
ENDBRANCH   2   3
ENDBRANCH   1   2
BRANCH   1   5
ATOM      5  C   UNL     1       0.629   6.386  29.246  1.00  0.00     0.080 C 
BRANCH   5   6
ATOM      6  C   UNL     1       0.525   7.197  30.506  1.00  0.00     0.155 C 
ATOM      7  O   UNL     1       0.288   8.433  30.424  1.00  0.00    -0.295 OA
BRANCH   6   8
ATOM      8  C   UNL     1       0.727   6.557  31.821  1.00  0.00     0.039 C 
ATOM      9  C   UNL     1       1.760   6.852  32.609  1.00  0.00     0.012 C 
ENDBRANCH   6   8
ENDBRANCH   5   6
ENDBRANCH   1   5
TORSDOF 5
ENDMDL
MODEL 7
REMARK VINA RESULT:    -3.810      9.159      9.827
REMARK INTER + INTRA:          -5.060
REMARK INTER:                  -4.499
REMARK INTRA:                  -0.561
REMARK UNBOUND:                -0.137
REMARK SMILES C=CC(=O)CCCCC
REMARK SMILES IDX 6 1 7 2 8 3 9 4 5 5 3 6 4 7 2 8 1 9
REMARK H PARENT
REMARK Flexibility Score: inf
ROOT
ATOM      1  C   UNL     1       1.715   5.517  31.568  1.00  0.00     0.008 C 
ENDROOT
BRANCH   1   2
ATOM      2  C   UNL     1       0.581   6.294  30.875  1.00  0.00     0.000 C 
BRANCH   2   3
ATOM      3  C   UNL     1       0.755   6.365  29.351  1.00  0.00    -0.003 C 
ATOM      4  C   UNL     1       2.018   7.137  28.980  1.00  0.00     0.004 C 
ENDBRANCH   2   3
ENDBRANCH   1   2
BRANCH   1   5
ATOM      5  C   UNL     1       1.770   4.023  31.207  1.00  0.00     0.080 C 
BRANCH   5   6
ATOM      6  C   UNL     1       3.146   3.595  30.785  1.00  0.00     0.155 C 
ATOM      7  O   UNL     1       3.967   3.208  31.662  1.00  0.00    -0.295 OA
BRANCH   6   8
ATOM      8  C   UNL     1       3.541   3.655  29.364  1.00  0.00     0.039 C 
ATOM      9  C   UNL     1       2.678   3.443  28.373  1.00  0.00     0.012 C 
ENDBRANCH   6   8
ENDBRANCH   5   6
ENDBRANCH   1   5
TORSDOF 5
ENDMDL
MODEL 8
REMARK VINA RESULT:    -3.728     10.045     10.644
REMARK INTER + INTRA:          -4.954
REMARK INTER:                  -4.408
REMARK INTRA:                  -0.546
REMARK UNBOUND:                -0.137
REMARK SMILES C=CC(=O)CCCCC
REMARK SMILES IDX 6 1 7 2 8 3 9 4 5 5 3 6 4 7 2 8 1 9
REMARK H PARENT
REMARK Flexibility Score: inf
ROOT
ATOM      1  C   UNL     1       1.515   4.244  31.192  1.00  0.00     0.008 C 
ENDROOT
BRANCH   1   2
ATOM      2  C   UNL     1       2.856   3.513  30.994  1.00  0.00     0.000 C 
BRANCH   2   3
ATOM      3  C   UNL     1       3.499   3.811  29.632  1.00  0.00    -0.003 C 
ATOM      4  C   UNL     1       2.513   3.563  28.495  1.00  0.00     0.004 C 
ENDBRANCH   2   3
ENDBRANCH   1   2
BRANCH   1   5
ATOM      5  C   UNL     1       1.634   5.598  31.912  1.00  0.00     0.080 C 
BRANCH   5   6
ATOM      6  C   UNL     1       0.857   6.677  31.214  1.00  0.00     0.155 C 
ATOM      7  O   UNL     1       0.328   7.596  31.899  1.00  0.00    -0.295 OA
BRANCH   6   8
ATOM      8  C   UNL     1       0.690   6.644  29.747  1.00  0.00     0.039 C 
ATOM      9  C   UNL     1       1.582   7.179  28.915  1.00  0.00     0.012 C 
ENDBRANCH   6   8
ENDBRANCH   5   6
ENDBRANCH   1   5
TORSDOF 5
ENDMDL
MODEL 9
REMARK VINA RESULT:    -3.683      9.569      9.925
REMARK INTER + INTRA:          -4.897
REMARK INTER:                  -4.713
REMARK INTRA:                  -0.183
REMARK UNBOUND:                -0.137
REMARK SMILES C=CC(=O)CCCCC
REMARK SMILES IDX 6 1 7 2 8 3 9 4 5 5 3 6 4 7 2 8 1 9
REMARK H PARENT
REMARK Flexibility Score: inf
ROOT
ATOM      1  C   UNL     1       2.576   4.228  29.268  1.00  0.00     0.008 C 
ENDROOT
BRANCH   1   2
ATOM      2  C   UNL     1       2.935   3.333  28.068  1.00  0.00     0.000 C 
BRANCH   2   3
ATOM      3  C   UNL     1       4.439   3.329  27.760  1.00  0.00    -0.003 C 
ATOM      4  C   UNL     1       4.696   3.013  26.289  1.00  0.00     0.004 C 
ENDBRANCH   2   3
ENDBRANCH   1   2
BRANCH   1   5
ATOM      5  C   UNL     1       2.149   5.655  28.887  1.00  0.00     0.080 C 
BRANCH   5   6
ATOM      6  C   UNL     1       0.999   6.140  29.721  1.00  0.00     0.155 C 
ATOM      7  O   UNL     1       0.149   6.918  29.204  1.00  0.00    -0.295 OA
BRANCH   6   8
ATOM      8  C   UNL     1       0.880   5.735  31.135  1.00  0.00     0.039 C 
ATOM      9  C   UNL     1       1.486   6.394  32.121  1.00  0.00     0.012 C 
ENDBRANCH   6   8
ENDBRANCH   5   6
ENDBRANCH   1   5
TORSDOF 5
ENDMDL
