MODEL 1
REMARK VINA RESULT:    -4.619      0.000      0.000
REMARK INTER + INTRA:          -7.774
REMARK INTER:                  -7.049
REMARK INTRA:                  -0.725
REMARK UNBOUND:                -0.725
REMARK SMILES O=C([O-])CCCCCCCCC(=O)[O-]
REMARK SMILES IDX 7 1 6 2 5 3 4 4 2 5 1 6 3 7 8 8 9 9 10 10 11 11 12 12 13 13
REMARK SMILES IDX 14 14
REMARK H PARENT
REMARK Flexibility Score: inf
ROOT
ATOM      1  C   UNL     1      -6.426   9.817  -6.551  1.00  0.00     0.000 C 
ENDROOT
BRANCH   1   2
ATOM      2  C   UNL     1      -7.534  10.879  -6.491  1.00  0.00     0.000 C 
BRANCH   2   3
ATOM      3  C   UNL     1      -8.883  10.244  -6.124  1.00  0.00     0.006 C 
BRANCH   3   4
ATOM      4  C   UNL     1      -8.722   9.030  -5.199  1.00  0.00     0.053 C 
BRANCH   4   5
ATOM      5  C   UNL     1      -9.315   7.793  -5.799  1.00  0.00     0.041 C 
ATOM      6  O   UNL     1      -9.057   7.480  -6.992  1.00  0.00    -0.550 OA
ATOM      7  O   UNL     1     -10.125   6.966  -5.031  1.00  0.00    -0.550 OA
ENDBRANCH   4   5
ENDBRANCH   3   4
ENDBRANCH   2   3
ENDBRANCH   1   2
BRANCH   1   8
ATOM      8  C   UNL     1      -6.120   9.351  -7.986  1.00  0.00     0.000 C 
BRANCH   8   9
ATOM      9  C   UNL     1      -5.625  10.457  -8.939  1.00  0.00     0.000 C 
BRANCH   9  10
ATOM     10  C   UNL     1      -4.094  10.617  -9.017  1.00  0.00     0.006 C 
BRANCH  10  11
ATOM     11  C   UNL     1      -3.573  11.978  -8.529  1.00  0.00     0.053 C 
BRANCH  11  12
ATOM     12  C   UNL     1      -3.410  12.014  -7.040  1.00  0.00     0.041 C 
ATOM     13  O   UNL     1      -2.426  11.448  -6.497  1.00  0.00    -0.550 OA
ATOM     14  O   UNL     1      -4.365  12.642  -6.251  1.00  0.00    -0.550 OA
ENDBRANCH  11  12
ENDBRANCH  10  11
ENDBRANCH   9  10
ENDBRANCH   8   9
ENDBRANCH   1   8
TORSDOF 9
ENDMDL
MODEL 2
REMARK VINA RESULT:    -4.609      0.135      6.272
REMARK INTER + INTRA:          -7.758
REMARK INTER:                  -7.012
REMARK INTRA:                  -0.746
REMARK UNBOUND:                -0.725
REMARK SMILES O=C([O-])CCCCCCCCC(=O)[O-]
REMARK SMILES IDX 7 1 6 2 5 3 4 4 2 5 1 6 3 7 8 8 9 9 10 10 11 11 12 12 13 13
REMARK SMILES IDX 14 14
REMARK H PARENT
REMARK Flexibility Score: inf
ROOT
ATOM      1  C   UNL     1      -5.886   9.319  -8.065  1.00  0.00     0.000 C 
ENDROOT
BRANCH   1   2
ATOM      2  C   UNL     1      -5.533  10.497  -8.986  1.00  0.00     0.000 C 
BRANCH   2   3
ATOM      3  C   UNL     1      -4.013  10.711  -9.045  1.00  0.00     0.006 C 
BRANCH   3   4
ATOM      4  C   UNL     1      -3.602  12.098  -8.535  1.00  0.00     0.053 C 
BRANCH   4   5
ATOM      5  C   UNL     1      -3.440  12.116  -7.046  1.00  0.00     0.041 C 
ATOM      6  O   UNL     1      -4.308  12.670  -6.320  1.00  0.00    -0.550 OA
ATOM      7  O   UNL     1      -2.348  11.492  -6.457  1.00  0.00    -0.550 OA
ENDBRANCH   4   5
ENDBRANCH   3   4
ENDBRANCH   2   3
ENDBRANCH   1   2
BRANCH   1   8
ATOM      8  C   UNL     1      -6.283   9.768  -6.647  1.00  0.00     0.000 C 
BRANCH   8   9
ATOM      9  C   UNL     1      -7.422  10.804  -6.584  1.00  0.00     0.000 C 
BRANCH   9  10
ATOM     10  C   UNL     1      -8.786  10.253  -6.122  1.00  0.00     0.006 C 
BRANCH  10  11
ATOM     11  C   UNL     1      -8.694   9.032  -5.192  1.00  0.00     0.053 C 
BRANCH  11  12
ATOM     12  C   UNL     1      -9.318   7.815  -5.803  1.00  0.00     0.041 C 
ATOM     13  O   UNL     1     -10.124   7.114  -5.137  1.00  0.00    -0.550 OA
ATOM     14  O   UNL     1      -8.982   7.436  -7.097  1.00  0.00    -0.550 OA
ENDBRANCH  11  12
ENDBRANCH  10  11
ENDBRANCH   9  10
ENDBRANCH   8   9
ENDBRANCH   1   8
TORSDOF 9
ENDMDL
MODEL 3
REMARK VINA RESULT:    -4.298     17.253     19.228
REMARK INTER + INTRA:          -7.283
REMARK INTER:                  -6.274
REMARK INTRA:                  -1.009
REMARK UNBOUND:                -0.725
REMARK SMILES O=C([O-])CCCCCCCCC(=O)[O-]
REMARK SMILES IDX 7 1 6 2 5 3 4 4 2 5 1 6 3 7 8 8 9 9 10 10 11 11 12 12 13 13
REMARK SMILES IDX 14 14
REMARK H PARENT
REMARK Flexibility Score: inf
ROOT
ATOM      1  C   UNL     1       8.684  11.357   7.401  1.00  0.00     0.000 C 
ENDROOT
BRANCH   1   2
ATOM      2  C   UNL     1       7.921  12.433   8.187  1.00  0.00     0.000 C 
BRANCH   2   3
ATOM      3  C   UNL     1       6.511  11.947   8.557  1.00  0.00     0.006 C 
BRANCH   3   4
ATOM      4  C   UNL     1       6.355  10.431   8.382  1.00  0.00     0.053 C 
BRANCH   4   5
ATOM      5  C   UNL     1       4.957   9.980   8.670  1.00  0.00     0.041 C 
ATOM      6  O   UNL     1       4.408  10.274   9.765  1.00  0.00    -0.550 OA
ATOM      7  O   UNL     1       4.246   9.263   7.716  1.00  0.00    -0.550 OA
ENDBRANCH   4   5
ENDBRANCH   3   4
ENDBRANCH   2   3
ENDBRANCH   1   2
BRANCH   1   8
ATOM      8  C   UNL     1       9.647  11.949   6.357  1.00  0.00     0.000 C 
BRANCH   8   9
ATOM      9  C   UNL     1       9.072  13.110   5.521  1.00  0.00     0.000 C 
BRANCH   9  10
ATOM     10  C   UNL     1       8.197  12.685   4.326  1.00  0.00     0.006 C 
BRANCH  10  11
ATOM     11  C   UNL     1       6.688  12.672   4.617  1.00  0.00     0.053 C 
BRANCH  11  12
ATOM     12  C   UNL     1       6.158  11.279   4.763  1.00  0.00     0.041 C 
ATOM     13  O   UNL     1       6.930  10.292   4.640  1.00  0.00    -0.550 OA
ATOM     14  O   UNL     1       4.805  11.071   5.002  1.00  0.00    -0.550 OA
ENDBRANCH  11  12
ENDBRANCH  10  11
ENDBRANCH   9  10
ENDBRANCH   8   9
ENDBRANCH   1   8
TORSDOF 9
ENDMDL
MODEL 4
REMARK VINA RESULT:    -4.287     17.687     19.702
REMARK INTER + INTRA:          -7.266
REMARK INTER:                  -6.373
REMARK INTRA:                  -0.894
REMARK UNBOUND:                -0.725
REMARK SMILES O=C([O-])CCCCCCCCC(=O)[O-]
REMARK SMILES IDX 7 1 6 2 5 3 4 4 2 5 1 6 3 7 8 8 9 9 10 10 11 11 12 12 13 13
REMARK SMILES IDX 14 14
REMARK H PARENT
REMARK Flexibility Score: inf
ROOT
ATOM      1  C   UNL     1       5.689  11.254   4.719  1.00  0.00     0.000 C 
ENDROOT
BRANCH   1   2
ATOM      2  C   UNL     1       6.326  12.652   4.733  1.00  0.00     0.000 C 
BRANCH   2   3
ATOM      3  C   UNL     1       7.824  12.576   4.403  1.00  0.00     0.006 C 
BRANCH   3   4
ATOM      4  C   UNL     1       8.698  13.125   5.539  1.00  0.00     0.053 C 
BRANCH   4   5
ATOM      5  C   UNL     1       8.916  12.105   6.614  1.00  0.00     0.041 C 
ATOM      6  O   UNL     1       9.083  10.893   6.314  1.00  0.00    -0.550 OA
ATOM      7  O   UNL     1       8.969  12.497   7.945  1.00  0.00    -0.550 OA
ENDBRANCH   4   5
ENDBRANCH   3   4
ENDBRANCH   2   3
ENDBRANCH   1   2
BRANCH   1   8
ATOM      8  C   UNL     1       4.926  10.931   6.016  1.00  0.00     0.000 C 
BRANCH   8   9
ATOM      9  C   UNL     1       5.734  10.154   7.073  1.00  0.00     0.000 C 
BRANCH   9  10
ATOM     10  C   UNL     1       5.880  10.860   8.435  1.00  0.00     0.006 C 
BRANCH  10  11
ATOM     11  C   UNL     1       4.897  12.020   8.658  1.00  0.00     0.053 C 
BRANCH  11  12
ATOM     12  C   UNL     1       3.744  11.619   9.526  1.00  0.00     0.041 C 
ATOM     13  O   UNL     1       3.786  10.541  10.176  1.00  0.00    -0.550 OA
ATOM     14  O   UNL     1       2.610  12.418   9.589  1.00  0.00    -0.550 OA
ENDBRANCH  11  12
ENDBRANCH  10  11
ENDBRANCH   9  10
ENDBRANCH   8   9
ENDBRANCH   1   8
TORSDOF 9
ENDMDL
MODEL 5
REMARK VINA RESULT:    -4.278     17.127     19.466
REMARK INTER + INTRA:          -7.253
REMARK INTER:                  -6.220
REMARK INTRA:                  -1.033
REMARK UNBOUND:                -0.725
REMARK SMILES O=C([O-])CCCCCCCCC(=O)[O-]
REMARK SMILES IDX 7 1 6 2 5 3 4 4 2 5 1 6 3 7 8 8 9 9 10 10 11 11 12 12 13 13
REMARK SMILES IDX 14 14
REMARK H PARENT
REMARK Flexibility Score: inf
ROOT
ATOM      1  C   UNL     1       9.333  11.801   6.184  1.00  0.00     0.000 C 
ENDROOT
BRANCH   1   2
ATOM      2  C   UNL     1       8.743  13.124   5.671  1.00  0.00     0.000 C 
BRANCH   2   3
ATOM      3  C   UNL     1       7.845  12.888   4.448  1.00  0.00     0.006 C 
BRANCH   3   4
ATOM      4  C   UNL     1       6.360  12.806   4.824  1.00  0.00     0.053 C 
BRANCH   4   5
ATOM      5  C   UNL     1       5.858  11.395   4.800  1.00  0.00     0.041 C 
ATOM      6  O   UNL     1       6.606  10.462   4.404  1.00  0.00    -0.550 OA
ATOM      7  O   UNL     1       4.575  11.105   5.247  1.00  0.00    -0.550 OA
ENDBRANCH   4   5
ENDBRANCH   3   4
ENDBRANCH   2   3
ENDBRANCH   1   2
BRANCH   1   8
ATOM      8  C   UNL     1       8.558  11.226   7.383  1.00  0.00     0.000 C 
BRANCH   8   9
ATOM      9  C   UNL     1       7.740  12.256   8.187  1.00  0.00     0.000 C 
BRANCH   9  10
ATOM     10  C   UNL     1       6.357  11.769   8.660  1.00  0.00     0.006 C 
BRANCH  10  11
ATOM     11  C   UNL     1       6.075  10.285   8.375  1.00  0.00     0.053 C 
BRANCH  11  12
ATOM     12  C   UNL     1       4.686   9.891   8.776  1.00  0.00     0.041 C 
ATOM     13  O   UNL     1       3.981   9.188   8.007  1.00  0.00    -0.550 OA
ATOM     14  O   UNL     1       4.161  10.331   9.985  1.00  0.00    -0.550 OA
ENDBRANCH  11  12
ENDBRANCH  10  11
ENDBRANCH   9  10
ENDBRANCH   8   9
ENDBRANCH   1   8
TORSDOF 9
ENDMDL
MODEL 6
REMARK VINA RESULT:    -4.221     17.257     19.358
REMARK INTER + INTRA:          -7.166
REMARK INTER:                  -6.520
REMARK INTRA:                  -0.646
REMARK UNBOUND:                -0.725
REMARK SMILES O=C([O-])CCCCCCCCC(=O)[O-]
REMARK SMILES IDX 7 1 6 2 5 3 4 4 2 5 1 6 3 7 8 8 9 9 10 10 11 11 12 12 13 13
REMARK SMILES IDX 14 14
REMARK H PARENT
REMARK Flexibility Score: inf
ROOT
ATOM      1  C   UNL     1       6.315  11.079   6.879  1.00  0.00     0.000 C 
ENDROOT
BRANCH   1   2
ATOM      2  C   UNL     1       5.427  11.233   5.635  1.00  0.00     0.000 C 
BRANCH   2   3
ATOM      3  C   UNL     1       6.279  11.464   4.378  1.00  0.00     0.006 C 
BRANCH   3   4
ATOM      4  C   UNL     1       7.059  12.784   4.439  1.00  0.00     0.053 C 
BRANCH   4   5
ATOM      5  C   UNL     1       8.525  12.572   4.218  1.00  0.00     0.041 C 
ATOM      6  O   UNL     1       9.254  12.152   5.156  1.00  0.00    -0.550 OA
ATOM      7  O   UNL     1       9.082  12.808   2.967  1.00  0.00    -0.550 OA
ENDBRANCH   4   5
ENDBRANCH   3   4
ENDBRANCH   2   3
ENDBRANCH   1   2
BRANCH   1   8
ATOM      8  C   UNL     1       6.259  12.303   7.810  1.00  0.00     0.000 C 
BRANCH   8   9
ATOM      9  C   UNL     1       5.697  12.028   9.218  1.00  0.00     0.000 C 
BRANCH   9  10
ATOM     10  C   UNL     1       4.165  12.138   9.346  1.00  0.00     0.006 C 
BRANCH  10  11
ATOM     11  C   UNL     1       3.463  10.823   9.719  1.00  0.00     0.053 C 
BRANCH  11  12
ATOM     12  C   UNL     1       3.392   9.877   8.559  1.00  0.00     0.041 C 
ATOM     13  O   UNL     1       4.035   8.795   8.585  1.00  0.00    -0.550 OA
ATOM     14  O   UNL     1       2.644  10.208   7.437  1.00  0.00    -0.550 OA
ENDBRANCH  11  12
ENDBRANCH  10  11
ENDBRANCH   9  10
ENDBRANCH   8   9
ENDBRANCH   1   8
TORSDOF 9
ENDMDL
MODEL 7
REMARK VINA RESULT:    -4.204     17.033     19.259
REMARK INTER + INTRA:          -7.140
REMARK INTER:                  -6.301
REMARK INTRA:                  -0.839
REMARK UNBOUND:                -0.725
REMARK SMILES O=C([O-])CCCCCCCCC(=O)[O-]
REMARK SMILES IDX 7 1 6 2 5 3 4 4 2 5 1 6 3 7 8 8 9 9 10 10 11 11 12 12 13 13
REMARK SMILES IDX 14 14
REMARK H PARENT
REMARK Flexibility Score: inf
ROOT
ATOM      1  C   UNL     1       7.488  10.897   7.951  1.00  0.00     0.000 C 
ENDROOT
BRANCH   1   2
ATOM      2  C   UNL     1       8.649  11.062   6.959  1.00  0.00     0.000 C 
BRANCH   2   3
ATOM      3  C   UNL     1       8.126  11.348   5.544  1.00  0.00     0.006 C 
BRANCH   3   4
ATOM      4  C   UNL     1       6.917  10.475   5.183  1.00  0.00     0.053 C 
BRANCH   4   5
ATOM      5  C   UNL     1       5.712  11.302   4.857  1.00  0.00     0.041 C 
ATOM      6  O   UNL     1       4.556  10.849   5.063  1.00  0.00    -0.550 OA
ATOM      7  O   UNL     1       5.867  12.588   4.354  1.00  0.00    -0.550 OA
ENDBRANCH   4   5
ENDBRANCH   3   4
ENDBRANCH   2   3
ENDBRANCH   1   2
BRANCH   1   8
ATOM      8  C   UNL     1       6.965  12.241   8.487  1.00  0.00     0.000 C 
BRANCH   8   9
ATOM      9  C   UNL     1       5.475  12.521   8.206  1.00  0.00     0.000 C 
BRANCH   9  10
ATOM     10  C   UNL     1       4.530  12.304   9.405  1.00  0.00     0.006 C 
BRANCH  10  11
ATOM     11  C   UNL     1       4.215  10.830   9.705  1.00  0.00     0.053 C 
BRANCH  11  12
ATOM     12  C   UNL     1       3.766  10.092   8.481  1.00  0.00     0.041 C 
ATOM     13  O   UNL     1       4.462   9.151   8.018  1.00  0.00    -0.550 OA
ATOM     14  O   UNL     1       2.597  10.468   7.833  1.00  0.00    -0.550 OA
ENDBRANCH  11  12
ENDBRANCH  10  11
ENDBRANCH   9  10
ENDBRANCH   8   9
ENDBRANCH   1   8
TORSDOF 9
ENDMDL
MODEL 8
REMARK VINA RESULT:    -4.181     17.538     19.361
REMARK INTER + INTRA:          -7.105
REMARK INTER:                  -6.572
REMARK INTRA:                  -0.533
REMARK UNBOUND:                -0.725
REMARK SMILES O=C([O-])CCCCCCCCC(=O)[O-]
REMARK SMILES IDX 7 1 6 2 5 3 4 4 2 5 1 6 3 7 8 8 9 9 10 10 11 11 12 12 13 13
REMARK SMILES IDX 14 14
REMARK H PARENT
REMARK Flexibility Score: inf
ROOT
ATOM      1  C   UNL     1       6.254  10.561   6.959  1.00  0.00     0.000 C 
ENDROOT
BRANCH   1   2
ATOM      2  C   UNL     1       5.272  11.033   5.877  1.00  0.00     0.000 C 
BRANCH   2   3
ATOM      3  C   UNL     1       6.003  11.310   4.555  1.00  0.00     0.006 C 
BRANCH   3   4
ATOM      4  C   UNL     1       6.800  12.621   4.594  1.00  0.00     0.053 C 
BRANCH   4   5
ATOM      5  C   UNL     1       8.265  12.385   4.395  1.00  0.00     0.041 C 
ATOM      6  O   UNL     1       8.983  11.998   5.355  1.00  0.00    -0.550 OA
ATOM      7  O   UNL     1       8.834  12.561   3.140  1.00  0.00    -0.550 OA
ENDBRANCH   4   5
ENDBRANCH   3   4
ENDBRANCH   2   3
ENDBRANCH   1   2
BRANCH   1   8
ATOM      8  C   UNL     1       5.700  10.731   8.385  1.00  0.00     0.000 C 
BRANCH   8   9
ATOM      9  C   UNL     1       4.947   9.508   8.943  1.00  0.00     0.000 C 
BRANCH   9  10
ATOM     10  C   UNL     1       3.416   9.541   8.763  1.00  0.00     0.006 C 
BRANCH  10  11
ATOM     11  C   UNL     1       2.810  10.954   8.754  1.00  0.00     0.053 C 
BRANCH  11  12
ATOM     12  C   UNL     1       2.012  11.229   9.991  1.00  0.00     0.041 C 
ATOM     13  O   UNL     1       1.548  12.380  10.202  1.00  0.00    -0.550 OA
ATOM     14  O   UNL     1       1.809  10.223  10.927  1.00  0.00    -0.550 OA
ENDBRANCH  11  12
ENDBRANCH  10  11
ENDBRANCH   9  10
ENDBRANCH   8   9
ENDBRANCH   1   8
TORSDOF 9
ENDMDL
MODEL 9
REMARK VINA RESULT:    -4.134     17.366     18.646
REMARK INTER + INTRA:          -7.033
REMARK INTER:                  -6.212
REMARK INTRA:                  -0.821
REMARK UNBOUND:                -0.725
REMARK SMILES O=C([O-])CCCCCCCCC(=O)[O-]
REMARK SMILES IDX 7 1 6 2 5 3 4 4 2 5 1 6 3 7 8 8 9 9 10 10 11 11 12 12 13 13
REMARK SMILES IDX 14 14
REMARK H PARENT
REMARK Flexibility Score: inf
ROOT
ATOM      1  C   UNL     1       6.039  12.718   8.176  1.00  0.00     0.000 C 
ENDROOT
BRANCH   1   2
ATOM      2  C   UNL     1       4.877  12.836   9.174  1.00  0.00     0.000 C 
BRANCH   2   3
ATOM      3  C   UNL     1       4.383  11.448   9.607  1.00  0.00     0.006 C 
BRANCH   3   4
ATOM      4  C   UNL     1       3.166  10.984   8.794  1.00  0.00     0.053 C 
BRANCH   4   5
ATOM      5  C   UNL     1       3.550   9.997   7.736  1.00  0.00     0.041 C 
ATOM      6  O   UNL     1       3.455   8.761   7.956  1.00  0.00    -0.550 OA
ATOM      7  O   UNL     1       3.983  10.443   6.493  1.00  0.00    -0.550 OA
ENDBRANCH   4   5
ENDBRANCH   3   4
ENDBRANCH   2   3
ENDBRANCH   1   2
BRANCH   1   8
ATOM      8  C   UNL     1       6.947  11.507   8.457  1.00  0.00     0.000 C 
BRANCH   8   9
ATOM      9  C   UNL     1       7.521  10.817   7.204  1.00  0.00     0.000 C 
BRANCH   9  10
ATOM     10  C   UNL     1       8.442  11.696   6.334  1.00  0.00     0.006 C 
BRANCH  10  11
ATOM     11  C   UNL     1       8.172  11.597   4.824  1.00  0.00     0.053 C 
BRANCH  11  12
ATOM     12  C   UNL     1       6.721  11.778   4.501  1.00  0.00     0.041 C 
ATOM     13  O   UNL     1       6.056  10.822   4.023  1.00  0.00    -0.550 OA
ATOM     14  O   UNL     1       6.112  13.011   4.697  1.00  0.00    -0.550 OA
ENDBRANCH  11  12
ENDBRANCH  10  11
ENDBRANCH   9  10
ENDBRANCH   8   9
ENDBRANCH   1   8
TORSDOF 9
ENDMDL
