MODEL 1
REMARK VINA RESULT:    -4.344      0.000      0.000
REMARK INTER + INTRA:          -9.454
REMARK INTER:                  -7.899
REMARK INTRA:                  -1.555
REMARK UNBOUND:                -1.555
REMARK SMILES CCCCCCCCCCCCCCCC(=O)[O-]
REMARK SMILES IDX 9 1 10 2 11 3 12 4 13 5 14 6 15 7 16 8 17 9 18 10 8 11 7 12
REMARK SMILES IDX 6 13 5 14 4 15 3 16 2 17 1 18
REMARK H PARENT
REMARK Flexibility Score: inf
ROOT
ATOM      1  C   UNL     1      36.459  -6.137  13.186  1.00  0.00     0.000 C 
ENDROOT
BRANCH   1   2
ATOM      2  C   UNL     1      36.576  -5.492  11.794  1.00  0.00     0.000 C 
BRANCH   2   3
ATOM      3  C   UNL     1      36.899  -6.518  10.695  1.00  0.00     0.000 C 
BRANCH   3   4
ATOM      4  C   UNL     1      36.930  -7.962  11.221  1.00  0.00     0.000 C 
BRANCH   4   5
ATOM      5  C   UNL     1      37.484  -8.920  10.161  1.00  0.00     0.000 C 
BRANCH   5   6
ATOM      6  C   UNL     1      38.829  -8.421   9.616  1.00  0.00     0.006 C 
BRANCH   6   7
ATOM      7  C   UNL     1      39.922  -8.512  10.685  1.00  0.00     0.053 C 
BRANCH   7   8
ATOM      8  C   UNL     1      40.827  -7.323  10.611  1.00  0.00     0.041 C 
ATOM      9  O   UNL     1      40.357  -6.183  10.355  1.00  0.00    -0.550 OA
ATOM     10  O   UNL     1      42.198  -7.482  10.775  1.00  0.00    -0.550 OA
ENDBRANCH   7   8
ENDBRANCH   6   7
ENDBRANCH   5   6
ENDBRANCH   4   5
ENDBRANCH   3   4
ENDBRANCH   2   3
ENDBRANCH   1   2
BRANCH   1  11
ATOM     11  C   UNL     1      35.061  -5.964  13.807  1.00  0.00     0.000 C 
BRANCH  11  12
ATOM     12  C   UNL     1      34.005  -5.335  12.875  1.00  0.00    -0.000 C 
BRANCH  12  13
ATOM     13  C   UNL     1      32.955  -6.316  12.315  1.00  0.00    -0.000 C 
BRANCH  13  14
ATOM     14  C   UNL     1      33.340  -7.007  10.994  1.00  0.00    -0.000 C 
BRANCH  14  15
ATOM     15  C   UNL     1      32.135  -7.235  10.067  1.00  0.00    -0.000 C 
BRANCH  15  16
ATOM     16  C   UNL     1      32.293  -8.481   9.175  1.00  0.00    -0.000 C 
BRANCH  16  17
ATOM     17  C   UNL     1      33.197  -8.291   7.945  1.00  0.00    -0.003 C 
ATOM     18  C   UNL     1      34.421  -9.206   7.952  1.00  0.00     0.004 C 
ENDBRANCH  16  17
ENDBRANCH  15  16
ENDBRANCH  14  15
ENDBRANCH  13  14
ENDBRANCH  12  13
ENDBRANCH  11  12
ENDBRANCH   1  11
TORSDOF 14
ENDMDL
MODEL 2
REMARK VINA RESULT:    -4.324      3.909      8.477
REMARK INTER + INTRA:          -9.418
REMARK INTER:                  -8.667
REMARK INTRA:                  -0.752
REMARK UNBOUND:                -1.555
REMARK SMILES CCCCCCCCCCCCCCCC(=O)[O-]
REMARK SMILES IDX 9 1 10 2 11 3 12 4 13 5 14 6 15 7 16 8 17 9 18 10 8 11 7 12
REMARK SMILES IDX 6 13 5 14 4 15 3 16 2 17 1 18
REMARK H PARENT
REMARK Flexibility Score: inf
ROOT
ATOM      1  C   UNL     1      39.420  -8.757  10.030  1.00  0.00     0.000 C 
ENDROOT
BRANCH   1   2
ATOM      2  C   UNL     1      38.087  -8.651  10.789  1.00  0.00     0.000 C 
BRANCH   2   3
ATOM      3  C   UNL     1      36.904  -8.327   9.861  1.00  0.00     0.000 C 
BRANCH   3   4
ATOM      4  C   UNL     1      35.875  -7.392  10.515  1.00  0.00     0.000 C 
BRANCH   4   5
ATOM      5  C   UNL     1      36.567  -6.342  11.391  1.00  0.00     0.000 C 
BRANCH   5   6
ATOM      6  C   UNL     1      35.540  -5.442  12.089  1.00  0.00     0.006 C 
BRANCH   6   7
ATOM      7  C   UNL     1      35.212  -5.968  13.490  1.00  0.00     0.053 C 
BRANCH   7   8
ATOM      8  C   UNL     1      33.757  -6.300  13.598  1.00  0.00     0.041 C 
ATOM      9  O   UNL     1      33.009  -6.206  12.589  1.00  0.00    -0.550 OA
ATOM     10  O   UNL     1      33.216  -6.665  14.825  1.00  0.00    -0.550 OA
ENDBRANCH   7   8
ENDBRANCH   6   7
ENDBRANCH   5   6
ENDBRANCH   4   5
ENDBRANCH   3   4
ENDBRANCH   2   3
ENDBRANCH   1   2
BRANCH   1  11
ATOM     11  C   UNL     1      40.620  -8.269  10.862  1.00  0.00     0.000 C 
BRANCH  11  12
ATOM     12  C   UNL     1      41.095  -6.837  10.543  1.00  0.00    -0.000 C 
BRANCH  12  13
ATOM     13  C   UNL     1      42.600  -6.697  10.233  1.00  0.00    -0.000 C 
BRANCH  13  14
ATOM     14  C   UNL     1      43.329  -5.583  11.006  1.00  0.00    -0.000 C 
BRANCH  14  15
ATOM     15  C   UNL     1      44.746  -5.316  10.471  1.00  0.00    -0.000 C 
BRANCH  15  16
ATOM     16  C   UNL     1      44.936  -3.869   9.978  1.00  0.00    -0.000 C 
BRANCH  16  17
ATOM     17  C   UNL     1      45.283  -3.730   8.485  1.00  0.00    -0.003 C 
ATOM     18  C   UNL     1      45.784  -5.032   7.861  1.00  0.00     0.004 C 
ENDBRANCH  16  17
ENDBRANCH  15  16
ENDBRANCH  14  15
ENDBRANCH  13  14
ENDBRANCH  12  13
ENDBRANCH  11  12
ENDBRANCH   1  11
TORSDOF 14
ENDMDL
MODEL 3
REMARK VINA RESULT:    -4.253      3.446      7.955
REMARK INTER + INTRA:          -9.288
REMARK INTER:                  -8.613
REMARK INTRA:                  -0.675
REMARK UNBOUND:                -1.555
REMARK SMILES CCCCCCCCCCCCCCCC(=O)[O-]
REMARK SMILES IDX 9 1 10 2 11 3 12 4 13 5 14 6 15 7 16 8 17 9 18 10 8 11 7 12
REMARK SMILES IDX 6 13 5 14 4 15 3 16 2 17 1 18
REMARK H PARENT
REMARK Flexibility Score: inf
ROOT
ATOM      1  C   UNL     1      38.184  -9.355  10.642  1.00  0.00     0.000 C 
ENDROOT
BRANCH   1   2
ATOM      2  C   UNL     1      36.863  -9.010  11.349  1.00  0.00     0.000 C 
BRANCH   2   3
ATOM      3  C   UNL     1      35.893  -8.236  10.442  1.00  0.00     0.000 C 
BRANCH   3   4
ATOM      4  C   UNL     1      35.530  -6.853  11.004  1.00  0.00     0.000 C 
BRANCH   4   5
ATOM      5  C   UNL     1      34.027  -6.752  11.285  1.00  0.00     0.000 C 
BRANCH   5   6
ATOM      6  C   UNL     1      33.765  -6.274  12.719  1.00  0.00     0.006 C 
BRANCH   6   7
ATOM      7  C   UNL     1      35.069  -5.867  13.409  1.00  0.00     0.053 C 
BRANCH   7   8
ATOM      8  C   UNL     1      35.050  -6.274  14.848  1.00  0.00     0.041 C 
ATOM      9  O   UNL     1      34.006  -6.763  15.355  1.00  0.00    -0.550 OA
ATOM     10  O   UNL     1      36.170  -6.067  15.645  1.00  0.00    -0.550 OA
ENDBRANCH   7   8
ENDBRANCH   6   7
ENDBRANCH   5   6
ENDBRANCH   4   5
ENDBRANCH   3   4
ENDBRANCH   2   3
ENDBRANCH   1   2
BRANCH   1  11
ATOM     11  C   UNL     1      38.945  -8.106  10.159  1.00  0.00     0.000 C 
BRANCH  11  12
ATOM     12  C   UNL     1      40.426  -8.038  10.584  1.00  0.00    -0.000 C 
BRANCH  12  13
ATOM     13  C   UNL     1      41.019  -6.617  10.677  1.00  0.00    -0.000 C 
BRANCH  13  14
ATOM     14  C   UNL     1      42.379  -6.427   9.981  1.00  0.00    -0.000 C 
BRANCH  14  15
ATOM     15  C   UNL     1      43.489  -5.990  10.952  1.00  0.00    -0.000 C 
BRANCH  15  16
ATOM     16  C   UNL     1      44.467  -4.978  10.326  1.00  0.00    -0.000 C 
BRANCH  16  17
ATOM     17  C   UNL     1      44.899  -5.296   8.884  1.00  0.00    -0.003 C 
ATOM     18  C   UNL     1      45.344  -4.059   8.104  1.00  0.00     0.004 C 
ENDBRANCH  16  17
ENDBRANCH  15  16
ENDBRANCH  14  15
ENDBRANCH  13  14
ENDBRANCH  12  13
ENDBRANCH  11  12
ENDBRANCH   1  11
TORSDOF 14
ENDMDL
MODEL 4
REMARK VINA RESULT:    -4.240      3.165      5.697
REMARK INTER + INTRA:          -9.265
REMARK INTER:                  -8.324
REMARK INTRA:                  -0.941
REMARK UNBOUND:                -1.555
REMARK SMILES CCCCCCCCCCCCCCCC(=O)[O-]
REMARK SMILES IDX 9 1 10 2 11 3 12 4 13 5 14 6 15 7 16 8 17 9 18 10 8 11 7 12
REMARK SMILES IDX 6 13 5 14 4 15 3 16 2 17 1 18
REMARK H PARENT
REMARK Flexibility Score: inf
ROOT
ATOM      1  C   UNL     1      39.942  -6.975  10.026  1.00  0.00     0.000 C 
ENDROOT
BRANCH   1   2
ATOM      2  C   UNL     1      41.065  -7.651  10.830  1.00  0.00     0.000 C 
BRANCH   2   3
ATOM      3  C   UNL     1      42.291  -7.985   9.964  1.00  0.00     0.000 C 
BRANCH   3   4
ATOM      4  C   UNL     1      42.982  -6.731   9.405  1.00  0.00     0.000 C 
BRANCH   4   5
ATOM      5  C   UNL     1      43.375  -5.772  10.534  1.00  0.00     0.000 C 
BRANCH   5   6
ATOM      6  C   UNL     1      44.856  -5.385  10.438  1.00  0.00     0.006 C 
BRANCH   6   7
ATOM      7  C   UNL     1      45.200  -4.873   9.037  1.00  0.00     0.053 C 
BRANCH   7   8
ATOM      8  C   UNL     1      45.180  -3.378   9.006  1.00  0.00     0.041 C 
ATOM      9  O   UNL     1      45.428  -2.762   7.935  1.00  0.00    -0.550 OA
ATOM     10  O   UNL     1      44.936  -2.661  10.171  1.00  0.00    -0.550 OA
ENDBRANCH   7   8
ENDBRANCH   6   7
ENDBRANCH   5   6
ENDBRANCH   4   5
ENDBRANCH   3   4
ENDBRANCH   2   3
ENDBRANCH   1   2
BRANCH   1  11
ATOM     11  C   UNL     1      38.792  -7.938   9.682  1.00  0.00     0.000 C 
BRANCH  11  12
ATOM     12  C   UNL     1      38.145  -8.642  10.893  1.00  0.00    -0.000 C 
BRANCH  12  13
ATOM     13  C   UNL     1      36.628  -8.413  11.053  1.00  0.00    -0.000 C 
BRANCH  13  14
ATOM     14  C   UNL     1      36.105  -7.070  10.510  1.00  0.00    -0.000 C 
BRANCH  14  15
ATOM     15  C   UNL     1      36.352  -5.899  11.476  1.00  0.00    -0.000 C 
BRANCH  15  16
ATOM     16  C   UNL     1      35.818  -6.172  12.895  1.00  0.00    -0.000 C 
BRANCH  16  17
ATOM     17  C   UNL     1      34.478  -5.493  13.229  1.00  0.00    -0.003 C 
ATOM     18  C   UNL     1      33.295  -6.095  12.472  1.00  0.00     0.004 C 
ENDBRANCH  16  17
ENDBRANCH  15  16
ENDBRANCH  14  15
ENDBRANCH  13  14
ENDBRANCH  12  13
ENDBRANCH  11  12
ENDBRANCH   1  11
TORSDOF 14
ENDMDL
MODEL 5
REMARK VINA RESULT:    -4.190      3.859      6.494
REMARK INTER + INTRA:          -9.174
REMARK INTER:                  -8.419
REMARK INTRA:                  -0.756
REMARK UNBOUND:                -1.555
REMARK SMILES CCCCCCCCCCCCCCCC(=O)[O-]
REMARK SMILES IDX 9 1 10 2 11 3 12 4 13 5 14 6 15 7 16 8 17 9 18 10 8 11 7 12
REMARK SMILES IDX 6 13 5 14 4 15 3 16 2 17 1 18
REMARK H PARENT
REMARK Flexibility Score: inf
ROOT
ATOM      1  C   UNL     1      41.538  -6.672  10.941  1.00  0.00     0.000 C 
ENDROOT
BRANCH   1   2
ATOM      2  C   UNL     1      42.661  -7.306  10.103  1.00  0.00     0.000 C 
BRANCH   2   3
ATOM      3  C   UNL     1      42.689  -6.778   8.659  1.00  0.00     0.000 C 
BRANCH   3   4
ATOM      4  C   UNL     1      44.106  -6.419   8.185  1.00  0.00     0.000 C 
BRANCH   4   5
ATOM      5  C   UNL     1      44.869  -5.652   9.271  1.00  0.00     0.000 C 
BRANCH   5   6
ATOM      6  C   UNL     1      45.191  -4.224   8.815  1.00  0.00     0.006 C 
BRANCH   6   7
ATOM      7  C   UNL     1      44.994  -3.224   9.958  1.00  0.00     0.053 C 
BRANCH   7   8
ATOM      8  C   UNL     1      44.943  -1.826   9.428  1.00  0.00     0.041 C 
ATOM      9  O   UNL     1      44.566  -0.880  10.169  1.00  0.00    -0.550 OA
ATOM     10  O   UNL     1      45.265  -1.573   8.099  1.00  0.00    -0.550 OA
ENDBRANCH   7   8
ENDBRANCH   6   7
ENDBRANCH   5   6
ENDBRANCH   4   5
ENDBRANCH   3   4
ENDBRANCH   2   3
ENDBRANCH   1   2
BRANCH   1  11
ATOM     11  C   UNL     1      40.153  -6.815  10.285  1.00  0.00     0.000 C 
BRANCH  11  12
ATOM     12  C   UNL     1      39.473  -8.185  10.486  1.00  0.00    -0.000 C 
BRANCH  12  13
ATOM     13  C   UNL     1      37.943  -8.139  10.673  1.00  0.00    -0.000 C 
BRANCH  13  14
ATOM     14  C   UNL     1      37.272  -6.814  10.268  1.00  0.00    -0.000 C 
BRANCH  14  15
ATOM     15  C   UNL     1      36.733  -6.025  11.474  1.00  0.00    -0.000 C 
BRANCH  15  16
ATOM     16  C   UNL     1      35.223  -6.226  11.693  1.00  0.00    -0.000 C 
BRANCH  16  17
ATOM     17  C   UNL     1      34.648  -5.534  12.942  1.00  0.00    -0.003 C 
ATOM     18  C   UNL     1      35.243  -6.062  14.248  1.00  0.00     0.004 C 
ENDBRANCH  16  17
ENDBRANCH  15  16
ENDBRANCH  14  15
ENDBRANCH  13  14
ENDBRANCH  12  13
ENDBRANCH  11  12
ENDBRANCH   1  11
TORSDOF 14
ENDMDL
MODEL 6
REMARK VINA RESULT:    -4.123     17.990     20.736
REMARK INTER + INTRA:          -9.053
REMARK INTER:                  -7.009
REMARK INTRA:                  -2.044
REMARK UNBOUND:                -1.555
REMARK SMILES CCCCCCCCCCCCCCCC(=O)[O-]
REMARK SMILES IDX 9 1 10 2 11 3 12 4 13 5 14 6 15 7 16 8 17 9 18 10 8 11 7 12
REMARK SMILES IDX 6 13 5 14 4 15 3 16 2 17 1 18
REMARK H PARENT
REMARK Flexibility Score: inf
ROOT
ATOM      1  C   UNL     1      46.873   9.677  18.101  1.00  0.00     0.000 C 
ENDROOT
BRANCH   1   2
ATOM      2  C   UNL     1      45.538   8.916  18.160  1.00  0.00     0.000 C 
BRANCH   2   3
ATOM      3  C   UNL     1      44.627   9.412  19.295  1.00  0.00     0.000 C 
BRANCH   3   4
ATOM      4  C   UNL     1      43.492   8.427  19.619  1.00  0.00     0.000 C 
BRANCH   4   5
ATOM      5  C   UNL     1      43.859   7.005  19.182  1.00  0.00     0.000 C 
BRANCH   5   6
ATOM      6  C   UNL     1      43.312   5.966  20.169  1.00  0.00     0.006 C 
BRANCH   6   7
ATOM      7  C   UNL     1      44.413   5.469  21.109  1.00  0.00     0.053 C 
BRANCH   7   8
ATOM      8  C   UNL     1      44.556   3.984  21.009  1.00  0.00     0.041 C 
ATOM      9  O   UNL     1      45.668   3.437  21.235  1.00  0.00    -0.550 OA
ATOM     10  O   UNL     1      43.474   3.205  20.617  1.00  0.00    -0.550 OA
ENDBRANCH   7   8
ENDBRANCH   6   7
ENDBRANCH   5   6
ENDBRANCH   4   5
ENDBRANCH   3   4
ENDBRANCH   2   3
ENDBRANCH   1   2
BRANCH   1  11
ATOM     11  C   UNL     1      47.889   9.025  17.145  1.00  0.00     0.000 C 
BRANCH  11  12
ATOM     12  C   UNL     1      49.281   9.687  17.121  1.00  0.00    -0.000 C 
BRANCH  12  13
ATOM     13  C   UNL     1      50.142   9.457  18.380  1.00  0.00    -0.000 C 
BRANCH  13  14
ATOM     14  C   UNL     1      50.871   8.102  18.437  1.00  0.00    -0.000 C 
BRANCH  14  15
ATOM     15  C   UNL     1      50.253   7.135  19.462  1.00  0.00    -0.000 C 
BRANCH  15  16
ATOM     16  C   UNL     1      49.328   7.842  20.469  1.00  0.00    -0.000 C 
BRANCH  16  17
ATOM     17  C   UNL     1      47.899   7.277  20.549  1.00  0.00    -0.003 C 
ATOM     18  C   UNL     1      47.649   6.135  19.565  1.00  0.00     0.004 C 
ENDBRANCH  16  17
ENDBRANCH  15  16
ENDBRANCH  14  15
ENDBRANCH  13  14
ENDBRANCH  12  13
ENDBRANCH  11  12
ENDBRANCH   1  11
TORSDOF 14
ENDMDL
MODEL 7
REMARK VINA RESULT:    -4.122      2.749      5.268
REMARK INTER + INTRA:          -9.050
REMARK INTER:                  -7.004
REMARK INTRA:                  -2.047
REMARK UNBOUND:                -1.555
REMARK SMILES CCCCCCCCCCCCCCCC(=O)[O-]
REMARK SMILES IDX 9 1 10 2 11 3 12 4 13 5 14 6 15 7 16 8 17 9 18 10 8 11 7 12
REMARK SMILES IDX 6 13 5 14 4 15 3 16 2 17 1 18
REMARK H PARENT
REMARK Flexibility Score: inf
ROOT
ATOM      1  C   UNL     1      38.639  -8.735  10.539  1.00  0.00     0.000 C 
ENDROOT
BRANCH   1   2
ATOM      2  C   UNL     1      38.650  -7.197  10.521  1.00  0.00     0.000 C 
BRANCH   2   3
ATOM      3  C   UNL     1      37.255  -6.595  10.761  1.00  0.00     0.000 C 
BRANCH   3   4
ATOM      4  C   UNL     1      36.267  -7.606  11.364  1.00  0.00     0.000 C 
BRANCH   4   5
ATOM      5  C   UNL     1      34.837  -7.056  11.342  1.00  0.00     0.000 C 
BRANCH   5   6
ATOM      6  C   UNL     1      34.769  -5.668  11.991  1.00  0.00     0.006 C 
BRANCH   6   7
ATOM      7  C   UNL     1      33.754  -5.646  13.136  1.00  0.00     0.053 C 
BRANCH   7   8
ATOM      8  C   UNL     1      34.347  -6.242  14.373  1.00  0.00     0.041 C 
ATOM      9  O   UNL     1      33.618  -6.870  15.187  1.00  0.00    -0.550 OA
ATOM     10  O   UNL     1      35.696  -6.062  14.654  1.00  0.00    -0.550 OA
ENDBRANCH   7   8
ENDBRANCH   6   7
ENDBRANCH   5   6
ENDBRANCH   4   5
ENDBRANCH   3   4
ENDBRANCH   2   3
ENDBRANCH   1   2
BRANCH   1  11
ATOM     11  C   UNL     1      38.865  -9.348   9.145  1.00  0.00     0.000 C 
BRANCH  11  12
ATOM     12  C   UNL     1      37.580  -9.664   8.353  1.00  0.00    -0.000 C 
BRANCH  12  13
ATOM     13  C   UNL     1      37.017  -8.495   7.520  1.00  0.00    -0.000 C 
BRANCH  13  14
ATOM     14  C   UNL     1      35.495  -8.286   7.625  1.00  0.00    -0.000 C 
BRANCH  14  15
ATOM     15  C   UNL     1      34.756  -9.534   8.137  1.00  0.00    -0.000 C 
BRANCH  15  16
ATOM     16  C   UNL     1      33.401  -9.202   8.788  1.00  0.00    -0.000 C 
BRANCH  16  17
ATOM     17  C   UNL     1      32.639  -8.029   8.146  1.00  0.00    -0.003 C 
ATOM     18  C   UNL     1      31.876  -7.181   9.162  1.00  0.00     0.004 C 
ENDBRANCH  16  17
ENDBRANCH  15  16
ENDBRANCH  14  15
ENDBRANCH  13  14
ENDBRANCH  12  13
ENDBRANCH  11  12
ENDBRANCH   1  11
TORSDOF 14
ENDMDL
MODEL 8
REMARK VINA RESULT:    -4.087     18.212     20.947
REMARK INTER + INTRA:          -8.987
REMARK INTER:                  -7.019
REMARK INTRA:                  -1.968
REMARK UNBOUND:                -1.555
REMARK SMILES CCCCCCCCCCCCCCCC(=O)[O-]
REMARK SMILES IDX 9 1 10 2 11 3 12 4 13 5 14 6 15 7 16 8 17 9 18 10 8 11 7 12
REMARK SMILES IDX 6 13 5 14 4 15 3 16 2 17 1 18
REMARK H PARENT
REMARK Flexibility Score: inf
ROOT
ATOM      1  C   UNL     1      48.882   9.836  16.798  1.00  0.00     0.000 C 
ENDROOT
BRANCH   1   2
ATOM      2  C   UNL     1      47.763   8.905  17.294  1.00  0.00     0.000 C 
BRANCH   2   3
ATOM      3  C   UNL     1      46.662   9.660  18.056  1.00  0.00     0.000 C 
BRANCH   3   4
ATOM      4  C   UNL     1      45.448   8.775  18.379  1.00  0.00     0.000 C 
BRANCH   4   5
ATOM      5  C   UNL     1      44.607   9.386  19.505  1.00  0.00     0.000 C 
BRANCH   5   6
ATOM      6  C   UNL     1      43.439   8.466  19.883  1.00  0.00     0.006 C 
BRANCH   6   7
ATOM      7  C   UNL     1      43.585   7.093  19.220  1.00  0.00     0.053 C 
BRANCH   7   8
ATOM      8  C   UNL     1      42.678   6.098  19.871  1.00  0.00     0.041 C 
ATOM      9  O   UNL     1      41.694   6.489  20.555  1.00  0.00    -0.550 OA
ATOM     10  O   UNL     1      42.945   4.738  19.766  1.00  0.00    -0.550 OA
ENDBRANCH   7   8
ENDBRANCH   6   7
ENDBRANCH   5   6
ENDBRANCH   4   5
ENDBRANCH   3   4
ENDBRANCH   2   3
ENDBRANCH   1   2
BRANCH   1  11
ATOM     11  C   UNL     1      50.223   9.587  17.511  1.00  0.00     0.000 C 
BRANCH  11  12
ATOM     12  C   UNL     1      50.329   8.238  18.251  1.00  0.00    -0.000 C 
BRANCH  12  13
ATOM     13  C   UNL     1      50.395   8.334  19.789  1.00  0.00    -0.000 C 
BRANCH  13  14
ATOM     14  C   UNL     1      49.180   7.755  20.535  1.00  0.00    -0.000 C 
BRANCH  14  15
ATOM     15  C   UNL     1      48.872   6.301  20.137  1.00  0.00    -0.000 C 
BRANCH  15  16
ATOM     16  C   UNL     1      47.411   6.098  19.695  1.00  0.00    -0.000 C 
BRANCH  16  17
ATOM     17  C   UNL     1      46.505   5.415  20.734  1.00  0.00    -0.003 C 
ATOM     18  C   UNL     1      46.089   6.345  21.873  1.00  0.00     0.004 C 
ENDBRANCH  16  17
ENDBRANCH  15  16
ENDBRANCH  14  15
ENDBRANCH  13  14
ENDBRANCH  12  13
ENDBRANCH  11  12
ENDBRANCH   1  11
TORSDOF 14
ENDMDL
MODEL 9
REMARK VINA RESULT:    -3.995     17.212     19.603
REMARK INTER + INTRA:          -8.819
REMARK INTER:                  -7.097
REMARK INTRA:                  -1.722
REMARK UNBOUND:                -1.555
REMARK SMILES CCCCCCCCCCCCCCCC(=O)[O-]
REMARK SMILES IDX 9 1 10 2 11 3 12 4 13 5 14 6 15 7 16 8 17 9 18 10 8 11 7 12
REMARK SMILES IDX 6 13 5 14 4 15 3 16 2 17 1 18
REMARK H PARENT
REMARK Flexibility Score: inf
ROOT
ATOM      1  C   UNL     1      49.050   8.231  19.329  1.00  0.00     0.000 C 
ENDROOT
BRANCH   1   2
ATOM      2  C   UNL     1      48.813   6.713  19.385  1.00  0.00     0.000 C 
BRANCH   2   3
ATOM      3  C   UNL     1      47.352   6.356  19.707  1.00  0.00     0.000 C 
BRANCH   3   4
ATOM      4  C   UNL     1      47.225   5.089  20.566  1.00  0.00     0.000 C 
BRANCH   4   5
ATOM      5  C   UNL     1      46.265   5.316  21.740  1.00  0.00     0.000 C 
BRANCH   5   6
ATOM      6  C   UNL     1      45.677   3.989  22.235  1.00  0.00     0.006 C 
BRANCH   6   7
ATOM      7  C   UNL     1      45.541   2.986  21.087  1.00  0.00     0.053 C 
BRANCH   7   8
ATOM      8  C   UNL     1      44.239   2.255  21.181  1.00  0.00     0.041 C 
ATOM      9  O   UNL     1      43.442   2.250  20.206  1.00  0.00    -0.550 OA
ATOM     10  O   UNL     1      43.882   1.620  22.365  1.00  0.00    -0.550 OA
ENDBRANCH   7   8
ENDBRANCH   6   7
ENDBRANCH   5   6
ENDBRANCH   4   5
ENDBRANCH   3   4
ENDBRANCH   2   3
ENDBRANCH   1   2
BRANCH   1  11
ATOM     11  C   UNL     1      49.272   8.747  17.896  1.00  0.00     0.000 C 
BRANCH  11  12
ATOM     12  C   UNL     1      48.008   9.283  17.192  1.00  0.00    -0.000 C 
BRANCH  12  13
ATOM     13  C   UNL     1      46.907   9.813  18.132  1.00  0.00    -0.000 C 
BRANCH  13  14
ATOM     14  C   UNL     1      45.606   8.989  18.148  1.00  0.00    -0.000 C 
BRANCH  14  15
ATOM     15  C   UNL     1      44.643   9.417  19.269  1.00  0.00    -0.000 C 
BRANCH  15  16
ATOM     16  C   UNL     1      44.050   8.221  20.038  1.00  0.00    -0.000 C 
BRANCH  16  17
ATOM     17  C   UNL     1      43.621   7.032  19.162  1.00  0.00    -0.003 C 
ATOM     18  C   UNL     1      43.129   5.834  19.975  1.00  0.00     0.004 C 
ENDBRANCH  16  17
ENDBRANCH  15  16
ENDBRANCH  14  15
ENDBRANCH  13  14
ENDBRANCH  12  13
ENDBRANCH  11  12
ENDBRANCH   1  11
TORSDOF 14
ENDMDL
