MODEL 1
REMARK VINA RESULT:    -7.083      0.000      0.000
REMARK INTER + INTRA:          -9.002
REMARK INTER:                  -8.740
REMARK INTRA:                  -0.262
REMARK UNBOUND:                -0.262
REMARK SMILES O=c1c(O)c(-c2cc(O)c(O)c(O)c2)oc2cc(O)cc(O)c12
REMARK SMILES IDX 5 1 3 2 2 3 1 4 23 5 21 6 20 7 18 8 17 9 16 10 15 11 6 12
REMARK SMILES IDX 7 13 8 14 14 15 10 16 12 17 9 18 11 20 13 22 4 24 22 26
REMARK SMILES IDX 19 28
REMARK H PARENT 9 19 11 21 13 23 4 25 22 27 19 29
REMARK Flexibility Score: inf
ROOT
ATOM      1  C   UNL     1     -21.988  11.877 -35.062  1.00  0.00     0.180 A 
ATOM      2  C   UNL     1     -20.747  11.821 -34.402  1.00  0.00     0.208 A 
ATOM      3  C   UNL     1     -19.583  11.619 -35.159  1.00  0.00     0.238 A 
ATOM      4  O   UNL     1     -18.482  11.516 -34.557  1.00  0.00    -0.285 OA
ATOM      5  C   UNL     1     -19.670  11.492 -36.566  1.00  0.00     0.111 A 
ATOM      6  C   UNL     1     -18.550  11.324 -37.436  1.00  0.00     0.134 A 
ATOM      7  C   UNL     1     -18.765  11.079 -38.798  1.00  0.00     0.093 A 
ATOM      8  C   UNL     1     -20.055  11.060 -39.331  1.00  0.00     0.123 A 
ATOM      9  C   UNL     1     -21.151  11.281 -38.501  1.00  0.00     0.094 A 
ATOM     10  C   UNL     1     -20.971  11.492 -37.132  1.00  0.00     0.146 A 
ATOM     11  O   UNL     1     -22.044  11.688 -36.375  1.00  0.00    -0.452 OA
ENDROOT
BRANCH   1  12
ATOM     12  C   UNL     1     -23.257  12.112 -34.334  1.00  0.00     0.029 A 
ATOM     13  C   UNL     1     -23.802  11.086 -33.548  1.00  0.00     0.062 A 
ATOM     14  C   UNL     1     -25.013  11.274 -32.867  1.00  0.00     0.162 A 
ATOM     15  C   UNL     1     -23.958  13.323 -34.459  1.00  0.00     0.062 A 
ATOM     16  C   UNL     1     -25.696  12.496 -32.982  1.00  0.00     0.200 A 
ATOM     17  C   UNL     1     -25.169  13.517 -33.783  1.00  0.00     0.162 A 
BRANCH  14  18
ATOM     18  O   UNL     1     -25.538  10.252 -32.078  1.00  0.00    -0.504 OA
ATOM     19  H   UNL     1     -25.119   9.329 -32.057  1.00  0.00     0.293 HD
ENDBRANCH  14  18
BRANCH  16  20
ATOM     20  O   UNL     1     -26.901  12.708 -32.311  1.00  0.00    -0.502 OA
ATOM     21  H   UNL     1     -27.188  12.141 -31.523  1.00  0.00     0.293 HD
ENDBRANCH  16  20
BRANCH  17  22
ATOM     22  O   UNL     1     -25.859  14.722 -33.904  1.00  0.00    -0.504 OA
ATOM     23  H   UNL     1     -25.465  15.511 -34.405  1.00  0.00     0.293 HD
ENDBRANCH  17  22
ENDBRANCH   1  12
BRANCH   2  24
ATOM     24  O   UNL     1     -20.687  11.927 -33.010  1.00  0.00    -0.502 OA
ATOM     25  H   UNL     1     -21.430  11.595 -32.406  1.00  0.00     0.293 HD
ENDBRANCH   2  24
BRANCH   6  26
ATOM     26  O   UNL     1     -17.218  11.418 -37.021  1.00  0.00    -0.507 OA
ATOM     27  H   UNL     1     -16.695  10.669 -36.593  1.00  0.00     0.293 HD
ENDBRANCH   6  26
BRANCH   8  28
ATOM     28  O   UNL     1     -20.258  10.829 -40.691  1.00  0.00    -0.508 OA
ATOM     29  H   UNL     1     -20.314   9.889 -41.067  1.00  0.00     0.293 HD
ENDBRANCH   8  28
TORSDOF 7
ENDMDL
MODEL 2
REMARK VINA RESULT:    -6.937      7.048      9.754
REMARK INTER + INTRA:          -8.820
REMARK INTER:                  -8.603
REMARK INTRA:                  -0.217
REMARK UNBOUND:                -0.262
REMARK SMILES O=c1c(O)c(-c2cc(O)c(O)c(O)c2)oc2cc(O)cc(O)c12
REMARK SMILES IDX 5 1 3 2 2 3 1 4 23 5 21 6 20 7 18 8 17 9 16 10 15 11 6 12
REMARK SMILES IDX 7 13 8 14 14 15 10 16 12 17 9 18 11 20 13 22 4 24 22 26
REMARK SMILES IDX 19 28
REMARK H PARENT 9 19 11 21 13 23 4 25 22 27 19 29
REMARK Flexibility Score: inf
ROOT
ATOM      1  C   UNL     1     -24.191  18.383 -38.542  1.00  0.00     0.180 A 
ATOM      2  C   UNL     1     -25.477  17.828 -38.655  1.00  0.00     0.208 A 
ATOM      3  C   UNL     1     -25.877  16.843 -37.738  1.00  0.00     0.238 A 
ATOM      4  O   UNL     1     -27.010  16.312 -37.878  1.00  0.00    -0.285 OA
ATOM      5  C   UNL     1     -24.993  16.436 -36.711  1.00  0.00     0.111 A 
ATOM      6  C   UNL     1     -25.308  15.474 -35.703  1.00  0.00     0.134 A 
ATOM      7  C   UNL     1     -24.311  15.053 -34.815  1.00  0.00     0.093 A 
ATOM      8  C   UNL     1     -23.029  15.606 -34.857  1.00  0.00     0.123 A 
ATOM      9  C   UNL     1     -22.729  16.587 -35.797  1.00  0.00     0.094 A 
ATOM     10  C   UNL     1     -23.692  17.002 -36.721  1.00  0.00     0.146 A 
ATOM     11  O   UNL     1     -23.360  17.933 -37.608  1.00  0.00    -0.452 OA
ENDROOT
BRANCH   1  12
ATOM     12  C   UNL     1     -23.706  19.443 -39.455  1.00  0.00     0.029 A 
ATOM     13  C   UNL     1     -23.455  19.134 -40.801  1.00  0.00     0.062 A 
ATOM     14  C   UNL     1     -22.977  20.113 -41.682  1.00  0.00     0.162 A 
ATOM     15  C   UNL     1     -23.438  20.742 -38.991  1.00  0.00     0.062 A 
ATOM     16  C   UNL     1     -22.731  21.414 -41.213  1.00  0.00     0.200 A 
ATOM     17  C   UNL     1     -22.957  21.725 -39.866  1.00  0.00     0.162 A 
BRANCH  14  18
ATOM     18  O   UNL     1     -22.744  19.798 -43.019  1.00  0.00    -0.504 OA
ATOM     19  H   UNL     1     -22.397  20.487 -43.675  1.00  0.00     0.293 HD
ENDBRANCH  14  18
BRANCH  16  20
ATOM     20  O   UNL     1     -22.256  22.407 -42.071  1.00  0.00    -0.502 OA
ATOM     21  H   UNL     1     -21.915  22.199 -43.001  1.00  0.00     0.293 HD
ENDBRANCH  16  20
BRANCH  17  22
ATOM     22  O   UNL     1     -22.699  23.014 -39.403  1.00  0.00    -0.504 OA
ATOM     23  H   UNL     1     -22.007  23.608 -39.846  1.00  0.00     0.293 HD
ENDBRANCH  17  22
ENDBRANCH   1  12
BRANCH   2  24
ATOM     24  O   UNL     1     -26.327  18.229 -39.690  1.00  0.00    -0.502 OA
ATOM     25  H   UNL     1     -25.982  18.662 -40.539  1.00  0.00     0.293 HD
ENDBRANCH   2  24
BRANCH   6  26
ATOM     26  O   UNL     1     -26.582  14.929 -35.516  1.00  0.00    -0.507 OA
ATOM     27  H   UNL     1     -26.790  14.147 -34.914  1.00  0.00     0.293 HD
ENDBRANCH   6  26
BRANCH   8  28
ATOM     28  O   UNL     1     -22.047  15.192 -33.959  1.00  0.00    -0.508 OA
ATOM     29  H   UNL     1     -21.838  14.210 -33.817  1.00  0.00     0.293 HD
ENDBRANCH   8  28
TORSDOF 7
ENDMDL
MODEL 3
REMARK VINA RESULT:    -6.926      1.479      3.742
REMARK INTER + INTRA:          -8.808
REMARK INTER:                  -8.555
REMARK INTRA:                  -0.253
REMARK UNBOUND:                -0.262
REMARK SMILES O=c1c(O)c(-c2cc(O)c(O)c(O)c2)oc2cc(O)cc(O)c12
REMARK SMILES IDX 5 1 3 2 2 3 1 4 23 5 21 6 20 7 18 8 17 9 16 10 15 11 6 12
REMARK SMILES IDX 7 13 8 14 14 15 10 16 12 17 9 18 11 20 13 22 4 24 22 26
REMARK SMILES IDX 19 28
REMARK H PARENT 9 19 11 21 13 23 4 25 22 27 19 29
REMARK Flexibility Score: inf
ROOT
ATOM      1  C   UNL     1     -21.904  12.033 -34.595  1.00  0.00     0.180 A 
ATOM      2  C   UNL     1     -21.605  11.841 -35.956  1.00  0.00     0.208 A 
ATOM      3  C   UNL     1     -20.271  11.628 -36.337  1.00  0.00     0.238 A 
ATOM      4  O   UNL     1     -20.005  11.511 -37.562  1.00  0.00    -0.285 OA
ATOM      5  C   UNL     1     -19.255  11.594 -35.353  1.00  0.00     0.111 A 
ATOM      6  C   UNL     1     -17.874  11.346 -35.622  1.00  0.00     0.134 A 
ATOM      7  C   UNL     1     -16.937  11.465 -34.588  1.00  0.00     0.093 A 
ATOM      8  C   UNL     1     -17.339  11.758 -33.283  1.00  0.00     0.123 A 
ATOM      9  C   UNL     1     -18.689  11.943 -32.999  1.00  0.00     0.094 A 
ATOM     10  C   UNL     1     -19.644  11.867 -34.016  1.00  0.00     0.146 A 
ATOM     11  O   UNL     1     -20.920  12.061 -33.704  1.00  0.00    -0.452 OA
ENDROOT
BRANCH   1  12
ATOM     12  C   UNL     1     -23.289  12.238 -34.114  1.00  0.00     0.029 A 
ATOM     13  C   UNL     1     -23.935  13.457 -34.368  1.00  0.00     0.062 A 
ATOM     14  C   UNL     1     -25.239  13.685 -33.905  1.00  0.00     0.162 A 
ATOM     15  C   UNL     1     -23.953  11.258 -33.356  1.00  0.00     0.062 A 
ATOM     16  C   UNL     1     -25.902  12.691 -33.166  1.00  0.00     0.200 A 
ATOM     17  C   UNL     1     -25.254  11.481 -32.889  1.00  0.00     0.162 A 
BRANCH  14  18
ATOM     18  O   UNL     1     -25.875  14.895 -34.176  1.00  0.00    -0.504 OA
ATOM     19  H   UNL     1     -26.119  15.544 -33.437  1.00  0.00     0.293 HD
ENDBRANCH  14  18
BRANCH  16  20
ATOM     20  O   UNL     1     -27.200  12.894 -32.696  1.00  0.00    -0.502 OA
ATOM     21  H   UNL     1     -27.388  13.231 -31.760  1.00  0.00     0.293 HD
ENDBRANCH  16  20
BRANCH  17  22
ATOM     22  O   UNL     1     -25.912  10.503 -32.144  1.00  0.00    -0.504 OA
ATOM     23  H   UNL     1     -25.454   9.638 -31.882  1.00  0.00     0.293 HD
ENDBRANCH  17  22
ENDBRANCH   1  12
BRANCH   2  24
ATOM     24  O   UNL     1     -22.623  11.900 -36.913  1.00  0.00    -0.502 OA
ATOM     25  H   UNL     1     -23.579  11.635 -36.707  1.00  0.00     0.293 HD
ENDBRANCH   2  24
BRANCH   6  26
ATOM     26  O   UNL     1     -17.380  10.955 -36.871  1.00  0.00    -0.507 OA
ATOM     27  H   UNL     1     -16.910  10.082 -37.055  1.00  0.00     0.293 HD
ENDBRANCH   6  26
BRANCH   8  28
ATOM     28  O   UNL     1     -16.401  11.859 -32.257  1.00  0.00    -0.508 OA
ATOM     29  H   UNL     1     -16.680  12.032 -31.298  1.00  0.00     0.293 HD
ENDBRANCH   8  28
TORSDOF 7
ENDMDL
MODEL 4
REMARK VINA RESULT:    -6.904      3.756      7.431
REMARK INTER + INTRA:          -8.780
REMARK INTER:                  -8.694
REMARK INTRA:                  -0.086
REMARK UNBOUND:                -0.262
REMARK SMILES O=c1c(O)c(-c2cc(O)c(O)c(O)c2)oc2cc(O)cc(O)c12
REMARK SMILES IDX 5 1 3 2 2 3 1 4 23 5 21 6 20 7 18 8 17 9 16 10 15 11 6 12
REMARK SMILES IDX 7 13 8 14 14 15 10 16 12 17 9 18 11 20 13 22 4 24 22 26
REMARK SMILES IDX 19 28
REMARK H PARENT 9 19 11 21 13 23 4 25 22 27 19 29
REMARK Flexibility Score: inf
ROOT
ATOM      1  C   UNL     1     -17.569  12.391 -34.369  1.00  0.00     0.180 A 
ATOM      2  C   UNL     1     -17.403  11.587 -35.510  1.00  0.00     0.208 A 
ATOM      3  C   UNL     1     -18.531  10.982 -36.086  1.00  0.00     0.238 A 
ATOM      4  O   UNL     1     -18.368  10.220 -37.076  1.00  0.00    -0.285 OA
ATOM      5  C   UNL     1     -19.811  11.199 -35.524  1.00  0.00     0.111 A 
ATOM      6  C   UNL     1     -21.028  10.667 -36.049  1.00  0.00     0.134 A 
ATOM      7  C   UNL     1     -22.221  10.840 -35.337  1.00  0.00     0.093 A 
ATOM      8  C   UNL     1     -22.252  11.581 -34.153  1.00  0.00     0.123 A 
ATOM      9  C   UNL     1     -21.081  12.153 -33.664  1.00  0.00     0.094 A 
ATOM     10  C   UNL     1     -19.868  11.968 -34.333  1.00  0.00     0.146 A 
ATOM     11  O   UNL     1     -18.774  12.522 -33.826  1.00  0.00    -0.452 OA
ENDROOT
BRANCH   1  12
ATOM     12  C   UNL     1     -16.431  13.083 -33.720  1.00  0.00     0.029 A 
ATOM     13  C   UNL     1     -16.246  12.958 -32.335  1.00  0.00     0.062 A 
ATOM     14  C   UNL     1     -15.190  13.619 -31.693  1.00  0.00     0.162 A 
ATOM     15  C   UNL     1     -15.563  13.909 -34.454  1.00  0.00     0.062 A 
ATOM     16  C   UNL     1     -14.315  14.427 -32.438  1.00  0.00     0.200 A 
ATOM     17  C   UNL     1     -14.507  14.574 -33.817  1.00  0.00     0.162 A 
BRANCH  14  18
ATOM     18  O   UNL     1     -15.009  13.477 -30.318  1.00  0.00    -0.504 OA
ATOM     19  H   UNL     1     -15.717  13.054 -29.730  1.00  0.00     0.293 HD
ENDBRANCH  14  18
BRANCH  16  20
ATOM     20  O   UNL     1     -13.255  15.093 -31.822  1.00  0.00    -0.502 OA
ATOM     21  H   UNL     1     -12.442  14.603 -31.469  1.00  0.00     0.293 HD
ENDBRANCH  16  20
BRANCH  17  22
ATOM     22  O   UNL     1     -13.644  15.387 -34.550  1.00  0.00    -0.504 OA
ATOM     23  H   UNL     1     -13.989  16.157 -35.112  1.00  0.00     0.293 HD
ENDBRANCH  17  22
ENDBRANCH   1  12
BRANCH   2  24
ATOM     24  O   UNL     1     -16.126  11.369 -36.036  1.00  0.00    -0.502 OA
ATOM     25  H   UNL     1     -15.714  10.445 -36.098  1.00  0.00     0.293 HD
ENDBRANCH   2  24
BRANCH   6  26
ATOM     26  O   UNL     1     -21.122   9.993 -37.270  1.00  0.00    -0.507 OA
ATOM     27  H   UNL     1     -21.902  10.061 -37.906  1.00  0.00     0.293 HD
ENDBRANCH   6  26
BRANCH   8  28
ATOM     28  O   UNL     1     -23.447  11.760 -33.458  1.00  0.00    -0.508 OA
ATOM     29  H   UNL     1     -23.457  12.022 -32.479  1.00  0.00     0.293 HD
ENDBRANCH   8  28
TORSDOF 7
ENDMDL
MODEL 5
REMARK VINA RESULT:    -6.643      4.806      8.303
REMARK INTER + INTRA:          -8.458
REMARK INTER:                  -8.132
REMARK INTRA:                  -0.326
REMARK UNBOUND:                -0.262
REMARK SMILES O=c1c(O)c(-c2cc(O)c(O)c(O)c2)oc2cc(O)cc(O)c12
REMARK SMILES IDX 5 1 3 2 2 3 1 4 23 5 21 6 20 7 18 8 17 9 16 10 15 11 6 12
REMARK SMILES IDX 7 13 8 14 14 15 10 16 12 17 9 18 11 20 13 22 4 24 22 26
REMARK SMILES IDX 19 28
REMARK H PARENT 9 19 11 21 13 23 4 25 22 27 19 29
REMARK Flexibility Score: inf
ROOT
ATOM      1  C   UNL     1     -21.938  15.090 -39.473  1.00  0.00     0.180 A 
ATOM      2  C   UNL     1     -21.746  15.995 -40.531  1.00  0.00     0.208 A 
ATOM      3  C   UNL     1     -22.691  17.013 -40.736  1.00  0.00     0.238 A 
ATOM      4  O   UNL     1     -22.542  17.787 -41.717  1.00  0.00    -0.285 OA
ATOM      5  C   UNL     1     -23.807  17.122 -39.872  1.00  0.00     0.111 A 
ATOM      6  C   UNL     1     -24.806  18.138 -39.962  1.00  0.00     0.134 A 
ATOM      7  C   UNL     1     -25.935  18.072 -39.136  1.00  0.00     0.093 A 
ATOM      8  C   UNL     1     -26.069  17.064 -38.179  1.00  0.00     0.123 A 
ATOM      9  C   UNL     1     -25.071  16.102 -38.043  1.00  0.00     0.094 A 
ATOM     10  C   UNL     1     -23.951  16.120 -38.877  1.00  0.00     0.146 A 
ATOM     11  O   UNL     1     -23.029  15.178 -38.721  1.00  0.00    -0.452 OA
ENDROOT
BRANCH   1  12
ATOM     12  C   UNL     1     -20.972  14.006 -39.179  1.00  0.00     0.029 A 
ATOM     13  C   UNL     1     -21.017  12.819 -39.926  1.00  0.00     0.062 A 
ATOM     14  C   UNL     1     -20.128  11.770 -39.654  1.00  0.00     0.162 A 
ATOM     15  C   UNL     1     -20.046  14.117 -38.128  1.00  0.00     0.062 A 
ATOM     16  C   UNL     1     -19.192  11.898 -38.615  1.00  0.00     0.200 A 
ATOM     17  C   UNL     1     -19.157  13.071 -37.849  1.00  0.00     0.162 A 
BRANCH  14  18
ATOM     18  O   UNL     1     -20.173  10.601 -40.412  1.00  0.00    -0.504 OA
ATOM     19  H   UNL     1     -20.218   9.687 -39.978  1.00  0.00     0.293 HD
ENDBRANCH  14  18
BRANCH  16  20
ATOM     20  O   UNL     1     -18.296  10.869 -38.326  1.00  0.00    -0.502 OA
ATOM     21  H   UNL     1     -17.622  10.534 -39.004  1.00  0.00     0.293 HD
ENDBRANCH  16  20
BRANCH  17  22
ATOM     22  O   UNL     1     -18.235  13.188 -36.810  1.00  0.00    -0.504 OA
ATOM     23  H   UNL     1     -18.515  13.100 -35.840  1.00  0.00     0.293 HD
ENDBRANCH  17  22
ENDBRANCH   1  12
BRANCH   2  24
ATOM     24  O   UNL     1     -20.648  15.856 -41.385  1.00  0.00    -0.502 OA
ATOM     25  H   UNL     1     -19.876  15.232 -41.180  1.00  0.00     0.293 HD
ENDBRANCH   2  24
BRANCH   6  26
ATOM     26  O   UNL     1     -24.723  19.240 -40.819  1.00  0.00    -0.507 OA
ATOM     27  H   UNL     1     -24.761  20.203 -40.523  1.00  0.00     0.293 HD
ENDBRANCH   6  26
BRANCH   8  28
ATOM     28  O   UNL     1     -27.188  17.015 -37.351  1.00  0.00    -0.508 OA
ATOM     29  H   UNL     1     -27.568  17.851 -36.922  1.00  0.00     0.293 HD
ENDBRANCH   8  28
TORSDOF 7
ENDMDL
MODEL 6
REMARK VINA RESULT:    -6.628      2.324      2.990
REMARK INTER + INTRA:          -8.440
REMARK INTER:                  -8.108
REMARK INTRA:                  -0.332
REMARK UNBOUND:                -0.262
REMARK SMILES O=c1c(O)c(-c2cc(O)c(O)c(O)c2)oc2cc(O)cc(O)c12
REMARK SMILES IDX 5 1 3 2 2 3 1 4 23 5 21 6 20 7 18 8 17 9 16 10 15 11 6 12
REMARK SMILES IDX 7 13 8 14 14 15 10 16 12 17 9 18 11 20 13 22 4 24 22 26
REMARK SMILES IDX 19 28
REMARK H PARENT 9 19 11 21 13 23 4 25 22 27 19 29
REMARK Flexibility Score: inf
ROOT
ATOM      1  C   UNL     1     -22.378  13.488 -36.588  1.00  0.00     0.180 A 
ATOM      2  C   UNL     1     -21.718  12.834 -35.533  1.00  0.00     0.208 A 
ATOM      3  C   UNL     1     -20.613  12.019 -35.823  1.00  0.00     0.238 A 
ATOM      4  O   UNL     1     -20.061  11.393 -34.880  1.00  0.00    -0.285 OA
ATOM      5  C   UNL     1     -20.171  11.880 -37.160  1.00  0.00     0.111 A 
ATOM      6  C   UNL     1     -19.037  11.111 -37.564  1.00  0.00     0.134 A 
ATOM      7  C   UNL     1     -18.770  10.939 -38.927  1.00  0.00     0.093 A 
ATOM      8  C   UNL     1     -19.556  11.562 -39.899  1.00  0.00     0.123 A 
ATOM      9  C   UNL     1     -20.628  12.362 -39.514  1.00  0.00     0.094 A 
ATOM     10  C   UNL     1     -20.943  12.523 -38.162  1.00  0.00     0.146 A 
ATOM     11  O   UNL     1     -21.980  13.286 -37.839  1.00  0.00    -0.452 OA
ENDROOT
BRANCH   1  12
ATOM     12  C   UNL     1     -23.535  14.384 -36.359  1.00  0.00     0.029 A 
ATOM     13  C   UNL     1     -24.815  13.832 -36.203  1.00  0.00     0.062 A 
ATOM     14  C   UNL     1     -25.930  14.658 -36.006  1.00  0.00     0.162 A 
ATOM     15  C   UNL     1     -23.388  15.782 -36.352  1.00  0.00     0.062 A 
ATOM     16  C   UNL     1     -25.771  16.053 -35.979  1.00  0.00     0.200 A 
ATOM     17  C   UNL     1     -24.499  16.613 -36.158  1.00  0.00     0.162 A 
BRANCH  14  18
ATOM     18  O   UNL     1     -27.195  14.097 -35.838  1.00  0.00    -0.504 OA
ATOM     19  H   UNL     1     -27.943  14.265 -36.501  1.00  0.00     0.293 HD
ENDBRANCH  14  18
BRANCH  16  20
ATOM     20  O   UNL     1     -26.865  16.897 -35.783  1.00  0.00    -0.502 OA
ATOM     21  H   UNL     1     -27.670  16.887 -36.397  1.00  0.00     0.293 HD
ENDBRANCH  16  20
BRANCH  17  22
ATOM     22  O   UNL     1     -24.348  17.999 -36.144  1.00  0.00    -0.504 OA
ATOM     23  H   UNL     1     -23.484  18.441 -36.437  1.00  0.00     0.293 HD
ENDBRANCH  17  22
ENDBRANCH   1  12
BRANCH   2  24
ATOM     24  O   UNL     1     -22.185  12.968 -34.222  1.00  0.00    -0.502 OA
ATOM     25  H   UNL     1     -21.565  12.963 -33.421  1.00  0.00     0.293 HD
ENDBRANCH   2  24
BRANCH   6  26
ATOM     26  O   UNL     1     -18.135  10.524 -36.671  1.00  0.00    -0.507 OA
ATOM     27  H   UNL     1     -17.137  10.676 -36.680  1.00  0.00     0.293 HD
ENDBRANCH   6  26
BRANCH   8  28
ATOM     28  O   UNL     1     -19.274  11.397 -41.254  1.00  0.00    -0.508 OA
ATOM     29  H   UNL     1     -19.578  12.073 -41.945  1.00  0.00     0.293 HD
ENDBRANCH   8  28
TORSDOF 7
ENDMDL
MODEL 7
REMARK VINA RESULT:    -6.613      4.608      6.638
REMARK INTER + INTRA:          -8.421
REMARK INTER:                  -8.356
REMARK INTRA:                  -0.065
REMARK UNBOUND:                -0.262
REMARK SMILES O=c1c(O)c(-c2cc(O)c(O)c(O)c2)oc2cc(O)cc(O)c12
REMARK SMILES IDX 5 1 3 2 2 3 1 4 23 5 21 6 20 7 18 8 17 9 16 10 15 11 6 12
REMARK SMILES IDX 7 13 8 14 14 15 10 16 12 17 9 18 11 20 13 22 4 24 22 26
REMARK SMILES IDX 19 28
REMARK H PARENT 9 19 11 21 13 23 4 25 22 27 19 29
REMARK Flexibility Score: inf
ROOT
ATOM      1  C   UNL     1     -17.633  12.128 -34.789  1.00  0.00     0.180 A 
ATOM      2  C   UNL     1     -18.104  10.828 -34.536  1.00  0.00     0.208 A 
ATOM      3  C   UNL     1     -18.968  10.224 -35.463  1.00  0.00     0.238 A 
ATOM      4  O   UNL     1     -19.428   9.081 -35.203  1.00  0.00    -0.285 OA
ATOM      5  C   UNL     1     -19.338  10.921 -36.637  1.00  0.00     0.111 A 
ATOM      6  C   UNL     1     -20.176  10.390 -37.665  1.00  0.00     0.134 A 
ATOM      7  C   UNL     1     -20.582  11.215 -38.720  1.00  0.00     0.093 A 
ATOM      8  C   UNL     1     -20.127  12.532 -38.820  1.00  0.00     0.123 A 
ATOM      9  C   UNL     1     -19.262  13.041 -37.855  1.00  0.00     0.094 A 
ATOM     10  C   UNL     1     -18.868  12.253 -36.770  1.00  0.00     0.146 A 
ATOM     11  O   UNL     1     -18.051  12.781 -35.867  1.00  0.00    -0.452 OA
ENDROOT
BRANCH   1  12
ATOM     12  C   UNL     1     -16.699  12.821 -33.870  1.00  0.00     0.029 A 
ATOM     13  C   UNL     1     -17.056  12.994 -32.525  1.00  0.00     0.062 A 
ATOM     14  C   UNL     1     -16.200  13.664 -31.640  1.00  0.00     0.162 A 
ATOM     15  C   UNL     1     -15.487  13.361 -34.331  1.00  0.00     0.062 A 
ATOM     16  C   UNL     1     -14.981  14.182 -32.104  1.00  0.00     0.200 A 
ATOM     17  C   UNL     1     -14.629  14.034 -33.452  1.00  0.00     0.162 A 
BRANCH  14  18
ATOM     18  O   UNL     1     -16.559  13.817 -30.301  1.00  0.00    -0.504 OA
ATOM     19  H   UNL     1     -17.249  13.218 -29.864  1.00  0.00     0.293 HD
ENDBRANCH  14  18
BRANCH  16  20
ATOM     20  O   UNL     1     -14.111  14.852 -31.243  1.00  0.00    -0.502 OA
ATOM     21  H   UNL     1     -13.106  14.732 -31.291  1.00  0.00     0.293 HD
ENDBRANCH  16  20
BRANCH  17  22
ATOM     22  O   UNL     1     -13.423  14.562 -33.911  1.00  0.00    -0.504 OA
ATOM     23  H   UNL     1     -13.053  14.323 -34.824  1.00  0.00     0.293 HD
ENDBRANCH  17  22
ENDBRANCH   1  12
BRANCH   2  24
ATOM     24  O   UNL     1     -17.742  10.167 -33.358  1.00  0.00    -0.502 OA
ATOM     25  H   UNL     1     -18.426   9.748 -32.738  1.00  0.00     0.293 HD
ENDBRANCH   2  24
BRANCH   6  26
ATOM     26  O   UNL     1     -20.610   9.061 -37.709  1.00  0.00    -0.507 OA
ATOM     27  H   UNL     1     -20.099   8.303 -38.134  1.00  0.00     0.293 HD
ENDBRANCH   6  26
BRANCH   8  28
ATOM     28  O   UNL     1     -20.524  13.342 -39.883  1.00  0.00    -0.508 OA
ATOM     29  H   UNL     1     -20.570  14.351 -39.792  1.00  0.00     0.293 HD
ENDBRANCH   8  28
TORSDOF 7
ENDMDL
MODEL 8
REMARK VINA RESULT:    -6.518      5.663      8.165
REMARK INTER + INTRA:          -8.304
REMARK INTER:                  -7.939
REMARK INTRA:                  -0.365
REMARK UNBOUND:                -0.262
REMARK SMILES O=c1c(O)c(-c2cc(O)c(O)c(O)c2)oc2cc(O)cc(O)c12
REMARK SMILES IDX 5 1 3 2 2 3 1 4 23 5 21 6 20 7 18 8 17 9 16 10 15 11 6 12
REMARK SMILES IDX 7 13 8 14 14 15 10 16 12 17 9 18 11 20 13 22 4 24 22 26
REMARK SMILES IDX 19 28
REMARK H PARENT 9 19 11 21 13 23 4 25 22 27 19 29
REMARK Flexibility Score: inf
ROOT
ATOM      1  C   UNL     1     -22.700  15.679 -39.051  1.00  0.00     0.180 A 
ATOM      2  C   UNL     1     -23.381  16.196 -37.935  1.00  0.00     0.208 A 
ATOM      3  C   UNL     1     -23.946  17.478 -38.015  1.00  0.00     0.238 A 
ATOM      4  O   UNL     1     -24.508  17.956 -36.995  1.00  0.00    -0.285 OA
ATOM      5  C   UNL     1     -23.836  18.222 -39.215  1.00  0.00     0.111 A 
ATOM      6  C   UNL     1     -24.405  19.515 -39.422  1.00  0.00     0.134 A 
ATOM      7  C   UNL     1     -24.124  20.212 -40.603  1.00  0.00     0.093 A 
ATOM      8  C   UNL     1     -23.348  19.636 -41.611  1.00  0.00     0.123 A 
ATOM      9  C   UNL     1     -22.838  18.352 -41.444  1.00  0.00     0.094 A 
ATOM     10  C   UNL     1     -23.071  17.645 -40.261  1.00  0.00     0.146 A 
ATOM     11  O   UNL     1     -22.558  16.427 -40.139  1.00  0.00    -0.452 OA
ENDROOT
BRANCH   1  12
ATOM     12  C   UNL     1     -22.100  14.325 -39.050  1.00  0.00     0.029 A 
ATOM     13  C   UNL     1     -20.753  14.167 -38.691  1.00  0.00     0.062 A 
ATOM     14  C   UNL     1     -20.155  12.899 -38.702  1.00  0.00     0.162 A 
ATOM     15  C   UNL     1     -22.835  13.199 -39.457  1.00  0.00     0.062 A 
ATOM     16  C   UNL     1     -20.903  11.777 -39.091  1.00  0.00     0.200 A 
ATOM     17  C   UNL     1     -22.242  11.930 -39.472  1.00  0.00     0.162 A 
BRANCH  14  18
ATOM     18  O   UNL     1     -18.819  12.753 -38.330  1.00  0.00    -0.504 OA
ATOM     19  H   UNL     1     -18.065  12.897 -38.991  1.00  0.00     0.293 HD
ENDBRANCH  14  18
BRANCH  16  20
ATOM     20  O   UNL     1     -20.331  10.504 -39.108  1.00  0.00    -0.502 OA
ATOM     21  H   UNL     1     -19.607  10.248 -39.768  1.00  0.00     0.293 HD
ENDBRANCH  16  20
BRANCH  17  22
ATOM     22  O   UNL     1     -22.978  10.814 -39.869  1.00  0.00    -0.504 OA
ATOM     23  H   UNL     1     -22.806   9.897 -39.473  1.00  0.00     0.293 HD
ENDBRANCH  17  22
ENDBRANCH   1  12
BRANCH   2  24
ATOM     24  O   UNL     1     -23.459  15.453 -36.753  1.00  0.00    -0.502 OA
ATOM     25  H   UNL     1     -24.040  14.627 -36.667  1.00  0.00     0.293 HD
ENDBRANCH   2  24
BRANCH   6  26
ATOM     26  O   UNL     1     -25.269  20.142 -38.518  1.00  0.00    -0.507 OA
ATOM     27  H   UNL     1     -24.972  20.684 -37.721  1.00  0.00     0.293 HD
ENDBRANCH   6  26
BRANCH   8  28
ATOM     28  O   UNL     1     -23.085  20.332 -42.790  1.00  0.00    -0.508 OA
ATOM     29  H   UNL     1     -22.137  20.504 -43.104  1.00  0.00     0.293 HD
ENDBRANCH   8  28
TORSDOF 7
ENDMDL
MODEL 9
REMARK VINA RESULT:    -6.518      7.207      9.363
REMARK INTER + INTRA:          -8.304
REMARK INTER:                  -8.248
REMARK INTRA:                  -0.056
REMARK UNBOUND:                -0.262
REMARK SMILES O=c1c(O)c(-c2cc(O)c(O)c(O)c2)oc2cc(O)cc(O)c12
REMARK SMILES IDX 5 1 3 2 2 3 1 4 23 5 21 6 20 7 18 8 17 9 16 10 15 11 6 12
REMARK SMILES IDX 7 13 8 14 14 15 10 16 12 17 9 18 11 20 13 22 4 24 22 26
REMARK SMILES IDX 19 28
REMARK H PARENT 9 19 11 21 13 23 4 25 22 27 19 29
REMARK Flexibility Score: inf
ROOT
ATOM      1  C   UNL     1     -23.989  18.359 -38.722  1.00  0.00     0.180 A 
ATOM      2  C   UNL     1     -24.776  18.427 -37.559  1.00  0.00     0.208 A 
ATOM      3  C   UNL     1     -25.216  17.234 -36.964  1.00  0.00     0.238 A 
ATOM      4  O   UNL     1     -25.964  17.304 -35.953  1.00  0.00    -0.285 OA
ATOM      5  C   UNL     1     -24.853  15.989 -37.529  1.00  0.00     0.111 A 
ATOM      6  C   UNL     1     -25.210  14.717 -36.987  1.00  0.00     0.134 A 
ATOM      7  C   UNL     1     -24.906  13.552 -37.702  1.00  0.00     0.093 A 
ATOM      8  C   UNL     1     -24.201  13.609 -38.906  1.00  0.00     0.123 A 
ATOM      9  C   UNL     1     -23.796  14.841 -39.413  1.00  0.00     0.094 A 
ATOM     10  C   UNL     1     -24.116  16.024 -38.742  1.00  0.00     0.146 A 
ATOM     11  O   UNL     1     -23.720  17.178 -39.266  1.00  0.00    -0.452 OA
ENDROOT
BRANCH   1  12
ATOM     12  C   UNL     1     -23.467  19.572 -39.392  1.00  0.00     0.029 A 
ATOM     13  C   UNL     1     -23.604  19.707 -40.782  1.00  0.00     0.062 A 
ATOM     14  C   UNL     1     -23.101  20.835 -41.444  1.00  0.00     0.162 A 
ATOM     15  C   UNL     1     -22.785  20.568 -38.673  1.00  0.00     0.062 A 
ATOM     16  C   UNL     1     -22.438  21.835 -40.714  1.00  0.00     0.200 A 
ATOM     17  C   UNL     1     -22.276  21.697 -39.329  1.00  0.00     0.162 A 
BRANCH  14  18
ATOM     18  O   UNL     1     -23.255  20.964 -42.823  1.00  0.00    -0.504 OA
ATOM     19  H   UNL     1     -24.154  20.832 -43.272  1.00  0.00     0.293 HD
ENDBRANCH  14  18
BRANCH  16  20
ATOM     20  O   UNL     1     -21.929  22.969 -41.349  1.00  0.00    -0.502 OA
ATOM     21  H   UNL     1     -20.938  23.093 -41.517  1.00  0.00     0.293 HD
ENDBRANCH  16  20
BRANCH  17  22
ATOM     22  O   UNL     1     -21.606  22.686 -38.612  1.00  0.00    -0.504 OA
ATOM     23  H   UNL     1     -21.504  23.627 -38.974  1.00  0.00     0.293 HD
ENDBRANCH  17  22
ENDBRANCH   1  12
BRANCH   2  24
ATOM     24  O   UNL     1     -25.141  19.668 -37.029  1.00  0.00    -0.502 OA
ATOM     25  H   UNL     1     -24.466  20.306 -36.623  1.00  0.00     0.293 HD
ENDBRANCH   2  24
BRANCH   6  26
ATOM     26  O   UNL     1     -25.833  14.544 -35.748  1.00  0.00    -0.507 OA
ATOM     27  H   UNL     1     -25.363  14.594 -34.856  1.00  0.00     0.293 HD
ENDBRANCH   6  26
BRANCH   8  28
ATOM     28  O   UNL     1     -23.889  12.444 -39.604  1.00  0.00    -0.508 OA
ATOM     29  H   UNL     1     -23.141  11.830 -39.303  1.00  0.00     0.293 HD
ENDBRANCH   8  28
TORSDOF 7
ENDMDL
