MODEL 1
REMARK VINA RESULT:    -7.638      0.000      0.000
REMARK INTER + INTRA:          -8.534
REMARK INTER:                  -8.308
REMARK INTRA:                  -0.226
REMARK UNBOUND:                -0.226
REMARK SMILES C=C(C)[C@@H]1CC[C@@]2(C)CC[C@@]3(C)[C@@H](CC[C@H]4[C@]5(C)CC[C@H](O)C(C)(C)[C@@H]5CC[C@]43C)[C@H]12
REMARK SMILES IDX 4 1 5 2 6 3 7 4 31 5 13 6 14 7 15 8 16 9 17 10 19 11 20 12
REMARK SMILES IDX 21 13 23 14 26 15 27 16 28 17 29 18 11 19 10 20 9 21 12 22
REMARK SMILES IDX 30 23 24 24 25 25 18 26 8 27 2 28 3 29 1 30 22 31
REMARK H PARENT 22 32
REMARK Flexibility Score: inf
ROOT
ATOM      1  C   UNL     1      51.985 -42.749 -30.246  1.00  0.00     0.018 C 
ATOM      2  C   UNL     1      50.493 -43.160 -30.317  1.00  0.00     0.009 C 
ATOM      3  C   UNL     1      50.023 -43.423 -28.870  1.00  0.00     0.008 C 
ATOM      4  C   UNL     1      50.962 -42.580 -27.997  1.00  0.00    -0.029 C 
ATOM      5  C   UNL     1      52.303 -42.790 -28.730  1.00  0.00     0.006 C 
ATOM      6  C   UNL     1      53.479 -42.059 -28.031  1.00  0.00    -0.000 C 
ATOM      7  C   UNL     1      54.790 -42.007 -28.807  1.00  0.00     0.005 C 
ATOM      8  C   UNL     1      55.605 -40.804 -28.315  1.00  0.00     0.005 C 
ATOM      9  C   UNL     1      55.529 -40.513 -26.765  1.00  0.00     0.002 C 
ATOM     10  C   UNL     1      55.099 -39.020 -26.344  1.00  0.00    -0.026 C 
ATOM     11  C   UNL     1      56.114 -38.010 -26.997  1.00  0.00     0.010 C 
ATOM     12  C   UNL     1      57.384 -37.808 -26.172  1.00  0.00     0.033 C 
ATOM     13  C   UNL     1      57.138 -37.221 -24.767  1.00  0.00     0.120 C 
ATOM     14  C   UNL     1      55.691 -37.463 -24.203  1.00  0.00    -0.006 C 
ATOM     15  C   UNL     1      55.050 -38.810 -24.753  1.00  0.00     0.003 C 
ATOM     16  C   UNL     1      55.530 -40.073 -23.998  1.00  0.00     0.005 C 
ATOM     17  C   UNL     1      54.685 -41.274 -24.431  1.00  0.00     0.008 C 
ATOM     18  C   UNL     1      54.993 -41.751 -25.887  1.00  0.00    -0.024 C 
ATOM     19  C   UNL     1      53.722 -42.574 -26.561  1.00  0.00    -0.024 C 
ATOM     20  C   UNL     1      52.336 -42.408 -25.817  1.00  0.00     0.008 C 
ATOM     21  C   UNL     1      51.108 -43.064 -26.530  1.00  0.00     0.007 C 
ATOM     22  C   UNL     1      54.006 -44.125 -26.518  1.00  0.00     0.012 C 
ATOM     23  C   UNL     1      56.257 -42.685 -25.727  1.00  0.00     0.012 C 
ATOM     24  C   UNL     1      55.727 -37.445 -22.644  1.00  0.00     0.014 C 
ATOM     25  C   UNL     1      54.774 -36.255 -24.565  1.00  0.00     0.014 C 
ATOM     26  C   UNL     1      53.694 -38.685 -26.901  1.00  0.00     0.012 C 
ATOM     27  C   UNL     1      50.408 -41.124 -27.990  1.00  0.00     0.011 C 
ENDROOT
BRANCH   1  28
ATOM     28  C   UNL     1      52.284 -41.508 -31.094  1.00  0.00    -0.077 C 
ATOM     29  C   UNL     1      51.754 -40.181 -30.610  1.00  0.00     0.039 C 
ATOM     30  C   UNL     1      53.030 -41.502 -32.210  1.00  0.00     0.008 C 
ENDBRANCH   1  28
BRANCH  13  31
ATOM     31  O   UNL     1      58.111 -37.748 -23.898  1.00  0.00    -0.393 OA
ATOM     32  H   UNL     1      58.346 -37.032 -23.251  1.00  0.00     0.210 HD
ENDBRANCH  13  31
TORSDOF 2
ENDMDL
MODEL 2
REMARK VINA RESULT:    -7.443      2.402      4.402
REMARK INTER + INTRA:          -8.321
REMARK INTER:                  -7.942
REMARK INTRA:                  -0.380
REMARK UNBOUND:                -0.226
REMARK SMILES C=C(C)[C@@H]1CC[C@@]2(C)CC[C@@]3(C)[C@@H](CC[C@H]4[C@]5(C)CC[C@H](O)C(C)(C)[C@@H]5CC[C@]43C)[C@H]12
REMARK SMILES IDX 4 1 5 2 6 3 7 4 31 5 13 6 14 7 15 8 16 9 17 10 19 11 20 12
REMARK SMILES IDX 21 13 23 14 26 15 27 16 28 17 29 18 11 19 10 20 9 21 12 22
REMARK SMILES IDX 30 23 24 24 25 25 18 26 8 27 2 28 3 29 1 30 22 31
REMARK H PARENT 22 32
REMARK Flexibility Score: inf
ROOT
ATOM      1  C   UNL     1      54.040 -41.312 -28.524  1.00  0.00     0.018 C 
ATOM      2  C   UNL     1      54.196 -42.831 -28.787  1.00  0.00     0.009 C 
ATOM      3  C   UNL     1      55.072 -43.402 -27.651  1.00  0.00     0.008 C 
ATOM      4  C   UNL     1      54.867 -42.436 -26.478  1.00  0.00    -0.029 C 
ATOM      5  C   UNL     1      54.844 -41.083 -27.220  1.00  0.00     0.006 C 
ATOM      6  C   UNL     1      54.678 -39.882 -26.252  1.00  0.00    -0.000 C 
ATOM      7  C   UNL     1      54.404 -38.531 -26.903  1.00  0.00     0.005 C 
ATOM      8  C   UNL     1      53.688 -37.632 -25.887  1.00  0.00     0.005 C 
ATOM      9  C   UNL     1      54.177 -37.764 -24.392  1.00  0.00     0.002 C 
ATOM     10  C   UNL     1      53.036 -38.070 -23.297  1.00  0.00    -0.026 C 
ATOM     11  C   UNL     1      51.957 -36.928 -23.376  1.00  0.00     0.010 C 
ATOM     12  C   UNL     1      52.322 -35.691 -22.556  1.00  0.00     0.033 C 
ATOM     13  C   UNL     1      52.464 -35.955 -21.044  1.00  0.00     0.120 C 
ATOM     14  C   UNL     1      52.786 -37.447 -20.669  1.00  0.00    -0.006 C 
ATOM     15  C   UNL     1      53.619 -38.185 -21.806  1.00  0.00     0.003 C 
ATOM     16  C   UNL     1      55.133 -37.872 -21.761  1.00  0.00     0.005 C 
ATOM     17  C   UNL     1      55.873 -38.804 -22.724  1.00  0.00     0.008 C 
ATOM     18  C   UNL     1      55.616 -38.465 -24.228  1.00  0.00    -0.024 C 
ATOM     19  C   UNL     1      55.864 -39.770 -25.218  1.00  0.00    -0.024 C 
ATOM     20  C   UNL     1      55.925 -41.172 -24.488  1.00  0.00     0.008 C 
ATOM     21  C   UNL     1      56.013 -42.417 -25.432  1.00  0.00     0.007 C 
ATOM     22  C   UNL     1      57.262 -39.641 -25.936  1.00  0.00     0.012 C 
ATOM     23  C   UNL     1      56.646 -37.307 -24.542  1.00  0.00     0.012 C 
ATOM     24  C   UNL     1      53.529 -37.496 -19.299  1.00  0.00     0.014 C 
ATOM     25  C   UNL     1      51.460 -38.222 -20.398  1.00  0.00     0.014 C 
ATOM     26  C   UNL     1      52.320 -39.404 -23.622  1.00  0.00     0.012 C 
ATOM     27  C   UNL     1      53.545 -42.845 -25.763  1.00  0.00     0.011 C 
ENDROOT
BRANCH   1  28
ATOM     28  C   UNL     1      52.585 -40.849 -28.660  1.00  0.00    -0.077 C 
ATOM     29  C   UNL     1      52.148 -40.286 -29.989  1.00  0.00     0.039 C 
ATOM     30  C   UNL     1      51.652 -40.957 -27.701  1.00  0.00     0.008 C 
ENDBRANCH   1  28
BRANCH  13  31
ATOM     31  O   UNL     1      53.450 -35.087 -20.540  1.00  0.00    -0.393 OA
ATOM     32  H   UNL     1      53.593 -35.326 -19.586  1.00  0.00     0.210 HD
ENDBRANCH  13  31
TORSDOF 2
ENDMDL
MODEL 3
REMARK VINA RESULT:    -7.240      2.340      7.165
REMARK INTER + INTRA:          -8.101
REMARK INTER:                  -7.648
REMARK INTRA:                  -0.453
REMARK UNBOUND:                -0.226
REMARK SMILES C=C(C)[C@@H]1CC[C@@]2(C)CC[C@@]3(C)[C@@H](CC[C@H]4[C@]5(C)CC[C@H](O)C(C)(C)[C@@H]5CC[C@]43C)[C@H]12
REMARK SMILES IDX 4 1 5 2 6 3 7 4 31 5 13 6 14 7 15 8 16 9 17 10 19 11 20 12
REMARK SMILES IDX 21 13 23 14 26 15 27 16 28 17 29 18 11 19 10 20 9 21 12 22
REMARK SMILES IDX 30 23 24 24 25 25 18 26 8 27 2 28 3 29 1 30 22 31
REMARK H PARENT 22 32
REMARK Flexibility Score: inf
ROOT
ATOM      1  C   UNL     1      54.325 -37.418 -22.313  1.00  0.00     0.018 C 
ATOM      2  C   UNL     1      54.928 -36.009 -22.082  1.00  0.00     0.009 C 
ATOM      3  C   UNL     1      56.184 -35.899 -22.972  1.00  0.00     0.008 C 
ATOM      4  C   UNL     1      55.938 -36.890 -24.118  1.00  0.00    -0.029 C 
ATOM      5  C   UNL     1      55.281 -38.057 -23.352  1.00  0.00     0.006 C 
ATOM      6  C   UNL     1      54.941 -39.254 -24.279  1.00  0.00    -0.000 C 
ATOM      7  C   UNL     1      54.078 -40.350 -23.667  1.00  0.00     0.005 C 
ATOM      8  C   UNL     1      53.353 -41.093 -24.796  1.00  0.00     0.005 C 
ATOM      9  C   UNL     1      54.189 -41.316 -26.116  1.00  0.00     0.002 C 
ATOM     10  C   UNL     1      53.509 -40.802 -27.482  1.00  0.00    -0.026 C 
ATOM     11  C   UNL     1      52.116 -41.517 -27.641  1.00  0.00     0.010 C 
ATOM     12  C   UNL     1      52.214 -42.899 -28.285  1.00  0.00     0.033 C 
ATOM     13  C   UNL     1      52.784 -42.889 -29.718  1.00  0.00     0.120 C 
ATOM     14  C   UNL     1      53.676 -41.640 -30.056  1.00  0.00    -0.006 C 
ATOM     15  C   UNL     1      54.424 -41.071 -28.773  1.00  0.00     0.003 C 
ATOM     16  C   UNL     1      55.705 -41.857 -28.409  1.00  0.00     0.005 C 
ATOM     17  C   UNL     1      56.476 -41.098 -27.325  1.00  0.00     0.008 C 
ATOM     18  C   UNL     1      55.777 -41.142 -25.928  1.00  0.00    -0.024 C 
ATOM     19  C   UNL     1      56.222 -39.871 -24.962  1.00  0.00    -0.024 C 
ATOM     20  C   UNL     1      56.927 -38.668 -25.708  1.00  0.00     0.008 C 
ATOM     21  C   UNL     1      57.217 -37.408 -24.827  1.00  0.00     0.007 C 
ATOM     22  C   UNL     1      57.284 -40.351 -23.900  1.00  0.00     0.012 C 
ATOM     23  C   UNL     1      56.245 -42.519 -25.309  1.00  0.00     0.012 C 
ATOM     24  C   UNL     1      54.686 -42.007 -31.187  1.00  0.00     0.014 C 
ATOM     25  C   UNL     1      52.798 -40.521 -30.696  1.00  0.00     0.014 C 
ATOM     26  C   UNL     1      53.239 -39.279 -27.411  1.00  0.00     0.012 C 
ATOM     27  C   UNL     1      55.040 -36.171 -25.169  1.00  0.00     0.011 C 
ENDROOT
BRANCH   1  28
ATOM     28  C   UNL     1      52.811 -37.368 -22.542  1.00  0.00    -0.077 C 
ATOM     29  C   UNL     1      51.935 -38.204 -21.643  1.00  0.00     0.039 C 
ATOM     30  C   UNL     1      52.196 -36.591 -23.449  1.00  0.00     0.008 C 
ENDBRANCH   1  28
BRANCH  13  31
ATOM     31  O   UNL     1      53.501 -44.084 -29.911  1.00  0.00    -0.393 OA
ATOM     32  H   UNL     1      54.189 -43.906 -30.605  1.00  0.00     0.210 HD
ENDBRANCH  13  31
TORSDOF 2
ENDMDL
MODEL 4
REMARK VINA RESULT:    -7.170      2.401      7.501
REMARK INTER + INTRA:          -8.024
REMARK INTER:                  -7.674
REMARK INTRA:                  -0.350
REMARK UNBOUND:                -0.226
REMARK SMILES C=C(C)[C@@H]1CC[C@@]2(C)CC[C@@]3(C)[C@@H](CC[C@H]4[C@]5(C)CC[C@H](O)C(C)(C)[C@@H]5CC[C@]43C)[C@H]12
REMARK SMILES IDX 4 1 5 2 6 3 7 4 31 5 13 6 14 7 15 8 16 9 17 10 19 11 20 12
REMARK SMILES IDX 21 13 23 14 26 15 27 16 28 17 29 18 11 19 10 20 9 21 12 22
REMARK SMILES IDX 30 23 24 24 25 25 18 26 8 27 2 28 3 29 1 30 22 31
REMARK H PARENT 22 32
REMARK Flexibility Score: inf
ROOT
ATOM      1  C   UNL     1      53.502 -36.172 -21.301  1.00  0.00     0.018 C 
ATOM      2  C   UNL     1      52.693 -34.852 -21.330  1.00  0.00     0.009 C 
ATOM      3  C   UNL     1      53.072 -34.113 -22.632  1.00  0.00     0.008 C 
ATOM      4  C   UNL     1      53.534 -35.221 -23.588  1.00  0.00    -0.029 C 
ATOM      5  C   UNL     1      54.318 -36.130 -22.618  1.00  0.00     0.006 C 
ATOM      6  C   UNL     1      54.947 -37.354 -23.334  1.00  0.00    -0.000 C 
ATOM      7  C   UNL     1      55.534 -38.430 -22.429  1.00  0.00     0.005 C 
ATOM      8  C   UNL     1      55.544 -39.761 -23.191  1.00  0.00     0.005 C 
ATOM      9  C   UNL     1      55.895 -39.668 -24.727  1.00  0.00     0.002 C 
ATOM     10  C   UNL     1      54.838 -40.340 -25.738  1.00  0.00    -0.026 C 
ATOM     11  C   UNL     1      54.676 -41.856 -25.349  1.00  0.00     0.010 C 
ATOM     12  C   UNL     1      55.743 -42.758 -25.968  1.00  0.00     0.033 C 
ATOM     13  C   UNL     1      55.739 -42.775 -27.510  1.00  0.00     0.120 C 
ATOM     14  C   UNL     1      55.096 -41.504 -28.174  1.00  0.00    -0.006 C 
ATOM     15  C   UNL     1      55.273 -40.203 -27.277  1.00  0.00     0.003 C 
ATOM     16  C   UNL     1      56.665 -39.542 -27.418  1.00  0.00     0.005 C 
ATOM     17  C   UNL     1      56.654 -38.182 -26.715  1.00  0.00     0.008 C 
ATOM     18  C   UNL     1      56.613 -38.294 -25.157  1.00  0.00    -0.024 C 
ATOM     19  C   UNL     1      55.985 -36.935 -24.446  1.00  0.00    -0.024 C 
ATOM     20  C   UNL     1      55.200 -35.964 -25.416  1.00  0.00     0.008 C 
ATOM     21  C   UNL     1      54.484 -34.757 -24.724  1.00  0.00     0.007 C 
ATOM     22  C   UNL     1      57.150 -36.048 -23.861  1.00  0.00     0.012 C 
ATOM     23  C   UNL     1      58.125 -38.505 -24.747  1.00  0.00     0.012 C 
ATOM     24  C   UNL     1      55.696 -41.297 -29.600  1.00  0.00     0.014 C 
ATOM     25  C   UNL     1      53.582 -41.758 -28.444  1.00  0.00     0.014 C 
ATOM     26  C   UNL     1      53.447 -39.675 -25.586  1.00  0.00     0.012 C 
ATOM     27  C   UNL     1      52.257 -35.846 -24.227  1.00  0.00     0.011 C 
ENDROOT
BRANCH   1  28
ATOM     28  C   UNL     1      52.628 -37.378 -20.939  1.00  0.00    -0.077 C 
ATOM     29  C   UNL     1      52.482 -37.728 -19.479  1.00  0.00     0.039 C 
ATOM     30  C   UNL     1      51.936 -38.117 -21.820  1.00  0.00     0.008 C 
ENDBRANCH   1  28
BRANCH  13  31
ATOM     31  O   UNL     1      57.065 -42.954 -27.947  1.00  0.00    -0.393 OA
ATOM     32  H   UNL     1      57.572 -42.139 -27.690  1.00  0.00     0.210 HD
ENDBRANCH  13  31
TORSDOF 2
ENDMDL
MODEL 5
REMARK VINA RESULT:    -6.922      1.613      2.379
REMARK INTER + INTRA:          -7.756
REMARK INTER:                  -7.370
REMARK INTRA:                  -0.385
REMARK UNBOUND:                -0.226
REMARK SMILES C=C(C)[C@@H]1CC[C@@]2(C)CC[C@@]3(C)[C@@H](CC[C@H]4[C@]5(C)CC[C@H](O)C(C)(C)[C@@H]5CC[C@]43C)[C@H]12
REMARK SMILES IDX 4 1 5 2 6 3 7 4 31 5 13 6 14 7 15 8 16 9 17 10 19 11 20 12
REMARK SMILES IDX 21 13 23 14 26 15 27 16 28 17 29 18 11 19 10 20 9 21 12 22
REMARK SMILES IDX 30 23 24 24 25 25 18 26 8 27 2 28 3 29 1 30 22 31
REMARK H PARENT 22 32
REMARK Flexibility Score: inf
ROOT
ATOM      1  C   UNL     1      54.815 -42.823 -29.539  1.00  0.00     0.018 C 
ATOM      2  C   UNL     1      53.696 -43.838 -29.882  1.00  0.00     0.009 C 
ATOM      3  C   UNL     1      52.926 -44.125 -28.576  1.00  0.00     0.008 C 
ATOM      4  C   UNL     1      53.144 -42.876 -27.712  1.00  0.00    -0.029 C 
ATOM      5  C   UNL     1      54.623 -42.566 -28.023  1.00  0.00     0.006 C 
ATOM      6  C   UNL     1      55.145 -41.333 -27.239  1.00  0.00    -0.000 C 
ATOM      7  C   UNL     1      56.513 -40.806 -27.656  1.00  0.00     0.005 C 
ATOM      8  C   UNL     1      56.609 -39.326 -27.264  1.00  0.00     0.005 C 
ATOM      9  C   UNL     1      55.938 -38.937 -25.889  1.00  0.00     0.002 C 
ATOM     10  C   UNL     1      54.866 -37.737 -25.937  1.00  0.00    -0.026 C 
ATOM     11  C   UNL     1      55.575 -36.463 -26.530  1.00  0.00     0.010 C 
ATOM     12  C   UNL     1      56.339 -35.652 -25.484  1.00  0.00     0.033 C 
ATOM     13  C   UNL     1      55.454 -35.085 -24.356  1.00  0.00     0.120 C 
ATOM     14  C   UNL     1      54.108 -35.864 -24.127  1.00  0.00    -0.006 C 
ATOM     15  C   UNL     1      54.236 -37.405 -24.499  1.00  0.00     0.003 C 
ATOM     16  C   UNL     1      54.888 -38.255 -23.382  1.00  0.00     0.005 C 
ATOM     17  C   UNL     1      54.747 -39.740 -23.727  1.00  0.00     0.008 C 
ATOM     18  C   UNL     1      55.659 -40.186 -24.914  1.00  0.00    -0.024 C 
ATOM     19  C   UNL     1      55.082 -41.540 -25.676  1.00  0.00    -0.024 C 
ATOM     20  C   UNL     1      53.577 -41.907 -25.357  1.00  0.00     0.008 C 
ATOM     21  C   UNL     1      52.985 -43.096 -26.184  1.00  0.00     0.007 C 
ATOM     22  C   UNL     1      55.900 -42.806 -25.214  1.00  0.00     0.012 C 
ATOM     23  C   UNL     1      57.060 -40.467 -24.238  1.00  0.00     0.012 C 
ATOM     24  C   UNL     1      53.634 -35.671 -22.654  1.00  0.00     0.014 C 
ATOM     25  C   UNL     1      52.971 -35.210 -24.969  1.00  0.00     0.014 C 
ATOM     26  C   UNL     1      53.696 -38.096 -26.886  1.00  0.00     0.012 C 
ATOM     27  C   UNL     1      52.110 -41.805 -28.173  1.00  0.00     0.011 C 
ENDROOT
BRANCH   1  28
ATOM     28  C   UNL     1      54.877 -41.668 -30.545  1.00  0.00    -0.077 C 
ATOM     29  C   UNL     1      56.238 -41.194 -30.990  1.00  0.00     0.039 C 
ATOM     30  C   UNL     1      53.808 -41.080 -31.105  1.00  0.00     0.008 C 
ENDBRANCH   1  28
BRANCH  13  31
ATOM     31  O   UNL     1      56.221 -35.052 -23.176  1.00  0.00    -0.393 OA
ATOM     32  H   UNL     1      57.008 -35.641 -23.319  1.00  0.00     0.210 HD
ENDBRANCH  13  31
TORSDOF 2
ENDMDL
MODEL 6
REMARK VINA RESULT:    -6.776      2.775      5.204
REMARK INTER + INTRA:          -7.596
REMARK INTER:                  -7.218
REMARK INTRA:                  -0.378
REMARK UNBOUND:                -0.226
REMARK SMILES C=C(C)[C@@H]1CC[C@@]2(C)CC[C@@]3(C)[C@@H](CC[C@H]4[C@]5(C)CC[C@H](O)C(C)(C)[C@@H]5CC[C@]43C)[C@H]12
REMARK SMILES IDX 4 1 5 2 6 3 7 4 31 5 13 6 14 7 15 8 16 9 17 10 19 11 20 12
REMARK SMILES IDX 21 13 23 14 26 15 27 16 28 17 29 18 11 19 10 20 9 21 12 22
REMARK SMILES IDX 30 23 24 24 25 25 18 26 8 27 2 28 3 29 1 30 22 31
REMARK H PARENT 22 32
REMARK Flexibility Score: inf
ROOT
ATOM      1  C   UNL     1      55.747 -40.986 -27.384  1.00  0.00     0.018 C 
ATOM      2  C   UNL     1      55.312 -42.412 -26.963  1.00  0.00     0.009 C 
ATOM      3  C   UNL     1      55.347 -42.464 -25.421  1.00  0.00     0.008 C 
ATOM      4  C   UNL     1      55.157 -41.007 -24.978  1.00  0.00    -0.029 C 
ATOM      5  C   UNL     1      56.009 -40.272 -26.034  1.00  0.00     0.006 C 
ATOM      6  C   UNL     1      56.031 -38.737 -25.810  1.00  0.00    -0.000 C 
ATOM      7  C   UNL     1      56.643 -37.906 -26.932  1.00  0.00     0.005 C 
ATOM      8  C   UNL     1      56.065 -36.487 -26.863  1.00  0.00     0.005 C 
ATOM      9  C   UNL     1      55.840 -35.908 -25.412  1.00  0.00     0.002 C 
ATOM     10  C   UNL     1      54.361 -35.361 -25.088  1.00  0.00    -0.026 C 
ATOM     11  C   UNL     1      54.007 -34.242 -26.137  1.00  0.00     0.010 C 
ATOM     12  C   UNL     1      54.534 -32.860 -25.750  1.00  0.00     0.033 C 
ATOM     13  C   UNL     1      53.961 -32.314 -24.427  1.00  0.00     0.120 C 
ATOM     14  C   UNL     1      53.432 -33.417 -23.440  1.00  0.00    -0.006 C 
ATOM     15  C   UNL     1      54.220 -34.789 -23.595  1.00  0.00     0.003 C 
ATOM     16  C   UNL     1      55.576 -34.808 -22.849  1.00  0.00     0.005 C 
ATOM     17  C   UNL     1      56.138 -36.231 -22.853  1.00  0.00     0.008 C 
ATOM     18  C   UNL     1      56.647 -36.688 -24.258  1.00  0.00    -0.024 C 
ATOM     19  C   UNL     1      56.655 -38.338 -24.418  1.00  0.00    -0.024 C 
ATOM     20  C   UNL     1      55.817 -39.127 -23.334  1.00  0.00     0.008 C 
ATOM     21  C   UNL     1      55.704 -40.671 -23.566  1.00  0.00     0.007 C 
ATOM     22  C   UNL     1      58.125 -38.885 -24.252  1.00  0.00     0.012 C 
ATOM     23  C   UNL     1      58.111 -36.099 -24.347  1.00  0.00     0.012 C 
ATOM     24  C   UNL     1      53.497 -32.885 -21.975  1.00  0.00     0.014 C 
ATOM     25  C   UNL     1      51.909 -33.653 -23.679  1.00  0.00     0.014 C 
ATOM     26  C   UNL     1      53.317 -36.493 -25.254  1.00  0.00     0.012 C 
ATOM     27  C   UNL     1      53.628 -40.708 -25.007  1.00  0.00     0.011 C 
ENDROOT
BRANCH   1  28
ATOM     28  C   UNL     1      54.814 -40.385 -28.440  1.00  0.00    -0.077 C 
ATOM     29  C   UNL     1      55.199 -40.542 -29.890  1.00  0.00     0.039 C 
ATOM     30  C   UNL     1      53.647 -39.775 -28.176  1.00  0.00     0.008 C 
ENDBRANCH   1  28
BRANCH  13  31
ATOM     31  O   UNL     1      54.954 -31.527 -23.814  1.00  0.00    -0.393 OA
ATOM     32  H   UNL     1      54.851 -31.636 -22.832  1.00  0.00     0.210 HD
ENDBRANCH  13  31
TORSDOF 2
ENDMDL
MODEL 7
REMARK VINA RESULT:    -6.755      3.596      6.377
REMARK INTER + INTRA:          -7.574
REMARK INTER:                  -7.263
REMARK INTRA:                  -0.311
REMARK UNBOUND:                -0.226
REMARK SMILES C=C(C)[C@@H]1CC[C@@]2(C)CC[C@@]3(C)[C@@H](CC[C@H]4[C@]5(C)CC[C@H](O)C(C)(C)[C@@H]5CC[C@]43C)[C@H]12
REMARK SMILES IDX 4 1 5 2 6 3 7 4 31 5 13 6 14 7 15 8 16 9 17 10 19 11 20 12
REMARK SMILES IDX 21 13 23 14 26 15 27 16 28 17 29 18 11 19 10 20 9 21 12 22
REMARK SMILES IDX 30 23 24 24 25 25 18 26 8 27 2 28 3 29 1 30 22 31
REMARK H PARENT 22 32
REMARK Flexibility Score: inf
ROOT
ATOM      1  C   UNL     1      54.959 -42.816 -29.370  1.00  0.00     0.018 C 
ATOM      2  C   UNL     1      55.669 -41.800 -30.299  1.00  0.00     0.009 C 
ATOM      3  C   UNL     1      54.585 -40.842 -30.839  1.00  0.00     0.008 C 
ATOM      4  C   UNL     1      53.472 -40.879 -29.784  1.00  0.00    -0.029 C 
ATOM      5  C   UNL     1      53.474 -42.377 -29.416  1.00  0.00     0.006 C 
ATOM      6  C   UNL     1      52.392 -42.727 -28.360  1.00  0.00    -0.000 C 
ATOM      7  C   UNL     1      52.472 -44.125 -27.759  1.00  0.00     0.005 C 
ATOM      8  C   UNL     1      51.791 -44.108 -26.385  1.00  0.00     0.005 C 
ATOM      9  C   UNL     1      50.494 -43.215 -26.274  1.00  0.00     0.002 C 
ATOM     10  C   UNL     1      50.482 -42.124 -25.090  1.00  0.00    -0.026 C 
ATOM     11  C   UNL     1      50.694 -42.875 -23.724  1.00  0.00     0.010 C 
ATOM     12  C   UNL     1      49.401 -43.436 -23.133  1.00  0.00     0.033 C 
ATOM     13  C   UNL     1      48.343 -42.366 -22.800  1.00  0.00     0.120 C 
ATOM     14  C   UNL     1      48.491 -41.028 -23.611  1.00  0.00    -0.006 C 
ATOM     15  C   UNL     1      49.127 -41.264 -25.049  1.00  0.00     0.003 C 
ATOM     16  C   UNL     1      48.106 -41.760 -26.100  1.00  0.00     0.005 C 
ATOM     17  C   UNL     1      48.750 -41.724 -27.488  1.00  0.00     0.008 C 
ATOM     18  C   UNL     1      49.837 -42.828 -27.692  1.00  0.00    -0.024 C 
ATOM     19  C   UNL     1      50.930 -42.424 -28.870  1.00  0.00    -0.024 C 
ATOM     20  C   UNL     1      50.936 -40.900 -29.295  1.00  0.00     0.008 C 
ATOM     21  C   UNL     1      52.062 -40.488 -30.300  1.00  0.00     0.007 C 
ATOM     22  C   UNL     1      50.596 -43.201 -30.201  1.00  0.00     0.012 C 
ATOM     23  C   UNL     1      49.011 -44.112 -28.097  1.00  0.00     0.012 C 
ATOM     24  C   UNL     1      47.104 -40.320 -23.712  1.00  0.00     0.014 C 
ATOM     25  C   UNL     1      49.363 -40.016 -22.806  1.00  0.00     0.014 C 
ATOM     26  C   UNL     1      51.659 -41.132 -25.258  1.00  0.00     0.012 C 
ATOM     27  C   UNL     1      53.878 -39.896 -28.645  1.00  0.00     0.011 C 
ENDROOT
BRANCH   1  28
ATOM     28  C   UNL     1      55.699 -42.997 -28.040  1.00  0.00    -0.077 C 
ATOM     29  C   UNL     1      56.846 -43.976 -28.001  1.00  0.00     0.039 C 
ATOM     30  C   UNL     1      55.440 -42.308 -26.917  1.00  0.00     0.008 C 
ENDBRANCH   1  28
BRANCH  13  31
ATOM     31  O   UNL     1      47.071 -42.934 -22.997  1.00  0.00    -0.393 OA
ATOM     32  H   UNL     1      46.538 -42.755 -22.178  1.00  0.00     0.210 HD
ENDBRANCH  13  31
TORSDOF 2
ENDMDL
