MODEL 1
REMARK VINA RESULT:    -1.868      0.000      0.000
REMARK INTER + INTRA:          -1.868
REMARK INTER:                  -1.868
REMARK INTRA:                   0.000
REMARK UNBOUND:                 0.000
REMARK SMILES CC(=O)[O-]
REMARK SMILES IDX 1 1 2 2 3 3 4 4
REMARK H PARENT
REMARK Flexibility Score: inf
ROOT
ATOM      1  C   UNL     1      49.796  31.467  56.060  1.00  0.00     0.063 C 
ATOM      2  C   UNL     1      50.604  30.805  57.124  1.00  0.00     0.038 C 
ATOM      3  O   UNL     1      51.031  31.474  58.103  1.00  0.00    -0.550 OA
ATOM      4  O   UNL     1      50.934  29.461  57.014  1.00  0.00    -0.550 OA
ENDROOT
TORSDOF 0
ENDMDL
MODEL 2
REMARK VINA RESULT:    -1.805      1.332      1.696
REMARK INTER + INTRA:          -1.805
REMARK INTER:                  -1.805
REMARK INTRA:                   0.000
REMARK UNBOUND:                 0.000
REMARK SMILES CC(=O)[O-]
REMARK SMILES IDX 1 1 2 2 3 3 4 4
REMARK H PARENT
REMARK Flexibility Score: inf
ROOT
ATOM      1  C   UNL     1      51.552  31.842  58.076  1.00  0.00     0.063 C 
ATOM      2  C   UNL     1      50.769  30.847  57.287  1.00  0.00     0.038 C 
ATOM      3  O   UNL     1      49.856  31.234  56.511  1.00  0.00    -0.550 OA
ATOM      4  O   UNL     1      51.009  29.489  57.446  1.00  0.00    -0.550 OA
ENDROOT
TORSDOF 0
ENDMDL
MODEL 3
REMARK VINA RESULT:    -1.764     11.630     12.079
REMARK INTER + INTRA:          -1.764
REMARK INTER:                  -1.764
REMARK INTRA:                   0.000
REMARK UNBOUND:                 0.000
REMARK SMILES CC(=O)[O-]
REMARK SMILES IDX 1 1 2 2 3 3 4 4
REMARK H PARENT
REMARK Flexibility Score: inf
ROOT
ATOM      1  C   UNL     1      41.205  35.267  48.639  1.00  0.00     0.063 C 
ATOM      2  C   UNL     1      42.404  34.675  49.298  1.00  0.00     0.038 C 
ATOM      3  O   UNL     1      42.975  33.674  48.790  1.00  0.00    -0.550 OA
ATOM      4  O   UNL     1      42.863  35.192  50.503  1.00  0.00    -0.550 OA
ENDROOT
TORSDOF 0
ENDMDL
MODEL 4
REMARK VINA RESULT:    -1.745     10.542     10.973
REMARK INTER + INTRA:          -1.745
REMARK INTER:                  -1.745
REMARK INTRA:                   0.000
REMARK UNBOUND:                 0.000
REMARK SMILES CC(=O)[O-]
REMARK SMILES IDX 1 1 2 2 3 3 4 4
REMARK H PARENT
REMARK Flexibility Score: inf
ROOT
ATOM      1  C   UNL     1      43.434  34.953  50.505  1.00  0.00     0.063 C 
ATOM      2  C   UNL     1      43.349  33.825  49.533  1.00  0.00     0.038 C 
ATOM      3  O   UNL     1      42.540  33.881  48.570  1.00  0.00    -0.550 OA
ATOM      4  O   UNL     1      44.124  32.688  49.717  1.00  0.00    -0.550 OA
ENDROOT
TORSDOF 0
ENDMDL
MODEL 5
REMARK VINA RESULT:    -1.744     10.829     11.173
REMARK INTER + INTRA:          -1.744
REMARK INTER:                  -1.744
REMARK INTRA:                   0.000
REMARK UNBOUND:                 0.000
REMARK SMILES CC(=O)[O-]
REMARK SMILES IDX 1 1 2 2 3 3 4 4
REMARK H PARENT
REMARK Flexibility Score: inf
ROOT
ATOM      1  C   UNL     1      43.858  33.415  49.742  1.00  0.00     0.063 C 
ATOM      2  C   UNL     1      43.080  34.667  49.968  1.00  0.00     0.038 C 
ATOM      3  O   UNL     1      43.417  35.464  50.883  1.00  0.00    -0.550 OA
ATOM      4  O   UNL     1      41.951  34.933  49.205  1.00  0.00    -0.550 OA
ENDROOT
TORSDOF 0
ENDMDL
MODEL 6
REMARK VINA RESULT:    -1.725      1.413      1.769
REMARK INTER + INTRA:          -1.725
REMARK INTER:                  -1.725
REMARK INTRA:                   0.000
REMARK UNBOUND:                 0.000
REMARK SMILES CC(=O)[O-]
REMARK SMILES IDX 1 1 2 2 3 3 4 4
REMARK H PARENT
REMARK Flexibility Score: inf
ROOT
ATOM      1  C   UNL     1      51.026  29.498  57.034  1.00  0.00     0.063 C 
ATOM      2  C   UNL     1      50.625  30.934  57.079  1.00  0.00     0.038 C 
ATOM      3  O   UNL     1      51.039  31.676  58.009  1.00  0.00    -0.550 OA
ATOM      4  O   UNL     1      49.751  31.443  56.128  1.00  0.00    -0.550 OA
ENDROOT
TORSDOF 0
ENDMDL
MODEL 7
REMARK VINA RESULT:    -1.681     12.749     13.110
REMARK INTER + INTRA:          -1.681
REMARK INTER:                  -1.681
REMARK INTRA:                   0.000
REMARK UNBOUND:                 0.000
REMARK SMILES CC(=O)[O-]
REMARK SMILES IDX 1 1 2 2 3 3 4 4
REMARK H PARENT
REMARK Flexibility Score: inf
ROOT
ATOM      1  C   UNL     1      41.498  34.218  46.768  1.00  0.00     0.063 C 
ATOM      2  C   UNL     1      41.709  34.458  48.225  1.00  0.00     0.038 C 
ATOM      3  O   UNL     1      41.006  35.308  48.833  1.00  0.00    -0.550 OA
ATOM      4  O   UNL     1      42.715  33.783  48.904  1.00  0.00    -0.550 OA
ENDROOT
TORSDOF 0
ENDMDL
MODEL 8
REMARK VINA RESULT:    -1.671      1.945      2.526
REMARK INTER + INTRA:          -1.671
REMARK INTER:                  -1.671
REMARK INTRA:                   0.000
REMARK UNBOUND:                 0.000
REMARK SMILES CC(=O)[O-]
REMARK SMILES IDX 1 1 2 2 3 3 4 4
REMARK H PARENT
REMARK Flexibility Score: inf
ROOT
ATOM      1  C   UNL     1      50.751  30.565  57.222  1.00  0.00     0.063 C 
ATOM      2  C   UNL     1      50.248  31.662  56.347  1.00  0.00     0.038 C 
ATOM      3  O   UNL     1      49.143  31.541  55.754  1.00  0.00    -0.550 OA
ATOM      4  O   UNL     1      51.019  32.798  56.140  1.00  0.00    -0.550 OA
ENDROOT
TORSDOF 0
ENDMDL
MODEL 9
REMARK VINA RESULT:    -1.664     12.764     13.122
REMARK INTER + INTRA:          -1.664
REMARK INTER:                  -1.664
REMARK INTRA:                   0.000
REMARK UNBOUND:                 0.000
REMARK SMILES CC(=O)[O-]
REMARK SMILES IDX 1 1 2 2 3 3 4 4
REMARK H PARENT
REMARK Flexibility Score: inf
ROOT
ATOM      1  C   UNL     1      42.937  33.902  48.908  1.00  0.00     0.063 C 
ATOM      2  C   UNL     1      41.730  34.487  48.257  1.00  0.00     0.038 C 
ATOM      3  O   UNL     1      41.015  35.316  48.880  1.00  0.00    -0.550 OA
ATOM      4  O   UNL     1      41.361  34.080  46.982  1.00  0.00    -0.550 OA
ENDROOT
TORSDOF 0
ENDMDL
