MODEL 1
REMARK VINA RESULT:    -1.732      0.000      0.000
REMARK INTER + INTRA:          -2.537
REMARK INTER:                  -2.339
REMARK INTRA:                  -0.197
REMARK UNBOUND:                -0.197
REMARK SMILES CCCCCCCC(=O)[O-]
REMARK SMILES IDX 5 1 6 2 7 3 8 4 9 5 10 6 4 7 3 8 2 9 1 10
REMARK H PARENT
REMARK Flexibility Score: inf
ROOT
ATOM      1  C   UNL     1      18.088  20.713  49.617  1.00  0.00     0.000 C 
ENDROOT
BRANCH   1   2
ATOM      2  C   UNL     1      17.029  19.930  50.411  1.00  0.00     0.006 C 
BRANCH   2   3
ATOM      3  C   UNL     1      16.504  20.723  51.615  1.00  0.00     0.053 C 
BRANCH   3   4
ATOM      4  C   UNL     1      15.240  20.132  52.161  1.00  0.00     0.041 C 
ATOM      5  O   UNL     1      14.269  19.896  51.394  1.00  0.00    -0.550 OA
ATOM      6  O   UNL     1      15.122  19.875  53.521  1.00  0.00    -0.550 OA
ENDBRANCH   3   4
ENDBRANCH   2   3
ENDBRANCH   1   2
BRANCH   1   7
ATOM      7  C   UNL     1      19.360  19.890  49.361  1.00  0.00     0.000 C 
BRANCH   7   8
ATOM      8  C   UNL     1      20.509  20.267  50.312  1.00  0.00    -0.000 C 
BRANCH   8   9
ATOM      9  C   UNL     1      20.206  19.902  51.774  1.00  0.00    -0.003 C 
ATOM     10  C   UNL     1      21.412  20.099  52.693  1.00  0.00     0.004 C 
ENDBRANCH   8   9
ENDBRANCH   7   8
ENDBRANCH   1   7
TORSDOF 6
ENDMDL
MODEL 2
REMARK VINA RESULT:    -0.654     18.277     18.868
REMARK INTER + INTRA:          -1.081
REMARK INTER:                  -0.860
REMARK INTRA:                  -0.221
REMARK UNBOUND:                -0.197
REMARK SMILES CCCCCCCC(=O)[O-]
REMARK SMILES IDX 5 1 6 2 7 3 8 4 9 5 10 6 4 7 3 8 2 9 1 10
REMARK H PARENT
REMARK Flexibility Score: inf
ROOT
ATOM      1  C   UNL     1      16.151  38.737  45.882  1.00  0.00     0.000 C 
ENDROOT
BRANCH   1   2
ATOM      2  C   UNL     1      14.948  39.555  46.379  1.00  0.00     0.006 C 
BRANCH   2   3
ATOM      3  C   UNL     1      14.472  39.102  47.766  1.00  0.00     0.053 C 
BRANCH   3   4
ATOM      4  C   UNL     1      14.046  37.665  47.765  1.00  0.00     0.041 C 
ATOM      5  O   UNL     1      12.961  37.326  47.221  1.00  0.00    -0.550 OA
ATOM      6  O   UNL     1      14.830  36.705  48.394  1.00  0.00    -0.550 OA
ENDBRANCH   3   4
ENDBRANCH   2   3
ENDBRANCH   1   2
BRANCH   1   7
ATOM      7  C   UNL     1      17.310  38.721  46.890  1.00  0.00     0.000 C 
BRANCH   7   8
ATOM      8  C   UNL     1      18.532  37.942  46.372  1.00  0.00    -0.000 C 
BRANCH   8   9
ATOM      9  C   UNL     1      19.851  38.442  46.982  1.00  0.00    -0.003 C 
ATOM     10  C   UNL     1      20.081  39.935  46.746  1.00  0.00     0.004 C 
ENDBRANCH   8   9
ENDBRANCH   7   8
ENDBRANCH   1   7
TORSDOF 6
ENDMDL
MODEL 3
REMARK VINA RESULT:    -0.376     18.853     19.827
REMARK INTER + INTRA:          -0.705
REMARK INTER:                  -1.094
REMARK INTRA:                   0.389
REMARK UNBOUND:                -0.197
REMARK SMILES CCCCCCCC(=O)[O-]
REMARK SMILES IDX 5 1 6 2 7 3 8 4 9 5 10 6 4 7 3 8 2 9 1 10
REMARK H PARENT
REMARK Flexibility Score: inf
ROOT
ATOM      1  C   UNL     1      16.033  38.502  47.565  1.00  0.00     0.000 C 
ENDROOT
BRANCH   1   2
ATOM      2  C   UNL     1      16.841  38.673  46.268  1.00  0.00     0.006 C 
BRANCH   2   3
ATOM      3  C   UNL     1      18.045  37.724  46.206  1.00  0.00     0.053 C 
BRANCH   3   4
ATOM      4  C   UNL     1      19.267  38.335  46.820  1.00  0.00     0.041 C 
ATOM      5  O   UNL     1      20.193  37.601  47.254  1.00  0.00    -0.550 OA
ATOM      6  O   UNL     1      19.367  39.716  46.945  1.00  0.00    -0.550 OA
ENDBRANCH   3   4
ENDBRANCH   2   3
ENDBRANCH   1   2
BRANCH   1   7
ATOM      7  C   UNL     1      15.107  39.696  47.846  1.00  0.00     0.000 C 
BRANCH   7   8
ATOM      8  C   UNL     1      14.304  40.124  46.606  1.00  0.00    -0.000 C 
BRANCH   8   9
ATOM      9  C   UNL     1      13.216  39.106  46.229  1.00  0.00    -0.003 C 
ATOM     10  C   UNL     1      13.268  37.842  47.087  1.00  0.00     0.004 C 
ENDBRANCH   8   9
ENDBRANCH   7   8
ENDBRANCH   1   7
TORSDOF 6
ENDMDL
MODEL 4
REMARK VINA RESULT:    -0.118      1.265      1.627
REMARK INTER + INTRA:          -0.356
REMARK INTER:                  -0.145
REMARK INTRA:                  -0.211
REMARK UNBOUND:                -0.197
REMARK SMILES CCCCCCCC(=O)[O-]
REMARK SMILES IDX 5 1 6 2 7 3 8 4 9 5 10 6 4 7 3 8 2 9 1 10
REMARK H PARENT
REMARK Flexibility Score: inf
ROOT
ATOM      1  C   UNL     1      19.205  20.317  49.249  1.00  0.00     0.000 C 
ENDROOT
BRANCH   1   2
ATOM      2  C   UNL     1      17.743  20.782  49.352  1.00  0.00     0.006 C 
BRANCH   2   3
ATOM      3  C   UNL     1      16.976  20.039  50.455  1.00  0.00     0.053 C 
BRANCH   3   4
ATOM      4  C   UNL     1      16.112  20.969  51.252  1.00  0.00     0.041 C 
ATOM      5  O   UNL     1      16.121  22.205  51.011  1.00  0.00    -0.550 OA
ATOM      6  O   UNL     1      15.324  20.474  52.284  1.00  0.00    -0.550 OA
ENDBRANCH   3   4
ENDBRANCH   2   3
ENDBRANCH   1   2
BRANCH   1   7
ATOM      7  C   UNL     1      19.781  19.875  50.603  1.00  0.00     0.000 C 
BRANCH   7   8
ATOM      8  C   UNL     1      21.089  20.604  50.955  1.00  0.00    -0.000 C 
BRANCH   8   9
ATOM      9  C   UNL     1      21.418  20.533  52.454  1.00  0.00    -0.003 C 
ATOM     10  C   UNL     1      22.921  20.581  52.732  1.00  0.00     0.004 C 
ENDBRANCH   8   9
ENDBRANCH   7   8
ENDBRANCH   1   7
TORSDOF 6
ENDMDL
MODEL 5
REMARK VINA RESULT:     0.399     18.216     19.138
REMARK INTER + INTRA:           0.342
REMARK INTER:                   0.751
REMARK INTRA:                  -0.409
REMARK UNBOUND:                -0.197
REMARK SMILES CCCCCCCC(=O)[O-]
REMARK SMILES IDX 5 1 6 2 7 3 8 4 9 5 10 6 4 7 3 8 2 9 1 10
REMARK H PARENT
REMARK Flexibility Score: inf
ROOT
ATOM      1  C   UNL     1      15.261  39.506  46.452  1.00  0.00     0.000 C 
ENDROOT
BRANCH   1   2
ATOM      2  C   UNL     1      16.482  38.640  46.101  1.00  0.00     0.006 C 
BRANCH   2   3
ATOM      3  C   UNL     1      17.500  38.582  47.247  1.00  0.00     0.053 C 
BRANCH   3   4
ATOM      4  C   UNL     1      18.875  38.248  46.753  1.00  0.00     0.041 C 
ATOM      5  O   UNL     1      19.828  39.048  46.945  1.00  0.00    -0.550 OA
ATOM      6  O   UNL     1      19.095  37.071  46.049  1.00  0.00    -0.550 OA
ENDBRANCH   3   4
ENDBRANCH   2   3
ENDBRANCH   1   2
BRANCH   1   7
ATOM      7  C   UNL     1      14.417  38.903  47.586  1.00  0.00     0.000 C 
BRANCH   7   8
ATOM      8  C   UNL     1      13.346  37.927  47.070  1.00  0.00    -0.000 C 
BRANCH   8   9
ATOM      9  C   UNL     1      13.371  36.581  47.811  1.00  0.00    -0.003 C 
ATOM     10  C   UNL     1      14.723  36.291  48.464  1.00  0.00     0.004 C 
ENDBRANCH   8   9
ENDBRANCH   7   8
ENDBRANCH   1   7
TORSDOF 6
ENDMDL
MODEL 6
REMARK VINA RESULT:     0.445     18.227     18.860
REMARK INTER + INTRA:           0.404
REMARK INTER:                   0.620
REMARK INTRA:                  -0.217
REMARK UNBOUND:                -0.197
REMARK SMILES CCCCCCCC(=O)[O-]
REMARK SMILES IDX 5 1 6 2 7 3 8 4 9 5 10 6 4 7 3 8 2 9 1 10
REMARK H PARENT
REMARK Flexibility Score: inf
ROOT
ATOM      1  C   UNL     1      17.406  38.130  46.770  1.00  0.00     0.000 C 
ENDROOT
BRANCH   1   2
ATOM      2  C   UNL     1      16.214  38.863  46.134  1.00  0.00     0.006 C 
BRANCH   2   3
ATOM      3  C   UNL     1      15.178  39.300  47.179  1.00  0.00     0.053 C 
BRANCH   3   4
ATOM      4  C   UNL     1      13.782  38.968  46.748  1.00  0.00     0.041 C 
ATOM      5  O   UNL     1      13.282  37.847  47.030  1.00  0.00    -0.550 OA
ATOM      6  O   UNL     1      13.045  39.884  46.006  1.00  0.00    -0.550 OA
ENDBRANCH   3   4
ENDBRANCH   2   3
ENDBRANCH   1   2
BRANCH   1   7
ATOM      7  C   UNL     1      18.683  38.984  46.787  1.00  0.00     0.000 C 
BRANCH   7   8
ATOM      8  C   UNL     1      19.962  38.132  46.858  1.00  0.00    -0.000 C 
BRANCH   8   9
ATOM      9  C   UNL     1      19.667  36.624  46.842  1.00  0.00    -0.003 C 
ATOM     10  C   UNL     1      20.095  35.953  45.536  1.00  0.00     0.004 C 
ENDBRANCH   8   9
ENDBRANCH   7   8
ENDBRANCH   1   7
TORSDOF 6
ENDMDL
