MODEL 1
REMARK VINA RESULT:    -5.406      0.000      0.000
REMARK INTER + INTRA:         -10.393
REMARK INTER:                  -8.250
REMARK INTRA:                  -2.143
REMARK UNBOUND:                -2.143
REMARK SMILES CC(=O)CCC=C(C)CCC=C(C)CCC=C(C)C
REMARK SMILES IDX 10 1 11 2 12 3 13 4 14 5 15 6 16 7 18 8 17 9 19 10 9 11 7 12
REMARK SMILES IDX 6 13 8 14 5 15 4 16 2 17 3 18 1 19
REMARK H PARENT
REMARK Flexibility Score: inf
ROOT
ATOM      1  C   UNL     1     -10.466  -3.789 -16.259  1.00  0.00     0.032 C 
ENDROOT
BRANCH   1   2
ATOM      2  C   UNL     1      -9.011  -4.176 -16.129  1.00  0.00    -0.028 C 
ATOM      3  C   UNL     1      -8.219  -3.920 -15.060  1.00  0.00    -0.077 C 
ATOM      4  C   UNL     1      -6.787  -4.391 -15.112  1.00  0.00     0.039 C 
BRANCH   3   5
ATOM      5  C   UNL     1      -8.702  -3.187 -13.823  1.00  0.00     0.034 C 
BRANCH   5   6
ATOM      6  C   UNL     1      -7.653  -3.200 -12.702  1.00  0.00     0.032 C 
BRANCH   6   7
ATOM      7  C   UNL     1      -7.629  -1.879 -11.966  1.00  0.00    -0.028 C 
ATOM      8  C   UNL     1      -5.950  -2.638 -10.268  1.00  0.00     0.039 C 
ATOM      9  C   UNL     1      -6.858  -1.605 -10.891  1.00  0.00    -0.080 C 
ATOM     10  C   UNL     1      -6.914  -0.218 -10.304  1.00  0.00     0.039 C 
ENDBRANCH   6   7
ENDBRANCH   5   6
ENDBRANCH   3   5
ENDBRANCH   1   2
BRANCH   1  11
ATOM     11  C   UNL     1     -11.360  -5.023 -16.110  1.00  0.00     0.034 C 
BRANCH  11  12
ATOM     12  C   UNL     1     -11.715  -5.256 -14.655  1.00  0.00    -0.077 C 
ATOM     13  C   UNL     1     -11.311  -6.345 -13.963  1.00  0.00    -0.028 C 
ATOM     14  C   UNL     1     -12.616  -4.263 -13.965  1.00  0.00     0.039 C 
BRANCH  13  15
ATOM     15  C   UNL     1     -10.404  -7.421 -14.505  1.00  0.00     0.035 C 
BRANCH  15  16
ATOM     16  C   UNL     1      -8.986  -7.272 -13.942  1.00  0.00     0.079 C 
BRANCH  16  17
ATOM     17  C   UNL     1      -7.980  -7.918 -14.857  1.00  0.00     0.130 C 
ATOM     18  O   UNL     1      -7.090  -8.606 -14.382  1.00  0.00    -0.300 OA
ATOM     19  C   UNL     1      -8.053  -7.744 -16.346  1.00  0.00     0.087 C 
ENDBRANCH  16  17
ENDBRANCH  15  16
ENDBRANCH  13  15
ENDBRANCH  11  12
ENDBRANCH   1  11
TORSDOF 9
ENDMDL
MODEL 2
REMARK VINA RESULT:    -5.340      3.940      7.517
REMARK INTER + INTRA:         -10.293
REMARK INTER:                  -7.777
REMARK INTRA:                  -2.515
REMARK UNBOUND:                -2.143
REMARK SMILES CC(=O)CCC=C(C)CCC=C(C)CCC=C(C)C
REMARK SMILES IDX 10 1 11 2 12 3 13 4 14 5 15 6 16 7 18 8 17 9 19 10 9 11 7 12
REMARK SMILES IDX 6 13 8 14 5 15 4 16 2 17 3 18 1 19
REMARK H PARENT
REMARK Flexibility Score: inf
ROOT
ATOM      1  C   UNL     1      -7.816  -2.068 -11.385  1.00  0.00     0.032 C 
ENDROOT
BRANCH   1   2
ATOM      2  C   UNL     1      -8.184  -2.306 -12.831  1.00  0.00    -0.028 C 
ATOM      3  C   UNL     1      -7.863  -3.403 -13.557  1.00  0.00    -0.077 C 
ATOM      4  C   UNL     1      -8.325  -3.463 -14.992  1.00  0.00     0.039 C 
BRANCH   3   5
ATOM      5  C   UNL     1      -7.064  -4.566 -12.998  1.00  0.00     0.034 C 
BRANCH   5   6
ATOM      6  C   UNL     1      -5.711  -4.725 -13.705  1.00  0.00     0.032 C 
BRANCH   6   7
ATOM      7  C   UNL     1      -4.673  -3.805 -13.104  1.00  0.00    -0.028 C 
ATOM      8  C   UNL     1      -4.692  -2.208 -15.035  1.00  0.00     0.039 C 
ATOM      9  C   UNL     1      -4.223  -2.665 -13.675  1.00  0.00    -0.080 C 
ATOM     10  C   UNL     1      -3.222  -1.832 -12.918  1.00  0.00     0.039 C 
ENDBRANCH   6   7
ENDBRANCH   5   6
ENDBRANCH   3   5
ENDBRANCH   1   2
BRANCH   1  11
ATOM     11  C   UNL     1      -6.563  -1.193 -11.293  1.00  0.00     0.034 C 
BRANCH  11  12
ATOM     12  C   UNL     1      -5.949  -1.280  -9.910  1.00  0.00    -0.077 C 
ATOM     13  C   UNL     1      -6.195  -0.374  -8.936  1.00  0.00    -0.028 C 
ATOM     14  C   UNL     1      -4.966  -2.387  -9.625  1.00  0.00     0.039 C 
BRANCH  13  15
ATOM     15  C   UNL     1      -7.155   0.783  -9.060  1.00  0.00     0.035 C 
BRANCH  15  16
ATOM     16  C   UNL     1      -6.395   2.108  -9.193  1.00  0.00     0.079 C 
BRANCH  16  17
ATOM     17  C   UNL     1      -6.112   2.417 -10.638  1.00  0.00     0.130 C 
ATOM     18  O   UNL     1      -6.973   2.953 -11.319  1.00  0.00    -0.300 OA
ATOM     19  C   UNL     1      -4.786   2.092 -11.262  1.00  0.00     0.087 C 
ENDBRANCH  16  17
ENDBRANCH  15  16
ENDBRANCH  13  15
ENDBRANCH  11  12
ENDBRANCH   1  11
TORSDOF 9
ENDMDL
MODEL 3
REMARK VINA RESULT:    -5.264      3.329      8.031
REMARK INTER + INTRA:         -10.177
REMARK INTER:                  -8.874
REMARK INTRA:                  -1.304
REMARK UNBOUND:                -2.143
REMARK SMILES CC(=O)CCC=C(C)CCC=C(C)CCC=C(C)C
REMARK SMILES IDX 10 1 11 2 12 3 13 4 14 5 15 6 16 7 18 8 17 9 19 10 9 11 7 12
REMARK SMILES IDX 6 13 8 14 5 15 4 16 2 17 3 18 1 19
REMARK H PARENT
REMARK Flexibility Score: inf
ROOT
ATOM      1  C   UNL     1      -7.547  -1.852 -11.608  1.00  0.00     0.032 C 
ENDROOT
BRANCH   1   2
ATOM      2  C   UNL     1      -7.375  -3.335 -11.834  1.00  0.00    -0.028 C 
ATOM      3  C   UNL     1      -7.609  -3.989 -12.997  1.00  0.00    -0.077 C 
ATOM      4  C   UNL     1      -7.377  -5.479 -13.032  1.00  0.00     0.039 C 
BRANCH   3   5
ATOM      5  C   UNL     1      -8.093  -3.296 -14.258  1.00  0.00     0.034 C 
BRANCH   5   6
ATOM      6  C   UNL     1      -8.892  -4.244 -15.164  1.00  0.00     0.032 C 
BRANCH   6   7
ATOM      7  C   UNL     1     -10.378  -4.021 -15.005  1.00  0.00    -0.028 C 
ATOM      8  C   UNL     1     -10.835  -6.348 -14.194  1.00  0.00     0.039 C 
ATOM      9  C   UNL     1     -11.256  -4.944 -14.553  1.00  0.00    -0.080 C 
ATOM     10  C   UNL     1     -12.702  -4.545 -14.405  1.00  0.00     0.039 C 
ENDBRANCH   6   7
ENDBRANCH   5   6
ENDBRANCH   3   5
ENDBRANCH   1   2
BRANCH   1  11
ATOM     11  C   UNL     1      -6.191  -1.198 -11.324  1.00  0.00     0.034 C 
BRANCH  11  12
ATOM     12  C   UNL     1      -5.827  -1.335  -9.859  1.00  0.00    -0.077 C 
ATOM     13  C   UNL     1      -6.289  -0.498  -8.903  1.00  0.00    -0.028 C 
ATOM     14  C   UNL     1      -4.850  -2.411  -9.457  1.00  0.00     0.039 C 
BRANCH  13  15
ATOM     15  C   UNL     1      -7.274   0.619  -9.140  1.00  0.00     0.035 C 
BRANCH  15  16
ATOM     16  C   UNL     1      -6.604   1.984  -8.947  1.00  0.00     0.079 C 
BRANCH  16  17
ATOM     17  C   UNL     1      -6.526   2.728 -10.253  1.00  0.00     0.130 C 
ATOM     18  O   UNL     1      -7.334   3.612 -10.491  1.00  0.00    -0.300 OA
ATOM     19  C   UNL     1      -5.466   2.415 -11.268  1.00  0.00     0.087 C 
ENDBRANCH  16  17
ENDBRANCH  15  16
ENDBRANCH  13  15
ENDBRANCH  11  12
ENDBRANCH   1  11
TORSDOF 9
ENDMDL
MODEL 4
REMARK VINA RESULT:    -5.257      2.276      5.252
REMARK INTER + INTRA:         -10.166
REMARK INTER:                  -8.616
REMARK INTRA:                  -1.551
REMARK UNBOUND:                -2.143
REMARK SMILES CC(=O)CCC=C(C)CCC=C(C)CCC=C(C)C
REMARK SMILES IDX 10 1 11 2 12 3 13 4 14 5 15 6 16 7 18 8 17 9 19 10 9 11 7 12
REMARK SMILES IDX 6 13 8 14 5 15 4 16 2 17 3 18 1 19
REMARK H PARENT
REMARK Flexibility Score: inf
ROOT
ATOM      1  C   UNL     1      -7.366  -1.315 -11.836  1.00  0.00     0.032 C 
ENDROOT
BRANCH   1   2
ATOM      2  C   UNL     1      -6.612  -1.490 -10.539  1.00  0.00    -0.028 C 
ATOM      3  C   UNL     1      -5.373  -1.012 -10.274  1.00  0.00    -0.077 C 
ATOM      4  C   UNL     1      -4.783  -1.285  -8.914  1.00  0.00     0.039 C 
BRANCH   3   5
ATOM      5  C   UNL     1      -4.556  -0.220 -11.278  1.00  0.00     0.034 C 
BRANCH   5   6
ATOM      6  C   UNL     1      -4.268   1.206 -10.786  1.00  0.00     0.032 C 
BRANCH   6   7
ATOM      7  C   UNL     1      -5.416   2.134 -11.108  1.00  0.00    -0.028 C 
ATOM      8  C   UNL     1      -6.276   2.198  -8.755  1.00  0.00     0.039 C 
ATOM      9  C   UNL     1      -6.309   2.604 -10.208  1.00  0.00    -0.080 C 
ATOM     10  C   UNL     1      -7.367   3.565 -10.684  1.00  0.00     0.039 C 
ENDBRANCH   6   7
ENDBRANCH   5   6
ENDBRANCH   3   5
ENDBRANCH   1   2
BRANCH   1  11
ATOM     11  C   UNL     1      -7.811  -2.676 -12.380  1.00  0.00     0.034 C 
BRANCH  11  12
ATOM     12  C   UNL     1      -7.255  -2.904 -13.772  1.00  0.00    -0.077 C 
ATOM     13  C   UNL     1      -7.985  -3.432 -14.780  1.00  0.00    -0.028 C 
ATOM     14  C   UNL     1      -5.802  -2.594 -14.028  1.00  0.00     0.039 C 
BRANCH  13  15
ATOM     15  C   UNL     1      -9.448  -3.787 -14.688  1.00  0.00     0.035 C 
BRANCH  15  16
ATOM     16  C   UNL     1      -9.627  -5.274 -14.356  1.00  0.00     0.079 C 
BRANCH  16  17
ATOM     17  C   UNL     1     -10.954  -5.775 -14.861  1.00  0.00     0.130 C 
ATOM     18  O   UNL     1     -11.108  -6.970 -15.061  1.00  0.00    -0.300 OA
ATOM     19  C   UNL     1     -12.098  -4.839 -15.114  1.00  0.00     0.087 C 
ENDBRANCH  16  17
ENDBRANCH  15  16
ENDBRANCH  13  15
ENDBRANCH  11  12
ENDBRANCH   1  11
TORSDOF 9
ENDMDL
MODEL 5
REMARK VINA RESULT:    -5.213      3.596      5.616
REMARK INTER + INTRA:         -10.099
REMARK INTER:                  -8.645
REMARK INTRA:                  -1.455
REMARK UNBOUND:                -2.143
REMARK SMILES CC(=O)CCC=C(C)CCC=C(C)CCC=C(C)C
REMARK SMILES IDX 10 1 11 2 12 3 13 4 14 5 15 6 16 7 18 8 17 9 19 10 9 11 7 12
REMARK SMILES IDX 6 13 8 14 5 15 4 16 2 17 3 18 1 19
REMARK H PARENT
REMARK Flexibility Score: inf
ROOT
ATOM      1  C   UNL     1      -7.502  -2.675 -13.954  1.00  0.00     0.032 C 
ENDROOT
BRANCH   1   2
ATOM      2  C   UNL     1      -6.170  -2.632 -13.243  1.00  0.00    -0.028 C 
ATOM      3  C   UNL     1      -4.975  -2.363 -13.821  1.00  0.00    -0.077 C 
ATOM      4  C   UNL     1      -3.748  -2.361 -12.943  1.00  0.00     0.039 C 
BRANCH   3   5
ATOM      5  C   UNL     1      -4.814  -2.068 -15.300  1.00  0.00     0.034 C 
BRANCH   5   6
ATOM      6  C   UNL     1      -3.708  -2.919 -15.939  1.00  0.00     0.032 C 
BRANCH   6   7
ATOM      7  C   UNL     1      -2.523  -2.065 -16.330  1.00  0.00    -0.028 C 
ATOM      8  C   UNL     1      -3.226  -1.848 -18.725  1.00  0.00     0.039 C 
ATOM      9  C   UNL     1      -2.305  -1.561 -17.565  1.00  0.00    -0.080 C 
ATOM     10  C   UNL     1      -1.099  -0.682 -17.777  1.00  0.00     0.039 C 
ENDBRANCH   6   7
ENDBRANCH   5   6
ENDBRANCH   3   5
ENDBRANCH   1   2
BRANCH   1  11
ATOM     11  C   UNL     1      -8.052  -4.104 -13.967  1.00  0.00     0.034 C 
BRANCH  11  12
ATOM     12  C   UNL     1      -7.977  -4.694 -15.361  1.00  0.00    -0.077 C 
ATOM     13  C   UNL     1      -8.974  -4.575 -16.267  1.00  0.00    -0.028 C 
ATOM     14  C   UNL     1      -6.766  -5.511 -15.734  1.00  0.00     0.039 C 
BRANCH  13  15
ATOM     15  C   UNL     1     -10.242  -3.788 -16.051  1.00  0.00     0.035 C 
BRANCH  15  16
ATOM     16  C   UNL     1     -11.468  -4.706 -16.102  1.00  0.00     0.079 C 
BRANCH  16  17
ATOM     17  C   UNL     1     -11.898  -5.097 -14.713  1.00  0.00     0.130 C 
ATOM     18  O   UNL     1     -12.806  -4.487 -14.170  1.00  0.00    -0.300 OA
ATOM     19  C   UNL     1     -11.242  -6.232 -13.983  1.00  0.00     0.087 C 
ENDBRANCH  16  17
ENDBRANCH  15  16
ENDBRANCH  13  15
ENDBRANCH  11  12
ENDBRANCH   1  11
TORSDOF 9
ENDMDL
MODEL 6
REMARK VINA RESULT:    -5.178      4.312      7.273
REMARK INTER + INTRA:         -10.045
REMARK INTER:                  -7.804
REMARK INTRA:                  -2.241
REMARK UNBOUND:                -2.143
REMARK SMILES CC(=O)CCC=C(C)CCC=C(C)CCC=C(C)C
REMARK SMILES IDX 10 1 11 2 12 3 13 4 14 5 15 6 16 7 18 8 17 9 19 10 9 11 7 12
REMARK SMILES IDX 6 13 8 14 5 15 4 16 2 17 3 18 1 19
REMARK H PARENT
REMARK Flexibility Score: inf
ROOT
ATOM      1  C   UNL     1      -3.892  -2.119 -13.371  1.00  0.00     0.032 C 
ENDROOT
BRANCH   1   2
ATOM      2  C   UNL     1      -4.584  -1.426 -12.220  1.00  0.00    -0.028 C 
ATOM      3  C   UNL     1      -5.257  -2.040 -11.218  1.00  0.00    -0.077 C 
ATOM      4  C   UNL     1      -5.880  -1.177 -10.150  1.00  0.00     0.039 C 
BRANCH   3   5
ATOM      5  C   UNL     1      -5.414  -3.546 -11.123  1.00  0.00     0.034 C 
BRANCH   5   6
ATOM      6  C   UNL     1      -6.885  -3.977 -11.209  1.00  0.00     0.032 C 
BRANCH   6   7
ATOM      7  C   UNL     1      -7.320  -4.137 -12.647  1.00  0.00    -0.028 C 
ATOM      8  C   UNL     1      -8.484  -1.920 -12.743  1.00  0.00     0.039 C 
ATOM      9  C   UNL     1      -8.016  -3.218 -13.354  1.00  0.00    -0.080 C 
ATOM     10  C   UNL     1      -8.328  -3.512 -14.799  1.00  0.00     0.039 C 
ENDBRANCH   6   7
ENDBRANCH   5   6
ENDBRANCH   3   5
ENDBRANCH   1   2
BRANCH   1  11
ATOM     11  C   UNL     1      -4.745  -2.021 -14.639  1.00  0.00     0.034 C 
BRANCH  11  12
ATOM     12  C   UNL     1      -4.402  -3.140 -15.603  1.00  0.00    -0.077 C 
ATOM     13  C   UNL     1      -3.930  -2.918 -16.851  1.00  0.00    -0.028 C 
ATOM     14  C   UNL     1      -4.662  -4.563 -15.179  1.00  0.00     0.039 C 
BRANCH  13  15
ATOM     15  C   UNL     1      -3.611  -1.559 -17.421  1.00  0.00     0.035 C 
BRANCH  15  16
ATOM     16  C   UNL     1      -2.659  -1.681 -18.617  1.00  0.00     0.079 C 
BRANCH  16  17
ATOM     17  C   UNL     1      -1.301  -1.128 -18.274  1.00  0.00     0.130 C 
ATOM     18  O   UNL     1      -0.416  -1.143 -19.116  1.00  0.00    -0.300 OA
ATOM     19  C   UNL     1      -1.013  -0.546 -16.921  1.00  0.00     0.087 C 
ENDBRANCH  16  17
ENDBRANCH  15  16
ENDBRANCH  13  15
ENDBRANCH  11  12
ENDBRANCH   1  11
TORSDOF 9
ENDMDL
MODEL 7
REMARK VINA RESULT:    -5.171      1.073      1.478
REMARK INTER + INTRA:         -10.035
REMARK INTER:                  -7.689
REMARK INTRA:                  -2.345
REMARK UNBOUND:                -2.143
REMARK SMILES CC(=O)CCC=C(C)CCC=C(C)CCC=C(C)C
REMARK SMILES IDX 10 1 11 2 12 3 13 4 14 5 15 6 16 7 18 8 17 9 19 10 9 11 7 12
REMARK SMILES IDX 6 13 8 14 5 15 4 16 2 17 3 18 1 19
REMARK H PARENT
REMARK Flexibility Score: inf
ROOT
ATOM      1  C   UNL     1     -10.436  -3.622 -16.193  1.00  0.00     0.032 C 
ENDROOT
BRANCH   1   2
ATOM      2  C   UNL     1      -8.947  -3.845 -16.068  1.00  0.00    -0.028 C 
ATOM      3  C   UNL     1      -8.217  -3.692 -14.937  1.00  0.00    -0.077 C 
ATOM      4  C   UNL     1      -6.736  -3.966 -15.008  1.00  0.00     0.039 C 
BRANCH   3   5
ATOM      5  C   UNL     1      -8.818  -3.261 -13.612  1.00  0.00     0.034 C 
BRANCH   5   6
ATOM      6  C   UNL     1      -8.028  -2.112 -12.971  1.00  0.00     0.032 C 
BRANCH   6   7
ATOM      7  C   UNL     1      -7.425  -2.538 -11.652  1.00  0.00    -0.028 C 
ATOM      8  C   UNL     1      -5.082  -1.940 -12.311  1.00  0.00     0.039 C 
ATOM      9  C   UNL     1      -6.114  -2.447 -11.334  1.00  0.00    -0.080 C 
ATOM     10  C   UNL     1      -5.681  -2.869  -9.953  1.00  0.00     0.039 C 
ENDBRANCH   6   7
ENDBRANCH   5   6
ENDBRANCH   3   5
ENDBRANCH   1   2
BRANCH   1  11
ATOM     11  C   UNL     1     -11.175  -4.963 -16.194  1.00  0.00     0.034 C 
BRANCH  11  12
ATOM     12  C   UNL     1     -11.523  -5.384 -14.781  1.00  0.00    -0.077 C 
ATOM     13  C   UNL     1     -10.938  -6.434 -14.159  1.00  0.00    -0.028 C 
ATOM     14  C   UNL     1     -12.619  -4.645 -14.056  1.00  0.00     0.039 C 
BRANCH  13  15
ATOM     15  C   UNL     1      -9.825  -7.267 -14.743  1.00  0.00     0.035 C 
BRANCH  15  16
ATOM     16  C   UNL     1      -8.993  -7.918 -13.632  1.00  0.00     0.079 C 
BRANCH  16  17
ATOM     17  C   UNL     1      -7.642  -7.264 -13.526  1.00  0.00     0.130 C 
ATOM     18  O   UNL     1      -6.822  -7.430 -14.415  1.00  0.00    -0.300 OA
ATOM     19  C   UNL     1      -7.282  -6.399 -12.353  1.00  0.00     0.087 C 
ENDBRANCH  16  17
ENDBRANCH  15  16
ENDBRANCH  13  15
ENDBRANCH  11  12
ENDBRANCH   1  11
TORSDOF 9
ENDMDL
MODEL 8
REMARK VINA RESULT:    -5.100      6.634     10.485
REMARK INTER + INTRA:          -9.926
REMARK INTER:                  -7.487
REMARK INTRA:                  -2.439
REMARK UNBOUND:                -2.143
REMARK SMILES CC(=O)CCC=C(C)CCC=C(C)CCC=C(C)C
REMARK SMILES IDX 10 1 11 2 12 3 13 4 14 5 15 6 16 7 18 8 17 9 19 10 9 11 7 12
REMARK SMILES IDX 6 13 8 14 5 15 4 16 2 17 3 18 1 19
REMARK H PARENT
REMARK Flexibility Score: inf
ROOT
ATOM      1  C   UNL     1      -4.563   1.693 -11.180  1.00  0.00     0.032 C 
ENDROOT
BRANCH   1   2
ATOM      2  C   UNL     1      -5.724   2.660 -11.214  1.00  0.00    -0.028 C 
ATOM      3  C   UNL     1      -6.619   2.855 -10.217  1.00  0.00    -0.077 C 
ATOM      4  C   UNL     1      -7.712   3.871 -10.434  1.00  0.00     0.039 C 
BRANCH   3   5
ATOM      5  C   UNL     1      -6.573   2.102  -8.900  1.00  0.00     0.034 C 
BRANCH   5   6
ATOM      6  C   UNL     1      -7.394   0.805  -8.951  1.00  0.00     0.032 C 
BRANCH   6   7
ATOM      7  C   UNL     1      -6.494  -0.409  -8.914  1.00  0.00    -0.028 C 
ATOM      8  C   UNL     1      -7.061  -1.139 -11.243  1.00  0.00     0.039 C 
ATOM      9  C   UNL     1      -6.317  -1.275  -9.937  1.00  0.00    -0.080 C 
ATOM     10  C   UNL     1      -5.342  -2.409  -9.754  1.00  0.00     0.039 C 
ENDBRANCH   6   7
ENDBRANCH   5   6
ENDBRANCH   3   5
ENDBRANCH   1   2
BRANCH   1  11
ATOM     11  C   UNL     1      -3.645   2.008  -9.996  1.00  0.00     0.034 C 
BRANCH  11  12
ATOM     12  C   UNL     1      -3.034   0.737  -9.440  1.00  0.00    -0.077 C 
ATOM     13  C   UNL     1      -3.022   0.441  -8.120  1.00  0.00    -0.028 C 
ATOM     14  C   UNL     1      -2.347  -0.209 -10.391  1.00  0.00     0.039 C 
BRANCH  13  15
ATOM     15  C   UNL     1      -3.670   1.277  -7.045  1.00  0.00     0.035 C 
BRANCH  15  16
ATOM     16  C   UNL     1      -2.629   1.759  -6.028  1.00  0.00     0.079 C 
BRANCH  16  17
ATOM     17  C   UNL     1      -1.699   2.764  -6.654  1.00  0.00     0.130 C 
ATOM     18  O   UNL     1      -2.140   3.838  -7.030  1.00  0.00    -0.300 OA
ATOM     19  C   UNL     1      -0.235   2.479  -6.815  1.00  0.00     0.087 C 
ENDBRANCH  16  17
ENDBRANCH  15  16
ENDBRANCH  13  15
ENDBRANCH  11  12
ENDBRANCH   1  11
TORSDOF 9
ENDMDL
MODEL 9
REMARK VINA RESULT:    -5.078      3.577      8.291
REMARK INTER + INTRA:          -9.892
REMARK INTER:                  -7.499
REMARK INTRA:                  -2.393
REMARK UNBOUND:                -2.143
REMARK SMILES CC(=O)CCC=C(C)CCC=C(C)CCC=C(C)C
REMARK SMILES IDX 10 1 11 2 12 3 13 4 14 5 15 6 16 7 18 8 17 9 19 10 9 11 7 12
REMARK SMILES IDX 6 13 8 14 5 15 4 16 2 17 3 18 1 19
REMARK H PARENT
REMARK Flexibility Score: inf
ROOT
ATOM      1  C   UNL     1      -7.026   0.688  -9.040  1.00  0.00     0.032 C 
ENDROOT
BRANCH   1   2
ATOM      2  C   UNL     1      -6.368  -0.672  -9.031  1.00  0.00    -0.028 C 
ATOM      3  C   UNL     1      -6.242  -1.496 -10.099  1.00  0.00    -0.077 C 
ATOM      4  C   UNL     1      -5.547  -2.818  -9.896  1.00  0.00     0.039 C 
BRANCH   3   5
ATOM      5  C   UNL     1      -6.767  -1.151 -11.481  1.00  0.00     0.034 C 
BRANCH   5   6
ATOM      6  C   UNL     1      -8.051  -1.923 -11.816  1.00  0.00     0.032 C 
BRANCH   6   7
ATOM      7  C   UNL     1      -8.027  -2.424 -13.241  1.00  0.00    -0.028 C 
ATOM      8  C   UNL     1      -7.390  -4.764 -12.610  1.00  0.00     0.039 C 
ATOM      9  C   UNL     1      -7.755  -3.696 -13.611  1.00  0.00    -0.080 C 
ATOM     10  C   UNL     1      -7.823  -4.046 -15.076  1.00  0.00     0.039 C 
ENDBRANCH   6   7
ENDBRANCH   5   6
ENDBRANCH   3   5
ENDBRANCH   1   2
BRANCH   1  11
ATOM     11  C   UNL     1      -5.969   1.789  -9.157  1.00  0.00     0.034 C 
BRANCH  11  12
ATOM     12  C   UNL     1      -5.834   2.252 -10.595  1.00  0.00    -0.077 C 
ATOM     13  C   UNL     1      -4.685   2.143 -11.299  1.00  0.00    -0.028 C 
ATOM     14  C   UNL     1      -7.013   2.928 -11.248  1.00  0.00     0.039 C 
BRANCH  13  15
ATOM     15  C   UNL     1      -3.424   1.487 -10.793  1.00  0.00     0.035 C 
BRANCH  15  16
ATOM     16  C   UNL     1      -3.294   0.062 -11.342  1.00  0.00     0.079 C 
BRANCH  16  17
ATOM     17  C   UNL     1      -2.465  -0.790 -10.419  1.00  0.00     0.130 C 
ATOM     18  O   UNL     1      -1.630  -1.547 -10.888  1.00  0.00    -0.300 OA
ATOM     19  C   UNL     1      -2.633  -0.721  -8.929  1.00  0.00     0.087 C 
ENDBRANCH  16  17
ENDBRANCH  15  16
ENDBRANCH  13  15
ENDBRANCH  11  12
ENDBRANCH   1  11
TORSDOF 9
ENDMDL
