MODEL 1
REMARK VINA RESULT:    -4.813      0.000      0.000
REMARK INTER + INTRA:          -8.630
REMARK INTER:                  -7.346
REMARK INTRA:                  -1.284
REMARK UNBOUND:                -1.284
REMARK SMILES OC[C@@H]1O[C@@H](O[C@@]2(CO)O[C@@H](CO)[C@H](O)[C@@H]2O)[C@H](O)[C@@H](O)[C@@H]1O
REMARK SMILES IDX 6 1 5 2 3 3 22 4 4 5 20 6 18 7 2 8 1 9 23 11 21 13 19 15
REMARK SMILES IDX 7 17 16 18 10 19 14 20 11 21 8 22 9 23 17 25 15 27 12 29
REMARK SMILES IDX 13 30
REMARK H PARENT 1 10 23 12 21 14 19 16 9 24 17 26 15 28 13 31
REMARK Flexibility Score: inf
ROOT
ATOM      1  O   UNL     1     159.625 174.421 179.285  1.00  0.00    -0.313 OA
ENDROOT
BRANCH   1   2
ATOM      2  C   UNL     1     160.110 173.175 179.758  1.00  0.00     0.285 C 
ATOM      3  C   UNL     1     159.396 171.289 181.012  1.00  0.00     0.178 C 
ATOM      4  C   UNL     1     160.127 171.696 182.328  1.00  0.00     0.177 C 
ATOM      5  O   UNL     1     159.006 172.425 180.259  1.00  0.00    -0.341 OA
ATOM      6  C   UNL     1     160.703 173.129 182.255  1.00  0.00     0.179 C 
ATOM      7  C   UNL     1     161.194 173.469 180.839  1.00  0.00     0.202 C 
BRANCH   3   8
ATOM      8  C   UNL     1     160.126 170.232 180.151  1.00  0.00     0.191 C 
BRANCH   8   9
ATOM      9  O   UNL     1     159.328 169.883 179.052  1.00  0.00    -0.394 OA
ATOM     10  H   UNL     1     159.380 170.646 178.420  1.00  0.00     0.210 HD
ENDBRANCH   8   9
ENDBRANCH   3   8
BRANCH   4  11
ATOM     11  O   UNL     1     161.160 170.794 182.639  1.00  0.00    -0.387 OA
ATOM     12  H   UNL     1     160.744 170.034 183.124  1.00  0.00     0.211 HD
ENDBRANCH   4  11
BRANCH   6  13
ATOM     13  O   UNL     1     159.772 174.086 182.706  1.00  0.00    -0.387 OA
ATOM     14  H   UNL     1     159.391 174.551 181.916  1.00  0.00     0.211 HD
ENDBRANCH   6  13
BRANCH   7  15
ATOM     15  O   UNL     1     162.364 172.737 180.573  1.00  0.00    -0.385 OA
ATOM     16  H   UNL     1     162.223 172.275 179.704  1.00  0.00     0.211 HD
ENDBRANCH   7  15
ENDBRANCH   1   2
BRANCH   1  17
ATOM     17  C   UNL     1     160.012 174.746 177.949  1.00  0.00     0.224 C 
ATOM     18  C   UNL     1     158.730 174.962 177.140  1.00  0.00     0.208 C 
ATOM     19  O   UNL     1     160.722 173.703 177.301  1.00  0.00    -0.337 OA
ATOM     20  C   UNL     1     159.114 174.563 175.727  1.00  0.00     0.180 C 
ATOM     21  C   UNL     1     160.396 173.743 175.927  1.00  0.00     0.179 C 
BRANCH  17  22
ATOM     22  C   UNL     1     160.903 176.009 177.989  1.00  0.00     0.225 C 
BRANCH  22  23
ATOM     23  O   UNL     1     160.492 176.854 179.029  1.00  0.00    -0.391 OA
ATOM     24  H   UNL     1     159.640 177.268 178.729  1.00  0.00     0.210 HD
ENDBRANCH  22  23
ENDBRANCH  17  22
BRANCH  18  25
ATOM     25  O   UNL     1     158.252 176.283 177.227  1.00  0.00    -0.385 OA
ATOM     26  H   UNL     1     157.780 176.469 176.374  1.00  0.00     0.211 HD
ENDBRANCH  18  25
BRANCH  20  27
ATOM     27  O   UNL     1     159.389 175.692 174.930  1.00  0.00    -0.387 OA
ATOM     28  H   UNL     1     158.529 176.175 174.801  1.00  0.00     0.211 HD
ENDBRANCH  20  27
BRANCH  21  29
ATOM     29  C   UNL     1     160.249 172.309 175.399  1.00  0.00     0.191 C 
BRANCH  29  30
ATOM     30  O   UNL     1     159.848 171.449 176.432  1.00  0.00    -0.394 OA
ATOM     31  H   UNL     1     160.664 170.978 176.742  1.00  0.00     0.210 HD
ENDBRANCH  29  30
ENDBRANCH  21  29
ENDBRANCH   1  17
TORSDOF 13
ENDMDL
MODEL 2
REMARK VINA RESULT:    -4.773      1.568      5.644
REMARK INTER + INTRA:          -8.569
REMARK INTER:                  -7.457
REMARK INTRA:                  -1.111
REMARK UNBOUND:                -1.284
REMARK SMILES OC[C@@H]1O[C@@H](O[C@@]2(CO)O[C@@H](CO)[C@H](O)[C@@H]2O)[C@H](O)[C@@H](O)[C@@H]1O
REMARK SMILES IDX 6 1 5 2 3 3 22 4 4 5 20 6 18 7 2 8 1 9 23 11 21 13 19 15
REMARK SMILES IDX 7 17 16 18 10 19 14 20 11 21 8 22 9 23 17 25 15 27 12 29
REMARK SMILES IDX 13 30
REMARK H PARENT 1 10 23 12 21 14 19 16 9 24 17 26 15 28 13 31
REMARK Flexibility Score: inf
ROOT
ATOM      1  O   UNL     1     160.099 175.278 179.875  1.00  0.00    -0.313 OA
ENDROOT
BRANCH   1   2
ATOM      2  C   UNL     1     160.567 174.901 178.591  1.00  0.00     0.285 C 
ATOM      3  C   UNL     1     161.319 175.872 176.558  1.00  0.00     0.178 C 
ATOM      4  C   UNL     1     159.989 175.638 175.778  1.00  0.00     0.177 C 
ATOM      5  O   UNL     1     161.084 176.061 177.944  1.00  0.00    -0.341 OA
ATOM      6  C   UNL     1     158.847 175.158 176.703  1.00  0.00     0.179 C 
ATOM      7  C   UNL     1     159.373 174.251 177.826  1.00  0.00     0.202 C 
BRANCH   3   8
ATOM      8  C   UNL     1     162.435 174.837 176.284  1.00  0.00     0.191 C 
BRANCH   8   9
ATOM      9  O   UNL     1     163.168 175.221 175.151  1.00  0.00    -0.394 OA
ATOM     10  H   UNL     1     162.811 176.105 174.877  1.00  0.00     0.210 HD
ENDBRANCH   8   9
ENDBRANCH   3   8
BRANCH   4  11
ATOM     11  O   UNL     1     160.164 174.713 174.734  1.00  0.00    -0.387 OA
ATOM     12  H   UNL     1     159.359 174.774 174.156  1.00  0.00     0.211 HD
ENDBRANCH   4  11
BRANCH   6  13
ATOM     13  O   UNL     1     158.118 176.241 177.233  1.00  0.00    -0.387 OA
ATOM     14  H   UNL     1     157.656 175.937 178.056  1.00  0.00     0.211 HD
ENDBRANCH   6  13
BRANCH   7  15
ATOM     15  O   UNL     1     159.758 173.017 177.274  1.00  0.00    -0.385 OA
ATOM     16  H   UNL     1     160.352 172.577 177.939  1.00  0.00     0.211 HD
ENDBRANCH   7  15
ENDBRANCH   1   2
BRANCH   1  17
ATOM     17  C   UNL     1     160.290 174.295 180.894  1.00  0.00     0.224 C 
ATOM     18  C   UNL     1     161.661 173.654 180.661  1.00  0.00     0.208 C 
ATOM     19  O   UNL     1     159.343 173.241 180.842  1.00  0.00    -0.337 OA
ATOM     20  C   UNL     1     161.506 172.245 181.202  1.00  0.00     0.180 C 
ATOM     21  C   UNL     1     159.983 172.057 181.271  1.00  0.00     0.179 C 
BRANCH  17  22
ATOM     22  C   UNL     1     160.191 174.990 182.272  1.00  0.00     0.225 C 
BRANCH  22  23
ATOM     23  O   UNL     1     160.882 176.209 182.246  1.00  0.00    -0.391 OA
ATOM     24  H   UNL     1     160.202 176.915 182.406  1.00  0.00     0.210 HD
ENDBRANCH  22  23
ENDBRANCH  17  22
BRANCH  18  25
ATOM     25  O   UNL     1     162.704 174.368 181.280  1.00  0.00    -0.385 OA
ATOM     26  H   UNL     1     163.361 174.582 180.568  1.00  0.00     0.211 HD
ENDBRANCH  18  25
BRANCH  20  27
ATOM     27  O   UNL     1     162.060 172.124 182.492  1.00  0.00    -0.387 OA
ATOM     28  H   UNL     1     161.453 171.538 183.017  1.00  0.00     0.211 HD
ENDBRANCH  20  27
BRANCH  21  29
ATOM     29  C   UNL     1     159.510 170.882 180.404  1.00  0.00     0.191 C 
BRANCH  29  30
ATOM     30  O   UNL     1     158.152 170.619 180.641  1.00  0.00    -0.394 OA
ATOM     31  H   UNL     1     158.040 170.568 181.625  1.00  0.00     0.210 HD
ENDBRANCH  29  30
ENDBRANCH  21  29
ENDBRANCH   1  17
TORSDOF 13
ENDMDL
MODEL 3
REMARK VINA RESULT:    -4.734      2.161      5.391
REMARK INTER + INTRA:          -8.508
REMARK INTER:                  -7.104
REMARK INTRA:                  -1.404
REMARK UNBOUND:                -1.284
REMARK SMILES OC[C@@H]1O[C@@H](O[C@@]2(CO)O[C@@H](CO)[C@H](O)[C@@H]2O)[C@H](O)[C@@H](O)[C@@H]1O
REMARK SMILES IDX 6 1 5 2 3 3 22 4 4 5 20 6 18 7 2 8 1 9 23 11 21 13 19 15
REMARK SMILES IDX 7 17 16 18 10 19 14 20 11 21 8 22 9 23 17 25 15 27 12 29
REMARK SMILES IDX 13 30
REMARK H PARENT 1 10 23 12 21 14 19 16 9 24 17 26 15 28 13 31
REMARK Flexibility Score: inf
ROOT
ATOM      1  O   UNL     1     161.593 175.963 178.247  1.00  0.00    -0.313 OA
ENDROOT
BRANCH   1   2
ATOM      2  C   UNL     1     160.926 174.740 177.987  1.00  0.00     0.285 C 
ATOM      3  C   UNL     1     161.065 172.845 176.562  1.00  0.00     0.178 C 
ATOM      4  C   UNL     1     159.918 173.291 175.604  1.00  0.00     0.177 C 
ATOM      5  O   UNL     1     161.743 173.959 177.118  1.00  0.00    -0.341 OA
ATOM      6  C   UNL     1     159.459 174.741 175.881  1.00  0.00     0.179 C 
ATOM      7  C   UNL     1     159.532 175.082 177.377  1.00  0.00     0.202 C 
BRANCH   3   8
ATOM      8  C   UNL     1     160.663 171.803 177.632  1.00  0.00     0.191 C 
BRANCH   8   9
ATOM      9  O   UNL     1     160.301 170.600 177.009  1.00  0.00    -0.394 OA
ATOM     10  H   UNL     1     160.996 170.424 176.323  1.00  0.00     0.210 HD
ENDBRANCH   8   9
ENDBRANCH   3   8
BRANCH   4  11
ATOM     11  O   UNL     1     158.811 172.428 175.694  1.00  0.00    -0.387 OA
ATOM     12  H   UNL     1     159.063 171.587 175.231  1.00  0.00     0.211 HD
ENDBRANCH   4  11
BRANCH   6  13
ATOM     13  O   UNL     1     160.193 175.672 175.118  1.00  0.00    -0.387 OA
ATOM     14  H   UNL     1     159.735 175.796 174.247  1.00  0.00     0.211 HD
ENDBRANCH   6  13
BRANCH   7  15
ATOM     15  O   UNL     1     158.516 174.387 178.054  1.00  0.00    -0.385 OA
ATOM     16  H   UNL     1     158.280 173.602 177.491  1.00  0.00     0.211 HD
ENDBRANCH   7  15
ENDBRANCH   1   2
BRANCH   1  17
ATOM     17  C   UNL     1     161.750 176.277 179.632  1.00  0.00     0.224 C 
ATOM     18  C   UNL     1     162.700 175.236 180.233  1.00  0.00     0.208 C 
ATOM     19  O   UNL     1     160.542 176.186 180.368  1.00  0.00    -0.337 OA
ATOM     20  C   UNL     1     162.264 175.133 181.682  1.00  0.00     0.180 C 
ATOM     21  C   UNL     1     160.859 175.752 181.675  1.00  0.00     0.179 C 
BRANCH  17  22
ATOM     22  C   UNL     1     162.303 177.716 179.750  1.00  0.00     0.225 C 
BRANCH  22  23
ATOM     23  O   UNL     1     163.187 177.980 178.695  1.00  0.00    -0.391 OA
ATOM     24  H   UNL     1     163.094 177.222 178.060  1.00  0.00     0.210 HD
ENDBRANCH  22  23
ENDBRANCH  17  22
BRANCH  18  25
ATOM     25  O   UNL     1     164.054 175.594 180.091  1.00  0.00    -0.385 OA
ATOM     26  H   UNL     1     164.066 176.482 179.647  1.00  0.00     0.211 HD
ENDBRANCH  18  25
BRANCH  20  27
ATOM     27  O   UNL     1     163.109 175.877 182.529  1.00  0.00    -0.387 OA
ATOM     28  H   UNL     1     164.043 175.704 182.236  1.00  0.00     0.211 HD
ENDBRANCH  20  27
BRANCH  21  29
ATOM     29  C   UNL     1     159.790 174.759 182.153  1.00  0.00     0.191 C 
BRANCH  29  30
ATOM     30  O   UNL     1     159.017 174.318 181.069  1.00  0.00    -0.394 OA
ATOM     31  H   UNL     1     159.032 173.326 181.093  1.00  0.00     0.210 HD
ENDBRANCH  29  30
ENDBRANCH  21  29
ENDBRANCH   1  17
TORSDOF 13
ENDMDL
MODEL 4
REMARK VINA RESULT:    -4.615     13.055     14.981
REMARK INTER + INTRA:          -8.328
REMARK INTER:                  -7.498
REMARK INTRA:                  -0.830
REMARK UNBOUND:                -1.284
REMARK SMILES OC[C@@H]1O[C@@H](O[C@@]2(CO)O[C@@H](CO)[C@H](O)[C@@H]2O)[C@H](O)[C@@H](O)[C@@H]1O
REMARK SMILES IDX 6 1 5 2 3 3 22 4 4 5 20 6 18 7 2 8 1 9 23 11 21 13 19 15
REMARK SMILES IDX 7 17 16 18 10 19 14 20 11 21 8 22 9 23 17 25 15 27 12 29
REMARK SMILES IDX 13 30
REMARK H PARENT 1 10 23 12 21 14 19 16 9 24 17 26 15 28 13 31
REMARK Flexibility Score: inf
ROOT
ATOM      1  O   UNL     1     174.584 176.978 181.693  1.00  0.00    -0.313 OA
ENDROOT
BRANCH   1   2
ATOM      2  C   UNL     1     173.361 176.600 181.085  1.00  0.00     0.285 C 
ATOM      3  C   UNL     1     171.471 177.566 180.017  1.00  0.00     0.178 C 
ATOM      4  C   UNL     1     170.519 177.433 181.245  1.00  0.00     0.177 C 
ATOM      5  O   UNL     1     172.820 177.739 180.420  1.00  0.00    -0.341 OA
ATOM      6  C   UNL     1     171.274 177.006 182.524  1.00  0.00     0.179 C 
ATOM      7  C   UNL     1     172.429 176.044 182.205  1.00  0.00     0.202 C 
BRANCH   3   8
ATOM      8  C   UNL     1     171.313 176.470 178.938  1.00  0.00     0.191 C 
BRANCH   8   9
ATOM      9  O   UNL     1     170.204 176.758 178.130  1.00  0.00    -0.394 OA
ATOM     10  H   UNL     1     170.227 176.103 177.385  1.00  0.00     0.210 HD
ENDBRANCH   8   9
ENDBRANCH   3   8
BRANCH   4  11
ATOM     11  O   UNL     1     169.480 176.521 180.990  1.00  0.00    -0.387 OA
ATOM     12  H   UNL     1     169.315 176.027 181.836  1.00  0.00     0.211 HD
ENDBRANCH   4  11
BRANCH   6  13
ATOM     13  O   UNL     1     171.737 178.121 183.251  1.00  0.00    -0.387 OA
ATOM     14  H   UNL     1     171.187 178.909 183.002  1.00  0.00     0.211 HD
ENDBRANCH   6  13
BRANCH   7  15
ATOM     15  O   UNL     1     171.896 174.800 181.825  1.00  0.00    -0.385 OA
ATOM     16  H   UNL     1     171.050 174.986 181.336  1.00  0.00     0.211 HD
ENDBRANCH   7  15
ENDBRANCH   1   2
BRANCH   1  17
ATOM     17  C   UNL     1     175.751 176.418 181.089  1.00  0.00     0.224 C 
ATOM     18  C   UNL     1     175.339 175.865 179.722  1.00  0.00     0.208 C 
ATOM     19  O   UNL     1     176.289 175.325 181.816  1.00  0.00    -0.337 OA
ATOM     20  C   UNL     1     176.297 174.712 179.486  1.00  0.00     0.180 C 
ATOM     21  C   UNL     1     176.850 174.419 180.888  1.00  0.00     0.179 C 
BRANCH  17  22
ATOM     22  C   UNL     1     176.826 177.523 180.978  1.00  0.00     0.225 C 
BRANCH  22  23
ATOM     23  O   UNL     1     177.391 177.772 182.237  1.00  0.00    -0.391 OA
ATOM     24  H   UNL     1     176.633 177.972 182.846  1.00  0.00     0.210 HD
ENDBRANCH  22  23
ENDBRANCH  17  22
BRANCH  18  25
ATOM     25  O   UNL     1     175.391 176.839 178.707  1.00  0.00    -0.385 OA
ATOM     26  H   UNL     1     174.567 176.727 178.165  1.00  0.00     0.211 HD
ENDBRANCH  18  25
BRANCH  20  27
ATOM     27  O   UNL     1     177.349 175.084 178.626  1.00  0.00    -0.387 OA
ATOM     28  H   UNL     1     178.158 175.206 179.191  1.00  0.00     0.211 HD
ENDBRANCH  20  27
BRANCH  21  29
ATOM     29  C   UNL     1     176.547 172.982 181.336  1.00  0.00     0.191 C 
BRANCH  29  30
ATOM     30  O   UNL     1     177.349 172.073 180.630  1.00  0.00    -0.394 OA
ATOM     31  H   UNL     1     177.599 171.357 181.270  1.00  0.00     0.210 HD
ENDBRANCH  29  30
ENDBRANCH  21  29
ENDBRANCH   1  17
TORSDOF 13
ENDMDL
MODEL 5
REMARK VINA RESULT:    -4.610     12.524     14.347
REMARK INTER + INTRA:          -8.320
REMARK INTER:                  -6.825
REMARK INTRA:                  -1.495
REMARK UNBOUND:                -1.284
REMARK SMILES OC[C@@H]1O[C@@H](O[C@@]2(CO)O[C@@H](CO)[C@H](O)[C@@H]2O)[C@H](O)[C@@H](O)[C@@H]1O
REMARK SMILES IDX 6 1 5 2 3 3 22 4 4 5 20 6 18 7 2 8 1 9 23 11 21 13 19 15
REMARK SMILES IDX 7 17 16 18 10 19 14 20 11 21 8 22 9 23 17 25 15 27 12 29
REMARK SMILES IDX 13 30
REMARK H PARENT 1 10 23 12 21 14 19 16 9 24 17 26 15 28 13 31
REMARK Flexibility Score: inf
ROOT
ATOM      1  O   UNL     1     173.434 177.302 180.942  1.00  0.00    -0.313 OA
ENDROOT
BRANCH   1   2
ATOM      2  C   UNL     1     174.159 176.360 180.171  1.00  0.00     0.285 C 
ATOM      3  C   UNL     1     176.012 174.884 180.351  1.00  0.00     0.178 C 
ATOM      4  C   UNL     1     177.007 175.794 179.568  1.00  0.00     0.177 C 
ATOM      5  O   UNL     1     175.038 175.650 181.041  1.00  0.00    -0.341 OA
ATOM      6  C   UNL     1     176.423 177.199 179.298  1.00  0.00     0.179 C 
ATOM      7  C   UNL     1     174.907 177.143 179.049  1.00  0.00     0.202 C 
BRANCH   3   8
ATOM      8  C   UNL     1     175.386 173.732 179.532  1.00  0.00     0.191 C 
BRANCH   8   9
ATOM      9  O   UNL     1     176.372 172.786 179.216  1.00  0.00    -0.394 OA
ATOM     10  H   UNL     1     176.379 172.134 179.963  1.00  0.00     0.210 HD
ENDBRANCH   8   9
ENDBRANCH   3   8
BRANCH   4  11
ATOM     11  O   UNL     1     177.388 175.205 178.349  1.00  0.00    -0.387 OA
ATOM     12  H   UNL     1     177.804 174.331 178.568  1.00  0.00     0.211 HD
ENDBRANCH   4  11
BRANCH   6  13
ATOM     13  O   UNL     1     176.726 178.097 180.340  1.00  0.00    -0.387 OA
ATOM     14  H   UNL     1     176.091 177.940 181.086  1.00  0.00     0.211 HD
ENDBRANCH   6  13
BRANCH   7  15
ATOM     15  O   UNL     1     174.672 176.550 177.796  1.00  0.00    -0.385 OA
ATOM     16  H   UNL     1     174.857 177.244 177.109  1.00  0.00     0.211 HD
ENDBRANCH   7  15
ENDBRANCH   1   2
BRANCH   1  17
ATOM     17  C   UNL     1     172.017 177.257 180.764  1.00  0.00     0.224 C 
ATOM     18  C   UNL     1     171.599 175.784 180.786  1.00  0.00     0.208 C 
ATOM     19  O   UNL     1     171.591 177.774 179.514  1.00  0.00    -0.337 OA
ATOM     20  C   UNL     1     170.366 175.737 179.904  1.00  0.00     0.180 C 
ATOM     21  C   UNL     1     170.449 177.047 179.108  1.00  0.00     0.179 C 
BRANCH  17  22
ATOM     22  C   UNL     1     171.353 178.074 181.896  1.00  0.00     0.225 C 
BRANCH  22  23
ATOM     23  O   UNL     1     172.200 178.125 183.012  1.00  0.00    -0.391 OA
ATOM     24  H   UNL     1     171.620 177.984 183.806  1.00  0.00     0.210 HD
ENDBRANCH  22  23
ENDBRANCH  17  22
BRANCH  18  25
ATOM     25  O   UNL     1     171.361 175.308 182.089  1.00  0.00    -0.385 OA
ATOM     26  H   UNL     1     171.379 174.318 182.036  1.00  0.00     0.211 HD
ENDBRANCH  18  25
BRANCH  20  27
ATOM     27  O   UNL     1     169.184 175.719 180.671  1.00  0.00    -0.387 OA
ATOM     28  H   UNL     1     168.736 176.597 180.539  1.00  0.00     0.211 HD
ENDBRANCH  20  27
BRANCH  21  29
ATOM     29  C   UNL     1     170.518 176.797 177.595  1.00  0.00     0.191 C 
BRANCH  29  30
ATOM     30  O   UNL     1     171.803 176.368 177.231  1.00  0.00    -0.394 OA
ATOM     31  H   UNL     1     172.441 176.847 177.822  1.00  0.00     0.210 HD
ENDBRANCH  29  30
ENDBRANCH  21  29
ENDBRANCH   1  17
TORSDOF 13
ENDMDL
MODEL 6
REMARK VINA RESULT:    -4.577     12.476     14.643
REMARK INTER + INTRA:          -8.270
REMARK INTER:                  -6.817
REMARK INTRA:                  -1.453
REMARK UNBOUND:                -1.284
REMARK SMILES OC[C@@H]1O[C@@H](O[C@@]2(CO)O[C@@H](CO)[C@H](O)[C@@H]2O)[C@H](O)[C@@H](O)[C@@H]1O
REMARK SMILES IDX 6 1 5 2 3 3 22 4 4 5 20 6 18 7 2 8 1 9 23 11 21 13 19 15
REMARK SMILES IDX 7 17 16 18 10 19 14 20 11 21 8 22 9 23 17 25 15 27 12 29
REMARK SMILES IDX 13 30
REMARK H PARENT 1 10 23 12 21 14 19 16 9 24 17 26 15 28 13 31
REMARK Flexibility Score: inf
ROOT
ATOM      1  O   UNL     1     173.394 175.025 182.876  1.00  0.00    -0.313 OA
ENDROOT
BRANCH   1   2
ATOM      2  C   UNL     1     174.239 175.322 181.777  1.00  0.00     0.285 C 
ATOM      3  C   UNL     1     176.388 174.781 180.921  1.00  0.00     0.178 C 
ATOM      4  C   UNL     1     177.071 176.106 181.378  1.00  0.00     0.177 C 
ATOM      5  O   UNL     1     175.334 174.410 181.794  1.00  0.00    -0.341 OA
ATOM      6  C   UNL     1     176.159 176.943 182.304  1.00  0.00     0.179 C 
ATOM      7  C   UNL     1     174.680 176.812 181.909  1.00  0.00     0.202 C 
BRANCH   3   8
ATOM      8  C   UNL     1     175.966 174.736 179.433  1.00  0.00     0.191 C 
BRANCH   8   9
ATOM      9  O   UNL     1     177.106 174.766 178.617  1.00  0.00    -0.394 OA
ATOM     10  H   UNL     1     176.780 174.913 177.692  1.00  0.00     0.210 HD
ENDBRANCH   8   9
ENDBRANCH   3   8
BRANCH   4  11
ATOM     11  O   UNL     1     177.459 176.889 180.276  1.00  0.00    -0.387 OA
ATOM     12  H   UNL     1     178.238 176.436 179.860  1.00  0.00     0.211 HD
ENDBRANCH   4  11
BRANCH   6  13
ATOM     13  O   UNL     1     176.347 176.606 183.660  1.00  0.00    -0.387 OA
ATOM     14  H   UNL     1     177.322 176.538 183.835  1.00  0.00     0.211 HD
ENDBRANCH   6  13
BRANCH   7  15
ATOM     15  O   UNL     1     174.468 177.495 180.699  1.00  0.00    -0.385 OA
ATOM     16  H   UNL     1     175.167 178.200 180.640  1.00  0.00     0.211 HD
ENDBRANCH   7  15
ENDBRANCH   1   2
BRANCH   1  17
ATOM     17  C   UNL     1     172.001 174.982 182.564  1.00  0.00     0.224 C 
ATOM     18  C   UNL     1     171.861 174.357 181.173  1.00  0.00     0.208 C 
ATOM     19  O   UNL     1     171.403 176.265 182.487  1.00  0.00    -0.337 OA
ATOM     20  C   UNL     1     170.599 174.984 180.612  1.00  0.00     0.180 C 
ATOM     21  C   UNL     1     170.387 176.215 181.506  1.00  0.00     0.179 C 
BRANCH  17  22
ATOM     22  C   UNL     1     171.279 174.158 183.655  1.00  0.00     0.225 C 
BRANCH  22  23
ATOM     23  O   UNL     1     172.188 173.300 184.290  1.00  0.00    -0.391 OA
ATOM     24  H   UNL     1     171.686 172.467 184.494  1.00  0.00     0.210 HD
ENDBRANCH  22  23
ENDBRANCH  17  22
BRANCH  18  25
ATOM     25  O   UNL     1     171.804 172.951 181.215  1.00  0.00    -0.385 OA
ATOM     26  H   UNL     1     170.842 172.709 181.236  1.00  0.00     0.211 HD
ENDBRANCH  18  25
BRANCH  20  27
ATOM     27  O   UNL     1     169.496 174.115 180.727  1.00  0.00    -0.387 OA
ATOM     28  H   UNL     1     168.701 174.605 180.388  1.00  0.00     0.211 HD
ENDBRANCH  20  27
BRANCH  21  29
ATOM     29  C   UNL     1     170.396 177.521 180.698  1.00  0.00     0.191 C 
BRANCH  29  30
ATOM     30  O   UNL     1     171.714 177.899 180.401  1.00  0.00    -0.394 OA
ATOM     31  H   UNL     1     172.057 177.242 179.742  1.00  0.00     0.210 HD
ENDBRANCH  29  30
ENDBRANCH  21  29
ENDBRANCH   1  17
TORSDOF 13
ENDMDL
MODEL 7
REMARK VINA RESULT:    -4.513      8.656     11.359
REMARK INTER + INTRA:          -8.171
REMARK INTER:                  -6.968
REMARK INTRA:                  -1.203
REMARK UNBOUND:                -1.284
REMARK SMILES OC[C@@H]1O[C@@H](O[C@@]2(CO)O[C@@H](CO)[C@H](O)[C@@H]2O)[C@H](O)[C@@H](O)[C@@H]1O
REMARK SMILES IDX 6 1 5 2 3 3 22 4 4 5 20 6 18 7 2 8 1 9 23 11 21 13 19 15
REMARK SMILES IDX 7 17 16 18 10 19 14 20 11 21 8 22 9 23 17 25 15 27 12 29
REMARK SMILES IDX 13 30
REMARK H PARENT 1 10 23 12 21 14 19 16 9 24 17 26 15 28 13 31
REMARK Flexibility Score: inf
ROOT
ATOM      1  O   UNL     1     159.248 161.293 179.035  1.00  0.00    -0.313 OA
ENDROOT
BRANCH   1   2
ATOM      2  C   UNL     1     160.185 161.996 179.835  1.00  0.00     0.285 C 
ATOM      3  C   UNL     1     161.634 161.652 181.685  1.00  0.00     0.178 C 
ATOM      4  C   UNL     1     160.715 162.355 182.730  1.00  0.00     0.177 C 
ATOM      5  O   UNL     1     160.879 161.051 180.647  1.00  0.00    -0.341 OA
ATOM      6  C   UNL     1     159.319 162.681 182.152  1.00  0.00     0.179 C 
ATOM      7  C   UNL     1     159.397 163.056 180.664  1.00  0.00     0.202 C 
BRANCH   3   8
ATOM      8  C   UNL     1     162.798 162.515 181.146  1.00  0.00     0.191 C 
BRANCH   8   9
ATOM      9  O   UNL     1     163.799 162.624 182.122  1.00  0.00    -0.394 OA
ATOM     10  H   UNL     1     163.336 162.871 182.965  1.00  0.00     0.210 HD
ENDBRANCH   8   9
ENDBRANCH   3   8
BRANCH   4  11
ATOM     11  O   UNL     1     161.304 163.534 183.219  1.00  0.00    -0.387 OA
ATOM     12  H   UNL     1     162.269 163.492 182.990  1.00  0.00     0.211 HD
ENDBRANCH   4  11
BRANCH   6  13
ATOM     13  O   UNL     1     158.412 161.623 182.355  1.00  0.00    -0.387 OA
ATOM     14  H   UNL     1     158.527 161.283 183.281  1.00  0.00     0.211 HD
ENDBRANCH   6  13
BRANCH   7  15
ATOM     15  O   UNL     1     159.999 164.320 180.542  1.00  0.00    -0.385 OA
ATOM     16  H   UNL     1     159.461 164.832 179.881  1.00  0.00     0.211 HD
ENDBRANCH   7  15
ENDBRANCH   1   2
BRANCH   1  17
ATOM     17  C   UNL     1     158.995 161.879 177.757  1.00  0.00     0.224 C 
ATOM     18  C   UNL     1     160.338 162.357 177.197  1.00  0.00     0.208 C 
ATOM     19  O   UNL     1     158.160 163.023 177.819  1.00  0.00    -0.337 OA
ATOM     20  C   UNL     1     159.973 163.540 176.320  1.00  0.00     0.180 C 
ATOM     21  C   UNL     1     158.563 163.914 176.799  1.00  0.00     0.179 C 
BRANCH  17  22
ATOM     22  C   UNL     1     158.325 160.818 176.854  1.00  0.00     0.225 C 
BRANCH  22  23
ATOM     23  O   UNL     1     157.875 159.741 177.630  1.00  0.00    -0.391 OA
ATOM     24  H   UNL     1     157.373 160.139 178.390  1.00  0.00     0.210 HD
ENDBRANCH  22  23
ENDBRANCH  17  22
BRANCH  18  25
ATOM     25  O   UNL     1     161.024 161.345 176.498  1.00  0.00    -0.385 OA
ATOM     26  H   UNL     1     161.763 161.792 176.009  1.00  0.00     0.211 HD
ENDBRANCH  18  25
BRANCH  20  27
ATOM     27  O   UNL     1     159.933 163.179 174.959  1.00  0.00    -0.387 OA
ATOM     28  H   UNL     1     159.324 163.818 174.504  1.00  0.00     0.211 HD
ENDBRANCH  20  27
BRANCH  21  29
ATOM     29  C   UNL     1     158.499 165.354 177.329  1.00  0.00     0.191 C 
BRANCH  29  30
ATOM     30  O   UNL     1     159.693 165.683 177.987  1.00  0.00    -0.394 OA
ATOM     31  H   UNL     1     159.490 165.689 178.958  1.00  0.00     0.210 HD
ENDBRANCH  29  30
ENDBRANCH  21  29
ENDBRANCH   1  17
TORSDOF 13
ENDMDL
MODEL 8
REMARK VINA RESULT:    -4.507      2.621      5.982
REMARK INTER + INTRA:          -8.163
REMARK INTER:                  -6.834
REMARK INTRA:                  -1.329
REMARK UNBOUND:                -1.284
REMARK SMILES OC[C@@H]1O[C@@H](O[C@@]2(CO)O[C@@H](CO)[C@H](O)[C@@H]2O)[C@H](O)[C@@H](O)[C@@H]1O
REMARK SMILES IDX 6 1 5 2 3 3 22 4 4 5 20 6 18 7 2 8 1 9 23 11 21 13 19 15
REMARK SMILES IDX 7 17 16 18 10 19 14 20 11 21 8 22 9 23 17 25 15 27 12 29
REMARK SMILES IDX 13 30
REMARK H PARENT 1 10 23 12 21 14 19 16 9 24 17 26 15 28 13 31
REMARK Flexibility Score: inf
ROOT
ATOM      1  O   UNL     1     160.562 175.909 179.595  1.00  0.00    -0.313 OA
ENDROOT
BRANCH   1   2
ATOM      2  C   UNL     1     160.820 175.275 178.354  1.00  0.00     0.285 C 
ATOM      3  C   UNL     1     161.194 175.805 176.069  1.00  0.00     0.178 C 
ATOM      4  C   UNL     1     159.760 175.423 175.588  1.00  0.00     0.177 C 
ATOM      5  O   UNL     1     161.187 176.275 177.407  1.00  0.00    -0.341 OA
ATOM      6  C   UNL     1     158.803 175.149 176.771  1.00  0.00     0.179 C 
ATOM      7  C   UNL     1     159.535 174.488 177.949  1.00  0.00     0.202 C 
BRANCH   3   8
ATOM      8  C   UNL     1     162.279 174.731 175.825  1.00  0.00     0.191 C 
BRANCH   8   9
ATOM      9  O   UNL     1     163.543 175.259 176.121  1.00  0.00    -0.394 OA
ATOM     10  H   UNL     1     164.010 175.364 175.252  1.00  0.00     0.210 HD
ENDBRANCH   8   9
ENDBRANCH   3   8
BRANCH   4  11
ATOM     11  O   UNL     1     159.786 174.303 174.740  1.00  0.00    -0.387 OA
ATOM     12  H   UNL     1     160.157 173.548 175.269  1.00  0.00     0.211 HD
ENDBRANCH   4  11
BRANCH   6  13
ATOM     13  O   UNL     1     158.141 176.321 177.186  1.00  0.00    -0.387 OA
ATOM     14  H   UNL     1     158.653 176.724 177.934  1.00  0.00     0.211 HD
ENDBRANCH   6  13
BRANCH   7  15
ATOM     15  O   UNL     1     159.859 173.166 177.603  1.00  0.00    -0.385 OA
ATOM     16  H   UNL     1     160.775 172.993 177.949  1.00  0.00     0.211 HD
ENDBRANCH   7  15
ENDBRANCH   1   2
BRANCH   1  17
ATOM     17  C   UNL     1     161.588 175.746 180.576  1.00  0.00     0.224 C 
ATOM     18  C   UNL     1     162.028 177.145 181.016  1.00  0.00     0.208 C 
ATOM     19  O   UNL     1     162.747 175.104 180.072  1.00  0.00    -0.337 OA
ATOM     20  C   UNL     1     163.482 176.968 181.409  1.00  0.00     0.180 C 
ATOM     21  C   UNL     1     163.869 175.638 180.745  1.00  0.00     0.179 C 
BRANCH  17  22
ATOM     22  C   UNL     1     161.020 174.911 181.746  1.00  0.00     0.225 C 
BRANCH  22  23
ATOM     23  O   UNL     1     159.631 175.080 181.828  1.00  0.00    -0.391 OA
ATOM     24  H   UNL     1     159.442 175.371 182.758  1.00  0.00     0.210 HD
ENDBRANCH  22  23
ENDBRANCH  17  22
BRANCH  18  25
ATOM     25  O   UNL     1     161.235 177.657 182.061  1.00  0.00    -0.385 OA
ATOM     26  H   UNL     1     161.528 178.594 182.204  1.00  0.00     0.211 HD
ENDBRANCH  18  25
BRANCH  20  27
ATOM     27  O   UNL     1     163.630 176.864 182.806  1.00  0.00    -0.387 OA
ATOM     28  H   UNL     1     162.863 176.331 183.143  1.00  0.00     0.211 HD
ENDBRANCH  20  27
BRANCH  21  29
ATOM     29  C   UNL     1     165.025 175.807 179.749  1.00  0.00     0.191 C 
BRANCH  29  30
ATOM     30  O   UNL     1     164.567 176.418 178.572  1.00  0.00    -0.394 OA
ATOM     31  H   UNL     1     163.800 175.877 178.251  1.00  0.00     0.210 HD
ENDBRANCH  29  30
ENDBRANCH  21  29
ENDBRANCH   1  17
TORSDOF 13
ENDMDL
MODEL 9
REMARK VINA RESULT:    -4.485     13.010     15.365
REMARK INTER + INTRA:          -8.129
REMARK INTER:                  -6.871
REMARK INTRA:                  -1.258
REMARK UNBOUND:                -1.284
REMARK SMILES OC[C@@H]1O[C@@H](O[C@@]2(CO)O[C@@H](CO)[C@H](O)[C@@H]2O)[C@H](O)[C@@H](O)[C@@H]1O
REMARK SMILES IDX 6 1 5 2 3 3 22 4 4 5 20 6 18 7 2 8 1 9 23 11 21 13 19 15
REMARK SMILES IDX 7 17 16 18 10 19 14 20 11 21 8 22 9 23 17 25 15 27 12 29
REMARK SMILES IDX 13 30
REMARK H PARENT 1 10 23 12 21 14 19 16 9 24 17 26 15 28 13 31
REMARK Flexibility Score: inf
ROOT
ATOM      1  O   UNL     1     174.285 174.599 179.574  1.00  0.00    -0.313 OA
ENDROOT
BRANCH   1   2
ATOM      2  C   UNL     1     173.404 175.710 179.582  1.00  0.00     0.285 C 
ATOM      3  C   UNL     1     171.098 176.220 179.330  1.00  0.00     0.178 C 
ATOM      4  C   UNL     1     171.218 176.748 177.868  1.00  0.00     0.177 C 
ATOM      5  O   UNL     1     172.065 175.220 179.605  1.00  0.00    -0.341 OA
ATOM      6  C   UNL     1     172.613 176.472 177.262  1.00  0.00     0.179 C 
ATOM      7  C   UNL     1     173.721 176.573 178.323  1.00  0.00     0.202 C 
BRANCH   3   8
ATOM      8  C   UNL     1     171.050 177.312 180.424  1.00  0.00     0.191 C 
BRANCH   8   9
ATOM      9  O   UNL     1     169.891 178.086 180.269  1.00  0.00    -0.394 OA
ATOM     10  H   UNL     1     169.609 178.349 181.184  1.00  0.00     0.210 HD
ENDBRANCH   8   9
ENDBRANCH   3   8
BRANCH   4  11
ATOM     11  O   UNL     1     170.944 178.125 177.797  1.00  0.00    -0.387 OA
ATOM     12  H   UNL     1     169.973 178.217 177.607  1.00  0.00     0.211 HD
ENDBRANCH   4  11
BRANCH   6  13
ATOM     13  O   UNL     1     172.658 175.225 176.608  1.00  0.00    -0.387 OA
ATOM     14  H   UNL     1     173.311 174.645 177.080  1.00  0.00     0.211 HD
ENDBRANCH   6  13
BRANCH   7  15
ATOM     15  O   UNL     1     173.888 177.921 178.682  1.00  0.00    -0.385 OA
ATOM     16  H   UNL     1     173.295 178.087 179.463  1.00  0.00     0.211 HD
ENDBRANCH   7  15
ENDBRANCH   1   2
BRANCH   1  17
ATOM     17  C   UNL     1     175.359 174.680 180.512  1.00  0.00     0.224 C 
ATOM     18  C   UNL     1     174.809 175.334 181.783  1.00  0.00     0.208 C 
ATOM     19  O   UNL     1     176.428 175.501 180.072  1.00  0.00    -0.337 OA
ATOM     20  C   UNL     1     176.008 176.046 182.380  1.00  0.00     0.180 C 
ATOM     21  C   UNL     1     176.994 176.125 181.206  1.00  0.00     0.179 C 
BRANCH  17  22
ATOM     22  C   UNL     1     175.896 173.253 180.770  1.00  0.00     0.225 C 
BRANCH  22  23
ATOM     23  O   UNL     1     176.607 172.798 179.651  1.00  0.00    -0.391 OA
ATOM     24  H   UNL     1     176.063 172.068 179.255  1.00  0.00     0.210 HD
ENDBRANCH  22  23
ENDBRANCH  17  22
BRANCH  18  25
ATOM     25  O   UNL     1     174.229 174.401 182.664  1.00  0.00    -0.385 OA
ATOM     26  H   UNL     1     174.907 174.215 183.364  1.00  0.00     0.211 HD
ENDBRANCH  18  25
BRANCH  20  27
ATOM     27  O   UNL     1     176.578 175.301 183.432  1.00  0.00    -0.387 OA
ATOM     28  H   UNL     1     177.421 174.905 183.087  1.00  0.00     0.211 HD
ENDBRANCH  20  27
BRANCH  21  29
ATOM     29  C   UNL     1     177.358 177.575 180.858  1.00  0.00     0.191 C 
BRANCH  29  30
ATOM     30  O   UNL     1     176.587 178.024 179.776  1.00  0.00    -0.394 OA
ATOM     31  H   UNL     1     177.212 178.469 179.147  1.00  0.00     0.210 HD
ENDBRANCH  29  30
ENDBRANCH  21  29
ENDBRANCH   1  17
TORSDOF 13
ENDMDL
