MODEL 1
REMARK VINA RESULT:    -4.391      0.000      0.000
REMARK INTER + INTRA:          -4.519
REMARK INTER:                  -4.519
REMARK INTRA:                   0.000
REMARK UNBOUND:                 0.000
REMARK SMILES CC1(C)[C@H]2CC[C@]1(C)[C@H](O)C2
REMARK SMILES IDX 1 1 2 2 4 3 5 4 6 5 7 6 9 7 11 8 8 9 3 10 10 11
REMARK H PARENT 10 12
REMARK Flexibility Score: inf
ROOT
ATOM      1  C   UNL     1     180.658 189.870 202.565  1.00  0.00     0.012 C 
ATOM      2  C   UNL     1     179.982 190.780 201.491  1.00  0.00    -0.025 C 
ATOM      3  C   UNL     1     178.448 190.650 201.447  1.00  0.00    -0.002 C 
ATOM      4  C   UNL     1     178.006 191.176 202.836  1.00  0.00     0.005 C 
ATOM      5  C   UNL     1     179.031 192.291 203.125  1.00  0.00     0.010 C 
ATOM      6  C   UNL     1     179.906 192.286 201.842  1.00  0.00    -0.001 C 
ATOM      7  C   UNL     1     179.046 192.867 200.677  1.00  0.00     0.121 C 
ATOM      8  C   UNL     1     178.020 191.728 200.420  1.00  0.00     0.036 C 
ATOM      9  C   UNL     1     181.253 192.998 202.022  1.00  0.00     0.015 C 
ATOM     10  C   UNL     1     180.682 190.433 200.141  1.00  0.00     0.012 C 
ENDROOT
BRANCH   7  11
ATOM     11  O   UNL     1     178.466 194.115 200.988  1.00  0.00    -0.393 OA
ATOM     12  H   UNL     1     177.693 193.981 201.595  1.00  0.00     0.210 HD
ENDBRANCH   7  11
TORSDOF 1
ENDMDL
MODEL 2
REMARK VINA RESULT:    -4.332     12.493     14.225
REMARK INTER + INTRA:          -4.459
REMARK INTER:                  -4.459
REMARK INTRA:                   0.000
REMARK UNBOUND:                 0.000
REMARK SMILES CC1(C)[C@H]2CC[C@]1(C)[C@H](O)C2
REMARK SMILES IDX 1 1 2 2 4 3 5 4 6 5 7 6 9 7 11 8 8 9 3 10 10 11
REMARK H PARENT 10 12
REMARK Flexibility Score: inf
ROOT
ATOM      1  C   UNL     1     188.069 192.586 189.402  1.00  0.00     0.012 C 
ATOM      2  C   UNL     1     186.541 192.541 189.086  1.00  0.00    -0.025 C 
ATOM      3  C   UNL     1     186.202 191.812 187.772  1.00  0.00    -0.002 C 
ATOM      4  C   UNL     1     186.654 190.355 188.048  1.00  0.00     0.005 C 
ATOM      5  C   UNL     1     186.341 190.173 189.547  1.00  0.00     0.010 C 
ATOM      6  C   UNL     1     185.712 191.541 189.928  1.00  0.00    -0.001 C 
ATOM      7  C   UNL     1     184.303 191.618 189.262  1.00  0.00     0.121 C 
ATOM      8  C   UNL     1     184.653 191.788 187.758  1.00  0.00     0.036 C 
ATOM      9  C   UNL     1     185.689 191.800 191.440  1.00  0.00     0.015 C 
ATOM     10  C   UNL     1     186.058 194.023 189.125  1.00  0.00     0.012 C 
ENDROOT
BRANCH   7  11
ATOM     11  O   UNL     1     183.494 190.498 189.550  1.00  0.00    -0.393 OA
ATOM     12  H   UNL     1     183.252 190.037 188.706  1.00  0.00     0.210 HD
ENDBRANCH   7  11
TORSDOF 1
ENDMDL
MODEL 3
REMARK VINA RESULT:    -4.286     11.425     12.899
REMARK INTER + INTRA:          -4.411
REMARK INTER:                  -4.411
REMARK INTRA:                   0.000
REMARK UNBOUND:                 0.000
REMARK SMILES CC1(C)[C@H]2CC[C@]1(C)[C@H](O)C2
REMARK SMILES IDX 1 1 2 2 4 3 5 4 6 5 7 6 9 7 11 8 8 9 3 10 10 11
REMARK H PARENT 10 12
REMARK Flexibility Score: inf
ROOT
ATOM      1  C   UNL     1     185.306 186.107 191.185  1.00  0.00     0.012 C 
ATOM      2  C   UNL     1     185.166 187.395 190.312  1.00  0.00    -0.025 C 
ATOM      3  C   UNL     1     184.127 187.268 189.184  1.00  0.00    -0.002 C 
ATOM      4  C   UNL     1     182.791 187.088 189.949  1.00  0.00     0.005 C 
ATOM      5  C   UNL     1     182.989 187.967 191.201  1.00  0.00     0.010 C 
ATOM      6  C   UNL     1     184.402 188.569 190.970  1.00  0.00    -0.001 C 
ATOM      7  C   UNL     1     184.293 189.602 189.806  1.00  0.00     0.121 C 
ATOM      8  C   UNL     1     184.083 188.688 188.567  1.00  0.00     0.036 C 
ATOM      9  C   UNL     1     185.033 189.146 192.244  1.00  0.00     0.015 C 
ATOM     10  C   UNL     1     186.606 187.721 189.808  1.00  0.00     0.012 C 
ENDROOT
BRANCH   7  11
ATOM     11  O   UNL     1     183.273 190.556 190.007  1.00  0.00    -0.393 OA
ATOM     12  H   UNL     1     182.834 190.761 189.142  1.00  0.00     0.210 HD
ENDBRANCH   7  11
TORSDOF 1
ENDMDL
MODEL 4
REMARK VINA RESULT:    -4.257     13.520     15.217
REMARK INTER + INTRA:          -4.382
REMARK INTER:                  -4.382
REMARK INTRA:                   0.000
REMARK UNBOUND:                 0.000
REMARK SMILES CC1(C)[C@H]2CC[C@]1(C)[C@H](O)C2
REMARK SMILES IDX 1 1 2 2 4 3 5 4 6 5 7 6 9 7 11 8 8 9 3 10 10 11
REMARK H PARENT 10 12
REMARK Flexibility Score: inf
ROOT
ATOM      1  C   UNL     1     188.594 181.071 194.066  1.00  0.00     0.012 C 
ATOM      2  C   UNL     1     187.820 181.629 192.829  1.00  0.00    -0.025 C 
ATOM      3  C   UNL     1     186.953 180.575 192.116  1.00  0.00    -0.002 C 
ATOM      4  C   UNL     1     185.895 180.202 193.185  1.00  0.00     0.005 C 
ATOM      5  C   UNL     1     185.663 181.536 193.923  1.00  0.00     0.010 C 
ATOM      6  C   UNL     1     186.592 182.514 193.152  1.00  0.00    -0.001 C 
ATOM      7  C   UNL     1     185.964 182.754 191.744  1.00  0.00     0.121 C 
ATOM      8  C   UNL     1     186.204 181.392 191.034  1.00  0.00     0.036 C 
ATOM      9  C   UNL     1     186.885 183.808 193.921  1.00  0.00     0.015 C 
ATOM     10  C   UNL     1     188.902 182.278 191.913  1.00  0.00     0.012 C 
ENDROOT
BRANCH   7  11
ATOM     11  O   UNL     1     184.611 183.152 191.802  1.00  0.00    -0.393 OA
ATOM     12  H   UNL     1     184.047 182.480 191.340  1.00  0.00     0.210 HD
ENDBRANCH   7  11
TORSDOF 1
ENDMDL
MODEL 5
REMARK VINA RESULT:    -4.254     12.896     14.373
REMARK INTER + INTRA:          -4.378
REMARK INTER:                  -4.378
REMARK INTRA:                   0.000
REMARK UNBOUND:                 0.000
REMARK SMILES CC1(C)[C@H]2CC[C@]1(C)[C@H](O)C2
REMARK SMILES IDX 1 1 2 2 4 3 5 4 6 5 7 6 9 7 11 8 8 9 3 10 10 11
REMARK H PARENT 10 12
REMARK Flexibility Score: inf
ROOT
ATOM      1  C   UNL     1     186.821 190.415 190.212  1.00  0.00     0.012 C 
ATOM      2  C   UNL     1     186.043 189.966 188.934  1.00  0.00    -0.025 C 
ATOM      3  C   UNL     1     184.880 189.000 189.225  1.00  0.00    -0.002 C 
ATOM      4  C   UNL     1     183.908 189.858 190.073  1.00  0.00     0.005 C 
ATOM      5  C   UNL     1     184.074 191.267 189.469  1.00  0.00     0.010 C 
ATOM      6  C   UNL     1     185.093 191.025 188.323  1.00  0.00    -0.001 C 
ATOM      7  C   UNL     1     184.364 190.224 187.199  1.00  0.00     0.121 C 
ATOM      8  C   UNL     1     184.203 188.818 187.843  1.00  0.00     0.036 C 
ATOM      9  C   UNL     1     185.762 192.311 187.821  1.00  0.00     0.015 C 
ATOM     10  C   UNL     1     187.119 189.383 187.968  1.00  0.00     0.012 C 
ENDROOT
BRANCH   7  11
ATOM     11  O   UNL     1     183.153 190.821 186.792  1.00  0.00    -0.393 OA
ATOM     12  H   UNL     1     182.911 190.498 185.886  1.00  0.00     0.210 HD
ENDBRANCH   7  11
TORSDOF 1
ENDMDL
MODEL 6
REMARK VINA RESULT:    -4.233     12.322     14.066
REMARK INTER + INTRA:          -4.356
REMARK INTER:                  -4.356
REMARK INTRA:                   0.000
REMARK UNBOUND:                 0.000
REMARK SMILES CC1(C)[C@H]2CC[C@]1(C)[C@H](O)C2
REMARK SMILES IDX 1 1 2 2 4 3 5 4 6 5 7 6 9 7 11 8 8 9 3 10 10 11
REMARK H PARENT 10 12
REMARK Flexibility Score: inf
ROOT
ATOM      1  C   UNL     1     186.965 190.784 187.447  1.00  0.00     0.012 C 
ATOM      2  C   UNL     1     186.336 190.330 188.802  1.00  0.00    -0.025 C 
ATOM      3  C   UNL     1     186.206 191.465 189.834  1.00  0.00    -0.002 C 
ATOM      4  C   UNL     1     185.200 192.438 189.168  1.00  0.00     0.005 C 
ATOM      5  C   UNL     1     184.246 191.488 188.416  1.00  0.00     0.010 C 
ATOM      6  C   UNL     1     184.807 190.087 188.782  1.00  0.00    -0.001 C 
ATOM      7  C   UNL     1     184.483 189.823 190.286  1.00  0.00     0.121 C 
ATOM      8  C   UNL     1     185.449 190.801 191.012  1.00  0.00     0.036 C 
ATOM      9  C   UNL     1     184.320 188.973 187.847  1.00  0.00     0.015 C 
ATOM     10  C   UNL     1     187.206 189.131 189.291  1.00  0.00     0.012 C 
ENDROOT
BRANCH   7  11
ATOM     11  O   UNL     1     183.119 190.011 190.598  1.00  0.00    -0.393 OA
ATOM     12  H   UNL     1     182.558 189.652 189.863  1.00  0.00     0.210 HD
ENDBRANCH   7  11
TORSDOF 1
ENDMDL
MODEL 7
REMARK VINA RESULT:    -4.222     12.832     14.556
REMARK INTER + INTRA:          -4.345
REMARK INTER:                  -4.345
REMARK INTRA:                   0.000
REMARK UNBOUND:                 0.000
REMARK SMILES CC1(C)[C@H]2CC[C@]1(C)[C@H](O)C2
REMARK SMILES IDX 1 1 2 2 4 3 5 4 6 5 7 6 9 7 11 8 8 9 3 10 10 11
REMARK H PARENT 10 12
REMARK Flexibility Score: inf
ROOT
ATOM      1  C   UNL     1     185.766 193.355 189.290  1.00  0.00     0.012 C 
ATOM      2  C   UNL     1     185.585 191.824 189.540  1.00  0.00    -0.025 C 
ATOM      3  C   UNL     1     184.239 191.270 189.038  1.00  0.00    -0.002 C 
ATOM      4  C   UNL     1     184.320 191.475 187.504  1.00  0.00     0.005 C 
ATOM      5  C   UNL     1     185.814 191.242 187.202  1.00  0.00     0.010 C 
ATOM      6  C   UNL     1     186.390 190.893 188.601  1.00  0.00    -0.001 C 
ATOM      7  C   UNL     1     185.865 189.476 188.991  1.00  0.00     0.121 C 
ATOM      8  C   UNL     1     184.361 189.744 189.276  1.00  0.00     0.036 C 
ATOM      9  C   UNL     1     187.917 191.023 188.680  1.00  0.00     0.015 C 
ATOM     10  C   UNL     1     185.821 191.615 191.067  1.00  0.00     0.012 C 
ENDROOT
BRANCH   7  11
ATOM     11  O   UNL     1     186.107 188.504 187.997  1.00  0.00    -0.393 OA
ATOM     12  H   UNL     1     185.251 188.256 187.560  1.00  0.00     0.210 HD
ENDBRANCH   7  11
TORSDOF 1
ENDMDL
MODEL 8
REMARK VINA RESULT:    -4.147     13.518     14.875
REMARK INTER + INTRA:          -4.268
REMARK INTER:                  -4.268
REMARK INTRA:                   0.000
REMARK UNBOUND:                 0.000
REMARK SMILES CC1(C)[C@H]2CC[C@]1(C)[C@H](O)C2
REMARK SMILES IDX 1 1 2 2 4 3 5 4 6 5 7 6 9 7 11 8 8 9 3 10 10 11
REMARK H PARENT 10 12
REMARK Flexibility Score: inf
ROOT
ATOM      1  C   UNL     1     188.107 191.640 188.967  1.00  0.00     0.012 C 
ATOM      2  C   UNL     1     186.788 190.811 188.850  1.00  0.00    -0.025 C 
ATOM      3  C   UNL     1     185.688 191.257 189.831  1.00  0.00    -0.002 C 
ATOM      4  C   UNL     1     185.362 192.699 189.368  1.00  0.00     0.005 C 
ATOM      5  C   UNL     1     185.539 192.621 187.838  1.00  0.00     0.010 C 
ATOM      6  C   UNL     1     185.906 191.128 187.618  1.00  0.00    -0.001 C 
ATOM      7  C   UNL     1     184.625 190.279 187.886  1.00  0.00     0.121 C 
ATOM      8  C   UNL     1     184.469 190.389 189.429  1.00  0.00     0.036 C 
ATOM      9  C   UNL     1     186.546 190.855 186.251  1.00  0.00     0.015 C 
ATOM     10  C   UNL     1     187.212 189.319 189.014  1.00  0.00     0.012 C 
ENDROOT
BRANCH   7  11
ATOM     11  O   UNL     1     183.504 190.724 187.153  1.00  0.00    -0.393 OA
ATOM     12  H   UNL     1     183.688 191.622 186.777  1.00  0.00     0.210 HD
ENDBRANCH   7  11
TORSDOF 1
ENDMDL
