MODEL 1
REMARK VINA RESULT:    -6.569      0.000      0.000
REMARK INTER + INTRA:          -9.885
REMARK INTER:                  -9.450
REMARK INTRA:                  -0.435
REMARK UNBOUND:                -0.435
REMARK SMILES O=c1c(O[C@@H]2O[C@@H](CO)[C@@H](O)[C@H](O)[C@H]2O)c(-c2ccc(O)cc2)oc2cc(O)cc(O)c12
REMARK SMILES IDX 4 1 3 2 16 3 24 4 2 5 25 6 1 7 32 8 26 9 30 10 27 11 29 12
REMARK SMILES IDX 17 13 18 14 19 15 20 16 23 17 22 18 21 19 31 21 28 23 5 25
REMARK SMILES IDX 14 26 6 27 12 28 7 29 10 30 15 31 13 33 8 35 9 36 11 38
REMARK H PARENT 21 20 31 22 28 24 15 32 13 34 9 37 11 39
REMARK Flexibility Score: inf
ROOT
ATOM      1  O   UNL     1      15.545  -6.113 -13.370  1.00  0.00    -0.454 OA
ENDROOT
BRANCH   1   2
ATOM      2  C   UNL     1      15.942  -5.254 -12.324  1.00  0.00     0.214 A 
ATOM      3  C   UNL     1      15.025  -5.024 -11.282  1.00  0.00     0.180 A 
ATOM      4  O   UNL     1      15.330  -4.186 -10.299  1.00  0.00    -0.452 OA
ATOM      5  C   UNL     1      17.191  -4.593 -12.277  1.00  0.00     0.239 A 
ATOM      6  C   UNL     1      16.496  -3.564 -10.202  1.00  0.00     0.146 A 
ATOM      7  O   UNL     1      17.992  -4.702 -13.240  1.00  0.00    -0.285 OA
ATOM      8  C   UNL     1      17.513  -3.773 -11.169  1.00  0.00     0.111 A 
ATOM      9  C   UNL     1      16.700  -2.693  -9.130  1.00  0.00     0.094 A 
ATOM     10  C   UNL     1      18.769  -3.119 -10.982  1.00  0.00     0.134 A 
ATOM     11  C   UNL     1      17.906  -2.011  -8.992  1.00  0.00     0.123 A 
ATOM     12  C   UNL     1      18.932  -2.224  -9.917  1.00  0.00     0.093 A 
BRANCH   3  13
ATOM     13  C   UNL     1      13.687  -5.660 -11.259  1.00  0.00     0.021 A 
ATOM     14  C   UNL     1      13.577  -7.044 -11.477  1.00  0.00     0.016 A 
ATOM     15  C   UNL     1      12.325  -7.666 -11.467  1.00  0.00     0.047 A 
ATOM     16  C   UNL     1      11.167  -6.912 -11.251  1.00  0.00     0.115 A 
ATOM     17  C   UNL     1      12.517  -4.904 -11.064  1.00  0.00     0.016 A 
ATOM     18  C   UNL     1      11.266  -5.528 -11.053  1.00  0.00     0.047 A 
BRANCH  16  19
ATOM     19  O   UNL     1       9.927  -7.545 -11.239  1.00  0.00    -0.508 OA
ATOM     20  H   UNL     1       9.695  -8.268 -11.910  1.00  0.00     0.293 HD
ENDBRANCH  16  19
ENDBRANCH   3  13
BRANCH  10  21
ATOM     21  O   UNL     1      19.891  -3.341 -11.786  1.00  0.00    -0.507 OA
ATOM     22  H   UNL     1      20.585  -4.053 -11.619  1.00  0.00     0.293 HD
ENDBRANCH  10  21
BRANCH  11  23
ATOM     23  O   UNL     1      18.082  -1.134  -7.924  1.00  0.00    -0.508 OA
ATOM     24  H   UNL     1      18.103  -1.464  -6.966  1.00  0.00     0.293 HD
ENDBRANCH  11  23
ENDBRANCH   1   2
BRANCH   1  25
ATOM     25  C   UNL     1      15.996  -7.447 -13.632  1.00  0.00     0.339 C 
ATOM     26  C   UNL     1      14.877  -8.249 -14.333  1.00  0.00     0.214 C 
ATOM     27  O   UNL     1      17.175  -7.445 -14.419  1.00  0.00    -0.332 OA
ATOM     28  C   UNL     1      14.992  -8.167 -15.876  1.00  0.00     0.180 C 
ATOM     29  C   UNL     1      17.033  -6.669 -15.606  1.00  0.00     0.179 C 
ATOM     30  C   UNL     1      15.637  -6.838 -16.297  1.00  0.00     0.177 C 
BRANCH  26  31
ATOM     31  O   UNL     1      14.945  -9.593 -13.927  1.00  0.00    -0.384 OA
ATOM     32  H   UNL     1      15.083 -10.135 -14.746  1.00  0.00     0.211 HD
ENDBRANCH  26  31
BRANCH  28  33
ATOM     33  O   UNL     1      13.719  -8.274 -16.457  1.00  0.00    -0.387 OA
ATOM     34  H   UNL     1      13.515  -7.393 -16.868  1.00  0.00     0.211 HD
ENDBRANCH  28  33
BRANCH  29  35
ATOM     35  C   UNL     1      18.211  -7.013 -16.533  1.00  0.00     0.191 C 
BRANCH  35  36
ATOM     36  O   UNL     1      18.693  -5.856 -17.160  1.00  0.00    -0.394 OA
ATOM     37  H   UNL     1      19.172  -6.159 -17.974  1.00  0.00     0.210 HD
ENDBRANCH  35  36
ENDBRANCH  29  35
BRANCH  30  38
ATOM     38  O   UNL     1      15.743  -6.769 -17.698  1.00  0.00    -0.387 OA
ATOM     39  H   UNL     1      16.637  -6.388 -17.907  1.00  0.00     0.211 HD
ENDBRANCH  30  38
ENDBRANCH   1  25
TORSDOF 11
ENDMDL
MODEL 2
REMARK VINA RESULT:    -6.557      1.921      5.572
REMARK INTER + INTRA:          -9.867
REMARK INTER:                  -8.746
REMARK INTRA:                  -1.121
REMARK UNBOUND:                -0.435
REMARK SMILES O=c1c(O[C@@H]2O[C@@H](CO)[C@@H](O)[C@H](O)[C@H]2O)c(-c2ccc(O)cc2)oc2cc(O)cc(O)c12
REMARK SMILES IDX 4 1 3 2 16 3 24 4 2 5 25 6 1 7 32 8 26 9 30 10 27 11 29 12
REMARK SMILES IDX 17 13 18 14 19 15 20 16 23 17 22 18 21 19 31 21 28 23 5 25
REMARK SMILES IDX 14 26 6 27 12 28 7 29 10 30 15 31 13 33 8 35 9 36 11 38
REMARK H PARENT 21 20 31 22 28 24 15 32 13 34 9 37 11 39
REMARK Flexibility Score: inf
ROOT
ATOM      1  O   UNL     1      15.701  -7.564 -13.556  1.00  0.00    -0.454 OA
ENDROOT
BRANCH   1   2
ATOM      2  C   UNL     1      14.628  -7.302 -12.679  1.00  0.00     0.214 A 
ATOM      3  C   UNL     1      14.559  -6.024 -12.093  1.00  0.00     0.180 A 
ATOM      4  O   UNL     1      13.597  -5.742 -11.223  1.00  0.00    -0.452 OA
ATOM      5  C   UNL     1      13.639  -8.252 -12.336  1.00  0.00     0.239 A 
ATOM      6  C   UNL     1      12.636  -6.593 -10.891  1.00  0.00     0.146 A 
ATOM      7  O   UNL     1      13.729  -9.430 -12.767  1.00  0.00    -0.285 OA
ATOM      8  C   UNL     1      12.581  -7.886 -11.469  1.00  0.00     0.111 A 
ATOM      9  C   UNL     1      11.684  -6.190  -9.953  1.00  0.00     0.094 A 
ATOM     10  C   UNL     1      11.491  -8.740 -11.116  1.00  0.00     0.134 A 
ATOM     11  C   UNL     1      10.662  -7.053  -9.567  1.00  0.00     0.123 A 
ATOM     12  C   UNL     1      10.572  -8.322 -10.146  1.00  0.00     0.093 A 
BRANCH   3  13
ATOM     13  C   UNL     1      15.562  -4.973 -12.382  1.00  0.00     0.021 A 
ATOM     14  C   UNL     1      16.664  -4.816 -11.524  1.00  0.00     0.016 A 
ATOM     15  C   UNL     1      17.620  -3.827 -11.772  1.00  0.00     0.047 A 
ATOM     16  C   UNL     1      17.481  -2.975 -12.872  1.00  0.00     0.115 A 
ATOM     17  C   UNL     1      15.416  -4.098 -13.474  1.00  0.00     0.016 A 
ATOM     18  C   UNL     1      16.375  -3.110 -13.721  1.00  0.00     0.047 A 
BRANCH  16  19
ATOM     19  O   UNL     1      18.443  -1.996 -13.110  1.00  0.00    -0.508 OA
ATOM     20  H   UNL     1      19.062  -1.673 -12.376  1.00  0.00     0.293 HD
ENDBRANCH  16  19
ENDBRANCH   3  13
BRANCH  10  21
ATOM     21  O   UNL     1      11.249  -9.982 -11.709  1.00  0.00    -0.507 OA
ATOM     22  H   UNL     1      11.614 -10.272 -12.603  1.00  0.00     0.293 HD
ENDBRANCH  10  21
BRANCH  11  23
ATOM     23  O   UNL     1       9.732  -6.637  -8.617  1.00  0.00    -0.508 OA
ATOM     24  H   UNL     1       9.993  -6.021  -7.855  1.00  0.00     0.293 HD
ENDBRANCH  11  23
ENDBRANCH   1   2
BRANCH   1  25
ATOM     25  C   UNL     1      15.717  -8.438 -14.690  1.00  0.00     0.339 C 
ATOM     26  C   UNL     1      14.793  -7.880 -15.795  1.00  0.00     0.214 C 
ATOM     27  O   UNL     1      17.034  -8.614 -15.184  1.00  0.00    -0.332 OA
ATOM     28  C   UNL     1      15.566  -6.976 -16.787  1.00  0.00     0.180 C 
ATOM     29  C   UNL     1      17.688  -7.373 -15.437  1.00  0.00     0.179 C 
ATOM     30  C   UNL     1      16.751  -6.296 -16.084  1.00  0.00     0.177 C 
BRANCH  26  31
ATOM     31  O   UNL     1      14.205  -8.949 -16.493  1.00  0.00    -0.384 OA
ATOM     32  H   UNL     1      13.991  -8.617 -17.403  1.00  0.00     0.211 HD
ENDBRANCH  26  31
BRANCH  28  33
ATOM     33  O   UNL     1      14.708  -5.996 -17.310  1.00  0.00    -0.387 OA
ATOM     34  H   UNL     1      15.192  -5.130 -17.255  1.00  0.00     0.211 HD
ENDBRANCH  28  33
BRANCH  29  35
ATOM     35  C   UNL     1      18.941  -7.668 -16.279  1.00  0.00     0.191 C 
BRANCH  35  36
ATOM     36  O   UNL     1      19.935  -6.714 -16.024  1.00  0.00    -0.394 OA
ATOM     37  H   UNL     1      19.469  -5.842 -15.938  1.00  0.00     0.210 HD
ENDBRANCH  35  36
ENDBRANCH  29  35
BRANCH  30  38
ATOM     38  O   UNL     1      17.453  -5.479 -16.989  1.00  0.00    -0.387 OA
ATOM     39  H   UNL     1      17.326  -5.867 -17.895  1.00  0.00     0.211 HD
ENDBRANCH  30  38
ENDBRANCH   1  25
TORSDOF 11
ENDMDL
MODEL 3
REMARK VINA RESULT:    -6.536      3.927      7.478
REMARK INTER + INTRA:          -9.837
REMARK INTER:                  -8.329
REMARK INTRA:                  -1.508
REMARK UNBOUND:                -0.435
REMARK SMILES O=c1c(O[C@@H]2O[C@@H](CO)[C@@H](O)[C@H](O)[C@H]2O)c(-c2ccc(O)cc2)oc2cc(O)cc(O)c12
REMARK SMILES IDX 4 1 3 2 16 3 24 4 2 5 25 6 1 7 32 8 26 9 30 10 27 11 29 12
REMARK SMILES IDX 17 13 18 14 19 15 20 16 23 17 22 18 21 19 31 21 28 23 5 25
REMARK SMILES IDX 14 26 6 27 12 28 7 29 10 30 15 31 13 33 8 35 9 36 11 38
REMARK H PARENT 21 20 31 22 28 24 15 32 13 34 9 37 11 39
REMARK Flexibility Score: inf
ROOT
ATOM      1  O   UNL     1      17.556  -0.242  -9.957  1.00  0.00    -0.454 OA
ENDROOT
BRANCH   1   2
ATOM      2  C   UNL     1      16.252   0.291  -9.893  1.00  0.00     0.214 A 
ATOM      3  C   UNL     1      15.320  -0.140 -10.855  1.00  0.00     0.180 A 
ATOM      4  O   UNL     1      14.094   0.368 -10.868  1.00  0.00    -0.452 OA
ATOM      5  C   UNL     1      15.838   1.251  -8.940  1.00  0.00     0.239 A 
ATOM      6  C   UNL     1      13.656   1.250  -9.981  1.00  0.00     0.146 A 
ATOM      7  O   UNL     1      16.674   1.727  -8.131  1.00  0.00    -0.285 OA
ATOM      8  C   UNL     1      14.498   1.706  -8.935  1.00  0.00     0.111 A 
ATOM      9  C   UNL     1      12.349   1.726 -10.103  1.00  0.00     0.094 A 
ATOM     10  C   UNL     1      13.954   2.614  -7.976  1.00  0.00     0.134 A 
ATOM     11  C   UNL     1      11.849   2.659  -9.200  1.00  0.00     0.123 A 
ATOM     12  C   UNL     1      12.652   3.100  -8.144  1.00  0.00     0.093 A 
BRANCH   3  13
ATOM     13  C   UNL     1      15.671  -1.129 -11.901  1.00  0.00     0.021 A 
ATOM     14  C   UNL     1      16.510  -0.744 -12.960  1.00  0.00     0.016 A 
ATOM     15  C   UNL     1      16.851  -1.657 -13.962  1.00  0.00     0.047 A 
ATOM     16  C   UNL     1      16.349  -2.962 -13.925  1.00  0.00     0.115 A 
ATOM     17  C   UNL     1      15.152  -2.436 -11.880  1.00  0.00     0.016 A 
ATOM     18  C   UNL     1      15.496  -3.349 -12.883  1.00  0.00     0.047 A 
BRANCH  16  19
ATOM     19  O   UNL     1      16.700  -3.863 -14.928  1.00  0.00    -0.508 OA
ATOM     20  H   UNL     1      17.506  -3.706 -15.522  1.00  0.00     0.293 HD
ENDBRANCH  16  19
ENDBRANCH   3  13
BRANCH  10  21
ATOM     21  O   UNL     1      14.633   3.036  -6.829  1.00  0.00    -0.507 OA
ATOM     22  H   UNL     1      14.366   3.826  -6.262  1.00  0.00     0.293 HD
ENDBRANCH  10  21
BRANCH  11  23
ATOM     23  O   UNL     1      10.548   3.133  -9.349  1.00  0.00    -0.508 OA
ATOM     24  H   UNL     1       9.895   3.145  -8.573  1.00  0.00     0.293 HD
ENDBRANCH  11  23
ENDBRANCH   1   2
BRANCH   1  25
ATOM     25  C   UNL     1      18.276  -0.933  -8.930  1.00  0.00     0.339 C 
ATOM     26  C   UNL     1      17.507  -2.210  -8.521  1.00  0.00     0.214 C 
ATOM     27  O   UNL     1      19.589  -1.258  -9.352  1.00  0.00    -0.332 OA
ATOM     28  C   UNL     1      17.968  -3.444  -9.335  1.00  0.00     0.180 C 
ATOM     29  C   UNL     1      19.603  -1.953 -10.596  1.00  0.00     0.179 C 
ATOM     30  C   UNL     1      18.458  -3.016 -10.727  1.00  0.00     0.177 C 
BRANCH  26  31
ATOM     31  O   UNL     1      17.704  -2.451  -7.150  1.00  0.00    -0.384 OA
ATOM     32  H   UNL     1      18.330  -1.755  -6.822  1.00  0.00     0.211 HD
ENDBRANCH  26  31
BRANCH  28  33
ATOM     33  O   UNL     1      16.905  -4.351  -9.472  1.00  0.00    -0.387 OA
ATOM     34  H   UNL     1      17.234  -5.095 -10.042  1.00  0.00     0.211 HD
ENDBRANCH  28  33
BRANCH  29  35
ATOM     35  C   UNL     1      21.007  -2.551 -10.782  1.00  0.00     0.191 C 
BRANCH  35  36
ATOM     36  O   UNL     1      21.258  -3.520  -9.801  1.00  0.00    -0.394 OA
ATOM     37  H   UNL     1      20.661  -4.286 -10.007  1.00  0.00     0.210 HD
ENDBRANCH  35  36
ENDBRANCH  29  35
BRANCH  30  38
ATOM     38  O   UNL     1      18.880  -4.139 -11.463  1.00  0.00    -0.387 OA
ATOM     39  H   UNL     1      19.553  -3.823 -12.121  1.00  0.00     0.211 HD
ENDBRANCH  30  38
ENDBRANCH   1  25
TORSDOF 11
ENDMDL
MODEL 4
REMARK VINA RESULT:    -6.521      3.703      7.472
REMARK INTER + INTRA:          -9.815
REMARK INTER:                  -8.887
REMARK INTRA:                  -0.928
REMARK UNBOUND:                -0.435
REMARK SMILES O=c1c(O[C@@H]2O[C@@H](CO)[C@@H](O)[C@H](O)[C@H]2O)c(-c2ccc(O)cc2)oc2cc(O)cc(O)c12
REMARK SMILES IDX 4 1 3 2 16 3 24 4 2 5 25 6 1 7 32 8 26 9 30 10 27 11 29 12
REMARK SMILES IDX 17 13 18 14 19 15 20 16 23 17 22 18 21 19 31 21 28 23 5 25
REMARK SMILES IDX 14 26 6 27 12 28 7 29 10 30 15 31 13 33 8 35 9 36 11 38
REMARK H PARENT 21 20 31 22 28 24 15 32 13 34 9 37 11 39
REMARK Flexibility Score: inf
ROOT
ATOM      1  O   UNL     1      17.528  -1.697 -11.400  1.00  0.00    -0.454 OA
ENDROOT
BRANCH   1   2
ATOM      2  C   UNL     1      16.247  -1.197 -11.711  1.00  0.00     0.214 A 
ATOM      3  C   UNL     1      15.653  -1.622 -12.914  1.00  0.00     0.180 A 
ATOM      4  O   UNL     1      14.470  -1.144 -13.278  1.00  0.00    -0.452 OA
ATOM      5  C   UNL     1      15.541  -0.277 -10.903  1.00  0.00     0.239 A 
ATOM      6  C   UNL     1      13.762  -0.299 -12.540  1.00  0.00     0.146 A 
ATOM      7  O   UNL     1      16.087   0.195  -9.872  1.00  0.00    -0.285 OA
ATOM      8  C   UNL     1      14.245   0.145 -11.283  1.00  0.00     0.111 A 
ATOM      9  C   UNL     1      12.535   0.148 -13.032  1.00  0.00     0.094 A 
ATOM     10  C   UNL     1      13.414   1.011 -10.507  1.00  0.00     0.134 A 
ATOM     11  C   UNL     1      11.762   1.042 -12.296  1.00  0.00     0.123 A 
ATOM     12  C   UNL     1      12.204   1.471 -11.041  1.00  0.00     0.093 A 
BRANCH   3  13
ATOM     13  C   UNL     1      16.328  -2.570 -13.831  1.00  0.00     0.021 A 
ATOM     14  C   UNL     1      17.298  -2.092 -14.727  1.00  0.00     0.016 A 
ATOM     15  C   UNL     1      17.944  -2.966 -15.606  1.00  0.00     0.047 A 
ATOM     16  C   UNL     1      17.620  -4.326 -15.610  1.00  0.00     0.115 A 
ATOM     17  C   UNL     1      15.990  -3.936 -13.854  1.00  0.00     0.016 A 
ATOM     18  C   UNL     1      16.639  -4.809 -14.734  1.00  0.00     0.047 A 
BRANCH  16  19
ATOM     19  O   UNL     1      18.274  -5.187 -16.488  1.00  0.00    -0.508 OA
ATOM     20  H   UNL     1      18.525  -4.896 -17.425  1.00  0.00     0.293 HD
ENDBRANCH  16  19
ENDBRANCH   3  13
BRANCH  10  21
ATOM     21  O   UNL     1      13.713   1.415  -9.202  1.00  0.00    -0.507 OA
ATOM     22  H   UNL     1      14.448   2.059  -8.955  1.00  0.00     0.293 HD
ENDBRANCH  10  21
BRANCH  11  23
ATOM     23  O   UNL     1      10.548   1.489 -12.812  1.00  0.00    -0.508 OA
ATOM     24  H   UNL     1       9.662   1.182 -12.425  1.00  0.00     0.293 HD
ENDBRANCH  11  23
ENDBRANCH   1   2
BRANCH   1  25
ATOM     25  C   UNL     1      17.905  -3.055 -11.146  1.00  0.00     0.339 C 
ATOM     26  C   UNL     1      19.304  -3.331 -11.742  1.00  0.00     0.214 C 
ATOM     27  O   UNL     1      17.890  -3.342  -9.758  1.00  0.00    -0.332 OA
ATOM     28  C   UNL     1      20.429  -3.081 -10.707  1.00  0.00     0.180 C 
ATOM     29  C   UNL     1      18.659  -2.409  -9.004  1.00  0.00     0.179 C 
ATOM     30  C   UNL     1      20.002  -2.001  -9.701  1.00  0.00     0.177 C 
BRANCH  26  31
ATOM     31  O   UNL     1      19.364  -4.662 -12.191  1.00  0.00    -0.384 OA
ATOM     32  H   UNL     1      19.788  -5.191 -11.466  1.00  0.00     0.211 HD
ENDBRANCH  26  31
BRANCH  28  33
ATOM     33  O   UNL     1      21.601  -2.673 -11.362  1.00  0.00    -0.387 OA
ATOM     34  H   UNL     1      22.274  -2.484 -10.657  1.00  0.00     0.211 HD
ENDBRANCH  28  33
BRANCH  29  35
ATOM     35  C   UNL     1      18.861  -2.998  -7.598  1.00  0.00     0.191 C 
BRANCH  35  36
ATOM     36  O   UNL     1      17.643  -3.041  -6.907  1.00  0.00    -0.394 OA
ATOM     37  H   UNL     1      16.948  -3.261  -7.581  1.00  0.00     0.210 HD
ENDBRANCH  35  36
ENDBRANCH  29  35
BRANCH  30  38
ATOM     38  O   UNL     1      21.024  -1.780  -8.759  1.00  0.00    -0.387 OA
ATOM     39  H   UNL     1      20.631  -1.248  -8.018  1.00  0.00     0.211 HD
ENDBRANCH  30  38
ENDBRANCH   1  25
TORSDOF 11
ENDMDL
MODEL 5
REMARK VINA RESULT:    -6.465      3.255      8.148
REMARK INTER + INTRA:          -9.735
REMARK INTER:                  -8.339
REMARK INTRA:                  -1.396
REMARK UNBOUND:                -0.435
REMARK SMILES O=c1c(O[C@@H]2O[C@@H](CO)[C@@H](O)[C@H](O)[C@H]2O)c(-c2ccc(O)cc2)oc2cc(O)cc(O)c12
REMARK SMILES IDX 4 1 3 2 16 3 24 4 2 5 25 6 1 7 32 8 26 9 30 10 27 11 29 12
REMARK SMILES IDX 17 13 18 14 19 15 20 16 23 17 22 18 21 19 31 21 28 23 5 25
REMARK SMILES IDX 14 26 6 27 12 28 7 29 10 30 15 31 13 33 8 35 9 36 11 38
REMARK H PARENT 21 20 31 22 28 24 15 32 13 34 9 37 11 39
REMARK Flexibility Score: inf
ROOT
ATOM      1  O   UNL     1      17.684  -2.833 -11.969  1.00  0.00    -0.454 OA
ENDROOT
BRANCH   1   2
ATOM      2  C   UNL     1      17.360  -3.681 -13.047  1.00  0.00     0.214 A 
ATOM      3  C   UNL     1      16.961  -3.080 -14.256  1.00  0.00     0.180 A 
ATOM      4  O   UNL     1      16.598  -3.834 -15.286  1.00  0.00    -0.452 OA
ATOM      5  C   UNL     1      17.385  -5.093 -12.977  1.00  0.00     0.239 A 
ATOM      6  C   UNL     1      16.629  -5.159 -15.272  1.00  0.00     0.146 A 
ATOM      7  O   UNL     1      17.643  -5.658 -11.883  1.00  0.00    -0.285 OA
ATOM      8  C   UNL     1      17.072  -5.862 -14.123  1.00  0.00     0.111 A 
ATOM      9  C   UNL     1      16.210  -5.848 -16.412  1.00  0.00     0.094 A 
ATOM     10  C   UNL     1      17.137  -7.287 -14.185  1.00  0.00     0.134 A 
ATOM     11  C   UNL     1      16.217  -7.239 -16.440  1.00  0.00     0.123 A 
ATOM     12  C   UNL     1      16.677  -7.952 -15.329  1.00  0.00     0.093 A 
BRANCH   3  13
ATOM     13  C   UNL     1      16.888  -1.609 -14.414  1.00  0.00     0.021 A 
ATOM     14  C   UNL     1      17.926  -0.934 -15.079  1.00  0.00     0.016 A 
ATOM     15  C   UNL     1      17.883   0.455 -15.234  1.00  0.00     0.047 A 
ATOM     16  C   UNL     1      16.809   1.187 -14.719  1.00  0.00     0.115 A 
ATOM     17  C   UNL     1      15.822  -0.864 -13.878  1.00  0.00     0.016 A 
ATOM     18  C   UNL     1      15.780   0.525 -14.037  1.00  0.00     0.047 A 
BRANCH  16  19
ATOM     19  O   UNL     1      16.776   2.570 -14.885  1.00  0.00    -0.508 OA
ATOM     20  H   UNL     1      15.947   3.110 -14.666  1.00  0.00     0.293 HD
ENDBRANCH  16  19
ENDBRANCH   3  13
BRANCH  10  21
ATOM     21  O   UNL     1      17.676  -8.089 -13.174  1.00  0.00    -0.507 OA
ATOM     22  H   UNL     1      17.228  -8.276 -12.290  1.00  0.00     0.293 HD
ENDBRANCH  10  21
BRANCH  11  23
ATOM     23  O   UNL     1      15.779  -7.907 -17.581  1.00  0.00    -0.508 OA
ATOM     24  H   UNL     1      15.160  -7.462 -18.250  1.00  0.00     0.293 HD
ENDBRANCH  11  23
ENDBRANCH   1   2
BRANCH   1  25
ATOM     25  C   UNL     1      18.986  -2.450 -11.511  1.00  0.00     0.339 C 
ATOM     26  C   UNL     1      19.116  -0.910 -11.532  1.00  0.00     0.214 C 
ATOM     27  O   UNL     1      19.243  -2.953 -10.211  1.00  0.00    -0.332 OA
ATOM     28  C   UNL     1      18.721  -0.282 -10.173  1.00  0.00     0.180 C 
ATOM     29  C   UNL     1      18.214  -2.614  -9.286  1.00  0.00     0.179 C 
ATOM     30  C   UNL     1      17.674  -1.153  -9.462  1.00  0.00     0.177 C 
BRANCH  26  31
ATOM     31  O   UNL     1      20.441  -0.560 -11.845  1.00  0.00    -0.384 OA
ATOM     32  H   UNL     1      20.633  -0.930 -12.745  1.00  0.00     0.211 HD
ENDBRANCH  26  31
BRANCH  28  33
ATOM     33  O   UNL     1      18.198   1.005 -10.374  1.00  0.00    -0.387 OA
ATOM     34  H   UNL     1      17.266   0.995 -10.031  1.00  0.00     0.211 HD
ENDBRANCH  28  33
BRANCH  29  35
ATOM     35  C   UNL     1      18.746  -2.895  -7.871  1.00  0.00     0.191 C 
BRANCH  35  36
ATOM     36  O   UNL     1      17.683  -3.092  -6.980  1.00  0.00    -0.394 OA
ATOM     37  H   UNL     1      17.011  -3.638  -7.464  1.00  0.00     0.210 HD
ENDBRANCH  35  36
ENDBRANCH  29  35
BRANCH  30  38
ATOM     38  O   UNL     1      17.320  -0.582  -8.226  1.00  0.00    -0.387 OA
ATOM     39  H   UNL     1      18.155  -0.488  -7.696  1.00  0.00     0.211 HD
ENDBRANCH  30  38
ENDBRANCH   1  25
TORSDOF 11
ENDMDL
MODEL 6
REMARK VINA RESULT:    -6.388      5.229      9.021
REMARK INTER + INTRA:          -9.625
REMARK INTER:                  -7.923
REMARK INTRA:                  -1.701
REMARK UNBOUND:                -0.435
REMARK SMILES O=c1c(O[C@@H]2O[C@@H](CO)[C@@H](O)[C@H](O)[C@H]2O)c(-c2ccc(O)cc2)oc2cc(O)cc(O)c12
REMARK SMILES IDX 4 1 3 2 16 3 24 4 2 5 25 6 1 7 32 8 26 9 30 10 27 11 29 12
REMARK SMILES IDX 17 13 18 14 19 15 20 16 23 17 22 18 21 19 31 21 28 23 5 25
REMARK SMILES IDX 14 26 6 27 12 28 7 29 10 30 15 31 13 33 8 35 9 36 11 38
REMARK H PARENT 21 20 31 22 28 24 15 32 13 34 9 37 11 39
REMARK Flexibility Score: inf
ROOT
ATOM      1  O   UNL     1      18.914   0.714 -13.330  1.00  0.00    -0.454 OA
ENDROOT
BRANCH   1   2
ATOM      2  C   UNL     1      18.962   0.429 -14.710  1.00  0.00     0.214 A 
ATOM      3  C   UNL     1      17.852  -0.219 -15.284  1.00  0.00     0.180 A 
ATOM      4  O   UNL     1      17.867  -0.554 -16.568  1.00  0.00    -0.452 OA
ATOM      5  C   UNL     1      20.066   0.731 -15.541  1.00  0.00     0.239 A 
ATOM      6  C   UNL     1      18.868  -0.269 -17.388  1.00  0.00     0.146 A 
ATOM      7  O   UNL     1      21.109   1.221 -15.038  1.00  0.00    -0.285 OA
ATOM      8  C   UNL     1      20.009   0.434 -16.924  1.00  0.00     0.111 A 
ATOM      9  C   UNL     1      18.779  -0.684 -18.718  1.00  0.00     0.094 A 
ATOM     10  C   UNL     1      21.032   0.761 -17.866  1.00  0.00     0.134 A 
ATOM     11  C   UNL     1      19.811  -0.416 -19.613  1.00  0.00     0.123 A 
ATOM     12  C   UNL     1      20.931   0.302 -19.185  1.00  0.00     0.093 A 
BRANCH   3  13
ATOM     13  C   UNL     1      16.660  -0.589 -14.485  1.00  0.00     0.021 A 
ATOM     14  C   UNL     1      16.547  -1.894 -13.977  1.00  0.00     0.016 A 
ATOM     15  C   UNL     1      15.429  -2.268 -13.227  1.00  0.00     0.047 A 
ATOM     16  C   UNL     1      14.405  -1.348 -12.984  1.00  0.00     0.115 A 
ATOM     17  C   UNL     1      15.616   0.326 -14.256  1.00  0.00     0.016 A 
ATOM     18  C   UNL     1      14.499  -0.050 -13.503  1.00  0.00     0.047 A 
BRANCH  16  19
ATOM     19  O   UNL     1      13.298  -1.732 -12.231  1.00  0.00    -0.508 OA
ATOM     20  H   UNL     1      12.934  -2.677 -12.270  1.00  0.00     0.293 HD
ENDBRANCH  16  19
ENDBRANCH   3  13
BRANCH  10  21
ATOM     21  O   UNL     1      22.140   1.560 -17.568  1.00  0.00    -0.507 OA
ATOM     22  H   UNL     1      22.634   2.129 -18.238  1.00  0.00     0.293 HD
ENDBRANCH  10  21
BRANCH  11  23
ATOM     23  O   UNL     1      19.709  -0.853 -20.932  1.00  0.00    -0.508 OA
ATOM     24  H   UNL     1      19.787  -0.209 -21.712  1.00  0.00     0.293 HD
ENDBRANCH  11  23
ENDBRANCH   1   2
BRANCH   1  25
ATOM     25  C   UNL     1      19.574   0.019 -12.265  1.00  0.00     0.339 C 
ATOM     26  C   UNL     1      20.312   1.031 -11.359  1.00  0.00     0.214 C 
ATOM     27  O   UNL     1      18.656  -0.750 -11.507  1.00  0.00    -0.332 OA
ATOM     28  C   UNL     1      19.425   1.498 -10.179  1.00  0.00     0.180 C 
ATOM     29  C   UNL     1      17.545   0.021 -11.056  1.00  0.00     0.179 C 
ATOM     30  C   UNL     1      17.941   1.459 -10.573  1.00  0.00     0.177 C 
BRANCH  26  31
ATOM     31  O   UNL     1      21.485   0.437 -10.861  1.00  0.00    -0.384 OA
ATOM     32  H   UNL     1      22.100   1.175 -10.614  1.00  0.00     0.211 HD
ENDBRANCH  26  31
BRANCH  28  33
ATOM     33  O   UNL     1      19.776   2.805  -9.805  1.00  0.00    -0.387 OA
ATOM     34  H   UNL     1      20.707   2.767  -9.463  1.00  0.00     0.211 HD
ENDBRANCH  28  33
BRANCH  29  35
ATOM     35  C   UNL     1      16.814  -0.798  -9.980  1.00  0.00     0.191 C 
BRANCH  35  36
ATOM     36  O   UNL     1      15.438  -0.536 -10.019  1.00  0.00    -0.394 OA
ATOM     37  H   UNL     1      15.249   0.075  -9.260  1.00  0.00     0.210 HD
ENDBRANCH  35  36
ENDBRANCH  29  35
BRANCH  30  38
ATOM     38  O   UNL     1      17.138   1.881  -9.498  1.00  0.00    -0.387 OA
ATOM     39  H   UNL     1      16.209   1.589  -9.692  1.00  0.00     0.211 HD
ENDBRANCH  30  38
ENDBRANCH   1  25
TORSDOF 11
ENDMDL
MODEL 7
REMARK VINA RESULT:    -6.316      3.222      7.550
REMARK INTER + INTRA:          -9.520
REMARK INTER:                  -8.193
REMARK INTRA:                  -1.327
REMARK UNBOUND:                -0.435
REMARK SMILES O=c1c(O[C@@H]2O[C@@H](CO)[C@@H](O)[C@H](O)[C@H]2O)c(-c2ccc(O)cc2)oc2cc(O)cc(O)c12
REMARK SMILES IDX 4 1 3 2 16 3 24 4 2 5 25 6 1 7 32 8 26 9 30 10 27 11 29 12
REMARK SMILES IDX 17 13 18 14 19 15 20 16 23 17 22 18 21 19 31 21 28 23 5 25
REMARK SMILES IDX 14 26 6 27 12 28 7 29 10 30 15 31 13 33 8 35 9 36 11 38
REMARK H PARENT 21 20 31 22 28 24 15 32 13 34 9 37 11 39
REMARK Flexibility Score: inf
ROOT
ATOM      1  O   UNL     1      17.662  -2.539 -11.740  1.00  0.00    -0.454 OA
ENDROOT
BRANCH   1   2
ATOM      2  C   UNL     1      17.314  -3.354 -12.837  1.00  0.00     0.214 A 
ATOM      3  C   UNL     1      16.199  -2.975 -13.607  1.00  0.00     0.180 A 
ATOM      4  O   UNL     1      15.800  -3.733 -14.620  1.00  0.00    -0.452 OA
ATOM      5  C   UNL     1      18.001  -4.539 -13.189  1.00  0.00     0.239 A 
ATOM      6  C   UNL     1      16.428  -4.837 -15.001  1.00  0.00     0.146 A 
ATOM      7  O   UNL     1      18.940  -4.955 -12.463  1.00  0.00    -0.285 OA
ATOM      8  C   UNL     1      17.597  -5.276 -14.328  1.00  0.00     0.111 A 
ATOM      9  C   UNL     1      15.908  -5.564 -16.074  1.00  0.00     0.094 A 
ATOM     10  C   UNL     1      18.262  -6.441 -14.817  1.00  0.00     0.134 A 
ATOM     11  C   UNL     1      16.529  -6.734 -16.502  1.00  0.00     0.123 A 
ATOM     12  C   UNL     1      17.698  -7.168 -15.873  1.00  0.00     0.093 A 
BRANCH   3  13
ATOM     13  C   UNL     1      15.410  -1.759 -13.300  1.00  0.00     0.021 A 
ATOM     14  C   UNL     1      14.217  -1.878 -12.566  1.00  0.00     0.016 A 
ATOM     15  C   UNL     1      13.452  -0.746 -12.269  1.00  0.00     0.047 A 
ATOM     16  C   UNL     1      13.862   0.516 -12.711  1.00  0.00     0.115 A 
ATOM     17  C   UNL     1      15.805  -0.490 -13.761  1.00  0.00     0.016 A 
ATOM     18  C   UNL     1      15.039   0.641 -13.461  1.00  0.00     0.047 A 
BRANCH  16  19
ATOM     19  O   UNL     1      13.093   1.636 -12.405  1.00  0.00    -0.508 OA
ATOM     20  H   UNL     1      12.080   1.603 -12.422  1.00  0.00     0.293 HD
ENDBRANCH  16  19
ENDBRANCH   3  13
BRANCH  10  21
ATOM     21  O   UNL     1      19.488  -6.902 -14.329  1.00  0.00    -0.507 OA
ATOM     22  H   UNL     1      20.385  -6.693 -14.740  1.00  0.00     0.293 HD
ENDBRANCH  10  21
BRANCH  11  23
ATOM     23  O   UNL     1      15.984  -7.452 -17.565  1.00  0.00    -0.508 OA
ATOM     24  H   UNL     1      16.560  -8.039 -18.158  1.00  0.00     0.293 HD
ENDBRANCH  11  23
ENDBRANCH   1   2
BRANCH   1  25
ATOM     25  C   UNL     1      17.180  -2.624 -10.394  1.00  0.00     0.339 C 
ATOM     26  C   UNL     1      18.191  -3.404  -9.524  1.00  0.00     0.214 C 
ATOM     27  O   UNL     1      16.945  -1.336  -9.850  1.00  0.00    -0.332 OA
ATOM     28  C   UNL     1      19.210  -2.459  -8.841  1.00  0.00     0.180 C 
ATOM     29  C   UNL     1      18.078  -0.480  -9.976  1.00  0.00     0.179 C 
ATOM     30  C   UNL     1      19.440  -1.206  -9.700  1.00  0.00     0.177 C 
BRANCH  26  31
ATOM     31  O   UNL     1      17.495  -4.132  -8.543  1.00  0.00    -0.384 OA
ATOM     32  H   UNL     1      16.956  -4.816  -9.020  1.00  0.00     0.211 HD
ENDBRANCH  26  31
BRANCH  28  33
ATOM     33  O   UNL     1      20.431  -3.127  -8.653  1.00  0.00    -0.387 OA
ATOM     34  H   UNL     1      20.240  -4.099  -8.719  1.00  0.00     0.211 HD
ENDBRANCH  28  33
BRANCH  29  35
ATOM     35  C   UNL     1      17.847   0.738  -9.066  1.00  0.00     0.191 C 
BRANCH  35  36
ATOM     36  O   UNL     1      17.839   0.347  -7.720  1.00  0.00    -0.394 OA
ATOM     37  H   UNL     1      17.214  -0.421  -7.657  1.00  0.00     0.210 HD
ENDBRANCH  35  36
ENDBRANCH  29  35
BRANCH  30  38
ATOM     38  O   UNL     1      20.364  -0.348  -9.075  1.00  0.00    -0.387 OA
ATOM     39  H   UNL     1      20.568  -0.735  -8.183  1.00  0.00     0.211 HD
ENDBRANCH  30  38
ENDBRANCH   1  25
TORSDOF 11
ENDMDL
MODEL 8
REMARK VINA RESULT:    -6.293      3.110      7.837
REMARK INTER + INTRA:          -9.487
REMARK INTER:                  -8.471
REMARK INTRA:                  -1.016
REMARK UNBOUND:                -0.435
REMARK SMILES O=c1c(O[C@@H]2O[C@@H](CO)[C@@H](O)[C@H](O)[C@H]2O)c(-c2ccc(O)cc2)oc2cc(O)cc(O)c12
REMARK SMILES IDX 4 1 3 2 16 3 24 4 2 5 25 6 1 7 32 8 26 9 30 10 27 11 29 12
REMARK SMILES IDX 17 13 18 14 19 15 20 16 23 17 22 18 21 19 31 21 28 23 5 25
REMARK SMILES IDX 14 26 6 27 12 28 7 29 10 30 15 31 13 33 8 35 9 36 11 38
REMARK H PARENT 21 20 31 22 28 24 15 32 13 34 9 37 11 39
REMARK Flexibility Score: inf
ROOT
ATOM      1  O   UNL     1      18.299  -2.370 -12.165  1.00  0.00    -0.454 OA
ENDROOT
BRANCH   1   2
ATOM      2  C   UNL     1      17.886  -3.239 -13.196  1.00  0.00     0.214 A 
ATOM      3  C   UNL     1      17.341  -2.664 -14.359  1.00  0.00     0.180 A 
ATOM      4  O   UNL     1      16.892  -3.439 -15.338  1.00  0.00    -0.452 OA
ATOM      5  C   UNL     1      17.960  -4.649 -13.117  1.00  0.00     0.239 A 
ATOM      6  C   UNL     1      16.964  -4.762 -15.317  1.00  0.00     0.146 A 
ATOM      7  O   UNL     1      18.350  -5.194 -12.053  1.00  0.00    -0.285 OA
ATOM      8  C   UNL     1      17.548  -5.439 -14.217  1.00  0.00     0.111 A 
ATOM      9  C   UNL     1      16.445  -5.476 -16.399  1.00  0.00     0.094 A 
ATOM     10  C   UNL     1      17.649  -6.863 -14.274  1.00  0.00     0.134 A 
ATOM     11  C   UNL     1      16.491  -6.867 -16.416  1.00  0.00     0.123 A 
ATOM     12  C   UNL     1      17.088  -7.553 -15.356  1.00  0.00     0.093 A 
BRANCH   3  13
ATOM     13  C   UNL     1      17.209  -1.197 -14.521  1.00  0.00     0.021 A 
ATOM     14  C   UNL     1      15.946  -0.598 -14.377  1.00  0.00     0.016 A 
ATOM     15  C   UNL     1      15.795   0.783 -14.531  1.00  0.00     0.047 A 
ATOM     16  C   UNL     1      16.900   1.581 -14.843  1.00  0.00     0.115 A 
ATOM     17  C   UNL     1      18.313  -0.392 -14.857  1.00  0.00     0.016 A 
ATOM     18  C   UNL     1      18.159   0.990 -15.009  1.00  0.00     0.047 A 
BRANCH  16  19
ATOM     19  O   UNL     1      16.736   2.956 -14.990  1.00  0.00    -0.508 OA
ATOM     20  H   UNL     1      17.335   3.616 -14.506  1.00  0.00     0.293 HD
ENDBRANCH  16  19
ENDBRANCH   3  13
BRANCH  10  21
ATOM     21  O   UNL     1      18.316  -7.638 -13.320  1.00  0.00    -0.507 OA
ATOM     22  H   UNL     1      18.056  -7.700 -12.348  1.00  0.00     0.293 HD
ENDBRANCH  10  21
BRANCH  11  23
ATOM     23  O   UNL     1      15.952  -7.560 -17.498  1.00  0.00    -0.508 OA
ATOM     24  H   UNL     1      15.073  -7.282 -17.920  1.00  0.00     0.293 HD
ENDBRANCH  11  23
ENDBRANCH   1   2
BRANCH   1  25
ATOM     25  C   UNL     1      17.484  -1.518 -11.354  1.00  0.00     0.339 C 
ATOM     26  C   UNL     1      16.148  -2.225 -11.029  1.00  0.00     0.214 C 
ATOM     27  O   UNL     1      18.154  -1.149 -10.160  1.00  0.00    -0.332 OA
ATOM     28  C   UNL     1      16.224  -3.012  -9.698  1.00  0.00     0.180 C 
ATOM     29  C   UNL     1      18.650  -2.279  -9.446  1.00  0.00     0.179 C 
ATOM     30  C   UNL     1      17.660  -3.494  -9.440  1.00  0.00     0.177 C 
BRANCH  26  31
ATOM     31  O   UNL     1      15.123  -1.266 -10.951  1.00  0.00    -0.384 OA
ATOM     32  H   UNL     1      15.557  -0.375 -10.986  1.00  0.00     0.211 HD
ENDBRANCH  26  31
BRANCH  28  33
ATOM     33  O   UNL     1      15.361  -4.118  -9.746  1.00  0.00    -0.387 OA
ATOM     34  H   UNL     1      15.570  -4.610 -10.583  1.00  0.00     0.211 HD
ENDBRANCH  28  33
BRANCH  29  35
ATOM     35  C   UNL     1      19.037  -1.807  -8.035  1.00  0.00     0.191 C 
BRANCH  35  36
ATOM     36  O   UNL     1      18.383  -0.606  -7.726  1.00  0.00    -0.394 OA
ATOM     37  H   UNL     1      17.838  -0.786  -6.917  1.00  0.00     0.210 HD
ENDBRANCH  35  36
ENDBRANCH  29  35
BRANCH  30  38
ATOM     38  O   UNL     1      17.726  -4.206  -8.228  1.00  0.00    -0.387 OA
ATOM     39  H   UNL     1      16.793  -4.340  -7.914  1.00  0.00     0.211 HD
ENDBRANCH  30  38
ENDBRANCH   1  25
TORSDOF 11
ENDMDL
MODEL 9
REMARK VINA RESULT:    -6.242      3.765      7.709
REMARK INTER + INTRA:          -9.414
REMARK INTER:                  -8.181
REMARK INTRA:                  -1.233
REMARK UNBOUND:                -0.435
REMARK SMILES O=c1c(O[C@@H]2O[C@@H](CO)[C@@H](O)[C@H](O)[C@H]2O)c(-c2ccc(O)cc2)oc2cc(O)cc(O)c12
REMARK SMILES IDX 4 1 3 2 16 3 24 4 2 5 25 6 1 7 32 8 26 9 30 10 27 11 29 12
REMARK SMILES IDX 17 13 18 14 19 15 20 16 23 17 22 18 21 19 31 21 28 23 5 25
REMARK SMILES IDX 14 26 6 27 12 28 7 29 10 30 15 31 13 33 8 35 9 36 11 38
REMARK H PARENT 21 20 31 22 28 24 15 32 13 34 9 37 11 39
REMARK Flexibility Score: inf
ROOT
ATOM      1  O   UNL     1      16.742  -1.511 -10.733  1.00  0.00    -0.454 OA
ENDROOT
BRANCH   1   2
ATOM      2  C   UNL     1      15.522  -1.084 -11.295  1.00  0.00     0.214 A 
ATOM      3  C   UNL     1      14.923  -1.911 -12.264  1.00  0.00     0.180 A 
ATOM      4  O   UNL     1      13.799  -1.532 -12.860  1.00  0.00    -0.452 OA
ATOM      5  C   UNL     1      14.883   0.133 -10.964  1.00  0.00     0.239 A 
ATOM      6  C   UNL     1      13.154  -0.412 -12.564  1.00  0.00     0.146 A 
ATOM      7  O   UNL     1      15.442   0.936 -10.175  1.00  0.00    -0.285 OA
ATOM      8  C   UNL     1      13.642   0.462 -11.560  1.00  0.00     0.111 A 
ATOM      9  C   UNL     1      11.986  -0.109 -13.267  1.00  0.00     0.094 A 
ATOM     10  C   UNL     1      12.875   1.625 -11.244  1.00  0.00     0.134 A 
ATOM     11  C   UNL     1      11.281   1.059 -12.996  1.00  0.00     0.123 A 
ATOM     12  C   UNL     1      11.728   1.921 -11.991  1.00  0.00     0.093 A 
BRANCH   3  13
ATOM     13  C   UNL     1      15.531  -3.194 -12.685  1.00  0.00     0.021 A 
ATOM     14  C   UNL     1      16.364  -3.225 -13.816  1.00  0.00     0.016 A 
ATOM     15  C   UNL     1      16.944  -4.426 -14.237  1.00  0.00     0.047 A 
ATOM     16  C   UNL     1      16.690  -5.612 -13.540  1.00  0.00     0.115 A 
ATOM     17  C   UNL     1      15.261  -4.395 -12.002  1.00  0.00     0.016 A 
ATOM     18  C   UNL     1      15.844  -5.594 -12.424  1.00  0.00     0.047 A 
BRANCH  16  19
ATOM     19  O   UNL     1      17.278  -6.800 -13.967  1.00  0.00    -0.508 OA
ATOM     20  H   UNL     1      16.718  -7.604 -14.226  1.00  0.00     0.293 HD
ENDBRANCH  16  19
ENDBRANCH   3  13
BRANCH  10  21
ATOM     21  O   UNL     1      13.175   2.496 -10.192  1.00  0.00    -0.507 OA
ATOM     22  H   UNL     1      12.593   2.637  -9.381  1.00  0.00     0.293 HD
ENDBRANCH  10  21
BRANCH  11  23
ATOM     23  O   UNL     1      10.127   1.350 -13.722  1.00  0.00    -0.508 OA
ATOM     24  H   UNL     1       9.451   2.029 -13.391  1.00  0.00     0.293 HD
ENDBRANCH  11  23
ENDBRANCH   1   2
BRANCH   1  25
ATOM     25  C   UNL     1      16.967  -2.057  -9.428  1.00  0.00     0.339 C 
ATOM     26  C   UNL     1      18.043  -3.163  -9.502  1.00  0.00     0.214 C 
ATOM     27  O   UNL     1      17.351  -1.049  -8.508  1.00  0.00    -0.332 OA
ATOM     28  C   UNL     1      19.463  -2.601  -9.244  1.00  0.00     0.180 C 
ATOM     29  C   UNL     1      18.453  -0.278  -8.979  1.00  0.00     0.179 C 
ATOM     30  C   UNL     1      19.551  -1.135  -9.697  1.00  0.00     0.177 C 
BRANCH  26  31
ATOM     31  O   UNL     1      17.752  -4.158  -8.552  1.00  0.00    -0.384 OA
ATOM     32  H   UNL     1      18.611  -4.404  -8.119  1.00  0.00     0.211 HD
ENDBRANCH  26  31
BRANCH  28  33
ATOM     33  O   UNL     1      20.414  -3.363  -9.940  1.00  0.00    -0.387 OA
ATOM     34  H   UNL     1      20.185  -4.318  -9.788  1.00  0.00     0.211 HD
ENDBRANCH  28  33
BRANCH  29  35
ATOM     35  C   UNL     1      19.000   0.530  -7.790  1.00  0.00     0.191 C 
BRANCH  35  36
ATOM     36  O   UNL     1      18.019   1.405  -7.303  1.00  0.00    -0.394 OA
ATOM     37  H   UNL     1      17.334   0.838  -6.863  1.00  0.00     0.210 HD
ENDBRANCH  35  36
ENDBRANCH  29  35
BRANCH  30  38
ATOM     38  O   UNL     1      20.840  -0.627  -9.459  1.00  0.00    -0.387 OA
ATOM     39  H   UNL     1      20.974   0.139 -10.077  1.00  0.00     0.211 HD
ENDBRANCH  30  38
ENDBRANCH   1  25
TORSDOF 11
ENDMDL
