MODEL 1
REMARK VINA RESULT:    -3.257      0.000      0.000
REMARK INTER + INTRA:          -4.143
REMARK INTER:                  -4.019
REMARK INTRA:                  -0.124
REMARK UNBOUND:                -0.124
REMARK SMILES CCCCCC(=O)[O-]
REMARK SMILES IDX 4 1 5 2 6 3 7 4 8 5 3 6 2 7 1 8
REMARK H PARENT
REMARK Flexibility Score: inf
ROOT
ATOM      1  C   UNL     1      43.022  65.748  53.643  1.00  0.00     0.006 C 
ENDROOT
BRANCH   1   2
ATOM      2  C   UNL     1      43.564  64.412  54.158  1.00  0.00     0.053 C 
BRANCH   2   3
ATOM      3  C   UNL     1      43.505  64.364  55.652  1.00  0.00     0.041 C 
ATOM      4  O   UNL     1      43.995  63.385  56.275  1.00  0.00    -0.550 OA
ATOM      5  O   UNL     1      42.951  65.424  56.360  1.00  0.00    -0.550 OA
ENDBRANCH   2   3
ENDBRANCH   1   2
BRANCH   1   6
ATOM      6  C   UNL     1      43.920  66.316  52.537  1.00  0.00     0.000 C 
BRANCH   6   7
ATOM      7  C   UNL     1      44.874  65.245  51.997  1.00  0.00    -0.003 C 
ATOM      8  C   UNL     1      45.525  65.693  50.692  1.00  0.00     0.004 C 
ENDBRANCH   6   7
ENDBRANCH   1   6
TORSDOF 4
ENDMDL
MODEL 2
REMARK VINA RESULT:    -3.128      8.466      9.657
REMARK INTER + INTRA:          -3.984
REMARK INTER:                  -3.863
REMARK INTRA:                  -0.121
REMARK UNBOUND:                -0.124
REMARK SMILES CCCCCC(=O)[O-]
REMARK SMILES IDX 4 1 5 2 6 3 7 4 8 5 3 6 2 7 1 8
REMARK H PARENT
REMARK Flexibility Score: inf
ROOT
ATOM      1  C   UNL     1      37.230  59.525  55.431  1.00  0.00     0.006 C 
ENDROOT
BRANCH   1   2
ATOM      2  C   UNL     1      37.493  58.489  56.527  1.00  0.00     0.053 C 
BRANCH   2   3
ATOM      3  C   UNL     1      37.296  57.104  55.996  1.00  0.00     0.041 C 
ATOM      4  O   UNL     1      37.545  56.106  56.721  1.00  0.00    -0.550 OA
ATOM      5  O   UNL     1      36.791  56.916  54.715  1.00  0.00    -0.550 OA
ENDBRANCH   2   3
ENDBRANCH   1   2
BRANCH   1   6
ATOM      6  C   UNL     1      36.149  60.522  55.865  1.00  0.00     0.000 C 
BRANCH   6   7
ATOM      7  C   UNL     1      36.607  61.967  55.631  1.00  0.00    -0.003 C 
ATOM      8  C   UNL     1      38.072  62.150  56.014  1.00  0.00     0.004 C 
ENDBRANCH   6   7
ENDBRANCH   1   6
TORSDOF 4
ENDMDL
MODEL 3
REMARK VINA RESULT:    -3.123      8.244      9.747
REMARK INTER + INTRA:          -3.978
REMARK INTER:                  -3.847
REMARK INTRA:                  -0.131
REMARK UNBOUND:                -0.124
REMARK SMILES CCCCCC(=O)[O-]
REMARK SMILES IDX 4 1 5 2 6 3 7 4 8 5 3 6 2 7 1 8
REMARK H PARENT
REMARK Flexibility Score: inf
ROOT
ATOM      1  C   UNL     1      37.107  59.132  55.089  1.00  0.00     0.006 C 
ENDROOT
BRANCH   1   2
ATOM      2  C   UNL     1      36.537  60.145  56.086  1.00  0.00     0.053 C 
BRANCH   2   3
ATOM      3  C   UNL     1      37.057  61.517  55.795  1.00  0.00     0.041 C 
ATOM      4  O   UNL     1      38.288  61.762  55.892  1.00  0.00    -0.550 OA
ATOM      5  O   UNL     1      36.188  62.514  55.368  1.00  0.00    -0.550 OA
ENDBRANCH   2   3
ENDBRANCH   1   2
BRANCH   1   6
ATOM      6  C   UNL     1      37.228  57.742  55.725  1.00  0.00     0.000 C 
BRANCH   6   7
ATOM      7  C   UNL     1      37.580  57.846  57.214  1.00  0.00    -0.003 C 
ATOM      8  C   UNL     1      37.306  56.532  57.938  1.00  0.00     0.004 C 
ENDBRANCH   6   7
ENDBRANCH   1   6
TORSDOF 4
ENDMDL
MODEL 4
REMARK VINA RESULT:    -3.116      5.805      7.022
REMARK INTER + INTRA:          -3.969
REMARK INTER:                  -3.911
REMARK INTRA:                  -0.058
REMARK UNBOUND:                -0.124
REMARK SMILES CCCCCC(=O)[O-]
REMARK SMILES IDX 4 1 5 2 6 3 7 4 8 5 3 6 2 7 1 8
REMARK H PARENT
REMARK Flexibility Score: inf
ROOT
ATOM      1  C   UNL     1      44.292  66.294  47.988  1.00  0.00     0.006 C 
ENDROOT
BRANCH   1   2
ATOM      2  C   UNL     1      42.865  66.241  47.434  1.00  0.00     0.053 C 
BRANCH   2   3
ATOM      3  C   UNL     1      42.704  65.073  46.513  1.00  0.00     0.041 C 
ATOM      4  O   UNL     1      43.679  64.667  45.828  1.00  0.00    -0.550 OA
ATOM      5  O   UNL     1      41.490  64.400  46.448  1.00  0.00    -0.550 OA
ENDBRANCH   2   3
ENDBRANCH   1   2
BRANCH   1   6
ATOM      6  C   UNL     1      44.287  66.580  49.494  1.00  0.00     0.000 C 
BRANCH   6   7
ATOM      7  C   UNL     1      45.481  65.912  50.186  1.00  0.00    -0.003 C 
ATOM      8  C   UNL     1      45.082  65.337  51.541  1.00  0.00     0.004 C 
ENDBRANCH   6   7
ENDBRANCH   1   6
TORSDOF 4
ENDMDL
MODEL 5
REMARK VINA RESULT:    -3.099      4.332      5.618
REMARK INTER + INTRA:          -3.949
REMARK INTER:                  -3.818
REMARK INTRA:                  -0.131
REMARK UNBOUND:                -0.124
REMARK SMILES CCCCCC(=O)[O-]
REMARK SMILES IDX 4 1 5 2 6 3 7 4 8 5 3 6 2 7 1 8
REMARK H PARENT
REMARK Flexibility Score: inf
ROOT
ATOM      1  C   UNL     1      45.429  65.891  50.477  1.00  0.00     0.006 C 
ENDROOT
BRANCH   1   2
ATOM      2  C   UNL     1      44.414  67.001  50.191  1.00  0.00     0.053 C 
BRANCH   2   3
ATOM      3  C   UNL     1      43.816  66.826  48.831  1.00  0.00     0.041 C 
ATOM      4  O   UNL     1      44.476  66.267  47.916  1.00  0.00    -0.550 OA
ATOM      5  O   UNL     1      42.511  67.236  48.587  1.00  0.00    -0.550 OA
ENDBRANCH   2   3
ENDBRANCH   1   2
BRANCH   1   6
ATOM      6  C   UNL     1      45.093  65.161  51.783  1.00  0.00     0.000 C 
BRANCH   6   7
ATOM      7  C   UNL     1      44.019  65.915  52.575  1.00  0.00    -0.003 C 
ATOM      8  C   UNL     1      43.445  65.047  53.690  1.00  0.00     0.004 C 
ENDBRANCH   6   7
ENDBRANCH   1   6
TORSDOF 4
ENDMDL
MODEL 6
REMARK VINA RESULT:    -3.021     17.938     18.835
REMARK INTER + INTRA:          -3.851
REMARK INTER:                  -3.748
REMARK INTRA:                  -0.104
REMARK UNBOUND:                -0.124
REMARK SMILES CCCCCC(=O)[O-]
REMARK SMILES IDX 4 1 5 2 6 3 7 4 8 5 3 6 2 7 1 8
REMARK H PARENT
REMARK Flexibility Score: inf
ROOT
ATOM      1  C   UNL     1      38.852  54.432  39.336  1.00  0.00     0.006 C 
ENDROOT
BRANCH   1   2
ATOM      2  C   UNL     1      38.686  55.796  38.660  1.00  0.00     0.053 C 
BRANCH   2   3
ATOM      3  C   UNL     1      38.009  56.759  39.584  1.00  0.00     0.041 C 
ATOM      4  O   UNL     1      38.092  56.606  40.831  1.00  0.00    -0.550 OA
ATOM      5  O   UNL     1      37.328  57.855  39.068  1.00  0.00    -0.550 OA
ENDBRANCH   2   3
ENDBRANCH   1   2
BRANCH   1   6
ATOM      6  C   UNL     1      38.675  53.292  38.327  1.00  0.00     0.000 C 
BRANCH   6   7
ATOM      7  C   UNL     1      40.021  52.637  37.994  1.00  0.00    -0.003 C 
ATOM      8  C   UNL     1      41.039  52.874  39.105  1.00  0.00     0.004 C 
ENDBRANCH   6   7
ENDBRANCH   1   6
TORSDOF 4
ENDMDL
MODEL 7
REMARK VINA RESULT:    -3.018     17.958     18.850
REMARK INTER + INTRA:          -3.848
REMARK INTER:                  -3.698
REMARK INTRA:                  -0.151
REMARK UNBOUND:                -0.124
REMARK SMILES CCCCCC(=O)[O-]
REMARK SMILES IDX 4 1 5 2 6 3 7 4 8 5 3 6 2 7 1 8
REMARK H PARENT
REMARK Flexibility Score: inf
ROOT
ATOM      1  C   UNL     1      33.898  51.603  49.127  1.00  0.00     0.006 C 
ENDROOT
BRANCH   1   2
ATOM      2  C   UNL     1      33.121  50.334  48.766  1.00  0.00     0.053 C 
BRANCH   2   3
ATOM      3  C   UNL     1      34.030  49.146  48.767  1.00  0.00     0.041 C 
ATOM      4  O   UNL     1      35.071  49.144  48.059  1.00  0.00    -0.550 OA
ATOM      5  O   UNL     1      33.752  48.058  49.587  1.00  0.00    -0.550 OA
ENDBRANCH   2   3
ENDBRANCH   1   2
BRANCH   1   6
ATOM      6  C   UNL     1      33.624  52.022  50.576  1.00  0.00     0.000 C 
BRANCH   6   7
ATOM      7  C   UNL     1      32.321  51.401  51.093  1.00  0.00    -0.003 C 
ATOM      8  C   UNL     1      32.381  51.165  52.599  1.00  0.00     0.004 C 
ENDBRANCH   6   7
ENDBRANCH   1   6
TORSDOF 4
ENDMDL
MODEL 8
REMARK VINA RESULT:    -2.986     17.875     18.580
REMARK INTER + INTRA:          -3.809
REMARK INTER:                  -3.657
REMARK INTRA:                  -0.152
REMARK UNBOUND:                -0.124
REMARK SMILES CCCCCC(=O)[O-]
REMARK SMILES IDX 4 1 5 2 6 3 7 4 8 5 3 6 2 7 1 8
REMARK H PARENT
REMARK Flexibility Score: inf
ROOT
ATOM      1  C   UNL     1      32.446  50.369  49.143  1.00  0.00     0.006 C 
ENDROOT
BRANCH   1   2
ATOM      2  C   UNL     1      33.666  51.249  48.862  1.00  0.00     0.053 C 
BRANCH   2   3
ATOM      3  C   UNL     1      33.925  52.169  50.014  1.00  0.00     0.041 C 
ATOM      4  O   UNL     1      34.648  53.187  49.861  1.00  0.00    -0.550 OA
ATOM      5  O   UNL     1      33.327  51.926  51.245  1.00  0.00    -0.550 OA
ENDBRANCH   2   3
ENDBRANCH   1   2
BRANCH   1   6
ATOM      6  C   UNL     1      32.833  48.886  49.176  1.00  0.00     0.000 C 
BRANCH   6   7
ATOM      7  C   UNL     1      34.272  48.681  48.689  1.00  0.00    -0.003 C 
ATOM      8  C   UNL     1      34.304  47.940  47.356  1.00  0.00     0.004 C 
ENDBRANCH   6   7
ENDBRANCH   1   6
TORSDOF 4
ENDMDL
MODEL 9
REMARK VINA RESULT:    -2.986     17.384     18.358
REMARK INTER + INTRA:          -3.809
REMARK INTER:                  -3.738
REMARK INTRA:                  -0.070
REMARK UNBOUND:                -0.124
REMARK SMILES CCCCCC(=O)[O-]
REMARK SMILES IDX 4 1 5 2 6 3 7 4 8 5 3 6 2 7 1 8
REMARK H PARENT
REMARK Flexibility Score: inf
ROOT
ATOM      1  C   UNL     1      32.134  50.436  50.921  1.00  0.00     0.006 C 
ENDROOT
BRANCH   1   2
ATOM      2  C   UNL     1      32.248  50.969  49.490  1.00  0.00     0.053 C 
BRANCH   2   3
ATOM      3  C   UNL     1      33.685  51.110  49.097  1.00  0.00     0.041 C 
ATOM      4  O   UNL     1      34.259  52.227  49.185  1.00  0.00    -0.550 OA
ATOM      5  O   UNL     1      34.404  49.996  48.679  1.00  0.00    -0.550 OA
ENDBRANCH   2   3
ENDBRANCH   1   2
BRANCH   1   6
ATOM      6  C   UNL     1      32.277  51.569  51.943  1.00  0.00     0.000 C 
BRANCH   6   7
ATOM      7  C   UNL     1      32.622  51.019  53.332  1.00  0.00    -0.003 C 
ATOM      8  C   UNL     1      33.612  51.927  54.055  1.00  0.00     0.004 C 
ENDBRANCH   6   7
ENDBRANCH   1   6
TORSDOF 4
ENDMDL
