MODEL 1
REMARK VINA RESULT:    -5.856      0.000      0.000
REMARK INTER + INTRA:          -5.856
REMARK INTER:                  -5.856
REMARK INTRA:                   0.000
REMARK UNBOUND:                 0.000
REMARK SMILES O=c1ccc2ccccc2o1
REMARK SMILES IDX 7 1 8 2 9 3 10 4 5 5 6 6 4 7 3 8 2 9 1 10 11 11
REMARK H PARENT
REMARK Flexibility Score: inf
ROOT
ATOM      1  C   UNL     1     -41.540  -8.278 -13.403  1.00  0.00     0.001 A 
ATOM      2  C   UNL     1     -41.559  -6.885 -13.263  1.00  0.00     0.004 A 
ATOM      3  C   UNL     1     -40.365  -6.159 -13.298  1.00  0.00     0.048 A 
ATOM      4  C   UNL     1     -39.145  -6.822 -13.474  1.00  0.00     0.138 A 
ATOM      5  C   UNL     1     -39.126  -8.228 -13.615  1.00  0.00     0.018 A 
ATOM      6  C   UNL     1     -40.326  -8.951 -13.579  1.00  0.00     0.012 A 
ATOM      7  C   UNL     1     -37.892  -8.863 -13.789  1.00  0.00     0.019 A 
ATOM      8  C   UNL     1     -36.727  -8.098 -13.818  1.00  0.00     0.094 A 
ATOM      9  C   UNL     1     -36.822  -6.710 -13.672  1.00  0.00     0.336 A 
ATOM     10  O   UNL     1     -35.781  -6.002 -13.695  1.00  0.00    -0.246 OA
ATOM     11  O   UNL     1     -38.008  -6.130 -13.507  1.00  0.00    -0.423 OA
ENDROOT
TORSDOF 0
ENDMDL
MODEL 2
REMARK VINA RESULT:    -5.563      1.836      4.331
REMARK INTER + INTRA:          -5.563
REMARK INTER:                  -5.563
REMARK INTRA:                   0.000
REMARK UNBOUND:                 0.000
REMARK SMILES O=c1ccc2ccccc2o1
REMARK SMILES IDX 7 1 8 2 9 3 10 4 5 5 6 6 4 7 3 8 2 9 1 10 11 11
REMARK H PARENT
REMARK Flexibility Score: inf
ROOT
ATOM      1  C   UNL     1     -36.473  -4.998 -13.725  1.00  0.00     0.001 A 
ATOM      2  C   UNL     1     -36.034  -6.289 -14.042  1.00  0.00     0.004 A 
ATOM      3  C   UNL     1     -36.931  -7.362 -14.021  1.00  0.00     0.048 A 
ATOM      4  C   UNL     1     -38.273  -7.148 -13.685  1.00  0.00     0.138 A 
ATOM      5  C   UNL     1     -38.716  -5.845 -13.365  1.00  0.00     0.018 A 
ATOM      6  C   UNL     1     -37.812  -4.774 -13.387  1.00  0.00     0.012 A 
ATOM      7  C   UNL     1     -40.062  -5.662 -13.032  1.00  0.00     0.019 A 
ATOM      8  C   UNL     1     -40.920  -6.760 -13.026  1.00  0.00     0.094 A 
ATOM      9  C   UNL     1     -40.411  -8.022 -13.354  1.00  0.00     0.336 A 
ATOM     10  O   UNL     1     -41.171  -9.027 -13.352  1.00  0.00    -0.246 OA
ATOM     11  O   UNL     1     -39.126  -8.170 -13.666  1.00  0.00    -0.423 OA
ENDROOT
TORSDOF 0
ENDMDL
MODEL 3
REMARK VINA RESULT:    -5.539      1.810      3.775
REMARK INTER + INTRA:          -5.539
REMARK INTER:                  -5.539
REMARK INTRA:                   0.000
REMARK UNBOUND:                 0.000
REMARK SMILES O=c1ccc2ccccc2o1
REMARK SMILES IDX 7 1 8 2 9 3 10 4 5 5 6 6 4 7 3 8 2 9 1 10 11 11
REMARK H PARENT
REMARK Flexibility Score: inf
ROOT
ATOM      1  C   UNL     1     -36.013  -4.998 -13.723  1.00  0.00     0.001 A 
ATOM      2  C   UNL     1     -37.178  -4.259 -13.484  1.00  0.00     0.004 A 
ATOM      3  C   UNL     1     -38.409  -4.910 -13.363  1.00  0.00     0.048 A 
ATOM      4  C   UNL     1     -38.482  -6.303 -13.478  1.00  0.00     0.138 A 
ATOM      5  C   UNL     1     -37.305  -7.048 -13.718  1.00  0.00     0.018 A 
ATOM      6  C   UNL     1     -36.074  -6.390 -13.840  1.00  0.00     0.012 A 
ATOM      7  C   UNL     1     -37.409  -8.438 -13.829  1.00  0.00     0.019 A 
ATOM      8  C   UNL     1     -38.657  -9.044 -13.700  1.00  0.00     0.094 A 
ATOM      9  C   UNL     1     -39.779  -8.242 -13.462  1.00  0.00     0.336 A 
ATOM     10  O   UNL     1     -40.916  -8.771 -13.344  1.00  0.00    -0.246 OA
ATOM     11  O   UNL     1     -39.655  -6.921 -13.362  1.00  0.00    -0.423 OA
ENDROOT
TORSDOF 0
ENDMDL
MODEL 4
REMARK VINA RESULT:    -5.439      7.772     10.026
REMARK INTER + INTRA:          -5.439
REMARK INTER:                  -5.439
REMARK INTRA:                   0.000
REMARK UNBOUND:                 0.000
REMARK SMILES O=c1ccc2ccccc2o1
REMARK SMILES IDX 7 1 8 2 9 3 10 4 5 5 6 6 4 7 3 8 2 9 1 10 11 11
REMARK H PARENT
REMARK Flexibility Score: inf
ROOT
ATOM      1  C   UNL     1     -30.062  -2.376 -20.244  1.00  0.00     0.001 A 
ATOM      2  C   UNL     1     -31.298  -2.062 -20.821  1.00  0.00     0.004 A 
ATOM      3  C   UNL     1     -32.486  -2.367 -20.149  1.00  0.00     0.048 A 
ATOM      4  C   UNL     1     -32.443  -2.988 -18.896  1.00  0.00     0.138 A 
ATOM      5  C   UNL     1     -31.195  -3.305 -18.313  1.00  0.00     0.018 A 
ATOM      6  C   UNL     1     -30.008  -2.997 -18.992  1.00  0.00     0.012 A 
ATOM      7  C   UNL     1     -31.184  -3.925 -17.060  1.00  0.00     0.019 A 
ATOM      8  C   UNL     1     -32.393  -4.210 -16.426  1.00  0.00     0.094 A 
ATOM      9  C   UNL     1     -33.590  -3.867 -17.064  1.00  0.00     0.336 A 
ATOM     10  O   UNL     1     -34.692  -4.117 -16.507  1.00  0.00    -0.246 OA
ATOM     11  O   UNL     1     -33.574  -3.278 -18.257  1.00  0.00    -0.423 OA
ENDROOT
TORSDOF 0
ENDMDL
MODEL 5
REMARK VINA RESULT:    -5.407      7.902      9.668
REMARK INTER + INTRA:          -5.407
REMARK INTER:                  -5.407
REMARK INTRA:                   0.000
REMARK UNBOUND:                 0.000
REMARK SMILES O=c1ccc2ccccc2o1
REMARK SMILES IDX 7 1 8 2 9 3 10 4 5 5 6 6 4 7 3 8 2 9 1 10 11 11
REMARK H PARENT
REMARK Flexibility Score: inf
ROOT
ATOM      1  C   UNL     1     -33.676  -4.221 -16.634  1.00  0.00     0.001 A 
ATOM      2  C   UNL     1     -34.566  -3.776 -17.619  1.00  0.00     0.004 A 
ATOM      3  C   UNL     1     -34.080  -3.193 -18.794  1.00  0.00     0.048 A 
ATOM      4  C   UNL     1     -32.702  -3.054 -18.990  1.00  0.00     0.138 A 
ATOM      5  C   UNL     1     -31.803  -3.504 -17.996  1.00  0.00     0.018 A 
ATOM      6  C   UNL     1     -32.296  -4.087 -16.820  1.00  0.00     0.012 A 
ATOM      7  C   UNL     1     -30.431  -3.351 -18.220  1.00  0.00     0.019 A 
ATOM      8  C   UNL     1     -29.993  -2.766 -19.407  1.00  0.00     0.094 A 
ATOM      9  C   UNL     1     -30.940  -2.344 -20.346  1.00  0.00     0.336 A 
ATOM     10  O   UNL     1     -30.563  -1.812 -21.424  1.00  0.00    -0.246 OA
ATOM     11  O   UNL     1     -32.240  -2.500 -20.109  1.00  0.00    -0.423 OA
ENDROOT
TORSDOF 0
ENDMDL
MODEL 6
REMARK VINA RESULT:    -5.369      7.468      9.812
REMARK INTER + INTRA:          -5.369
REMARK INTER:                  -5.369
REMARK INTRA:                   0.000
REMARK UNBOUND:                 0.000
REMARK SMILES O=c1ccc2ccccc2o1
REMARK SMILES IDX 7 1 8 2 9 3 10 4 5 5 6 6 4 7 3 8 2 9 1 10 11 11
REMARK H PARENT
REMARK Flexibility Score: inf
ROOT
ATOM      1  C   UNL     1     -30.830  -2.345 -20.487  1.00  0.00     0.001 A 
ATOM      2  C   UNL     1     -29.985  -2.726 -19.437  1.00  0.00     0.004 A 
ATOM      3  C   UNL     1     -30.525  -3.204 -18.240  1.00  0.00     0.048 A 
ATOM      4  C   UNL     1     -31.912  -3.305 -18.086  1.00  0.00     0.138 A 
ATOM      5  C   UNL     1     -32.765  -2.920 -19.146  1.00  0.00     0.018 A 
ATOM      6  C   UNL     1     -32.218  -2.441 -20.344  1.00  0.00     0.012 A 
ATOM      7  C   UNL     1     -34.147  -3.031 -18.963  1.00  0.00     0.019 A 
ATOM      8  C   UNL     1     -34.640  -3.514 -17.752  1.00  0.00     0.094 A 
ATOM      9  C   UNL     1     -33.736  -3.876 -16.747  1.00  0.00     0.336 A 
ATOM     10  O   UNL     1     -34.163  -4.313 -15.645  1.00  0.00    -0.246 OA
ATOM     11  O   UNL     1     -32.426  -3.760 -16.945  1.00  0.00    -0.423 OA
ENDROOT
TORSDOF 0
ENDMDL
MODEL 7
REMARK VINA RESULT:    -5.338      1.075      2.282
REMARK INTER + INTRA:          -5.338
REMARK INTER:                  -5.338
REMARK INTRA:                   0.000
REMARK UNBOUND:                 0.000
REMARK SMILES O=c1ccc2ccccc2o1
REMARK SMILES IDX 7 1 8 2 9 3 10 4 5 5 6 6 4 7 3 8 2 9 1 10 11 11
REMARK H PARENT
REMARK Flexibility Score: inf
ROOT
ATOM      1  C   UNL     1     -41.167  -8.191 -13.332  1.00  0.00     0.001 A 
ATOM      2  C   UNL     1     -40.173  -9.116 -13.676  1.00  0.00     0.004 A 
ATOM      3  C   UNL     1     -38.844  -8.704 -13.805  1.00  0.00     0.048 A 
ATOM      4  C   UNL     1     -38.500  -7.365 -13.589  1.00  0.00     0.138 A 
ATOM      5  C   UNL     1     -39.503  -6.431 -13.242  1.00  0.00     0.018 A 
ATOM      6  C   UNL     1     -40.835  -6.850 -13.115  1.00  0.00     0.012 A 
ATOM      7  C   UNL     1     -39.130  -5.099 -13.033  1.00  0.00     0.019 A 
ATOM      8  C   UNL     1     -37.792  -4.734 -13.172  1.00  0.00     0.094 A 
ATOM      9  C   UNL     1     -36.853  -5.713 -13.517  1.00  0.00     0.336 A 
ATOM     10  O   UNL     1     -35.639  -5.402 -13.648  1.00  0.00    -0.246 OA
ATOM     11  O   UNL     1     -37.234  -6.973 -13.712  1.00  0.00    -0.423 OA
ENDROOT
TORSDOF 0
ENDMDL
MODEL 8
REMARK VINA RESULT:    -5.308      1.526      2.604
REMARK INTER + INTRA:          -5.308
REMARK INTER:                  -5.308
REMARK INTRA:                   0.000
REMARK UNBOUND:                 0.000
REMARK SMILES O=c1ccc2ccccc2o1
REMARK SMILES IDX 7 1 8 2 9 3 10 4 5 5 6 6 4 7 3 8 2 9 1 10 11 11
REMARK H PARENT
REMARK Flexibility Score: inf
ROOT
ATOM      1  C   UNL     1     -38.444  -9.064 -13.705  1.00  0.00     0.001 A 
ATOM      2  C   UNL     1     -39.648  -8.358 -13.592  1.00  0.00     0.004 A 
ATOM      3  C   UNL     1     -39.639  -6.964 -13.494  1.00  0.00     0.048 A 
ATOM      4  C   UNL     1     -38.425  -6.267 -13.510  1.00  0.00     0.138 A 
ATOM      5  C   UNL     1     -37.210  -6.979 -13.624  1.00  0.00     0.018 A 
ATOM      6  C   UNL     1     -37.225  -8.377 -13.721  1.00  0.00     0.012 A 
ATOM      7  C   UNL     1     -36.013  -6.256 -13.637  1.00  0.00     0.019 A 
ATOM      8  C   UNL     1     -36.052  -4.866 -13.537  1.00  0.00     0.094 A 
ATOM      9  C   UNL     1     -37.293  -4.228 -13.427  1.00  0.00     0.336 A 
ATOM     10  O   UNL     1     -37.348  -2.973 -13.336  1.00  0.00    -0.246 OA
ATOM     11  O   UNL     1     -38.417  -4.939 -13.416  1.00  0.00    -0.423 OA
ENDROOT
TORSDOF 0
ENDMDL
MODEL 9
REMARK VINA RESULT:    -5.289      1.681      2.566
REMARK INTER + INTRA:          -5.289
REMARK INTER:                  -5.289
REMARK INTRA:                   0.000
REMARK UNBOUND:                 0.000
REMARK SMILES O=c1ccc2ccccc2o1
REMARK SMILES IDX 7 1 8 2 9 3 10 4 5 5 6 6 4 7 3 8 2 9 1 10 11 11
REMARK H PARENT
REMARK Flexibility Score: inf
ROOT
ATOM      1  C   UNL     1     -40.342  -5.347 -12.345  1.00  0.00     0.001 A 
ATOM      2  C   UNL     1     -40.909  -6.597 -12.619  1.00  0.00     0.004 A 
ATOM      3  C   UNL     1     -40.205  -7.539 -13.375  1.00  0.00     0.048 A 
ATOM      4  C   UNL     1     -38.927  -7.236 -13.859  1.00  0.00     0.138 A 
ATOM      5  C   UNL     1     -38.354  -5.974 -13.582  1.00  0.00     0.018 A 
ATOM      6  C   UNL     1     -39.065  -5.034 -12.825  1.00  0.00     0.012 A 
ATOM      7  C   UNL     1     -37.076  -5.700 -14.080  1.00  0.00     0.019 A 
ATOM      8  C   UNL     1     -36.410  -6.669 -14.828  1.00  0.00     0.094 A 
ATOM      9  C   UNL     1     -37.040  -7.897 -15.063  1.00  0.00     0.336 A 
ATOM     10  O   UNL     1     -36.455  -8.785 -15.737  1.00  0.00    -0.246 OA
ATOM     11  O   UNL     1     -38.257  -8.133 -14.579  1.00  0.00    -0.423 OA
ENDROOT
TORSDOF 0
ENDMDL
