MODEL 1
REMARK VINA RESULT:    -4.323      0.000      0.000
REMARK INTER + INTRA:          -4.449
REMARK INTER:                  -4.449
REMARK INTRA:                   0.000
REMARK UNBOUND:                 0.000
REMARK SMILES Oc1ccc2[nH]ccc2c1
REMARK SMILES IDX 3 1 4 2 5 3 9 4 8 5 7 6 6 7 10 8 2 9 1 11
REMARK H PARENT 6 10 1 12
REMARK Flexibility Score: inf
ROOT
ATOM      1  C   UNL     1       5.250  -8.161  30.447  1.00  0.00     0.048 A 
ATOM      2  C   UNL     1       5.288  -8.890  29.244  1.00  0.00     0.030 A 
ATOM      3  C   UNL     1       4.074  -9.287  28.685  1.00  0.00     0.046 A 
ATOM      4  C   UNL     1       2.877  -8.984  29.275  1.00  0.00     0.003 A 
ATOM      5  C   UNL     1       1.881  -9.513  28.483  1.00  0.00     0.028 A 
ATOM      6  C   UNL     1       2.546 -10.125  27.425  1.00  0.00     0.083 A 
ATOM      7  N   UNL     1       3.886  -9.984  27.553  1.00  0.00    -0.361 N 
ATOM      8  C   UNL     1       2.804  -8.264  30.466  1.00  0.00     0.056 A 
ATOM      9  C   UNL     1       4.011  -7.847  31.059  1.00  0.00     0.116 A 
ATOM     10  H   UNL     1       4.618 -10.344  26.902  1.00  0.00     0.166 HD
ENDROOT
BRANCH   9  11
ATOM     11  O   UNL     1       3.974  -7.125  32.249  1.00  0.00    -0.508 OA
ATOM     12  H   UNL     1       3.109  -6.986  32.757  1.00  0.00     0.293 HD
ENDBRANCH   9  11
TORSDOF 1
ENDMDL
MODEL 2
REMARK VINA RESULT:    -4.209      1.113      2.011
REMARK INTER + INTRA:          -4.332
REMARK INTER:                  -4.332
REMARK INTRA:                   0.000
REMARK UNBOUND:                 0.000
REMARK SMILES Oc1ccc2[nH]ccc2c1
REMARK SMILES IDX 3 1 4 2 5 3 9 4 8 5 7 6 6 7 10 8 2 9 1 11
REMARK H PARENT 6 10 1 12
REMARK Flexibility Score: inf
ROOT
ATOM      1  C   UNL     1       3.079  -7.578  31.510  1.00  0.00     0.048 A 
ATOM      2  C   UNL     1       2.140  -8.283  30.736  1.00  0.00     0.030 A 
ATOM      3  C   UNL     1       2.601  -8.952  29.603  1.00  0.00     0.046 A 
ATOM      4  C   UNL     1       3.922  -8.934  29.244  1.00  0.00     0.003 A 
ATOM      5  C   UNL     1       4.047  -9.681  28.093  1.00  0.00     0.028 A 
ATOM      6  C   UNL     1       2.760 -10.125  27.807  1.00  0.00     0.083 A 
ATOM      7  N   UNL     1       1.880  -9.677  28.733  1.00  0.00    -0.361 N 
ATOM      8  C   UNL     1       4.878  -8.246  29.989  1.00  0.00     0.056 A 
ATOM      9  C   UNL     1       4.447  -7.558  31.140  1.00  0.00     0.116 A 
ATOM     10  H   UNL     1       0.852  -9.860  28.760  1.00  0.00     0.166 HD
ENDROOT
BRANCH   9  11
ATOM     11  O   UNL     1       5.376  -6.862  31.908  1.00  0.00    -0.508 OA
ATOM     12  H   UNL     1       6.147  -6.361  31.480  1.00  0.00     0.293 HD
ENDBRANCH   9  11
TORSDOF 1
ENDMDL
MODEL 3
REMARK VINA RESULT:    -3.993      2.579      4.036
REMARK INTER + INTRA:          -4.109
REMARK INTER:                  -4.109
REMARK INTRA:                   0.000
REMARK UNBOUND:                 0.000
REMARK SMILES Oc1ccc2[nH]ccc2c1
REMARK SMILES IDX 3 1 4 2 5 3 9 4 8 5 7 6 6 7 10 8 2 9 1 11
REMARK H PARENT 6 10 1 12
REMARK Flexibility Score: inf
ROOT
ATOM      1  C   UNL     1       2.326  -9.597  28.405  1.00  0.00     0.048 A 
ATOM      2  C   UNL     1       1.881  -8.999  29.598  1.00  0.00     0.030 A 
ATOM      3  C   UNL     1       2.824  -8.349  30.392  1.00  0.00     0.046 A 
ATOM      4  C   UNL     1       4.145  -8.286  30.035  1.00  0.00     0.003 A 
ATOM      5  C   UNL     1       4.805  -7.584  31.019  1.00  0.00     0.028 A 
ATOM      6  C   UNL     1       3.823  -7.248  31.947  1.00  0.00     0.083 A 
ATOM      7  N   UNL     1       2.615  -7.718  31.558  1.00  0.00    -0.361 N 
ATOM      8  C   UNL     1       4.619  -8.868  28.860  1.00  0.00     0.056 A 
ATOM      9  C   UNL     1       3.692  -9.533  28.034  1.00  0.00     0.116 A 
ATOM     10  H   UNL     1       1.709  -7.609  32.066  1.00  0.00     0.166 HD
ENDROOT
BRANCH   9  11
ATOM     11  O   UNL     1       4.132 -10.125  26.853  1.00  0.00    -0.508 OA
ATOM     12  H   UNL     1       3.486 -10.576  26.215  1.00  0.00     0.293 HD
ENDBRANCH   9  11
TORSDOF 1
ENDMDL
MODEL 4
REMARK VINA RESULT:    -3.579      2.467      3.604
REMARK INTER + INTRA:          -3.683
REMARK INTER:                  -3.683
REMARK INTRA:                   0.000
REMARK UNBOUND:                 0.000
REMARK SMILES Oc1ccc2[nH]ccc2c1
REMARK SMILES IDX 3 1 4 2 5 3 9 4 8 5 7 6 6 7 10 8 2 9 1 11
REMARK H PARENT 6 10 1 12
REMARK Flexibility Score: inf
ROOT
ATOM      1  C   UNL     1       4.175  -9.628  28.281  1.00  0.00     0.048 A 
ATOM      2  C   UNL     1       5.079  -8.990  29.149  1.00  0.00     0.030 A 
ATOM      3  C   UNL     1       4.554  -8.228  30.192  1.00  0.00     0.046 A 
ATOM      4  C   UNL     1       3.204  -8.096  30.377  1.00  0.00     0.003 A 
ATOM      5  C   UNL     1       3.016  -7.290  31.478  1.00  0.00     0.028 A 
ATOM      6  C   UNL     1       4.298  -6.967  31.914  1.00  0.00     0.083 A 
ATOM      7  N   UNL     1       5.234  -7.543  31.125  1.00  0.00    -0.361 N 
ATOM      8  C   UNL     1       2.281  -8.714  29.536  1.00  0.00     0.056 A 
ATOM      9  C   UNL     1       2.777  -9.492  28.471  1.00  0.00     0.116 A 
ATOM     10  H   UNL     1       6.270  -7.467  31.225  1.00  0.00     0.166 HD
ENDROOT
BRANCH   9  11
ATOM     11  O   UNL     1       1.882 -10.124  27.612  1.00  0.00    -0.508 OA
ATOM     12  H   UNL     1       1.939 -11.119  27.427  1.00  0.00     0.293 HD
ENDBRANCH   9  11
TORSDOF 1
ENDMDL
MODEL 5
REMARK VINA RESULT:    -2.338      2.105      3.104
REMARK INTER + INTRA:          -2.406
REMARK INTER:                  -2.406
REMARK INTRA:                   0.000
REMARK UNBOUND:                 0.000
REMARK SMILES Oc1ccc2[nH]ccc2c1
REMARK SMILES IDX 3 1 4 2 5 3 9 4 8 5 7 6 6 7 10 8 2 9 1 11
REMARK H PARENT 6 10 1 12
REMARK Flexibility Score: inf
ROOT
ATOM      1  C   UNL     1       5.278  -8.996  28.622  1.00  0.00     0.048 A 
ATOM      2  C   UNL     1       3.930  -9.322  28.857  1.00  0.00     0.030 A 
ATOM      3  C   UNL     1       3.296  -8.726  29.947  1.00  0.00     0.046 A 
ATOM      4  C   UNL     1       3.951  -7.849  30.769  1.00  0.00     0.003 A 
ATOM      5  C   UNL     1       3.058  -7.444  31.736  1.00  0.00     0.028 A 
ATOM      6  C   UNL     1       1.875  -8.115  31.441  1.00  0.00     0.083 A 
ATOM      7  N   UNL     1       2.026  -8.896  30.347  1.00  0.00    -0.361 N 
ATOM      8  C   UNL     1       5.287  -7.504  30.564  1.00  0.00     0.056 A 
ATOM      9  C   UNL     1       5.958  -8.089  29.472  1.00  0.00     0.116 A 
ATOM     10  H   UNL     1       1.301  -9.505  29.908  1.00  0.00     0.166 HD
ENDROOT
BRANCH   9  11
ATOM     11  O   UNL     1       7.292  -7.766  29.238  1.00  0.00    -0.508 OA
ATOM     12  H   UNL     1       7.573  -7.243  28.417  1.00  0.00     0.293 HD
ENDBRANCH   9  11
TORSDOF 1
ENDMDL
