MODEL 1
REMARK VINA RESULT:    -7.042      0.000      0.000
REMARK INTER + INTRA:          -8.708
REMARK INTER:                  -8.483
REMARK INTRA:                  -0.225
REMARK UNBOUND:                -0.225
REMARK SMILES O=c1c(O)c(-c2ccc(O)c(O)c2)oc2cc(O)cc(O)c12
REMARK SMILES IDX 5 1 3 2 2 3 1 4 22 5 20 6 19 7 17 8 16 9 15 10 14 11 6 12
REMARK SMILES IDX 7 13 8 14 9 15 13 16 11 17 10 18 12 20 4 22 21 24 18 26
REMARK H PARENT 10 19 12 21 4 23 21 25 18 27
REMARK Flexibility Score: inf
ROOT
ATOM      1  C   UNL     1      55.014  35.965  76.808  1.00  0.00     0.180 A 
ATOM      2  C   UNL     1      54.144  36.913  76.244  1.00  0.00     0.208 A 
ATOM      3  C   UNL     1      52.787  36.893  76.607  1.00  0.00     0.238 A 
ATOM      4  O   UNL     1      52.024  37.778  76.139  1.00  0.00    -0.285 OA
ATOM      5  C   UNL     1      52.315  35.917  77.517  1.00  0.00     0.111 A 
ATOM      6  C   UNL     1      50.954  35.779  77.925  1.00  0.00     0.134 A 
ATOM      7  C   UNL     1      50.624  34.861  78.929  1.00  0.00     0.093 A 
ATOM      8  C   UNL     1      51.592  34.032  79.494  1.00  0.00     0.123 A 
ATOM      9  C   UNL     1      52.915  34.117  79.061  1.00  0.00     0.094 A 
ATOM     10  C   UNL     1      53.283  35.048  78.085  1.00  0.00     0.146 A 
ATOM     11  O   UNL     1      54.554  35.104  77.709  1.00  0.00    -0.452 OA
ENDROOT
BRANCH   1  12
ATOM     12  C   UNL     1      56.451  35.906  76.456  1.00  0.00     0.025 A 
ATOM     13  C   UNL     1      57.350  36.901  76.882  1.00  0.00     0.016 A 
ATOM     14  C   UNL     1      58.697  36.838  76.518  1.00  0.00     0.051 A 
ATOM     15  C   UNL     1      59.165  35.794  75.715  1.00  0.00     0.157 A 
ATOM     16  C   UNL     1      56.920  34.871  75.632  1.00  0.00     0.062 A 
ATOM     17  C   UNL     1      58.273  34.806  75.266  1.00  0.00     0.158 A 
BRANCH  15  18
ATOM     18  O   UNL     1      60.515  35.758  75.368  1.00  0.00    -0.504 OA
ATOM     19  H   UNL     1      61.098  36.586  75.385  1.00  0.00     0.293 HD
ENDBRANCH  15  18
BRANCH  17  20
ATOM     20  O   UNL     1      58.731  33.766  74.458  1.00  0.00    -0.504 OA
ATOM     21  H   UNL     1      59.683  33.425  74.520  1.00  0.00     0.293 HD
ENDBRANCH  17  20
ENDBRANCH   1  12
BRANCH   2  22
ATOM     22  O   UNL     1      54.634  37.882  75.364  1.00  0.00    -0.502 OA
ATOM     23  H   UNL     1      54.709  38.859  75.617  1.00  0.00     0.293 HD
ENDBRANCH   2  22
BRANCH   6  24
ATOM     24  O   UNL     1      49.894  36.494  77.359  1.00  0.00    -0.507 OA
ATOM     25  H   UNL     1      49.252  36.124  76.676  1.00  0.00     0.293 HD
ENDBRANCH   6  24
BRANCH   8  26
ATOM     26  O   UNL     1      51.224  33.119  80.481  1.00  0.00    -0.508 OA
ATOM     27  H   UNL     1      51.588  33.184  81.425  1.00  0.00     0.293 HD
ENDBRANCH   8  26
TORSDOF 6
ENDMDL
MODEL 2
REMARK VINA RESULT:    -6.999      4.888      6.349
REMARK INTER + INTRA:          -8.656
REMARK INTER:                  -8.533
REMARK INTRA:                  -0.122
REMARK UNBOUND:                -0.225
REMARK SMILES O=c1c(O)c(-c2ccc(O)c(O)c2)oc2cc(O)cc(O)c12
REMARK SMILES IDX 5 1 3 2 2 3 1 4 22 5 20 6 19 7 17 8 16 9 15 10 14 11 6 12
REMARK SMILES IDX 7 13 8 14 9 15 13 16 11 17 10 18 12 20 4 22 21 24 18 26
REMARK H PARENT 10 19 12 21 4 23 21 25 18 27
REMARK Flexibility Score: inf
ROOT
ATOM      1  C   UNL     1      56.705  38.119  73.570  1.00  0.00     0.180 A 
ATOM      2  C   UNL     1      57.081  38.160  72.217  1.00  0.00     0.208 A 
ATOM      3  C   UNL     1      56.302  38.905  71.316  1.00  0.00     0.238 A 
ATOM      4  O   UNL     1      56.674  38.981  70.115  1.00  0.00    -0.285 OA
ATOM      5  C   UNL     1      55.149  39.585  71.776  1.00  0.00     0.111 A 
ATOM      6  C   UNL     1      54.264  40.335  70.944  1.00  0.00     0.134 A 
ATOM      7  C   UNL     1      53.228  41.074  71.529  1.00  0.00     0.093 A 
ATOM      8  C   UNL     1      53.004  41.038  72.904  1.00  0.00     0.123 A 
ATOM      9  C   UNL     1      53.827  40.260  73.720  1.00  0.00     0.094 A 
ATOM     10  C   UNL     1      54.891  39.540  73.171  1.00  0.00     0.146 A 
ATOM     11  O   UNL     1      55.656  38.821  73.983  1.00  0.00    -0.452 OA
ENDROOT
BRANCH   1  12
ATOM     12  C   UNL     1      57.462  37.337  74.575  1.00  0.00     0.025 A 
ATOM     13  C   UNL     1      58.110  37.965  75.653  1.00  0.00     0.016 A 
ATOM     14  C   UNL     1      58.838  37.209  76.575  1.00  0.00     0.051 A 
ATOM     15  C   UNL     1      58.942  35.823  76.430  1.00  0.00     0.157 A 
ATOM     16  C   UNL     1      57.585  35.947  74.420  1.00  0.00     0.062 A 
ATOM     17  C   UNL     1      58.315  35.187  75.345  1.00  0.00     0.158 A 
BRANCH  15  18
ATOM     18  O   UNL     1      59.674  35.095  77.367  1.00  0.00    -0.504 OA
ATOM     19  H   UNL     1      60.433  35.509  77.897  1.00  0.00     0.293 HD
ENDBRANCH  15  18
BRANCH  17  20
ATOM     20  O   UNL     1      58.421  33.806  75.189  1.00  0.00    -0.504 OA
ATOM     21  H   UNL     1      59.277  33.372  74.864  1.00  0.00     0.293 HD
ENDBRANCH  17  20
ENDBRANCH   1  12
BRANCH   2  22
ATOM     22  O   UNL     1      58.235  37.499  71.787  1.00  0.00    -0.502 OA
ATOM     23  H   UNL     1      58.610  36.691  72.267  1.00  0.00     0.293 HD
ENDBRANCH   2  22
BRANCH   6  24
ATOM     24  O   UNL     1      54.342  40.365  69.549  1.00  0.00    -0.507 OA
ATOM     25  H   UNL     1      54.699  41.139  69.010  1.00  0.00     0.293 HD
ENDBRANCH   6  24
BRANCH   8  26
ATOM     26  O   UNL     1      51.954  41.774  73.449  1.00  0.00    -0.508 OA
ATOM     27  H   UNL     1      51.133  41.320  73.834  1.00  0.00     0.293 HD
ENDBRANCH   8  26
TORSDOF 6
ENDMDL
MODEL 3
REMARK VINA RESULT:    -6.949      1.204      2.858
REMARK INTER + INTRA:          -8.595
REMARK INTER:                  -8.564
REMARK INTRA:                  -0.031
REMARK UNBOUND:                -0.225
REMARK SMILES O=c1c(O)c(-c2ccc(O)c(O)c2)oc2cc(O)cc(O)c12
REMARK SMILES IDX 5 1 3 2 2 3 1 4 22 5 20 6 19 7 17 8 16 9 15 10 14 11 6 12
REMARK SMILES IDX 7 13 8 14 9 15 13 16 11 17 10 18 12 20 4 22 21 24 18 26
REMARK H PARENT 10 19 12 21 4 23 21 25 18 27
REMARK Flexibility Score: inf
ROOT
ATOM      1  C   UNL     1      55.097  35.175  77.224  1.00  0.00     0.180 A 
ATOM      2  C   UNL     1      54.930  34.252  78.270  1.00  0.00     0.208 A 
ATOM      3  C   UNL     1      53.682  34.165  78.908  1.00  0.00     0.238 A 
ATOM      4  O   UNL     1      53.524  33.299  79.809  1.00  0.00    -0.285 OA
ATOM      5  C   UNL     1      52.623  35.012  78.504  1.00  0.00     0.111 A 
ATOM      6  C   UNL     1      51.329  35.037  79.107  1.00  0.00     0.134 A 
ATOM      7  C   UNL     1      50.319  35.822  78.540  1.00  0.00     0.093 A 
ATOM      8  C   UNL     1      50.570  36.632  77.433  1.00  0.00     0.123 A 
ATOM      9  C   UNL     1      51.847  36.661  76.872  1.00  0.00     0.094 A 
ATOM     10  C   UNL     1      52.868  35.861  77.393  1.00  0.00     0.146 A 
ATOM     11  O   UNL     1      54.066  35.909  76.824  1.00  0.00    -0.452 OA
ENDROOT
BRANCH   1  12
ATOM     12  C   UNL     1      56.389  35.342  76.520  1.00  0.00     0.025 A 
ATOM     13  C   UNL     1      56.999  36.604  76.400  1.00  0.00     0.016 A 
ATOM     14  C   UNL     1      58.206  36.742  75.710  1.00  0.00     0.051 A 
ATOM     15  C   UNL     1      58.814  35.631  75.119  1.00  0.00     0.157 A 
ATOM     16  C   UNL     1      56.992  34.232  75.907  1.00  0.00     0.062 A 
ATOM     17  C   UNL     1      58.204  34.369  75.214  1.00  0.00     0.158 A 
BRANCH  15  18
ATOM     18  O   UNL     1      60.019  35.800  74.438  1.00  0.00    -0.504 OA
ATOM     19  H   UNL     1      60.802  36.301  74.843  1.00  0.00     0.293 HD
ENDBRANCH  15  18
BRANCH  17  20
ATOM     20  O   UNL     1      58.801  33.258  74.620  1.00  0.00    -0.504 OA
ATOM     21  H   UNL     1      59.805  33.120  74.640  1.00  0.00     0.293 HD
ENDBRANCH  17  20
ENDBRANCH   1  12
BRANCH   2  22
ATOM     22  O   UNL     1      55.983  33.410  78.640  1.00  0.00    -0.502 OA
ATOM     23  H   UNL     1      55.878  32.405  78.708  1.00  0.00     0.293 HD
ENDBRANCH   2  22
BRANCH   6  24
ATOM     24  O   UNL     1      50.997  34.336  80.270  1.00  0.00    -0.507 OA
ATOM     25  H   UNL     1      50.684  34.763  81.128  1.00  0.00     0.293 HD
ENDBRANCH   6  24
BRANCH   8  26
ATOM     26  O   UNL     1      49.544  37.413  76.905  1.00  0.00    -0.508 OA
ATOM     27  H   UNL     1      49.281  37.352  75.928  1.00  0.00     0.293 HD
ENDBRANCH   8  26
TORSDOF 6
ENDMDL
MODEL 4
REMARK VINA RESULT:    -6.646      2.459      2.856
REMARK INTER + INTRA:          -8.230
REMARK INTER:                  -7.973
REMARK INTRA:                  -0.257
REMARK UNBOUND:                -0.225
REMARK SMILES O=c1c(O)c(-c2ccc(O)c(O)c2)oc2cc(O)cc(O)c12
REMARK SMILES IDX 5 1 3 2 2 3 1 4 22 5 20 6 19 7 17 8 16 9 15 10 14 11 6 12
REMARK SMILES IDX 7 13 8 14 9 15 13 16 11 17 10 18 12 20 4 22 21 24 18 26
REMARK H PARENT 10 19 12 21 4 23 21 25 18 27
REMARK Flexibility Score: inf
ROOT
ATOM      1  C   UNL     1      55.247  37.210  76.608  1.00  0.00     0.180 A 
ATOM      2  C   UNL     1      55.509  37.644  77.919  1.00  0.00     0.208 A 
ATOM      3  C   UNL     1      54.536  37.442  78.911  1.00  0.00     0.238 A 
ATOM      4  O   UNL     1      54.798  37.786  80.093  1.00  0.00    -0.285 OA
ATOM      5  C   UNL     1      53.308  36.822  78.577  1.00  0.00     0.111 A 
ATOM      6  C   UNL     1      52.235  36.603  79.493  1.00  0.00     0.134 A 
ATOM      7  C   UNL     1      51.119  35.864  79.084  1.00  0.00     0.093 A 
ATOM      8  C   UNL     1      51.006  35.392  77.777  1.00  0.00     0.123 A 
ATOM      9  C   UNL     1      52.022  35.652  76.857  1.00  0.00     0.094 A 
ATOM     10  C   UNL     1      53.165  36.356  77.244  1.00  0.00     0.146 A 
ATOM     11  O   UNL     1      54.113  36.573  76.341  1.00  0.00    -0.452 OA
ENDROOT
BRANCH   1  12
ATOM     12  C   UNL     1      56.213  37.410  75.504  1.00  0.00     0.025 A 
ATOM     13  C   UNL     1      55.992  38.373  74.504  1.00  0.00     0.016 A 
ATOM     14  C   UNL     1      56.905  38.528  73.458  1.00  0.00     0.051 A 
ATOM     15  C   UNL     1      58.041  37.718  73.385  1.00  0.00     0.157 A 
ATOM     16  C   UNL     1      57.345  36.583  75.416  1.00  0.00     0.062 A 
ATOM     17  C   UNL     1      58.262  36.737  74.367  1.00  0.00     0.158 A 
BRANCH  15  18
ATOM     18  O   UNL     1      58.935  37.896  72.329  1.00  0.00    -0.504 OA
ATOM     19  H   UNL     1      58.630  37.917  71.363  1.00  0.00     0.293 HD
ENDBRANCH  15  18
BRANCH  17  20
ATOM     20  O   UNL     1      59.390  35.920  74.296  1.00  0.00    -0.504 OA
ATOM     21  H   UNL     1      60.245  36.152  74.788  1.00  0.00     0.293 HD
ENDBRANCH  17  20
ENDBRANCH   1  12
BRANCH   2  22
ATOM     22  O   UNL     1      56.737  38.235  78.232  1.00  0.00    -0.502 OA
ATOM     23  H   UNL     1      57.575  38.070  77.687  1.00  0.00     0.293 HD
ENDBRANCH   2  22
BRANCH   6  24
ATOM     24  O   UNL     1      52.205  37.110  80.795  1.00  0.00    -0.507 OA
ATOM     25  H   UNL     1      51.861  38.024  81.049  1.00  0.00     0.293 HD
ENDBRANCH   6  24
BRANCH   8  26
ATOM     26  O   UNL     1      49.873  34.673  77.402  1.00  0.00    -0.508 OA
ATOM     27  H   UNL     1      48.972  35.123  77.291  1.00  0.00     0.293 HD
ENDBRANCH   8  26
TORSDOF 6
ENDMDL
MODEL 5
REMARK VINA RESULT:    -6.581      1.659      6.861
REMARK INTER + INTRA:          -8.152
REMARK INTER:                  -7.955
REMARK INTRA:                  -0.197
REMARK UNBOUND:                -0.225
REMARK SMILES O=c1c(O)c(-c2ccc(O)c(O)c2)oc2cc(O)cc(O)c12
REMARK SMILES IDX 5 1 3 2 2 3 1 4 22 5 20 6 19 7 17 8 16 9 15 10 14 11 6 12
REMARK SMILES IDX 7 13 8 14 9 15 13 16 11 17 10 18 12 20 4 22 21 24 18 26
REMARK H PARENT 10 19 12 21 4 23 21 25 18 27
REMARK Flexibility Score: inf
ROOT
ATOM      1  C   UNL     1      54.807  35.855  78.057  1.00  0.00     0.180 A 
ATOM      2  C   UNL     1      55.409  37.093  78.337  1.00  0.00     0.208 A 
ATOM      3  C   UNL     1      56.667  37.379  77.782  1.00  0.00     0.238 A 
ATOM      4  O   UNL     1      57.177  38.511  77.993  1.00  0.00    -0.285 OA
ATOM      5  C   UNL     1      57.313  36.419  76.968  1.00  0.00     0.111 A 
ATOM      6  C   UNL     1      58.606  36.587  76.387  1.00  0.00     0.134 A 
ATOM      7  C   UNL     1      59.092  35.624  75.493  1.00  0.00     0.093 A 
ATOM      8  C   UNL     1      58.362  34.471  75.209  1.00  0.00     0.123 A 
ATOM      9  C   UNL     1      57.123  34.269  75.818  1.00  0.00     0.094 A 
ATOM     10  C   UNL     1      56.595  35.227  76.687  1.00  0.00     0.146 A 
ATOM     11  O   UNL     1      55.408  35.001  77.237  1.00  0.00    -0.452 OA
ENDROOT
BRANCH   1  12
ATOM     12  C   UNL     1      53.494  35.471  78.624  1.00  0.00     0.025 A 
ATOM     13  C   UNL     1      53.320  35.286  80.007  1.00  0.00     0.016 A 
ATOM     14  C   UNL     1      52.079  34.900  80.518  1.00  0.00     0.051 A 
ATOM     15  C   UNL     1      50.998  34.680  79.659  1.00  0.00     0.157 A 
ATOM     16  C   UNL     1      52.412  35.228  77.762  1.00  0.00     0.062 A 
ATOM     17  C   UNL     1      51.165  34.841  78.273  1.00  0.00     0.158 A 
BRANCH  15  18
ATOM     18  O   UNL     1      49.771  34.296  80.198  1.00  0.00    -0.504 OA
ATOM     19  H   UNL     1      49.488  34.560  81.135  1.00  0.00     0.293 HD
ENDBRANCH  15  18
BRANCH  17  20
ATOM     20  O   UNL     1      50.093  34.614  77.410  1.00  0.00    -0.504 OA
ATOM     21  H   UNL     1      49.873  35.256  76.657  1.00  0.00     0.293 HD
ENDBRANCH  17  20
ENDBRANCH   1  12
BRANCH   2  22
ATOM     22  O   UNL     1      54.744  38.036  79.125  1.00  0.00    -0.502 OA
ATOM     23  H   UNL     1      54.614  38.997  78.832  1.00  0.00     0.293 HD
ENDBRANCH   2  22
BRANCH   6  24
ATOM     24  O   UNL     1      59.458  37.657  76.675  1.00  0.00    -0.507 OA
ATOM     25  H   UNL     1      59.172  38.517  77.117  1.00  0.00     0.293 HD
ENDBRANCH   6  24
BRANCH   8  26
ATOM     26  O   UNL     1      58.883  33.528  74.326  1.00  0.00    -0.508 OA
ATOM     27  H   UNL     1      58.642  33.533  73.342  1.00  0.00     0.293 HD
ENDBRANCH   8  26
TORSDOF 6
ENDMDL
MODEL 6
REMARK VINA RESULT:    -6.579      3.012      4.344
REMARK INTER + INTRA:          -8.150
REMARK INTER:                  -7.844
REMARK INTRA:                  -0.306
REMARK UNBOUND:                -0.225
REMARK SMILES O=c1c(O)c(-c2ccc(O)c(O)c2)oc2cc(O)cc(O)c12
REMARK SMILES IDX 5 1 3 2 2 3 1 4 22 5 20 6 19 7 17 8 16 9 15 10 14 11 6 12
REMARK SMILES IDX 7 13 8 14 9 15 13 16 11 17 10 18 12 20 4 22 21 24 18 26
REMARK H PARENT 10 19 12 21 4 23 21 25 18 27
REMARK Flexibility Score: inf
ROOT
ATOM      1  C   UNL     1      56.457  36.330  74.926  1.00  0.00     0.180 A 
ATOM      2  C   UNL     1      57.099  35.155  75.350  1.00  0.00     0.208 A 
ATOM      3  C   UNL     1      56.550  34.426  76.417  1.00  0.00     0.238 A 
ATOM      4  O   UNL     1      57.100  33.345  76.756  1.00  0.00    -0.285 OA
ATOM      5  C   UNL     1      55.376  34.889  77.057  1.00  0.00     0.111 A 
ATOM      6  C   UNL     1      54.755  34.251  78.173  1.00  0.00     0.134 A 
ATOM      7  C   UNL     1      53.524  34.725  78.642  1.00  0.00     0.093 A 
ATOM      8  C   UNL     1      52.923  35.850  78.080  1.00  0.00     0.123 A 
ATOM      9  C   UNL     1      53.551  36.517  77.027  1.00  0.00     0.094 A 
ATOM     10  C   UNL     1      54.762  36.047  76.513  1.00  0.00     0.146 A 
ATOM     11  O   UNL     1      55.320  36.704  75.503  1.00  0.00    -0.452 OA
ENDROOT
BRANCH   1  12
ATOM     12  C   UNL     1      56.988  37.166  73.825  1.00  0.00     0.025 A 
ATOM     13  C   UNL     1      58.049  38.065  74.035  1.00  0.00     0.016 A 
ATOM     14  C   UNL     1      58.518  38.860  72.987  1.00  0.00     0.051 A 
ATOM     15  C   UNL     1      57.930  38.783  71.722  1.00  0.00     0.157 A 
ATOM     16  C   UNL     1      56.385  37.106  72.558  1.00  0.00     0.062 A 
ATOM     17  C   UNL     1      56.855  37.904  71.505  1.00  0.00     0.158 A 
BRANCH  15  18
ATOM     18  O   UNL     1      58.420  39.589  70.695  1.00  0.00    -0.504 OA
ATOM     19  H   UNL     1      58.237  40.585  70.658  1.00  0.00     0.293 HD
ENDBRANCH  15  18
BRANCH  17  20
ATOM     20  O   UNL     1      56.258  37.827  70.247  1.00  0.00    -0.504 OA
ATOM     21  H   UNL     1      55.483  37.200  70.065  1.00  0.00     0.293 HD
ENDBRANCH  17  20
ENDBRANCH   1  12
BRANCH   2  22
ATOM     22  O   UNL     1      58.246  34.703  74.690  1.00  0.00    -0.502 OA
ATOM     23  H   UNL     1      58.521  35.048  73.779  1.00  0.00     0.293 HD
ENDBRANCH   2  22
BRANCH   6  24
ATOM     24  O   UNL     1      55.316  33.176  78.868  1.00  0.00    -0.507 OA
ATOM     25  H   UNL     1      54.878  32.275  78.983  1.00  0.00     0.293 HD
ENDBRANCH   6  24
BRANCH   8  26
ATOM     26  O   UNL     1      51.705  36.303  78.582  1.00  0.00    -0.508 OA
ATOM     27  H   UNL     1      51.662  36.988  79.329  1.00  0.00     0.293 HD
ENDBRANCH   8  26
TORSDOF 6
ENDMDL
MODEL 7
REMARK VINA RESULT:    -6.444      1.931      7.325
REMARK INTER + INTRA:          -7.987
REMARK INTER:                  -7.702
REMARK INTRA:                  -0.285
REMARK UNBOUND:                -0.225
REMARK SMILES O=c1c(O)c(-c2ccc(O)c(O)c2)oc2cc(O)cc(O)c12
REMARK SMILES IDX 5 1 3 2 2 3 1 4 22 5 20 6 19 7 17 8 16 9 15 10 14 11 6 12
REMARK SMILES IDX 7 13 8 14 9 15 13 16 11 17 10 18 12 20 4 22 21 24 18 26
REMARK H PARENT 10 19 12 21 4 23 21 25 18 27
REMARK Flexibility Score: inf
ROOT
ATOM      1  C   UNL     1      54.522  36.038  76.549  1.00  0.00     0.180 A 
ATOM      2  C   UNL     1      55.226  34.842  76.770  1.00  0.00     0.208 A 
ATOM      3  C   UNL     1      56.478  34.666  76.159  1.00  0.00     0.238 A 
ATOM      4  O   UNL     1      57.127  33.615  76.403  1.00  0.00    -0.285 OA
ATOM      5  C   UNL     1      57.003  35.680  75.322  1.00  0.00     0.111 A 
ATOM      6  C   UNL     1      58.242  35.591  74.620  1.00  0.00     0.134 A 
ATOM      7  C   UNL     1      58.724  36.707  73.926  1.00  0.00     0.093 A 
ATOM      8  C   UNL     1      57.983  37.886  73.853  1.00  0.00     0.123 A 
ATOM      9  C   UNL     1      56.742  37.963  74.486  1.00  0.00     0.094 A 
ATOM     10  C   UNL     1      56.250  36.879  75.217  1.00  0.00     0.146 A 
ATOM     11  O   UNL     1      55.070  36.998  75.812  1.00  0.00    -0.452 OA
ENDROOT
BRANCH   1  12
ATOM     12  C   UNL     1      53.187  36.288  77.139  1.00  0.00     0.025 A 
ATOM     13  C   UNL     1      52.015  36.177  76.369  1.00  0.00     0.016 A 
ATOM     14  C   UNL     1      50.768  36.440  76.941  1.00  0.00     0.051 A 
ATOM     15  C   UNL     1      50.671  36.830  78.279  1.00  0.00     0.157 A 
ATOM     16  C   UNL     1      53.087  36.700  78.477  1.00  0.00     0.062 A 
ATOM     17  C   UNL     1      51.836  36.964  79.052  1.00  0.00     0.158 A 
BRANCH  15  18
ATOM     18  O   UNL     1      49.411  37.085  78.821  1.00  0.00    -0.504 OA
ATOM     19  H   UNL     1      49.270  37.767  79.557  1.00  0.00     0.293 HD
ENDBRANCH  15  18
BRANCH  17  20
ATOM     20  O   UNL     1      51.747  37.361  80.386  1.00  0.00    -0.504 OA
ATOM     21  H   UNL     1      51.219  36.825  81.065  1.00  0.00     0.293 HD
ENDBRANCH  17  20
ENDBRANCH   1  12
BRANCH   2  22
ATOM     22  O   UNL     1      54.699  33.863  77.617  1.00  0.00    -0.502 OA
ATOM     23  H   UNL     1      53.783  33.456  77.475  1.00  0.00     0.293 HD
ENDBRANCH   2  22
BRANCH   6  24
ATOM     24  O   UNL     1      59.018  34.430  74.551  1.00  0.00    -0.507 OA
ATOM     25  H   UNL     1      58.672  33.497  74.714  1.00  0.00     0.293 HD
ENDBRANCH   6  24
BRANCH   8  26
ATOM     26  O   UNL     1      58.487  38.971  73.140  1.00  0.00    -0.508 OA
ATOM     27  H   UNL     1      59.479  39.071  72.956  1.00  0.00     0.293 HD
ENDBRANCH   8  26
TORSDOF 6
ENDMDL
MODEL 8
REMARK VINA RESULT:    -6.439      3.156      4.114
REMARK INTER + INTRA:          -7.981
REMARK INTER:                  -8.094
REMARK INTRA:                   0.113
REMARK UNBOUND:                -0.225
REMARK SMILES O=c1c(O)c(-c2ccc(O)c(O)c2)oc2cc(O)cc(O)c12
REMARK SMILES IDX 5 1 3 2 2 3 1 4 22 5 20 6 19 7 17 8 16 9 15 10 14 11 6 12
REMARK SMILES IDX 7 13 8 14 9 15 13 16 11 17 10 18 12 20 4 22 21 24 18 26
REMARK H PARENT 10 19 12 21 4 23 21 25 18 27
REMARK Flexibility Score: inf
ROOT
ATOM      1  C   UNL     1      55.676  37.934  75.635  1.00  0.00     0.180 A 
ATOM      2  C   UNL     1      56.288  38.098  76.889  1.00  0.00     0.208 A 
ATOM      3  C   UNL     1      55.538  37.849  78.050  1.00  0.00     0.238 A 
ATOM      4  O   UNL     1      56.108  37.946  79.169  1.00  0.00    -0.285 OA
ATOM      5  C   UNL     1      54.183  37.455  77.943  1.00  0.00     0.111 A 
ATOM      6  C   UNL     1      53.318  37.215  79.053  1.00  0.00     0.134 A 
ATOM      7  C   UNL     1      52.035  36.704  78.830  1.00  0.00     0.093 A 
ATOM      8  C   UNL     1      51.561  36.484  77.538  1.00  0.00     0.123 A 
ATOM      9  C   UNL     1      52.377  36.772  76.443  1.00  0.00     0.094 A 
ATOM     10  C   UNL     1      53.676  37.250  76.634  1.00  0.00     0.146 A 
ATOM     11  O   UNL     1      54.423  37.500  75.566  1.00  0.00    -0.452 OA
ENDROOT
BRANCH   1  12
ATOM     12  C   UNL     1      56.393  38.201  74.367  1.00  0.00     0.025 A 
ATOM     13  C   UNL     1      57.719  37.775  74.173  1.00  0.00     0.016 A 
ATOM     14  C   UNL     1      58.384  38.059  72.978  1.00  0.00     0.051 A 
ATOM     15  C   UNL     1      57.745  38.781  71.966  1.00  0.00     0.157 A 
ATOM     16  C   UNL     1      55.761  38.945  73.358  1.00  0.00     0.062 A 
ATOM     17  C   UNL     1      56.427  39.230  72.157  1.00  0.00     0.158 A 
BRANCH  15  18
ATOM     18  O   UNL     1      58.434  39.049  70.784  1.00  0.00    -0.504 OA
ATOM     19  H   UNL     1      59.099  39.809  70.708  1.00  0.00     0.293 HD
ENDBRANCH  15  18
BRANCH  17  20
ATOM     20  O   UNL     1      55.786  39.958  71.156  1.00  0.00    -0.504 OA
ATOM     21  H   UNL     1      55.858  39.697  70.180  1.00  0.00     0.293 HD
ENDBRANCH  17  20
ENDBRANCH   1  12
BRANCH   2  22
ATOM     22  O   UNL     1      57.634  38.467  76.972  1.00  0.00    -0.502 OA
ATOM     23  H   UNL     1      58.325  37.902  77.450  1.00  0.00     0.293 HD
ENDBRANCH   2  22
BRANCH   6  24
ATOM     24  O   UNL     1      53.660  37.488  80.381  1.00  0.00    -0.507 OA
ATOM     25  H   UNL     1      54.383  37.011  80.898  1.00  0.00     0.293 HD
ENDBRANCH   6  24
BRANCH   8  26
ATOM     26  O   UNL     1      50.272  35.989  77.353  1.00  0.00    -0.508 OA
ATOM     27  H   UNL     1      49.619  36.433  76.717  1.00  0.00     0.293 HD
ENDBRANCH   8  26
TORSDOF 6
ENDMDL
MODEL 9
REMARK VINA RESULT:    -6.094      1.851      6.856
REMARK INTER + INTRA:          -7.566
REMARK INTER:                  -7.501
REMARK INTRA:                  -0.065
REMARK UNBOUND:                -0.225
REMARK SMILES O=c1c(O)c(-c2ccc(O)c(O)c2)oc2cc(O)cc(O)c12
REMARK SMILES IDX 5 1 3 2 2 3 1 4 22 5 20 6 19 7 17 8 16 9 15 10 14 11 6 12
REMARK SMILES IDX 7 13 8 14 9 15 13 16 11 17 10 18 12 20 4 22 21 24 18 26
REMARK H PARENT 10 19 12 21 4 23 21 25 18 27
REMARK Flexibility Score: inf
ROOT
ATOM      1  C   UNL     1      55.176  36.420  76.992  1.00  0.00     0.180 A 
ATOM      2  C   UNL     1      55.790  35.928  75.828  1.00  0.00     0.208 A 
ATOM      3  C   UNL     1      57.191  35.843  75.782  1.00  0.00     0.238 A 
ATOM      4  O   UNL     1      57.733  35.352  74.757  1.00  0.00    -0.285 OA
ATOM      5  C   UNL     1      57.960  36.265  76.893  1.00  0.00     0.111 A 
ATOM      6  C   UNL     1      59.387  36.261  76.940  1.00  0.00     0.134 A 
ATOM      7  C   UNL     1      60.039  36.577  78.138  1.00  0.00     0.093 A 
ATOM      8  C   UNL     1      59.321  36.960  79.270  1.00  0.00     0.123 A 
ATOM      9  C   UNL     1      57.928  37.026  79.217  1.00  0.00     0.094 A 
ATOM     10  C   UNL     1      57.247  36.682  78.047  1.00  0.00     0.146 A 
ATOM     11  O   UNL     1      55.921  36.747  78.042  1.00  0.00    -0.452 OA
ENDROOT
BRANCH   1  12
ATOM     12  C   UNL     1      53.706  36.563  77.107  1.00  0.00     0.025 A 
ATOM     13  C   UNL     1      52.983  35.896  78.112  1.00  0.00     0.016 A 
ATOM     14  C   UNL     1      51.594  36.027  78.187  1.00  0.00     0.051 A 
ATOM     15  C   UNL     1      50.906  36.809  77.256  1.00  0.00     0.157 A 
ATOM     16  C   UNL     1      53.009  37.331  76.161  1.00  0.00     0.062 A 
ATOM     17  C   UNL     1      51.615  37.463  76.235  1.00  0.00     0.158 A 
BRANCH  15  18
ATOM     18  O   UNL     1      49.520  36.921  77.358  1.00  0.00    -0.504 OA
ATOM     19  H   UNL     1      48.893  36.231  76.960  1.00  0.00     0.293 HD
ENDBRANCH  15  18
BRANCH  17  20
ATOM     20  O   UNL     1      50.934  38.239  75.298  1.00  0.00    -0.504 OA
ATOM     21  H   UNL     1      51.420  38.707  74.542  1.00  0.00     0.293 HD
ENDBRANCH  17  20
ENDBRANCH   1  12
BRANCH   2  22
ATOM     22  O   UNL     1      55.012  35.496  74.750  1.00  0.00    -0.502 OA
ATOM     23  H   UNL     1      54.350  34.734  74.828  1.00  0.00     0.293 HD
ENDBRANCH   2  22
BRANCH   6  24
ATOM     24  O   UNL     1      60.203  35.982  75.840  1.00  0.00    -0.507 OA
ATOM     25  H   UNL     1      61.007  36.528  75.569  1.00  0.00     0.293 HD
ENDBRANCH   6  24
BRANCH   8  26
ATOM     26  O   UNL     1      60.003  37.284  80.441  1.00  0.00    -0.508 OA
ATOM     27  H   UNL     1      59.543  37.269  81.344  1.00  0.00     0.293 HD
ENDBRANCH   8  26
TORSDOF 6
ENDMDL
