MODEL 1
REMARK VINA RESULT:    -3.806      0.000      0.000
REMARK INTER + INTRA:          -6.691
REMARK INTER:                  -6.142
REMARK INTRA:                  -0.549
REMARK UNBOUND:                -0.549
REMARK SMILES CCCCCCCCCCCCO
REMARK SMILES IDX 7 1 6 2 5 3 4 4 3 5 2 6 1 7 8 8 9 9 10 10 11 11 12 12 13 13
REMARK H PARENT 13 14
REMARK Flexibility Score: inf
ROOT
ATOM      1  C   UNL     1     166.502 165.952 167.700  1.00  0.00     0.000 C 
ENDROOT
BRANCH   1   2
ATOM      2  C   UNL     1     165.614 166.414 166.531  1.00  0.00    -0.000 C 
BRANCH   2   3
ATOM      3  C   UNL     1     164.947 167.790 166.719  1.00  0.00    -0.000 C 
BRANCH   3   4
ATOM      4  C   UNL     1     164.849 168.214 168.194  1.00  0.00    -0.000 C 
BRANCH   4   5
ATOM      5  C   UNL     1     164.464 169.699 168.350  1.00  0.00    -0.000 C 
BRANCH   5   6
ATOM      6  C   UNL     1     164.519 170.491 167.033  1.00  0.00    -0.003 C 
ATOM      7  C   UNL     1     164.856 171.966 167.234  1.00  0.00     0.004 C 
ENDBRANCH   5   6
ENDBRANCH   4   5
ENDBRANCH   3   4
ENDBRANCH   2   3
ENDBRANCH   1   2
BRANCH   1   8
ATOM      8  C   UNL     1     167.999 166.205 167.452  1.00  0.00     0.000 C 
BRANCH   8   9
ATOM      9  C   UNL     1     168.776 166.521 168.743  1.00  0.00     0.000 C 
BRANCH   9  10
ATOM     10  C   UNL     1     170.244 166.948 168.543  1.00  0.00     0.002 C 
BRANCH  10  11
ATOM     11  C   UNL     1     170.741 166.935 167.085  1.00  0.00     0.028 C 
BRANCH  11  12
ATOM     12  C   UNL     1     171.948 166.016 166.857  1.00  0.00     0.156 C 
BRANCH  12  13
ATOM     13  O   UNL     1     172.582 165.733 168.073  1.00  0.00    -0.396 OA
ATOM     14  H   UNL     1     172.602 166.587 168.579  1.00  0.00     0.210 HD
ENDBRANCH  12  13
ENDBRANCH  11  12
ENDBRANCH  10  11
ENDBRANCH   9  10
ENDBRANCH   8   9
ENDBRANCH   1   8
TORSDOF 11
ENDMDL
MODEL 2
REMARK VINA RESULT:    -3.757      5.282      7.342
REMARK INTER + INTRA:          -6.612
REMARK INTER:                  -6.289
REMARK INTRA:                  -0.324
REMARK UNBOUND:                -0.549
REMARK SMILES CCCCCCCCCCCCO
REMARK SMILES IDX 7 1 6 2 5 3 4 4 3 5 2 6 1 7 8 8 9 9 10 10 11 11 12 12 13 13
REMARK H PARENT 13 14
REMARK Flexibility Score: inf
ROOT
ATOM      1  C   UNL     1     164.658 165.453 168.588  1.00  0.00     0.000 C 
ENDROOT
BRANCH   1   2
ATOM      2  C   UNL     1     164.894 166.943 168.895  1.00  0.00    -0.000 C 
BRANCH   2   3
ATOM      3  C   UNL     1     164.901 167.871 167.666  1.00  0.00    -0.000 C 
BRANCH   3   4
ATOM      4  C   UNL     1     164.575 169.333 168.015  1.00  0.00    -0.000 C 
BRANCH   4   5
ATOM      5  C   UNL     1     164.512 170.232 166.762  1.00  0.00    -0.000 C 
BRANCH   5   6
ATOM      6  C   UNL     1     164.984 171.673 167.014  1.00  0.00    -0.003 C 
ATOM      7  C   UNL     1     164.885 172.088 168.480  1.00  0.00     0.004 C 
ENDBRANCH   5   6
ENDBRANCH   4   5
ENDBRANCH   3   4
ENDBRANCH   2   3
ENDBRANCH   1   2
BRANCH   1   8
ATOM      8  C   UNL     1     163.230 164.991 168.921  1.00  0.00     0.000 C 
BRANCH   8   9
ATOM      9  C   UNL     1     162.358 164.788 167.668  1.00  0.00     0.000 C 
BRANCH   9  10
ATOM     10  C   UNL     1     160.932 164.265 167.932  1.00  0.00     0.002 C 
BRANCH  10  11
ATOM     11  C   UNL     1     159.839 164.833 167.008  1.00  0.00     0.028 C 
BRANCH  11  12
ATOM     12  C   UNL     1     158.420 164.672 167.565  1.00  0.00     0.156 C 
BRANCH  12  13
ATOM     13  O   UNL     1     158.202 165.574 168.613  1.00  0.00    -0.396 OA
ATOM     14  H   UNL     1     159.080 165.691 169.063  1.00  0.00     0.210 HD
ENDBRANCH  12  13
ENDBRANCH  11  12
ENDBRANCH  10  11
ENDBRANCH   9  10
ENDBRANCH   8   9
ENDBRANCH   1   8
TORSDOF 11
ENDMDL
MODEL 3
REMARK VINA RESULT:    -3.696      6.096      9.236
REMARK INTER + INTRA:          -6.513
REMARK INTER:                  -6.065
REMARK INTRA:                  -0.448
REMARK UNBOUND:                -0.549
REMARK SMILES CCCCCCCCCCCCO
REMARK SMILES IDX 7 1 6 2 5 3 4 4 3 5 2 6 1 7 8 8 9 9 10 10 11 11 12 12 13 13
REMARK H PARENT 13 14
REMARK Flexibility Score: inf
ROOT
ATOM      1  C   UNL     1     163.616 165.251 167.189  1.00  0.00     0.000 C 
ENDROOT
BRANCH   1   2
ATOM      2  C   UNL     1     165.088 164.835 167.014  1.00  0.00    -0.000 C 
BRANCH   2   3
ATOM      3  C   UNL     1     165.663 163.969 168.151  1.00  0.00    -0.000 C 
BRANCH   3   4
ATOM      4  C   UNL     1     166.395 162.717 167.641  1.00  0.00    -0.000 C 
BRANCH   4   5
ATOM      5  C   UNL     1     166.761 161.749 168.785  1.00  0.00    -0.000 C 
BRANCH   5   6
ATOM      6  C   UNL     1     166.947 160.294 168.325  1.00  0.00    -0.003 C 
ATOM      7  C   UNL     1     168.205 159.642 168.894  1.00  0.00     0.004 C 
ENDBRANCH   5   6
ENDBRANCH   4   5
ENDBRANCH   3   4
ENDBRANCH   2   3
ENDBRANCH   1   2
BRANCH   1   8
ATOM      8  C   UNL     1     163.029 164.822 168.544  1.00  0.00     0.000 C 
BRANCH   8   9
ATOM      9  C   UNL     1     161.557 164.381 168.447  1.00  0.00     0.000 C 
BRANCH   9  10
ATOM     10  C   UNL     1     160.944 164.428 167.033  1.00  0.00     0.002 C 
BRANCH  10  11
ATOM     11  C   UNL     1     159.486 164.917 166.962  1.00  0.00     0.028 C 
BRANCH  11  12
ATOM     12  C   UNL     1     158.611 164.405 168.113  1.00  0.00     0.156 C 
BRANCH  12  13
ATOM     13  O   UNL     1     158.179 165.472 168.909  1.00  0.00    -0.396 OA
ATOM     14  H   UNL     1     157.280 165.722 168.573  1.00  0.00     0.210 HD
ENDBRANCH  12  13
ENDBRANCH  11  12
ENDBRANCH  10  11
ENDBRANCH   9  10
ENDBRANCH   8   9
ENDBRANCH   1   8
TORSDOF 11
ENDMDL
MODEL 4
REMARK VINA RESULT:    -3.664      5.240      6.391
REMARK INTER + INTRA:          -6.462
REMARK INTER:                  -5.873
REMARK INTRA:                  -0.589
REMARK UNBOUND:                -0.549
REMARK SMILES CCCCCCCCCCCCO
REMARK SMILES IDX 7 1 6 2 5 3 4 4 3 5 2 6 1 7 8 8 9 9 10 10 11 11 12 12 13 13
REMARK H PARENT 13 14
REMARK Flexibility Score: inf
ROOT
ATOM      1  C   UNL     1     166.106 164.130 168.144  1.00  0.00     0.000 C 
ENDROOT
BRANCH   1   2
ATOM      2  C   UNL     1     165.362 164.825 166.989  1.00  0.00    -0.000 C 
BRANCH   2   3
ATOM      3  C   UNL     1     164.110 165.622 167.403  1.00  0.00    -0.000 C 
BRANCH   3   4
ATOM      4  C   UNL     1     163.558 165.203 168.776  1.00  0.00    -0.000 C 
BRANCH   4   5
ATOM      5  C   UNL     1     162.187 164.504 168.665  1.00  0.00    -0.000 C 
BRANCH   5   6
ATOM      6  C   UNL     1     161.594 164.533 167.247  1.00  0.00    -0.003 C 
ATOM      7  C   UNL     1     160.078 164.712 167.235  1.00  0.00     0.004 C 
ENDBRANCH   5   6
ENDBRANCH   4   5
ENDBRANCH   3   4
ENDBRANCH   2   3
ENDBRANCH   1   2
BRANCH   1   8
ATOM      8  C   UNL     1     166.366 162.638 167.878  1.00  0.00     0.000 C 
BRANCH   8   9
ATOM      9  C   UNL     1     166.749 161.860 169.150  1.00  0.00     0.000 C 
BRANCH   9  10
ATOM     10  C   UNL     1     166.985 160.349 168.954  1.00  0.00     0.002 C 
BRANCH  10  11
ATOM     11  C   UNL     1     166.961 159.862 167.493  1.00  0.00     0.028 C 
BRANCH  11  12
ATOM     12  C   UNL     1     166.283 158.498 167.313  1.00  0.00     0.156 C 
BRANCH  12  13
ATOM     13  O   UNL     1     165.620 158.125 168.488  1.00  0.00    -0.396 OA
ATOM     14  H   UNL     1     165.079 157.325 168.258  1.00  0.00     0.210 HD
ENDBRANCH  12  13
ENDBRANCH  11  12
ENDBRANCH  10  11
ENDBRANCH   9  10
ENDBRANCH   8   9
ENDBRANCH   1   8
TORSDOF 11
ENDMDL
MODEL 5
REMARK VINA RESULT:    -3.629      1.605      2.547
REMARK INTER + INTRA:          -6.406
REMARK INTER:                  -5.491
REMARK INTRA:                  -0.915
REMARK UNBOUND:                -0.549
REMARK SMILES CCCCCCCCCCCCO
REMARK SMILES IDX 7 1 6 2 5 3 4 4 3 5 2 6 1 7 8 8 9 9 10 10 11 11 12 12 13 13
REMARK H PARENT 13 14
REMARK Flexibility Score: inf
ROOT
ATOM      1  C   UNL     1     167.645 166.135 167.304  1.00  0.00     0.000 C 
ENDROOT
BRANCH   1   2
ATOM      2  C   UNL     1     166.706 164.914 167.310  1.00  0.00    -0.000 C 
BRANCH   2   3
ATOM      3  C   UNL     1     165.942 164.684 168.628  1.00  0.00    -0.000 C 
BRANCH   3   4
ATOM      4  C   UNL     1     164.493 165.197 168.579  1.00  0.00    -0.000 C 
BRANCH   4   5
ATOM      5  C   UNL     1     164.201 166.223 169.694  1.00  0.00    -0.000 C 
BRANCH   5   6
ATOM      6  C   UNL     1     165.012 167.522 169.563  1.00  0.00    -0.003 C 
ATOM      7  C   UNL     1     164.785 168.239 168.234  1.00  0.00     0.004 C 
ENDBRANCH   5   6
ENDBRANCH   4   5
ENDBRANCH   3   4
ENDBRANCH   2   3
ENDBRANCH   1   2
BRANCH   1   8
ATOM      8  C   UNL     1     168.376 166.336 168.641  1.00  0.00     0.000 C 
BRANCH   8   9
ATOM      9  C   UNL     1     169.808 166.875 168.467  1.00  0.00     0.000 C 
BRANCH   9  10
ATOM     10  C   UNL     1     170.403 166.724 167.052  1.00  0.00     0.002 C 
BRANCH  10  11
ATOM     11  C   UNL     1     171.853 166.208 166.999  1.00  0.00     0.028 C 
BRANCH  11  12
ATOM     12  C   UNL     1     172.742 166.760 168.120  1.00  0.00     0.156 C 
BRANCH  12  13
ATOM     13  O   UNL     1     173.086 165.740 169.015  1.00  0.00    -0.396 OA
ATOM     14  H   UNL     1     173.705 166.150 169.675  1.00  0.00     0.210 HD
ENDBRANCH  12  13
ENDBRANCH  11  12
ENDBRANCH  10  11
ENDBRANCH   9  10
ENDBRANCH   8   9
ENDBRANCH   1   8
TORSDOF 11
ENDMDL
MODEL 6
REMARK VINA RESULT:    -3.626      4.794      7.190
REMARK INTER + INTRA:          -6.401
REMARK INTER:                  -5.706
REMARK INTRA:                  -0.695
REMARK UNBOUND:                -0.549
REMARK SMILES CCCCCCCCCCCCO
REMARK SMILES IDX 7 1 6 2 5 3 4 4 3 5 2 6 1 7 8 8 9 9 10 10 11 11 12 12 13 13
REMARK H PARENT 13 14
REMARK Flexibility Score: inf
ROOT
ATOM      1  C   UNL     1     164.486 169.339 168.486  1.00  0.00     0.000 C 
ENDROOT
BRANCH   1   2
ATOM      2  C   UNL     1     164.969 167.878 168.458  1.00  0.00    -0.000 C 
BRANCH   2   3
ATOM      3  C   UNL     1     165.125 167.266 167.053  1.00  0.00    -0.000 C 
BRANCH   3   4
ATOM      4  C   UNL     1     164.904 165.744 167.033  1.00  0.00    -0.000 C 
BRANCH   4   5
ATOM      5  C   UNL     1     163.872 165.291 168.087  1.00  0.00    -0.000 C 
BRANCH   5   6
ATOM      6  C   UNL     1     162.542 164.814 167.480  1.00  0.00    -0.003 C 
ATOM      7  C   UNL     1     161.511 164.419 168.535  1.00  0.00     0.004 C 
ENDBRANCH   5   6
ENDBRANCH   4   5
ENDBRANCH   3   4
ENDBRANCH   2   3
ENDBRANCH   1   2
BRANCH   1   8
ATOM      8  C   UNL     1     164.510 170.004 167.100  1.00  0.00     0.000 C 
BRANCH   8   9
ATOM      9  C   UNL     1     164.787 171.518 167.166  1.00  0.00     0.000 C 
BRANCH   9  10
ATOM     10  C   UNL     1     164.777 172.130 168.581  1.00  0.00     0.002 C 
BRANCH  10  11
ATOM     11  C   UNL     1     163.578 173.044 168.895  1.00  0.00     0.028 C 
BRANCH  11  12
ATOM     12  C   UNL     1     162.422 172.319 169.596  1.00  0.00     0.156 C 
BRANCH  12  13
ATOM     13  O   UNL     1     161.535 171.788 168.652  1.00  0.00    -0.396 OA
ATOM     14  H   UNL     1     162.093 171.293 167.997  1.00  0.00     0.210 HD
ENDBRANCH  12  13
ENDBRANCH  11  12
ENDBRANCH  10  11
ENDBRANCH   9  10
ENDBRANCH   8   9
ENDBRANCH   1   8
TORSDOF 11
ENDMDL
MODEL 7
REMARK VINA RESULT:    -3.595      4.403      6.454
REMARK INTER + INTRA:          -6.350
REMARK INTER:                  -5.887
REMARK INTRA:                  -0.464
REMARK UNBOUND:                -0.549
REMARK SMILES CCCCCCCCCCCCO
REMARK SMILES IDX 7 1 6 2 5 3 4 4 3 5 2 6 1 7 8 8 9 9 10 10 11 11 12 12 13 13
REMARK H PARENT 13 14
REMARK Flexibility Score: inf
ROOT
ATOM      1  C   UNL     1     164.984 166.937 168.416  1.00  0.00     0.000 C 
ENDROOT
BRANCH   1   2
ATOM      2  C   UNL     1     164.421 165.975 167.354  1.00  0.00    -0.000 C 
BRANCH   2   3
ATOM      3  C   UNL     1     163.888 164.637 167.901  1.00  0.00    -0.000 C 
BRANCH   3   4
ATOM      4  C   UNL     1     163.027 164.805 169.165  1.00  0.00    -0.000 C 
BRANCH   4   5
ATOM      5  C   UNL     1     161.546 164.454 168.913  1.00  0.00    -0.000 C 
BRANCH   5   6
ATOM      6  C   UNL     1     161.175 164.387 167.423  1.00  0.00    -0.003 C 
ATOM      7  C   UNL     1     159.732 164.805 167.146  1.00  0.00     0.004 C 
ENDBRANCH   5   6
ENDBRANCH   4   5
ENDBRANCH   3   4
ENDBRANCH   2   3
ENDBRANCH   1   2
BRANCH   1   8
ATOM      8  C   UNL     1     164.880 168.414 168.001  1.00  0.00     0.000 C 
BRANCH   8   9
ATOM      9  C   UNL     1     164.286 169.307 169.105  1.00  0.00     0.000 C 
BRANCH   9  10
ATOM     10  C   UNL     1     164.310 170.821 168.815  1.00  0.00     0.002 C 
BRANCH  10  11
ATOM     11  C   UNL     1     164.480 171.206 167.334  1.00  0.00     0.028 C 
BRANCH  11  12
ATOM     12  C   UNL     1     165.041 172.620 167.129  1.00  0.00     0.156 C 
BRANCH  12  13
ATOM     13  O   UNL     1     165.631 173.086 168.309  1.00  0.00    -0.396 OA
ATOM     14  H   UNL     1     165.446 172.399 169.000  1.00  0.00     0.210 HD
ENDBRANCH  12  13
ENDBRANCH  11  12
ENDBRANCH  10  11
ENDBRANCH   9  10
ENDBRANCH   8   9
ENDBRANCH   1   8
TORSDOF 11
ENDMDL
MODEL 8
REMARK VINA RESULT:    -3.542      3.551      6.713
REMARK INTER + INTRA:          -6.265
REMARK INTER:                  -5.727
REMARK INTRA:                  -0.538
REMARK UNBOUND:                -0.549
REMARK SMILES CCCCCCCCCCCCO
REMARK SMILES IDX 7 1 6 2 5 3 4 4 3 5 2 6 1 7 8 8 9 9 10 10 11 11 12 12 13 13
REMARK H PARENT 13 14
REMARK Flexibility Score: inf
ROOT
ATOM      1  C   UNL     1     164.882 168.091 168.410  1.00  0.00     0.000 C 
ENDROOT
BRANCH   1   2
ATOM      2  C   UNL     1     165.198 167.626 166.977  1.00  0.00    -0.000 C 
BRANCH   2   3
ATOM      3  C   UNL     1     165.033 166.115 166.728  1.00  0.00    -0.000 C 
BRANCH   3   4
ATOM      4  C   UNL     1     166.329 165.322 166.966  1.00  0.00    -0.000 C 
BRANCH   4   5
ATOM      5  C   UNL     1     167.588 166.195 166.789  1.00  0.00    -0.000 C 
BRANCH   5   6
ATOM      6  C   UNL     1     168.418 166.346 168.074  1.00  0.00    -0.003 C 
ATOM      7  C   UNL     1     169.876 166.714 167.806  1.00  0.00     0.004 C 
ENDBRANCH   5   6
ENDBRANCH   4   5
ENDBRANCH   3   4
ENDBRANCH   2   3
ENDBRANCH   1   2
BRANCH   1   8
ATOM      8  C   UNL     1     164.488 169.576 168.485  1.00  0.00     0.000 C 
BRANCH   8   9
ATOM      9  C   UNL     1     164.485 170.266 167.109  1.00  0.00     0.000 C 
BRANCH   9  10
ATOM     10  C   UNL     1     164.802 171.775 167.126  1.00  0.00     0.002 C 
BRANCH  10  11
ATOM     11  C   UNL     1     165.090 172.373 168.515  1.00  0.00     0.028 C 
BRANCH  11  12
ATOM     12  C   UNL     1     163.857 172.992 169.184  1.00  0.00     0.156 C 
BRANCH  12  13
ATOM     13  O   UNL     1     162.980 173.496 168.216  1.00  0.00    -0.396 OA
ATOM     14  H   UNL     1     162.373 172.748 167.978  1.00  0.00     0.210 HD
ENDBRANCH  12  13
ENDBRANCH  11  12
ENDBRANCH  10  11
ENDBRANCH   9  10
ENDBRANCH   8   9
ENDBRANCH   1   8
TORSDOF 11
ENDMDL
MODEL 9
REMARK VINA RESULT:    -3.496      2.237      3.338
REMARK INTER + INTRA:          -6.191
REMARK INTER:                  -5.261
REMARK INTRA:                  -0.930
REMARK UNBOUND:                -0.549
REMARK SMILES CCCCCCCCCCCCO
REMARK SMILES IDX 7 1 6 2 5 3 4 4 3 5 2 6 1 7 8 8 9 9 10 10 11 11 12 12 13 13
REMARK H PARENT 13 14
REMARK Flexibility Score: inf
ROOT
ATOM      1  C   UNL     1     167.029 165.963 169.701  1.00  0.00     0.000 C 
ENDROOT
BRANCH   1   2
ATOM      2  C   UNL     1     166.046 167.143 169.808  1.00  0.00    -0.000 C 
BRANCH   2   3
ATOM      3  C   UNL     1     164.817 167.056 168.885  1.00  0.00    -0.000 C 
BRANCH   3   4
ATOM      4  C   UNL     1     164.107 165.693 168.955  1.00  0.00    -0.000 C 
BRANCH   4   5
ATOM      5  C   UNL     1     163.958 165.042 167.564  1.00  0.00    -0.000 C 
BRANCH   5   6
ATOM      6  C   UNL     1     164.987 165.541 166.537  1.00  0.00    -0.003 C 
ATOM      7  C   UNL     1     165.857 164.423 165.969  1.00  0.00     0.004 C 
ENDBRANCH   5   6
ENDBRANCH   4   5
ENDBRANCH   3   4
ENDBRANCH   2   3
ENDBRANCH   1   2
BRANCH   1   8
ATOM      8  C   UNL     1     168.407 166.377 169.160  1.00  0.00     0.000 C 
BRANCH   8   9
ATOM      9  C   UNL     1     168.469 166.386 167.621  1.00  0.00     0.000 C 
BRANCH   9  10
ATOM     10  C   UNL     1     169.860 166.664 167.017  1.00  0.00     0.002 C 
BRANCH  10  11
ATOM     11  C   UNL     1     171.000 166.832 168.038  1.00  0.00     0.028 C 
BRANCH  11  12
ATOM     12  C   UNL     1     172.317 166.179 167.599  1.00  0.00     0.156 C 
BRANCH  12  13
ATOM     13  O   UNL     1     173.002 165.670 168.709  1.00  0.00    -0.396 OA
ATOM     14  H   UNL     1     173.773 165.160 168.347  1.00  0.00     0.210 HD
ENDBRANCH  12  13
ENDBRANCH  11  12
ENDBRANCH  10  11
ENDBRANCH   9  10
ENDBRANCH   8   9
ENDBRANCH   1   8
TORSDOF 11
ENDMDL
