MODEL 1
REMARK VINA RESULT:    -7.082      0.000      0.000
REMARK INTER + INTRA:         -11.479
REMARK INTER:                 -10.187
REMARK INTRA:                  -1.293
REMARK UNBOUND:                -1.293
REMARK SMILES CC(C)=CCCC(C)=CCCC(C)=CCO
REMARK SMILES IDX 10 1 9 2 7 3 8 4 6 5 5 6 4 7 1 8 2 9 3 10 11 11 12 12 14 13
REMARK SMILES IDX 13 14 15 15 16 16
REMARK H PARENT 16 17
REMARK Flexibility Score: inf
ROOT
ATOM      1  C   UNL     1      -2.781  -4.261   2.346  1.00  0.00     0.032 C 
ENDROOT
BRANCH   1   2
ATOM      2  C   UNL     1      -1.800  -5.373   2.068  1.00  0.00    -0.028 C 
ATOM      3  C   UNL     1      -1.076  -6.009   3.018  1.00  0.00    -0.077 C 
ATOM      4  C   UNL     1      -1.151  -5.616   4.476  1.00  0.00     0.039 C 
BRANCH   3   5
ATOM      5  C   UNL     1      -0.159  -7.138   2.605  1.00  0.00     0.034 C 
BRANCH   5   6
ATOM      6  C   UNL     1       1.310  -6.706   2.680  1.00  0.00     0.032 C 
BRANCH   6   7
ATOM      7  C   UNL     1       1.804  -6.251   1.330  1.00  0.00    -0.028 C 
ATOM      8  C   UNL     1       1.664  -3.820   1.920  1.00  0.00     0.039 C 
ATOM      9  C   UNL     1       1.944  -4.956   0.965  1.00  0.00    -0.080 C 
ATOM     10  C   UNL     1       2.415  -4.652  -0.435  1.00  0.00     0.039 C 
ENDBRANCH   6   7
ENDBRANCH   5   6
ENDBRANCH   3   5
ENDBRANCH   1   2
BRANCH   1  11
ATOM     11  C   UNL     1      -2.093  -2.896   2.258  1.00  0.00     0.034 C 
BRANCH  11  12
ATOM     12  C   UNL     1      -2.707  -1.921   3.240  1.00  0.00    -0.075 C 
ATOM     13  C   UNL     1      -2.631  -0.595   2.986  1.00  0.00    -0.000 C 
ATOM     14  C   UNL     1      -3.378  -2.452   4.484  1.00  0.00     0.039 C 
BRANCH  13  15
ATOM     15  C   UNL     1      -3.196   0.466   3.892  1.00  0.00     0.183 C 
BRANCH  15  16
ATOM     16  O   UNL     1      -4.137   1.233   3.197  1.00  0.00    -0.392 OA
ATOM     17  H   UNL     1      -4.952   0.669   3.125  1.00  0.00     0.210 HD
ENDBRANCH  15  16
ENDBRANCH  13  15
ENDBRANCH  11  12
ENDBRANCH   1  11
TORSDOF 8
ENDMDL
MODEL 2
REMARK VINA RESULT:    -7.040      2.393      3.367
REMARK INTER + INTRA:         -11.419
REMARK INTER:                 -10.074
REMARK INTRA:                  -1.345
REMARK UNBOUND:                -1.293
REMARK SMILES CC(C)=CCCC(C)=CCCC(C)=CCO
REMARK SMILES IDX 10 1 9 2 7 3 8 4 6 5 5 6 4 7 1 8 2 9 3 10 11 11 12 12 14 13
REMARK SMILES IDX 13 14 15 15 16 16
REMARK H PARENT 16 17
REMARK Flexibility Score: inf
ROOT
ATOM      1  C   UNL     1      -1.179  -1.877   3.773  1.00  0.00     0.032 C 
ENDROOT
BRANCH   1   2
ATOM      2  C   UNL     1       0.233  -2.324   3.488  1.00  0.00    -0.028 C 
ATOM      3  C   UNL     1       0.708  -3.567   3.739  1.00  0.00    -0.077 C 
ATOM      4  C   UNL     1      -0.144  -4.630   4.392  1.00  0.00     0.039 C 
BRANCH   3   5
ATOM      5  C   UNL     1       2.135  -3.895   3.362  1.00  0.00     0.034 C 
BRANCH   5   6
ATOM      6  C   UNL     1       2.191  -5.123   2.446  1.00  0.00     0.032 C 
BRANCH   6   7
ATOM      7  C   UNL     1       2.223  -4.709   0.996  1.00  0.00    -0.028 C 
ATOM      8  C   UNL     1       0.030  -5.801   0.472  1.00  0.00     0.039 C 
ATOM      9  C   UNL     1       1.270  -5.028   0.091  1.00  0.00    -0.080 C 
ATOM     10  C   UNL     1       1.455  -4.575  -1.335  1.00  0.00     0.039 C 
ENDBRANCH   6   7
ENDBRANCH   5   6
ENDBRANCH   3   5
ENDBRANCH   1   2
BRANCH   1  11
ATOM     11  C   UNL     1      -2.094  -2.174   2.581  1.00  0.00     0.034 C 
BRANCH  11  12
ATOM     12  C   UNL     1      -3.045  -3.306   2.901  1.00  0.00    -0.075 C 
ATOM     13  C   UNL     1      -3.054  -4.403   2.111  1.00  0.00    -0.000 C 
ATOM     14  C   UNL     1      -3.968  -3.179   4.089  1.00  0.00     0.039 C 
BRANCH  13  15
ATOM     15  C   UNL     1      -3.961  -5.584   2.326  1.00  0.00     0.183 C 
BRANCH  15  16
ATOM     16  O   UNL     1      -4.943  -5.617   1.329  1.00  0.00    -0.392 OA
ATOM     17  H   UNL     1      -5.174  -4.670   1.139  1.00  0.00     0.210 HD
ENDBRANCH  15  16
ENDBRANCH  13  15
ENDBRANCH  11  12
ENDBRANCH   1  11
TORSDOF 8
ENDMDL
MODEL 3
REMARK VINA RESULT:    -7.015      1.196      2.063
REMARK INTER + INTRA:         -11.383
REMARK INTER:                 -10.315
REMARK INTRA:                  -1.068
REMARK UNBOUND:                -1.293
REMARK SMILES CC(C)=CCCC(C)=CCCC(C)=CCO
REMARK SMILES IDX 10 1 9 2 7 3 8 4 6 5 5 6 4 7 1 8 2 9 3 10 11 11 12 12 14 13
REMARK SMILES IDX 13 14 15 15 16 16
REMARK H PARENT 16 17
REMARK Flexibility Score: inf
ROOT
ATOM      1  C   UNL     1      -2.347  -3.092   2.378  1.00  0.00     0.032 C 
ENDROOT
BRANCH   1   2
ATOM      2  C   UNL     1      -0.925  -2.745   2.743  1.00  0.00    -0.028 C 
ATOM      3  C   UNL     1      -0.103  -3.544   3.462  1.00  0.00    -0.077 C 
ATOM      4  C   UNL     1      -0.566  -4.869   4.022  1.00  0.00     0.039 C 
BRANCH   3   5
ATOM      5  C   UNL     1       1.317  -3.091   3.719  1.00  0.00     0.034 C 
BRANCH   5   6
ATOM      6  C   UNL     1       2.324  -4.101   3.158  1.00  0.00     0.032 C 
BRANCH   6   7
ATOM      7  C   UNL     1       2.329  -4.073   1.651  1.00  0.00    -0.028 C 
ATOM      8  C   UNL     1       1.623  -6.467   1.445  1.00  0.00     0.039 C 
ATOM      9  C   UNL     1       2.040  -5.135   0.867  1.00  0.00    -0.080 C 
ATOM     10  C   UNL     1       2.121  -4.967  -0.629  1.00  0.00     0.039 C 
ENDBRANCH   6   7
ENDBRANCH   5   6
ENDBRANCH   3   5
ENDBRANCH   1   2
BRANCH   1  11
ATOM     11  C   UNL     1      -3.313  -2.655   3.484  1.00  0.00     0.034 C 
BRANCH  11  12
ATOM     12  C   UNL     1      -3.065  -1.214   3.874  1.00  0.00    -0.075 C 
ATOM     13  C   UNL     1      -3.203  -0.245   2.941  1.00  0.00    -0.000 C 
ATOM     14  C   UNL     1      -2.661  -0.894   5.294  1.00  0.00     0.039 C 
BRANCH  13  15
ATOM     15  C   UNL     1      -2.975   1.218   3.210  1.00  0.00     0.183 C 
BRANCH  15  16
ATOM     16  O   UNL     1      -4.200   1.895   3.226  1.00  0.00    -0.392 OA
ATOM     17  H   UNL     1      -4.887   1.213   3.448  1.00  0.00     0.210 HD
ENDBRANCH  15  16
ENDBRANCH  13  15
ENDBRANCH  11  12
ENDBRANCH   1  11
TORSDOF 8
ENDMDL
MODEL 4
REMARK VINA RESULT:    -6.994      2.973      4.406
REMARK INTER + INTRA:         -11.353
REMARK INTER:                 -10.422
REMARK INTRA:                  -0.931
REMARK UNBOUND:                -1.293
REMARK SMILES CC(C)=CCCC(C)=CCCC(C)=CCO
REMARK SMILES IDX 10 1 9 2 7 3 8 4 6 5 5 6 4 7 1 8 2 9 3 10 11 11 12 12 14 13
REMARK SMILES IDX 13 14 15 15 16 16
REMARK H PARENT 16 17
REMARK Flexibility Score: inf
ROOT
ATOM      1  C   UNL     1      -2.189  -4.327   3.922  1.00  0.00     0.032 C 
ENDROOT
BRANCH   1   2
ATOM      2  C   UNL     1      -0.723  -4.200   3.589  1.00  0.00    -0.028 C 
ATOM      3  C   UNL     1      -0.017  -3.049   3.673  1.00  0.00    -0.077 C 
ATOM      4  C   UNL     1      -0.663  -1.742   4.071  1.00  0.00     0.039 C 
BRANCH   3   5
ATOM      5  C   UNL     1       1.461  -3.072   3.351  1.00  0.00     0.034 C 
BRANCH   5   6
ATOM      6  C   UNL     1       1.878  -4.439   2.796  1.00  0.00     0.032 C 
BRANCH   6   7
ATOM      7  C   UNL     1       2.282  -4.329   1.348  1.00  0.00    -0.028 C 
ATOM      8  C   UNL     1       0.300  -5.624   0.531  1.00  0.00     0.039 C 
ATOM      9  C   UNL     1       1.596  -4.877   0.320  1.00  0.00    -0.080 C 
ATOM     10  C   UNL     1       2.142  -4.715  -1.076  1.00  0.00     0.039 C 
ENDBRANCH   6   7
ENDBRANCH   5   6
ENDBRANCH   3   5
ENDBRANCH   1   2
BRANCH   1  11
ATOM     11  C   UNL     1      -3.028  -4.438   2.646  1.00  0.00     0.034 C 
BRANCH  11  12
ATOM     12  C   UNL     1      -3.425  -5.875   2.386  1.00  0.00    -0.075 C 
ATOM     13  C   UNL     1      -4.676  -6.145   1.950  1.00  0.00    -0.000 C 
ATOM     14  C   UNL     1      -2.417  -6.973   2.630  1.00  0.00     0.039 C 
BRANCH  13  15
ATOM     15  C   UNL     1      -5.184  -7.533   1.668  1.00  0.00     0.183 C 
BRANCH  15  16
ATOM     16  O   UNL     1      -6.321  -7.466   0.854  1.00  0.00    -0.392 OA
ATOM     17  H   UNL     1      -6.966  -6.879   1.330  1.00  0.00     0.210 HD
ENDBRANCH  15  16
ENDBRANCH  13  15
ENDBRANCH  11  12
ENDBRANCH   1  11
TORSDOF 8
ENDMDL
MODEL 5
REMARK VINA RESULT:    -6.952      1.605      1.649
REMARK INTER + INTRA:         -11.293
REMARK INTER:                  -9.821
REMARK INTRA:                  -1.472
REMARK UNBOUND:                -1.293
REMARK SMILES CC(C)=CCCC(C)=CCCC(C)=CCO
REMARK SMILES IDX 10 1 9 2 7 3 8 4 6 5 5 6 4 7 1 8 2 9 3 10 11 11 12 12 14 13
REMARK SMILES IDX 13 14 15 15 16 16
REMARK H PARENT 16 17
REMARK Flexibility Score: inf
ROOT
ATOM      1  C   UNL     1      -3.214  -5.402   2.370  1.00  0.00     0.032 C 
ENDROOT
BRANCH   1   2
ATOM      2  C   UNL     1      -1.921  -6.140   2.126  1.00  0.00    -0.028 C 
ATOM      3  C   UNL     1      -0.976  -6.361   3.069  1.00  0.00    -0.077 C 
ATOM      4  C   UNL     1      -1.114  -5.829   4.477  1.00  0.00     0.039 C 
BRANCH   3   5
ATOM      5  C   UNL     1       0.256  -7.155   2.698  1.00  0.00     0.034 C 
BRANCH   5   6
ATOM      6  C   UNL     1       1.494  -6.253   2.647  1.00  0.00     0.032 C 
BRANCH   6   7
ATOM      7  C   UNL     1       1.925  -6.015   1.222  1.00  0.00    -0.028 C 
ATOM      8  C   UNL     1       0.827  -3.767   1.097  1.00  0.00     0.039 C 
ATOM      9  C   UNL     1       1.611  -4.913   0.504  1.00  0.00    -0.080 C 
ATOM     10  C   UNL     1       2.082  -4.830  -0.926  1.00  0.00     0.039 C 
ENDBRANCH   6   7
ENDBRANCH   5   6
ENDBRANCH   3   5
ENDBRANCH   1   2
BRANCH   1  11
ATOM     11  C   UNL     1      -3.105  -3.947   1.902  1.00  0.00     0.034 C 
BRANCH  11  12
ATOM     12  C   UNL     1      -2.815  -3.028   3.068  1.00  0.00    -0.075 C 
ATOM     13  C   UNL     1      -1.699  -2.265   3.045  1.00  0.00    -0.000 C 
ATOM     14  C   UNL     1      -3.774  -2.992   4.234  1.00  0.00     0.039 C 
BRANCH  13  15
ATOM     15  C   UNL     1      -1.304  -1.323   4.150  1.00  0.00     0.183 C 
BRANCH  15  16
ATOM     16  O   UNL     1       0.079  -1.106   4.117  1.00  0.00    -0.392 OA
ATOM     17  H   UNL     1       0.206  -0.200   3.731  1.00  0.00     0.210 HD
ENDBRANCH  15  16
ENDBRANCH  13  15
ENDBRANCH  11  12
ENDBRANCH   1  11
TORSDOF 8
ENDMDL
MODEL 6
REMARK VINA RESULT:    -6.853      3.100      5.704
REMARK INTER + INTRA:         -11.150
REMARK INTER:                 -10.237
REMARK INTRA:                  -0.914
REMARK UNBOUND:                -1.293
REMARK SMILES CC(C)=CCCC(C)=CCCC(C)=CCO
REMARK SMILES IDX 10 1 9 2 7 3 8 4 6 5 5 6 4 7 1 8 2 9 3 10 11 11 12 12 14 13
REMARK SMILES IDX 13 14 15 15 16 16
REMARK H PARENT 16 17
REMARK Flexibility Score: inf
ROOT
ATOM      1  C   UNL     1      -1.040  -2.671   2.263  1.00  0.00     0.032 C 
ENDROOT
BRANCH   1   2
ATOM      2  C   UNL     1      -2.170  -3.660   2.411  1.00  0.00    -0.028 C 
ATOM      3  C   UNL     1      -3.243  -3.479   3.215  1.00  0.00    -0.077 C 
ATOM      4  C   UNL     1      -3.384  -2.261   4.099  1.00  0.00     0.039 C 
BRANCH   3   5
ATOM      5  C   UNL     1      -4.328  -4.533   3.235  1.00  0.00     0.034 C 
BRANCH   5   6
ATOM      6  C   UNL     1      -4.321  -5.350   1.938  1.00  0.00     0.032 C 
BRANCH   6   7
ATOM      7  C   UNL     1      -4.477  -6.821   2.231  1.00  0.00    -0.028 C 
ATOM      8  C   UNL     1      -2.013  -7.198   2.473  1.00  0.00     0.039 C 
ATOM      9  C   UNL     1      -3.447  -7.670   2.449  1.00  0.00    -0.080 C 
ATOM     10  C   UNL     1      -3.755  -9.125   2.694  1.00  0.00     0.039 C 
ENDBRANCH   6   7
ENDBRANCH   5   6
ENDBRANCH   3   5
ENDBRANCH   1   2
BRANCH   1  11
ATOM     11  C   UNL     1       0.072  -2.964   3.275  1.00  0.00     0.034 C 
BRANCH  11  12
ATOM     12  C   UNL     1       1.192  -3.753   2.631  1.00  0.00    -0.075 C 
ATOM     13  C   UNL     1       1.200  -3.909   1.288  1.00  0.00    -0.000 C 
ATOM     14  C   UNL     1       2.266  -4.355   3.504  1.00  0.00     0.039 C 
BRANCH  13  15
ATOM     15  C   UNL     1       2.254  -4.678   0.539  1.00  0.00     0.183 C 
BRANCH  15  16
ATOM     16  O   UNL     1       1.862  -6.016   0.406  1.00  0.00    -0.392 OA
ATOM     17  H   UNL     1       2.699  -6.549   0.411  1.00  0.00     0.210 HD
ENDBRANCH  15  16
ENDBRANCH  13  15
ENDBRANCH  11  12
ENDBRANCH   1  11
TORSDOF 8
ENDMDL
MODEL 7
REMARK VINA RESULT:    -6.782      2.486      3.870
REMARK INTER + INTRA:         -11.049
REMARK INTER:                  -9.817
REMARK INTRA:                  -1.232
REMARK UNBOUND:                -1.293
REMARK SMILES CC(C)=CCCC(C)=CCCC(C)=CCO
REMARK SMILES IDX 10 1 9 2 7 3 8 4 6 5 5 6 4 7 1 8 2 9 3 10 11 11 12 12 14 13
REMARK SMILES IDX 13 14 15 15 16 16
REMARK H PARENT 16 17
REMARK Flexibility Score: inf
ROOT
ATOM      1  C   UNL     1      -0.590  -2.746   2.823  1.00  0.00     0.032 C 
ENDROOT
BRANCH   1   2
ATOM      2  C   UNL     1       0.295  -3.407   1.796  1.00  0.00    -0.028 C 
ATOM      3  C   UNL     1       1.582  -3.764   2.012  1.00  0.00    -0.077 C 
ATOM      4  C   UNL     1       2.282  -3.478   3.321  1.00  0.00     0.039 C 
BRANCH   3   5
ATOM      5  C   UNL     1       2.343  -4.462   0.907  1.00  0.00     0.034 C 
BRANCH   5   6
ATOM      6  C   UNL     1       1.651  -5.769   0.506  1.00  0.00     0.032 C 
BRANCH   6   7
ATOM      7  C   UNL     1       1.675  -6.758   1.644  1.00  0.00    -0.028 C 
ATOM      8  C   UNL     1      -0.819  -6.983   1.711  1.00  0.00     0.039 C 
ATOM      9  C   UNL     1       0.571  -7.294   2.213  1.00  0.00    -0.080 C 
ATOM     10  C   UNL     1       0.748  -8.244   3.370  1.00  0.00     0.039 C 
ENDBRANCH   6   7
ENDBRANCH   5   6
ENDBRANCH   3   5
ENDBRANCH   1   2
BRANCH   1  11
ATOM     11  C   UNL     1      -1.977  -2.457   2.239  1.00  0.00     0.034 C 
BRANCH  11  12
ATOM     12  C   UNL     1      -3.011  -3.396   2.821  1.00  0.00    -0.075 C 
ATOM     13  C   UNL     1      -3.463  -4.426   2.070  1.00  0.00    -0.000 C 
ATOM     14  C   UNL     1      -3.521  -3.153   4.221  1.00  0.00     0.039 C 
BRANCH  13  15
ATOM     15  C   UNL     1      -4.495  -5.416   2.539  1.00  0.00     0.183 C 
BRANCH  15  16
ATOM     16  O   UNL     1      -5.002  -6.127   1.445  1.00  0.00    -0.392 OA
ATOM     17  H   UNL     1      -4.214  -6.403   0.907  1.00  0.00     0.210 HD
ENDBRANCH  15  16
ENDBRANCH  13  15
ENDBRANCH  11  12
ENDBRANCH   1  11
TORSDOF 8
ENDMDL
MODEL 8
REMARK VINA RESULT:    -6.584      2.036      4.853
REMARK INTER + INTRA:         -10.764
REMARK INTER:                  -9.171
REMARK INTRA:                  -1.593
REMARK UNBOUND:                -1.293
REMARK SMILES CC(C)=CCCC(C)=CCCC(C)=CCO
REMARK SMILES IDX 10 1 9 2 7 3 8 4 6 5 5 6 4 7 1 8 2 9 3 10 11 11 12 12 14 13
REMARK SMILES IDX 13 14 15 15 16 16
REMARK H PARENT 16 17
REMARK Flexibility Score: inf
ROOT
ATOM      1  C   UNL     1       1.074  -7.193   2.293  1.00  0.00     0.032 C 
ENDROOT
BRANCH   1   2
ATOM      2  C   UNL     1      -0.391  -7.209   1.931  1.00  0.00    -0.028 C 
ATOM      3  C   UNL     1      -1.390  -6.863   2.775  1.00  0.00    -0.077 C 
ATOM      4  C   UNL     1      -1.124  -6.469   4.209  1.00  0.00     0.039 C 
BRANCH   3   5
ATOM      5  C   UNL     1      -2.815  -6.882   2.268  1.00  0.00     0.034 C 
BRANCH   5   6
ATOM      6  C   UNL     1      -3.557  -5.602   2.671  1.00  0.00     0.032 C 
BRANCH   6   7
ATOM      7  C   UNL     1      -2.810  -4.380   2.200  1.00  0.00    -0.028 C 
ATOM      8  C   UNL     1      -3.535  -2.989   4.153  1.00  0.00     0.039 C 
ATOM      9  C   UNL     1      -2.811  -3.190   2.843  1.00  0.00    -0.080 C 
ATOM     10  C   UNL     1      -2.046  -2.043   2.233  1.00  0.00     0.039 C 
ENDBRANCH   6   7
ENDBRANCH   5   6
ENDBRANCH   3   5
ENDBRANCH   1   2
BRANCH   1  11
ATOM     11  C   UNL     1       1.837  -6.191   1.421  1.00  0.00     0.034 C 
BRANCH  11  12
ATOM     12  C   UNL     1       1.462  -4.770   1.781  1.00  0.00    -0.075 C 
ATOM     13  C   UNL     1       1.705  -4.321   3.033  1.00  0.00    -0.000 C 
ATOM     14  C   UNL     1       0.816  -3.892   0.736  1.00  0.00     0.039 C 
BRANCH  13  15
ATOM     15  C   UNL     1       1.368  -2.933   3.506  1.00  0.00     0.183 C 
BRANCH  15  16
ATOM     16  O   UNL     1       0.320  -2.989   4.432  1.00  0.00    -0.392 OA
ATOM     17  H   UNL     1      -0.272  -2.219   4.224  1.00  0.00     0.210 HD
ENDBRANCH  15  16
ENDBRANCH  13  15
ENDBRANCH  11  12
ENDBRANCH   1  11
TORSDOF 8
ENDMDL
MODEL 9
REMARK VINA RESULT:    -6.550      2.789      6.026
REMARK INTER + INTRA:         -10.715
REMARK INTER:                  -9.416
REMARK INTRA:                  -1.299
REMARK UNBOUND:                -1.293
REMARK SMILES CC(C)=CCCC(C)=CCCC(C)=CCO
REMARK SMILES IDX 10 1 9 2 7 3 8 4 6 5 5 6 4 7 1 8 2 9 3 10 11 11 12 12 14 13
REMARK SMILES IDX 13 14 15 15 16 16
REMARK H PARENT 16 17
REMARK Flexibility Score: inf
ROOT
ATOM      1  C   UNL     1       1.382  -7.222   2.051  1.00  0.00     0.032 C 
ENDROOT
BRANCH   1   2
ATOM      2  C   UNL     1       1.537  -5.923   2.803  1.00  0.00    -0.028 C 
ATOM      3  C   UNL     1       1.886  -4.746   2.233  1.00  0.00    -0.077 C 
ATOM      4  C   UNL     1       2.210  -4.637   0.761  1.00  0.00     0.039 C 
BRANCH   3   5
ATOM      5  C   UNL     1       1.962  -3.508   3.098  1.00  0.00     0.034 C 
BRANCH   5   6
ATOM      6  C   UNL     1       0.890  -3.540   4.194  1.00  0.00     0.032 C 
BRANCH   6   7
ATOM      7  C   UNL     1      -0.355  -2.818   3.745  1.00  0.00    -0.028 C 
ATOM      8  C   UNL     1      -1.768  -4.886   3.809  1.00  0.00     0.039 C 
ATOM      9  C   UNL     1      -1.552  -3.415   3.544  1.00  0.00    -0.080 C 
ATOM     10  C   UNL     1      -2.702  -2.570   3.058  1.00  0.00     0.039 C 
ENDBRANCH   6   7
ENDBRANCH   5   6
ENDBRANCH   3   5
ENDBRANCH   1   2
BRANCH   1  11
ATOM     11  C   UNL     1       1.110  -8.379   3.018  1.00  0.00     0.034 C 
BRANCH  11  12
ATOM     12  C   UNL     1      -0.377  -8.567   3.226  1.00  0.00    -0.075 C 
ATOM     13  C   UNL     1      -1.184  -8.685   2.148  1.00  0.00    -0.000 C 
ATOM     14  C   UNL     1      -0.924  -8.608   4.633  1.00  0.00     0.039 C 
BRANCH  13  15
ATOM     15  C   UNL     1      -2.676  -8.866   2.233  1.00  0.00     0.183 C 
BRANCH  15  16
ATOM     16  O   UNL     1      -3.304  -7.616   2.290  1.00  0.00    -0.392 OA
ATOM     17  H   UNL     1      -3.477  -7.440   3.252  1.00  0.00     0.210 HD
ENDBRANCH  15  16
ENDBRANCH  13  15
ENDBRANCH  11  12
ENDBRANCH   1  11
TORSDOF 8
ENDMDL
