MODEL 1
REMARK VINA RESULT:    -7.410      0.000      0.000
REMARK INTER + INTRA:         -11.747
REMARK INTER:                 -10.225
REMARK INTRA:                  -1.522
REMARK UNBOUND:                -1.522
REMARK SMILES CC[C@H](CC[C@@H](C)[C@H]1CC[C@H]2C3=CC[C@H]4C[C@@H](O)CC[C@]4(C)[C@@H]3CC[C@]12C)C(C)C
REMARK SMILES IDX 5 1 4 2 3 3 2 4 1 5 28 6 29 7 30 8 6 9 7 10 8 11 9 12 26 13
REMARK SMILES IDX 10 14 11 15 25 16 27 17 12 18 24 19 23 20 13 21 21 22 14 23
REMARK SMILES IDX 15 24 20 25 22 26 16 27 19 28 17 29 18 30
REMARK H PARENT 18 31
REMARK Flexibility Score: inf
ROOT
ATOM      1  C   UNL     1     188.479 195.385 190.173  1.00  0.00     0.004 C 
ENDROOT
BRANCH   1   2
ATOM      2  C   UNL     1     189.370 196.400 190.913  1.00  0.00     0.004 C 
BRANCH   2   3
ATOM      3  C   UNL     1     188.720 197.814 190.964  1.00  0.00    -0.009 C 
BRANCH   3   4
ATOM      4  C   UNL     1     187.306 197.770 190.311  1.00  0.00     0.000 C 
ATOM      5  C   UNL     1     186.134 197.691 191.304  1.00  0.00     0.004 C 
ENDBRANCH   3   4
BRANCH   3   6
ATOM      6  C   UNL     1     188.736 198.443 192.400  1.00  0.00    -0.014 C 
ATOM      7  C   UNL     1     189.881 197.866 193.267  1.00  0.00     0.007 C 
ATOM      8  C   UNL     1     188.902 199.977 192.343  1.00  0.00     0.007 C 
ENDBRANCH   3   6
ENDBRANCH   2   3
ENDBRANCH   1   2
BRANCH   1   9
ATOM      9  C   UNL     1     188.097 194.190 191.093  1.00  0.00    -0.011 C 
ATOM     10  C   UNL     1     188.067 194.686 192.550  1.00  0.00     0.008 C 
BRANCH   9  11
ATOM     11  C   UNL     1     186.736 193.544 190.672  1.00  0.00    -0.002 C 
ATOM     12  C   UNL     1     186.204 194.096 189.316  1.00  0.00     0.005 C 
ATOM     13  C   UNL     1     186.710 191.996 190.482  1.00  0.00    -0.023 C 
ATOM     14  C   UNL     1     185.540 192.934 188.571  1.00  0.00     0.009 C 
ATOM     15  C   UNL     1     185.440 191.844 189.626  1.00  0.00     0.021 C 
ATOM     16  C   UNL     1     186.548 191.161 191.803  1.00  0.00     0.008 C 
ATOM     17  C   UNL     1     187.977 191.512 189.701  1.00  0.00     0.012 C 
ATOM     18  C   UNL     1     185.226 190.403 189.224  1.00  0.00    -0.067 C 
ATOM     19  C   UNL     1     185.468 190.045 191.728  1.00  0.00     0.009 C 
ATOM     20  C   UNL     1     185.393 189.356 190.333  1.00  0.00     0.021 C 
ATOM     21  C   UNL     1     184.908 190.025 187.968  1.00  0.00    -0.027 C 
ATOM     22  C   UNL     1     184.410 188.089 190.214  1.00  0.00    -0.023 C 
ATOM     23  C   UNL     1     184.508 188.600 187.704  1.00  0.00     0.031 C 
ATOM     24  C   UNL     1     183.613 188.154 188.868  1.00  0.00     0.002 C 
ATOM     25  C   UNL     1     183.313 188.049 191.341  1.00  0.00     0.010 C 
ATOM     26  C   UNL     1     185.293 186.785 190.303  1.00  0.00     0.012 C 
ATOM     27  C   UNL     1     182.787 186.881 188.566  1.00  0.00     0.036 C 
ATOM     28  C   UNL     1     182.016 187.261 190.994  1.00  0.00     0.032 C 
ATOM     29  C   UNL     1     182.137 186.260 189.831  1.00  0.00     0.114 C 
BRANCH  29  30
ATOM     30  O   UNL     1     182.865 185.132 190.251  1.00  0.00    -0.393 OA
ATOM     31  H   UNL     1     183.563 185.446 190.884  1.00  0.00     0.210 HD
ENDBRANCH  29  30
ENDBRANCH   9  11
ENDBRANCH   1   9
TORSDOF 7
ENDMDL
MODEL 2
REMARK VINA RESULT:    -7.215      1.316      1.691
REMARK INTER + INTRA:         -11.478
REMARK INTER:                 -10.522
REMARK INTRA:                  -0.957
REMARK UNBOUND:                -1.522
REMARK SMILES CC[C@H](CC[C@@H](C)[C@H]1CC[C@H]2C3=CC[C@H]4C[C@@H](O)CC[C@]4(C)[C@@H]3CC[C@]12C)C(C)C
REMARK SMILES IDX 5 1 4 2 3 3 2 4 1 5 28 6 29 7 30 8 6 9 7 10 8 11 9 12 26 13
REMARK SMILES IDX 10 14 11 15 25 16 27 17 12 18 24 19 23 20 13 21 21 22 14 23
REMARK SMILES IDX 15 24 20 25 22 26 16 27 19 28 17 29 18 30
REMARK H PARENT 18 31
REMARK Flexibility Score: inf
ROOT
ATOM      1  C   UNL     1     187.742 195.988 191.076  1.00  0.00     0.004 C 
ENDROOT
BRANCH   1   2
ATOM      2  C   UNL     1     186.670 196.488 192.064  1.00  0.00     0.004 C 
BRANCH   2   3
ATOM      3  C   UNL     1     187.268 197.456 193.127  1.00  0.00    -0.009 C 
BRANCH   3   4
ATOM      4  C   UNL     1     186.708 198.893 192.909  1.00  0.00     0.000 C 
ATOM      5  C   UNL     1     187.045 199.521 191.546  1.00  0.00     0.004 C 
ENDBRANCH   3   4
BRANCH   3   6
ATOM      6  C   UNL     1     187.106 196.927 194.594  1.00  0.00    -0.014 C 
ATOM      7  C   UNL     1     186.914 198.085 195.603  1.00  0.00     0.007 C 
ATOM      8  C   UNL     1     185.898 195.974 194.721  1.00  0.00     0.007 C 
ENDBRANCH   3   6
ENDBRANCH   2   3
ENDBRANCH   1   2
BRANCH   1   9
ATOM      9  C   UNL     1     187.871 194.439 191.118  1.00  0.00    -0.011 C 
ATOM     10  C   UNL     1     188.282 194.021 192.542  1.00  0.00     0.008 C 
BRANCH   9  11
ATOM     11  C   UNL     1     186.550 193.733 190.665  1.00  0.00    -0.002 C 
ATOM     12  C   UNL     1     186.049 194.231 189.277  1.00  0.00     0.005 C 
ATOM     13  C   UNL     1     186.587 192.181 190.515  1.00  0.00    -0.023 C 
ATOM     14  C   UNL     1     185.456 193.027 188.539  1.00  0.00     0.009 C 
ATOM     15  C   UNL     1     185.356 191.961 189.617  1.00  0.00     0.021 C 
ATOM     16  C   UNL     1     186.405 191.373 191.851  1.00  0.00     0.008 C 
ATOM     17  C   UNL     1     187.899 191.724 189.794  1.00  0.00     0.012 C 
ATOM     18  C   UNL     1     185.208 190.503 189.245  1.00  0.00    -0.067 C 
ATOM     19  C   UNL     1     185.369 190.216 191.766  1.00  0.00     0.009 C 
ATOM     20  C   UNL     1     185.371 189.491 190.387  1.00  0.00     0.021 C 
ATOM     21  C   UNL     1     184.952 190.083 187.989  1.00  0.00    -0.027 C 
ATOM     22  C   UNL     1     184.439 188.186 190.265  1.00  0.00    -0.023 C 
ATOM     23  C   UNL     1     184.613 188.637 187.748  1.00  0.00     0.031 C 
ATOM     24  C   UNL     1     183.691 188.188 188.889  1.00  0.00     0.002 C 
ATOM     25  C   UNL     1     183.303 188.134 191.352  1.00  0.00     0.010 C 
ATOM     26  C   UNL     1     185.364 186.918 190.421  1.00  0.00     0.012 C 
ATOM     27  C   UNL     1     182.923 186.878 188.591  1.00  0.00     0.036 C 
ATOM     28  C   UNL     1     182.049 187.291 190.979  1.00  0.00     0.032 C 
ATOM     29  C   UNL     1     182.249 186.266 189.847  1.00  0.00     0.114 C 
BRANCH  29  30
ATOM     30  O   UNL     1     183.001 185.176 190.324  1.00  0.00    -0.393 OA
ATOM     31  H   UNL     1     183.603 185.517 191.035  1.00  0.00     0.210 HD
ENDBRANCH  29  30
ENDBRANCH   9  11
ENDBRANCH   1   9
TORSDOF 7
ENDMDL
MODEL 3
REMARK VINA RESULT:    -7.177      1.454      2.518
REMARK INTER + INTRA:         -11.427
REMARK INTER:                  -9.414
REMARK INTRA:                  -2.012
REMARK UNBOUND:                -1.522
REMARK SMILES CC[C@H](CC[C@@H](C)[C@H]1CC[C@H]2C3=CC[C@H]4C[C@@H](O)CC[C@]4(C)[C@@H]3CC[C@]12C)C(C)C
REMARK SMILES IDX 5 1 4 2 3 3 2 4 1 5 28 6 29 7 30 8 6 9 7 10 8 11 9 12 26 13
REMARK SMILES IDX 10 14 11 15 25 16 27 17 12 18 24 19 23 20 13 21 21 22 14 23
REMARK SMILES IDX 15 24 20 25 22 26 16 27 19 28 17 29 18 30
REMARK H PARENT 18 31
REMARK Flexibility Score: inf
ROOT
ATOM      1  C   UNL     1     188.143 195.826 190.299  1.00  0.00     0.004 C 
ENDROOT
BRANCH   1   2
ATOM      2  C   UNL     1     189.671 195.968 190.160  1.00  0.00     0.004 C 
BRANCH   2   3
ATOM      3  C   UNL     1     190.376 194.583 190.071  1.00  0.00    -0.009 C 
BRANCH   3   4
ATOM      4  C   UNL     1     191.009 194.400 188.659  1.00  0.00     0.000 C 
ATOM      5  C   UNL     1     191.135 192.941 188.189  1.00  0.00     0.004 C 
ENDBRANCH   3   4
BRANCH   3   6
ATOM      6  C   UNL     1     191.375 194.329 191.252  1.00  0.00    -0.014 C 
ATOM      7  C   UNL     1     191.343 195.478 192.288  1.00  0.00     0.007 C 
ATOM      8  C   UNL     1     191.056 193.010 191.988  1.00  0.00     0.007 C 
ENDBRANCH   3   6
ENDBRANCH   2   3
ENDBRANCH   1   2
BRANCH   1   9
ATOM      9  C   UNL     1     187.767 194.614 191.197  1.00  0.00    -0.011 C 
ATOM     10  C   UNL     1     187.581 195.115 192.642  1.00  0.00     0.008 C 
BRANCH   9  11
ATOM     11  C   UNL     1     186.493 193.874 190.672  1.00  0.00    -0.002 C 
ATOM     12  C   UNL     1     186.093 194.316 189.233  1.00  0.00     0.005 C 
ATOM     13  C   UNL     1     186.557 192.318 190.582  1.00  0.00    -0.023 C 
ATOM     14  C   UNL     1     185.570 193.078 188.496  1.00  0.00     0.009 C 
ATOM     15  C   UNL     1     185.401 192.050 189.603  1.00  0.00     0.021 C 
ATOM     16  C   UNL     1     186.283 191.556 191.929  1.00  0.00     0.008 C 
ATOM     17  C   UNL     1     187.925 191.855 189.978  1.00  0.00     0.012 C 
ATOM     18  C   UNL     1     185.297 190.578 189.274  1.00  0.00    -0.067 C 
ATOM     19  C   UNL     1     185.270 190.383 191.808  1.00  0.00     0.009 C 
ATOM     20  C   UNL     1     185.385 189.610 190.460  1.00  0.00     0.021 C 
ATOM     21  C   UNL     1     185.142 190.111 188.018  1.00  0.00    -0.027 C 
ATOM     22  C   UNL     1     184.478 188.289 190.316  1.00  0.00    -0.023 C 
ATOM     23  C   UNL     1     184.838 188.653 187.805  1.00  0.00     0.031 C 
ATOM     24  C   UNL     1     183.837 188.231 188.889  1.00  0.00     0.002 C 
ATOM     25  C   UNL     1     183.265 188.259 191.316  1.00  0.00     0.010 C 
ATOM     26  C   UNL     1     185.403 187.040 190.587  1.00  0.00     0.012 C 
ATOM     27  C   UNL     1     183.109 186.902 188.581  1.00  0.00     0.036 C 
ATOM     28  C   UNL     1     182.051 187.386 190.880  1.00  0.00     0.032 C 
ATOM     29  C   UNL     1     182.348 186.325 189.805  1.00  0.00     0.114 C 
BRANCH  29  30
ATOM     30  O   UNL     1     183.073 185.263 190.376  1.00  0.00    -0.393 OA
ATOM     31  H   UNL     1     183.546 184.795 189.639  1.00  0.00     0.210 HD
ENDBRANCH  29  30
ENDBRANCH   9  11
ENDBRANCH   1   9
TORSDOF 7
ENDMDL
MODEL 4
REMARK VINA RESULT:    -7.043      2.973      9.301
REMARK INTER + INTRA:         -11.241
REMARK INTER:                 -10.343
REMARK INTRA:                  -0.898
REMARK UNBOUND:                -1.522
REMARK SMILES CC[C@H](CC[C@@H](C)[C@H]1CC[C@H]2C3=CC[C@H]4C[C@@H](O)CC[C@]4(C)[C@@H]3CC[C@]12C)C(C)C
REMARK SMILES IDX 5 1 4 2 3 3 2 4 1 5 28 6 29 7 30 8 6 9 7 10 8 11 9 12 26 13
REMARK SMILES IDX 10 14 11 15 25 16 27 17 12 18 24 19 23 20 13 21 21 22 14 23
REMARK SMILES IDX 15 24 20 25 22 26 16 27 19 28 17 29 18 30
REMARK H PARENT 18 31
REMARK Flexibility Score: inf
ROOT
ATOM      1  C   UNL     1     184.018 188.515 188.734  1.00  0.00     0.004 C 
ENDROOT
BRANCH   1   2
ATOM      2  C   UNL     1     184.768 187.425 189.524  1.00  0.00     0.004 C 
BRANCH   2   3
ATOM      3  C   UNL     1     183.878 186.804 190.640  1.00  0.00    -0.009 C 
BRANCH   3   4
ATOM      4  C   UNL     1     182.861 185.805 190.012  1.00  0.00     0.000 C 
ATOM      5  C   UNL     1     181.381 186.143 190.262  1.00  0.00     0.004 C 
ENDBRANCH   3   4
BRANCH   3   6
ATOM      6  C   UNL     1     184.713 186.199 191.822  1.00  0.00    -0.014 C 
ATOM      7  C   UNL     1     185.363 184.849 191.433  1.00  0.00     0.007 C 
ATOM      8  C   UNL     1     185.834 187.160 192.271  1.00  0.00     0.007 C 
ENDBRANCH   3   6
ENDBRANCH   2   3
ENDBRANCH   1   2
BRANCH   1   9
ATOM      9  C   UNL     1     184.947 189.719 188.409  1.00  0.00    -0.011 C 
ATOM     10  C   UNL     1     184.615 190.223 186.992  1.00  0.00     0.008 C 
BRANCH   9  11
ATOM     11  C   UNL     1     184.819 190.857 189.474  1.00  0.00    -0.002 C 
ATOM     12  C   UNL     1     184.685 190.308 190.925  1.00  0.00     0.005 C 
ATOM     13  C   UNL     1     185.991 191.882 189.568  1.00  0.00    -0.023 C 
ATOM     14  C   UNL     1     185.452 191.256 191.853  1.00  0.00     0.009 C 
ATOM     15  C   UNL     1     185.740 192.461 190.971  1.00  0.00     0.021 C 
ATOM     16  C   UNL     1     185.951 193.045 188.512  1.00  0.00     0.008 C 
ATOM     17  C   UNL     1     187.373 191.150 189.499  1.00  0.00     0.012 C 
ATOM     18  C   UNL     1     186.818 193.450 191.351  1.00  0.00    -0.067 C 
ATOM     19  C   UNL     1     186.175 194.463 189.111  1.00  0.00     0.009 C 
ATOM     20  C   UNL     1     187.203 194.479 190.281  1.00  0.00     0.021 C 
ATOM     21  C   UNL     1     187.429 193.452 192.554  1.00  0.00    -0.027 C 
ATOM     22  C   UNL     1     187.607 195.926 190.856  1.00  0.00    -0.023 C 
ATOM     23  C   UNL     1     188.335 194.595 192.921  1.00  0.00     0.031 C 
ATOM     24  C   UNL     1     187.669 195.884 192.420  1.00  0.00     0.002 C 
ATOM     25  C   UNL     1     186.553 197.043 190.515  1.00  0.00     0.010 C 
ATOM     26  C   UNL     1     189.000 196.320 190.230  1.00  0.00     0.012 C 
ATOM     27  C   UNL     1     188.242 197.171 193.060  1.00  0.00     0.036 C 
ATOM     28  C   UNL     1     186.531 198.268 191.477  1.00  0.00     0.032 C 
ATOM     29  C   UNL     1     187.797 198.466 192.330  1.00  0.00     0.114 C 
BRANCH  29  30
ATOM     30  O   UNL     1     188.841 198.954 191.522  1.00  0.00    -0.393 OA
ATOM     31  H   UNL     1     188.697 198.603 190.604  1.00  0.00     0.210 HD
ENDBRANCH  29  30
ENDBRANCH   9  11
ENDBRANCH   1   9
TORSDOF 7
ENDMDL
MODEL 5
REMARK VINA RESULT:    -7.018      4.717      8.587
REMARK INTER + INTRA:         -11.207
REMARK INTER:                  -9.833
REMARK INTRA:                  -1.374
REMARK UNBOUND:                -1.522
REMARK SMILES CC[C@H](CC[C@@H](C)[C@H]1CC[C@H]2C3=CC[C@H]4C[C@@H](O)CC[C@]4(C)[C@@H]3CC[C@]12C)C(C)C
REMARK SMILES IDX 5 1 4 2 3 3 2 4 1 5 28 6 29 7 30 8 6 9 7 10 8 11 9 12 26 13
REMARK SMILES IDX 10 14 11 15 25 16 27 17 12 18 24 19 23 20 13 21 21 22 14 23
REMARK SMILES IDX 15 24 20 25 22 26 16 27 19 28 17 29 18 30
REMARK H PARENT 18 31
REMARK Flexibility Score: inf
ROOT
ATOM      1  C   UNL     1     183.536 189.664 190.786  1.00  0.00     0.004 C 
ENDROOT
BRANCH   1   2
ATOM      2  C   UNL     1     184.331 188.687 191.674  1.00  0.00     0.004 C 
BRANCH   2   3
ATOM      3  C   UNL     1     183.897 187.210 191.443  1.00  0.00    -0.009 C 
BRANCH   3   4
ATOM      4  C   UNL     1     182.629 187.166 190.538  1.00  0.00     0.000 C 
ATOM      5  C   UNL     1     182.763 186.299 189.275  1.00  0.00     0.004 C 
ENDBRANCH   3   4
BRANCH   3   6
ATOM      6  C   UNL     1     185.069 186.300 190.937  1.00  0.00    -0.014 C 
ATOM      7  C   UNL     1     186.373 187.106 190.730  1.00  0.00     0.007 C 
ATOM      8  C   UNL     1     185.364 185.155 191.930  1.00  0.00     0.007 C 
ENDBRANCH   3   6
ENDBRANCH   2   3
ENDBRANCH   1   2
BRANCH   1   9
ATOM      9  C   UNL     1     184.484 190.582 189.965  1.00  0.00    -0.011 C 
ATOM     10  C   UNL     1     185.511 191.209 190.926  1.00  0.00     0.008 C 
BRANCH   9  11
ATOM     11  C   UNL     1     185.180 189.806 188.799  1.00  0.00    -0.002 C 
ATOM     12  C   UNL     1     184.203 189.471 187.633  1.00  0.00     0.005 C 
ATOM     13  C   UNL     1     186.380 190.507 188.091  1.00  0.00    -0.023 C 
ATOM     14  C   UNL     1     184.982 189.605 186.321  1.00  0.00     0.009 C 
ATOM     15  C   UNL     1     186.429 189.711 186.775  1.00  0.00     0.021 C 
ATOM     16  C   UNL     1     187.763 190.377 188.827  1.00  0.00     0.008 C 
ATOM     17  C   UNL     1     186.061 192.016 187.825  1.00  0.00     0.012 C 
ATOM     18  C   UNL     1     187.487 190.261 185.846  1.00  0.00    -0.067 C 
ATOM     19  C   UNL     1     188.942 189.954 187.907  1.00  0.00     0.009 C 
ATOM     20  C   UNL     1     188.853 190.563 186.476  1.00  0.00     0.021 C 
ATOM     21  C   UNL     1     187.272 190.489 184.534  1.00  0.00    -0.027 C 
ATOM     22  C   UNL     1     190.110 190.300 185.508  1.00  0.00    -0.023 C 
ATOM     23  C   UNL     1     188.435 190.836 183.644  1.00  0.00     0.031 C 
ATOM     24  C   UNL     1     189.613 189.948 184.066  1.00  0.00     0.002 C 
ATOM     25  C   UNL     1     190.988 189.073 185.954  1.00  0.00     0.010 C 
ATOM     26  C   UNL     1     191.000 191.603 185.513  1.00  0.00     0.012 C 
ATOM     27  C   UNL     1     190.744 189.873 183.013  1.00  0.00     0.036 C 
ATOM     28  C   UNL     1     191.820 188.394 184.827  1.00  0.00     0.032 C 
ATOM     29  C   UNL     1     192.051 189.244 183.565  1.00  0.00     0.114 C 
BRANCH  29  30
ATOM     30  O   UNL     1     192.999 190.248 183.839  1.00  0.00    -0.393 OA
ATOM     31  H   UNL     1     192.888 190.512 184.790  1.00  0.00     0.210 HD
ENDBRANCH  29  30
ENDBRANCH   9  11
ENDBRANCH   1   9
TORSDOF 7
ENDMDL
MODEL 6
REMARK VINA RESULT:    -6.954      3.044      9.031
REMARK INTER + INTRA:         -11.118
REMARK INTER:                  -9.302
REMARK INTRA:                  -1.816
REMARK UNBOUND:                -1.522
REMARK SMILES CC[C@H](CC[C@@H](C)[C@H]1CC[C@H]2C3=CC[C@H]4C[C@@H](O)CC[C@]4(C)[C@@H]3CC[C@]12C)C(C)C
REMARK SMILES IDX 5 1 4 2 3 3 2 4 1 5 28 6 29 7 30 8 6 9 7 10 8 11 9 12 26 13
REMARK SMILES IDX 10 14 11 15 25 16 27 17 12 18 24 19 23 20 13 21 21 22 14 23
REMARK SMILES IDX 15 24 20 25 22 26 16 27 19 28 17 29 18 30
REMARK H PARENT 18 31
REMARK Flexibility Score: inf
ROOT
ATOM      1  C   UNL     1     183.979 188.287 189.012  1.00  0.00     0.004 C 
ENDROOT
BRANCH   1   2
ATOM      2  C   UNL     1     184.869 187.031 189.073  1.00  0.00     0.004 C 
BRANCH   2   3
ATOM      3  C   UNL     1     185.539 186.863 190.468  1.00  0.00    -0.009 C 
BRANCH   3   4
ATOM      4  C   UNL     1     184.947 185.618 191.194  1.00  0.00     0.000 C 
ATOM      5  C   UNL     1     185.355 185.472 192.670  1.00  0.00     0.004 C 
ENDBRANCH   3   4
BRANCH   3   6
ATOM      6  C   UNL     1     187.105 186.872 190.399  1.00  0.00    -0.014 C 
ATOM      7  C   UNL     1     187.615 187.156 188.966  1.00  0.00     0.007 C 
ATOM      8  C   UNL     1     187.706 187.936 191.343  1.00  0.00     0.007 C 
ENDBRANCH   3   6
ENDBRANCH   2   3
ENDBRANCH   1   2
BRANCH   1   9
ATOM      9  C   UNL     1     184.789 189.532 188.550  1.00  0.00    -0.011 C 
ATOM     10  C   UNL     1     184.259 189.976 187.173  1.00  0.00     0.008 C 
BRANCH   9  11
ATOM     11  C   UNL     1     184.721 190.691 189.598  1.00  0.00    -0.002 C 
ATOM     12  C   UNL     1     184.656 190.171 191.065  1.00  0.00     0.005 C 
ATOM     13  C   UNL     1     185.905 191.707 189.614  1.00  0.00    -0.023 C 
ATOM     14  C   UNL     1     185.475 191.130 191.934  1.00  0.00     0.009 C 
ATOM     15  C   UNL     1     185.728 192.315 191.017  1.00  0.00     0.021 C 
ATOM     16  C   UNL     1     185.821 192.851 188.540  1.00  0.00     0.008 C 
ATOM     17  C   UNL     1     187.276 190.963 189.491  1.00  0.00     0.012 C 
ATOM     18  C   UNL     1     186.830 193.302 191.324  1.00  0.00    -0.067 C 
ATOM     19  C   UNL     1     186.085 194.278 189.099  1.00  0.00     0.009 C 
ATOM     20  C   UNL     1     187.169 194.308 190.217  1.00  0.00     0.021 C 
ATOM     21  C   UNL     1     187.501 193.321 192.495  1.00  0.00    -0.027 C 
ATOM     22  C   UNL     1     187.612 195.762 190.743  1.00  0.00    -0.023 C 
ATOM     23  C   UNL     1     188.432 194.464 192.795  1.00  0.00     0.031 C 
ATOM     24  C   UNL     1     187.751 195.748 192.302  1.00  0.00     0.002 C 
ATOM     25  C   UNL     1     186.551 196.881 190.433  1.00  0.00     0.010 C 
ATOM     26  C   UNL     1     188.975 196.133 190.042  1.00  0.00     0.012 C 
ATOM     27  C   UNL     1     188.364 197.042 192.889  1.00  0.00     0.036 C 
ATOM     28  C   UNL     1     186.586 198.123 191.371  1.00  0.00     0.032 C 
ATOM     29  C   UNL     1     187.894 198.327 192.157  1.00  0.00     0.114 C 
BRANCH  29  30
ATOM     30  O   UNL     1     188.899 198.792 191.289  1.00  0.00    -0.393 OA
ATOM     31  H   UNL     1     189.119 199.722 191.558  1.00  0.00     0.210 HD
ENDBRANCH  29  30
ENDBRANCH   9  11
ENDBRANCH   1   9
TORSDOF 7
ENDMDL
MODEL 7
REMARK VINA RESULT:    -6.859      3.206      5.979
REMARK INTER + INTRA:         -10.987
REMARK INTER:                  -8.871
REMARK INTRA:                  -2.116
REMARK UNBOUND:                -1.522
REMARK SMILES CC[C@H](CC[C@@H](C)[C@H]1CC[C@H]2C3=CC[C@H]4C[C@@H](O)CC[C@]4(C)[C@@H]3CC[C@]12C)C(C)C
REMARK SMILES IDX 5 1 4 2 3 3 2 4 1 5 28 6 29 7 30 8 6 9 7 10 8 11 9 12 26 13
REMARK SMILES IDX 10 14 11 15 25 16 27 17 12 18 24 19 23 20 13 21 21 22 14 23
REMARK SMILES IDX 15 24 20 25 22 26 16 27 19 28 17 29 18 30
REMARK H PARENT 18 31
REMARK Flexibility Score: inf
ROOT
ATOM      1  C   UNL     1     185.154 191.137 187.969  1.00  0.00     0.004 C 
ENDROOT
BRANCH   1   2
ATOM      2  C   UNL     1     186.183 192.283 188.004  1.00  0.00     0.004 C 
BRANCH   2   3
ATOM      3  C   UNL     1     187.165 192.145 189.204  1.00  0.00    -0.009 C 
BRANCH   3   4
ATOM      4  C   UNL     1     188.611 191.898 188.679  1.00  0.00     0.000 C 
ATOM      5  C   UNL     1     189.383 190.783 189.405  1.00  0.00     0.004 C 
ENDBRANCH   3   4
BRANCH   3   6
ATOM      6  C   UNL     1     187.054 193.330 190.224  1.00  0.00    -0.014 C 
ATOM      7  C   UNL     1     186.081 194.426 189.728  1.00  0.00     0.007 C 
ATOM      8  C   UNL     1     186.564 192.842 191.605  1.00  0.00     0.007 C 
ENDBRANCH   3   6
ENDBRANCH   2   3
ENDBRANCH   1   2
BRANCH   1   9
ATOM      9  C   UNL     1     185.207 190.289 189.272  1.00  0.00    -0.011 C 
ATOM     10  C   UNL     1     183.867 190.450 190.014  1.00  0.00     0.008 C 
BRANCH   9  11
ATOM     11  C   UNL     1     185.529 188.787 188.976  1.00  0.00    -0.002 C 
ATOM     12  C   UNL     1     186.691 188.614 187.952  1.00  0.00     0.005 C 
ATOM     13  C   UNL     1     185.959 187.899 190.183  1.00  0.00    -0.023 C 
ATOM     14  C   UNL     1     187.511 187.394 188.383  1.00  0.00     0.009 C 
ATOM     15  C   UNL     1     186.641 186.735 189.441  1.00  0.00     0.021 C 
ATOM     16  C   UNL     1     184.779 187.336 191.056  1.00  0.00     0.008 C 
ATOM     17  C   UNL     1     186.979 188.659 191.096  1.00  0.00     0.012 C 
ATOM     18  C   UNL     1     187.234 185.743 190.415  1.00  0.00    -0.067 C 
ATOM     19  C   UNL     1     184.879 185.817 191.368  1.00  0.00     0.009 C 
ATOM     20  C   UNL     1     186.342 185.332 191.593  1.00  0.00     0.021 C 
ATOM     21  C   UNL     1     188.477 185.234 190.286  1.00  0.00    -0.027 C 
ATOM     22  C   UNL     1     186.523 183.806 192.070  1.00  0.00    -0.023 C 
ATOM     23  C   UNL     1     188.907 184.100 191.177  1.00  0.00     0.031 C 
ATOM     24  C   UNL     1     187.715 183.142 191.303  1.00  0.00     0.002 C 
ATOM     25  C   UNL     1     185.274 182.906 191.750  1.00  0.00     0.010 C 
ATOM     26  C   UNL     1     186.769 183.816 193.628  1.00  0.00     0.012 C 
ATOM     27  C   UNL     1     188.098 181.739 191.832  1.00  0.00     0.036 C 
ATOM     28  C   UNL     1     185.556 181.380 191.620  1.00  0.00     0.032 C 
ATOM     29  C   UNL     1     186.870 180.890 192.254  1.00  0.00     0.114 C 
BRANCH  29  30
ATOM     30  O   UNL     1     186.742 180.878 193.656  1.00  0.00    -0.393 OA
ATOM     31  H   UNL     1     187.254 181.652 194.009  1.00  0.00     0.210 HD
ENDBRANCH  29  30
ENDBRANCH   9  11
ENDBRANCH   1   9
TORSDOF 7
ENDMDL
MODEL 8
REMARK VINA RESULT:    -6.712      2.220      3.359
REMARK INTER + INTRA:         -10.784
REMARK INTER:                  -9.297
REMARK INTRA:                  -1.487
REMARK UNBOUND:                -1.522
REMARK SMILES CC[C@H](CC[C@@H](C)[C@H]1CC[C@H]2C3=CC[C@H]4C[C@@H](O)CC[C@]4(C)[C@@H]3CC[C@]12C)C(C)C
REMARK SMILES IDX 5 1 4 2 3 3 2 4 1 5 28 6 29 7 30 8 6 9 7 10 8 11 9 12 26 13
REMARK SMILES IDX 10 14 11 15 25 16 27 17 12 18 24 19 23 20 13 21 21 22 14 23
REMARK SMILES IDX 15 24 20 25 22 26 16 27 19 28 17 29 18 30
REMARK H PARENT 18 31
REMARK Flexibility Score: inf
ROOT
ATOM      1  C   UNL     1     188.569 197.359 193.333  1.00  0.00     0.004 C 
ENDROOT
BRANCH   1   2
ATOM      2  C   UNL     1     187.953 197.518 194.736  1.00  0.00     0.004 C 
BRANCH   2   3
ATOM      3  C   UNL     1     186.499 198.070 194.672  1.00  0.00    -0.009 C 
BRANCH   3   4
ATOM      4  C   UNL     1     185.578 197.249 195.624  1.00  0.00     0.000 C 
ATOM      5  C   UNL     1     185.666 195.723 195.456  1.00  0.00     0.004 C 
ENDBRANCH   3   4
BRANCH   3   6
ATOM      6  C   UNL     1     186.422 199.619 194.895  1.00  0.00    -0.014 C 
ATOM      7  C   UNL     1     185.104 200.035 195.592  1.00  0.00     0.007 C 
ATOM      8  C   UNL     1     187.600 200.125 195.755  1.00  0.00     0.007 C 
ENDBRANCH   3   6
ENDBRANCH   2   3
ENDBRANCH   1   2
BRANCH   1   9
ATOM      9  C   UNL     1     188.762 195.861 192.965  1.00  0.00    -0.011 C 
ATOM     10  C   UNL     1     189.192 195.099 194.233  1.00  0.00     0.008 C 
BRANCH   9  11
ATOM     11  C   UNL     1     187.472 195.246 192.329  1.00  0.00    -0.002 C 
ATOM     12  C   UNL     1     186.726 196.249 191.400  1.00  0.00     0.005 C 
ATOM     13  C   UNL     1     187.650 193.975 191.443  1.00  0.00    -0.023 C 
ATOM     14  C   UNL     1     186.161 195.454 190.218  1.00  0.00     0.009 C 
ATOM     15  C   UNL     1     186.332 194.007 190.648  1.00  0.00     0.021 C 
ATOM     16  C   UNL     1     187.749 192.618 192.228  1.00  0.00     0.008 C 
ATOM     17  C   UNL     1     188.884 194.130 190.493  1.00  0.00     0.012 C 
ATOM     18  C   UNL     1     186.286 192.892 189.628  1.00  0.00    -0.067 C 
ATOM     19  C   UNL     1     186.840 191.486 191.672  1.00  0.00     0.009 C 
ATOM     20  C   UNL     1     186.719 191.504 190.119  1.00  0.00     0.021 C 
ATOM     21  C   UNL     1     185.896 193.075 188.350  1.00  0.00    -0.027 C 
ATOM     22  C   UNL     1     185.921 190.278 189.451  1.00  0.00    -0.023 C 
ATOM     23  C   UNL     1     185.681 191.879 187.464  1.00  0.00     0.031 C 
ATOM     24  C   UNL     1     184.986 190.803 188.310  1.00  0.00     0.002 C 
ATOM     25  C   UNL     1     184.967 189.538 190.459  1.00  0.00     0.010 C 
ATOM     26  C   UNL     1     186.988 189.254 188.900  1.00  0.00     0.012 C 
ATOM     27  C   UNL     1     184.326 189.682 187.473  1.00  0.00     0.036 C 
ATOM     28  C   UNL     1     183.768 188.778 189.820  1.00  0.00     0.032 C 
ATOM     29  C   UNL     1     183.908 188.452 188.322  1.00  0.00     0.114 C 
BRANCH  29  30
ATOM     30  O   UNL     1     184.832 187.404 188.151  1.00  0.00    -0.393 OA
ATOM     31  H   UNL     1     185.420 187.391 188.951  1.00  0.00     0.210 HD
ENDBRANCH  29  30
ENDBRANCH   9  11
ENDBRANCH   1   9
TORSDOF 7
ENDMDL
MODEL 9
REMARK VINA RESULT:    -6.704      2.080      4.275
REMARK INTER + INTRA:         -10.773
REMARK INTER:                  -8.550
REMARK INTRA:                  -2.223
REMARK UNBOUND:                -1.522
REMARK SMILES CC[C@H](CC[C@@H](C)[C@H]1CC[C@H]2C3=CC[C@H]4C[C@@H](O)CC[C@]4(C)[C@@H]3CC[C@]12C)C(C)C
REMARK SMILES IDX 5 1 4 2 3 3 2 4 1 5 28 6 29 7 30 8 6 9 7 10 8 11 9 12 26 13
REMARK SMILES IDX 10 14 11 15 25 16 27 17 12 18 24 19 23 20 13 21 21 22 14 23
REMARK SMILES IDX 15 24 20 25 22 26 16 27 19 28 17 29 18 30
REMARK H PARENT 18 31
REMARK Flexibility Score: inf
ROOT
ATOM      1  C   UNL     1     189.698 197.716 192.538  1.00  0.00     0.004 C 
ENDROOT
BRANCH   1   2
ATOM      2  C   UNL     1     189.335 198.137 193.975  1.00  0.00     0.004 C 
BRANCH   2   3
ATOM      3  C   UNL     1     188.347 197.134 194.639  1.00  0.00    -0.009 C 
BRANCH   3   4
ATOM      4  C   UNL     1     189.121 196.192 195.609  1.00  0.00     0.000 C 
ATOM      5  C   UNL     1     189.074 194.700 195.241  1.00  0.00     0.004 C 
ENDBRANCH   3   4
BRANCH   3   6
ATOM      6  C   UNL     1     187.108 197.837 195.293  1.00  0.00    -0.014 C 
ATOM      7  C   UNL     1     186.696 199.111 194.517  1.00  0.00     0.007 C 
ATOM      8  C   UNL     1     185.888 196.894 195.351  1.00  0.00     0.007 C 
ENDBRANCH   3   6
ENDBRANCH   2   3
ENDBRANCH   1   2
BRANCH   1   9
ATOM      9  C   UNL     1     188.434 197.305 191.731  1.00  0.00    -0.011 C 
ATOM     10  C   UNL     1     188.066 198.458 190.779  1.00  0.00     0.008 C 
BRANCH   9  11
ATOM     11  C   UNL     1     188.649 195.962 190.958  1.00  0.00    -0.002 C 
ATOM     12  C   UNL     1     189.840 195.130 191.521  1.00  0.00     0.005 C 
ATOM     13  C   UNL     1     187.461 194.951 190.942  1.00  0.00    -0.023 C 
ATOM     14  C   UNL     1     189.452 193.650 191.438  1.00  0.00     0.009 C 
ATOM     15  C   UNL     1     188.205 193.657 190.569  1.00  0.00     0.021 C 
ATOM     16  C   UNL     1     186.350 195.239 189.868  1.00  0.00     0.008 C 
ATOM     17  C   UNL     1     186.810 194.838 192.361  1.00  0.00     0.012 C 
ATOM     18  C   UNL     1     187.266 192.472 190.565  1.00  0.00    -0.067 C 
ATOM     19  C   UNL     1     185.928 193.997 189.033  1.00  0.00     0.009 C 
ATOM     20  C   UNL     1     185.919 192.676 189.859  1.00  0.00     0.021 C 
ATOM     21  C   UNL     1     187.563 191.291 191.144  1.00  0.00    -0.027 C 
ATOM     22  C   UNL     1     185.348 191.371 189.112  1.00  0.00    -0.023 C 
ATOM     23  C   UNL     1     186.665 190.107 190.912  1.00  0.00     0.031 C 
ATOM     24  C   UNL     1     186.249 190.132 189.434  1.00  0.00     0.002 C 
ATOM     25  C   UNL     1     185.366 191.498 187.545  1.00  0.00     0.010 C 
ATOM     26  C   UNL     1     183.863 191.150 189.598  1.00  0.00     0.012 C 
ATOM     27  C   UNL     1     185.674 188.789 188.926  1.00  0.00     0.036 C 
ATOM     28  C   UNL     1     185.409 190.155 186.759  1.00  0.00     0.032 C 
ATOM     29  C   UNL     1     184.971 188.908 187.548  1.00  0.00     0.114 C 
BRANCH  29  30
ATOM     30  O   UNL     1     183.573 188.917 187.711  1.00  0.00    -0.393 OA
ATOM     31  H   UNL     1     183.255 187.983 187.607  1.00  0.00     0.210 HD
ENDBRANCH  29  30
ENDBRANCH   9  11
ENDBRANCH   1   9
TORSDOF 7
ENDMDL
