MODEL 1
REMARK VINA RESULT:    -3.933      0.000      0.000
REMARK INTER + INTRA:          -5.107
REMARK INTER:                  -4.968
REMARK INTRA:                  -0.139
REMARK UNBOUND:                -0.139
REMARK SMILES CCCCCCO
REMARK SMILES IDX 4 1 3 2 2 3 1 4 5 5 6 6 7 7
REMARK H PARENT 7 8
REMARK Flexibility Score: inf
ROOT
ATOM      1  C   UNL     1       9.225  27.018  18.128  1.00  0.00     0.002 C 
ENDROOT
BRANCH   1   2
ATOM      2  C   UNL     1       8.587  27.810  16.980  1.00  0.00    -0.000 C 
BRANCH   2   3
ATOM      3  C   UNL     1       7.250  27.190  16.560  1.00  0.00    -0.003 C 
ATOM      4  C   UNL     1       6.671  26.323  17.675  1.00  0.00     0.004 C 
ENDBRANCH   2   3
ENDBRANCH   1   2
BRANCH   1   5
ATOM      5  C   UNL     1       9.721  27.956  19.235  1.00  0.00     0.028 C 
BRANCH   5   6
ATOM      6  C   UNL     1       8.679  28.124  20.346  1.00  0.00     0.156 C 
BRANCH   6   7
ATOM      7  O   UNL     1       9.287  28.125  21.610  1.00  0.00    -0.396 OA
ATOM      8  H   UNL     1       8.899  27.362  22.113  1.00  0.00     0.210 HD
ENDBRANCH   6   7
ENDBRANCH   5   6
ENDBRANCH   1   5
TORSDOF 5
ENDMDL
MODEL 2
REMARK VINA RESULT:    -3.638      2.199      3.690
REMARK INTER + INTRA:          -4.733
REMARK INTER:                  -4.656
REMARK INTRA:                  -0.078
REMARK UNBOUND:                -0.139
REMARK SMILES CCCCCCO
REMARK SMILES IDX 4 1 3 2 2 3 1 4 5 5 6 6 7 7
REMARK H PARENT 7 8
REMARK Flexibility Score: inf
ROOT
ATOM      1  C   UNL     1       8.934  26.971  17.588  1.00  0.00     0.002 C 
ENDROOT
BRANCH   1   2
ATOM      2  C   UNL     1       9.262  27.833  18.814  1.00  0.00    -0.000 C 
BRANCH   2   3
ATOM      3  C   UNL     1       8.126  27.783  19.841  1.00  0.00    -0.003 C 
ATOM      4  C   UNL     1       8.632  28.125  21.240  1.00  0.00     0.004 C 
ENDBRANCH   2   3
ENDBRANCH   1   2
BRANCH   1   5
ATOM      5  C   UNL     1       8.067  27.745  16.588  1.00  0.00     0.028 C 
BRANCH   5   6
ATOM      6  C   UNL     1       6.670  27.129  16.451  1.00  0.00     0.156 C 
BRANCH   6   7
ATOM      7  O   UNL     1       6.460  26.140  17.424  1.00  0.00    -0.396 OA
ATOM      8  H   UNL     1       5.494  26.169  17.654  1.00  0.00     0.210 HD
ENDBRANCH   6   7
ENDBRANCH   5   6
ENDBRANCH   1   5
TORSDOF 5
ENDMDL
MODEL 3
REMARK VINA RESULT:    -3.401     20.208     21.168
REMARK INTER + INTRA:          -4.435
REMARK INTER:                  -4.309
REMARK INTRA:                  -0.126
REMARK UNBOUND:                -0.139
REMARK SMILES CCCCCCO
REMARK SMILES IDX 4 1 3 2 2 3 1 4 5 5 6 6 7 7
REMARK H PARENT 7 8
REMARK Flexibility Score: inf
ROOT
ATOM      1  C   UNL     1      -6.724  11.831  17.544  1.00  0.00     0.002 C 
ENDROOT
BRANCH   1   2
ATOM      2  C   UNL     1      -6.259  13.162  16.940  1.00  0.00    -0.000 C 
BRANCH   2   3
ATOM      3  C   UNL     1      -5.951  13.011  15.447  1.00  0.00    -0.003 C 
ATOM      4  C   UNL     1      -6.119  14.339  14.713  1.00  0.00     0.004 C 
ENDBRANCH   2   3
ENDBRANCH   1   2
BRANCH   1   5
ATOM      5  C   UNL     1      -5.886  10.662  17.011  1.00  0.00     0.028 C 
BRANCH   5   6
ATOM      6  C   UNL     1      -4.524  10.577  17.709  1.00  0.00     0.156 C 
BRANCH   6   7
ATOM      7  O   UNL     1      -3.479  10.780  16.796  1.00  0.00    -0.396 OA
ATOM      8  H   UNL     1      -3.414  11.761  16.652  1.00  0.00     0.210 HD
ENDBRANCH   6   7
ENDBRANCH   5   6
ENDBRANCH   1   5
TORSDOF 5
ENDMDL
MODEL 4
REMARK VINA RESULT:    -3.389     20.470     22.024
REMARK INTER + INTRA:          -4.419
REMARK INTER:                  -4.313
REMARK INTRA:                  -0.106
REMARK UNBOUND:                -0.139
REMARK SMILES CCCCCCO
REMARK SMILES IDX 4 1 3 2 2 3 1 4 5 5 6 6 7 7
REMARK H PARENT 7 8
REMARK Flexibility Score: inf
ROOT
ATOM      1  C   UNL     1      -6.118  11.459  17.348  1.00  0.00     0.002 C 
ENDROOT
BRANCH   1   2
ATOM      2  C   UNL     1      -7.493  10.843  17.640  1.00  0.00    -0.000 C 
BRANCH   2   3
ATOM      3  C   UNL     1      -8.359  11.798  18.468  1.00  0.00    -0.003 C 
ATOM      4  C   UNL     1      -8.979  11.082  19.664  1.00  0.00     0.004 C 
ENDBRANCH   2   3
ENDBRANCH   1   2
BRANCH   1   5
ATOM      5  C   UNL     1      -6.231  12.971  17.117  1.00  0.00     0.028 C 
BRANCH   5   6
ATOM      6  C   UNL     1      -5.922  13.348  15.664  1.00  0.00     0.156 C 
BRANCH   6   7
ATOM      7  O   UNL     1      -4.669  12.852  15.273  1.00  0.00    -0.396 OA
ATOM      8  H   UNL     1      -4.843  12.036  14.732  1.00  0.00     0.210 HD
ENDBRANCH   6   7
ENDBRANCH   5   6
ENDBRANCH   1   5
TORSDOF 5
ENDMDL
MODEL 5
REMARK VINA RESULT:    -3.369      2.455      3.903
REMARK INTER + INTRA:          -4.394
REMARK INTER:                  -4.177
REMARK INTRA:                  -0.216
REMARK UNBOUND:                -0.139
REMARK SMILES CCCCCCO
REMARK SMILES IDX 4 1 3 2 2 3 1 4 5 5 6 6 7 7
REMARK H PARENT 7 8
REMARK Flexibility Score: inf
ROOT
ATOM      1  C   UNL     1       7.683  26.337  17.890  1.00  0.00     0.002 C 
ENDROOT
BRANCH   1   2
ATOM      2  C   UNL     1       7.226  26.986  19.203  1.00  0.00    -0.000 C 
BRANCH   2   3
ATOM      3  C   UNL     1       8.285  27.958  19.734  1.00  0.00    -0.003 C 
ATOM      4  C   UNL     1       9.624  27.751  19.032  1.00  0.00     0.004 C 
ENDBRANCH   2   3
ENDBRANCH   1   2
BRANCH   1   5
ATOM      5  C   UNL     1       6.775  26.752  16.726  1.00  0.00     0.028 C 
BRANCH   5   6
ATOM      6  C   UNL     1       7.162  28.125  16.165  1.00  0.00     0.156 C 
BRANCH   6   7
ATOM      7  O   UNL     1       8.482  28.118  15.689  1.00  0.00    -0.396 OA
ATOM      8  H   UNL     1       9.067  28.299  16.471  1.00  0.00     0.210 HD
ENDBRANCH   6   7
ENDBRANCH   5   6
ENDBRANCH   1   5
TORSDOF 5
ENDMDL
MODEL 6
REMARK VINA RESULT:    -3.313     20.206     20.703
REMARK INTER + INTRA:          -4.323
REMARK INTER:                  -4.248
REMARK INTRA:                  -0.076
REMARK UNBOUND:                -0.139
REMARK SMILES CCCCCCO
REMARK SMILES IDX 4 1 3 2 2 3 1 4 5 5 6 6 7 7
REMARK H PARENT 7 8
REMARK Flexibility Score: inf
ROOT
ATOM      1  C   UNL     1      -5.432  11.736  17.513  1.00  0.00     0.002 C 
ENDROOT
BRANCH   1   2
ATOM      2  C   UNL     1      -6.034  13.006  16.897  1.00  0.00    -0.000 C 
BRANCH   2   3
ATOM      3  C   UNL     1      -5.986  12.950  15.366  1.00  0.00    -0.003 C 
ATOM      4  C   UNL     1      -6.054  14.349  14.761  1.00  0.00     0.004 C 
ENDBRANCH   2   3
ENDBRANCH   1   2
BRANCH   1   5
ATOM      5  C   UNL     1      -3.937  11.624  17.193  1.00  0.00     0.028 C 
BRANCH   5   6
ATOM      6  C   UNL     1      -3.323  10.351  17.785  1.00  0.00     0.156 C 
BRANCH   6   7
ATOM      7  O   UNL     1      -2.511   9.701  16.843  1.00  0.00    -0.396 OA
ATOM      8  H   UNL     1      -2.002   9.006  17.339  1.00  0.00     0.210 HD
ENDBRANCH   6   7
ENDBRANCH   5   6
ENDBRANCH   1   5
TORSDOF 5
ENDMDL
MODEL 7
REMARK VINA RESULT:    -3.302     20.170     21.667
REMARK INTER + INTRA:          -4.310
REMARK INTER:                  -4.213
REMARK INTRA:                  -0.097
REMARK UNBOUND:                -0.139
REMARK SMILES CCCCCCO
REMARK SMILES IDX 4 1 3 2 2 3 1 4 5 5 6 6 7 7
REMARK H PARENT 7 8
REMARK Flexibility Score: inf
ROOT
ATOM      1  C   UNL     1      -6.034  12.998  17.099  1.00  0.00     0.002 C 
ENDROOT
BRANCH   1   2
ATOM      2  C   UNL     1      -6.999  11.865  17.470  1.00  0.00    -0.000 C 
BRANCH   2   3
ATOM      3  C   UNL     1      -6.612  10.560  16.765  1.00  0.00    -0.003 C 
ATOM      4  C   UNL     1      -7.822   9.918  16.092  1.00  0.00     0.004 C 
ENDBRANCH   2   3
ENDBRANCH   1   2
BRANCH   1   5
ATOM      5  C   UNL     1      -5.744  13.003  15.593  1.00  0.00     0.028 C 
BRANCH   5   6
ATOM      6  C   UNL     1      -6.080  14.356  14.955  1.00  0.00     0.156 C 
BRANCH   6   7
ATOM      7  O   UNL     1      -6.140  14.251  13.557  1.00  0.00    -0.396 OA
ATOM      8  H   UNL     1      -6.087  13.282  13.343  1.00  0.00     0.210 HD
ENDBRANCH   6   7
ENDBRANCH   5   6
ENDBRANCH   1   5
TORSDOF 5
ENDMDL
MODEL 8
REMARK VINA RESULT:    -3.297     15.208     16.575
REMARK INTER + INTRA:          -4.303
REMARK INTER:                  -4.269
REMARK INTRA:                  -0.034
REMARK UNBOUND:                -0.139
REMARK SMILES CCCCCCO
REMARK SMILES IDX 4 1 3 2 2 3 1 4 5 5 6 6 7 7
REMARK H PARENT 7 8
REMARK Flexibility Score: inf
ROOT
ATOM      1  C   UNL     1       2.192  12.850  20.535  1.00  0.00     0.002 C 
ENDROOT
BRANCH   1   2
ATOM      2  C   UNL     1       2.266  11.343  20.258  1.00  0.00    -0.000 C 
BRANCH   2   3
ATOM      3  C   UNL     1       3.695  10.920  19.899  1.00  0.00    -0.003 C 
ATOM      4  C   UNL     1       4.045   9.574  20.527  1.00  0.00     0.004 C 
ENDBRANCH   2   3
ENDBRANCH   1   2
BRANCH   1   5
ATOM      5  C   UNL     1       1.289  13.553  19.514  1.00  0.00     0.028 C 
BRANCH   5   6
ATOM      6  C   UNL     1       1.076  15.029  19.866  1.00  0.00     0.156 C 
BRANCH   6   7
ATOM      7  O   UNL     1      -0.125  15.507  19.319  1.00  0.00    -0.396 OA
ATOM      8  H   UNL     1       0.036  15.633  18.347  1.00  0.00     0.210 HD
ENDBRANCH   6   7
ENDBRANCH   5   6
ENDBRANCH   1   5
TORSDOF 5
ENDMDL
MODEL 9
REMARK VINA RESULT:    -3.190     20.360     21.475
REMARK INTER + INTRA:          -4.168
REMARK INTER:                  -4.067
REMARK INTRA:                  -0.101
REMARK UNBOUND:                -0.139
REMARK SMILES CCCCCCO
REMARK SMILES IDX 4 1 3 2 2 3 1 4 5 5 6 6 7 7
REMARK H PARENT 7 8
REMARK Flexibility Score: inf
ROOT
ATOM      1  C   UNL     1      -5.352  12.686  17.085  1.00  0.00     0.002 C 
ENDROOT
BRANCH   1   2
ATOM      2  C   UNL     1      -6.831  12.771  17.481  1.00  0.00    -0.000 C 
BRANCH   2   3
ATOM      3  C   UNL     1      -7.403  11.380  17.776  1.00  0.00    -0.003 C 
ATOM      4  C   UNL     1      -8.697  11.475  18.579  1.00  0.00     0.004 C 
ENDBRANCH   2   3
ENDBRANCH   1   2
BRANCH   1   5
ATOM      5  C   UNL     1      -4.829  11.250  17.218  1.00  0.00     0.028 C 
BRANCH   5   6
ATOM      6  C   UNL     1      -3.334  11.219  17.553  1.00  0.00     0.156 C 
BRANCH   6   7
ATOM      7  O   UNL     1      -2.696  10.149  16.907  1.00  0.00    -0.396 OA
ATOM      8  H   UNL     1      -2.279  10.521  16.086  1.00  0.00     0.210 HD
ENDBRANCH   6   7
ENDBRANCH   5   6
ENDBRANCH   1   5
TORSDOF 5
ENDMDL
