MODEL 1
REMARK VINA RESULT:    -4.954      0.000      0.000
REMARK INTER + INTRA:          -7.974
REMARK INTER:                  -7.560
REMARK INTRA:                  -0.414
REMARK UNBOUND:                -0.414
REMARK SMILES O=C([O-])CCCCCCCCC(=O)[O-]
REMARK SMILES IDX 7 1 6 2 5 3 4 4 2 5 1 6 3 7 8 8 9 9 10 10 11 11 12 12 13 13
REMARK SMILES IDX 14 14
REMARK H PARENT
REMARK Flexibility Score: inf
ROOT
ATOM      1  C   UNL     1       3.925 -37.012  19.443  1.00  0.00     0.000 C 
ENDROOT
BRANCH   1   2
ATOM      2  C   UNL     1       2.864 -38.113  19.322  1.00  0.00     0.000 C 
BRANCH   2   3
ATOM      3  C   UNL     1       2.061 -37.964  18.024  1.00  0.00     0.006 C 
BRANCH   3   4
ATOM      4  C   UNL     1       2.981 -38.021  16.801  1.00  0.00     0.053 C 
BRANCH   4   5
ATOM      5  C   UNL     1       2.393 -37.243  15.666  1.00  0.00     0.041 C 
ATOM      6  O   UNL     1       1.354 -36.554  15.843  1.00  0.00    -0.550 OA
ATOM      7  O   UNL     1       3.018 -37.240  14.426  1.00  0.00    -0.550 OA
ENDBRANCH   4   5
ENDBRANCH   3   4
ENDBRANCH   2   3
ENDBRANCH   1   2
BRANCH   1   8
ATOM      8  C   UNL     1       5.116 -37.486  20.282  1.00  0.00     0.000 C 
BRANCH   8   9
ATOM      9  C   UNL     1       5.686 -36.339  21.126  1.00  0.00     0.000 C 
BRANCH   9  10
ATOM     10  C   UNL     1       4.961 -36.235  22.476  1.00  0.00     0.006 C 
BRANCH  10  11
ATOM     11  C   UNL     1       4.937 -37.572  23.227  1.00  0.00     0.053 C 
BRANCH  11  12
ATOM     12  C   UNL     1       5.237 -37.395  24.685  1.00  0.00     0.041 C 
ATOM     13  O   UNL     1       5.999 -36.469  25.067  1.00  0.00    -0.550 OA
ATOM     14  O   UNL     1       4.649 -38.234  25.622  1.00  0.00    -0.550 OA
ENDBRANCH  11  12
ENDBRANCH  10  11
ENDBRANCH   9  10
ENDBRANCH   8   9
ENDBRANCH   1   8
TORSDOF 9
ENDMDL
MODEL 2
REMARK VINA RESULT:    -4.941      1.148      7.441
REMARK INTER + INTRA:          -7.955
REMARK INTER:                  -7.523
REMARK INTRA:                  -0.431
REMARK UNBOUND:                -0.414
REMARK SMILES O=C([O-])CCCCCCCCC(=O)[O-]
REMARK SMILES IDX 7 1 6 2 5 3 4 4 2 5 1 6 3 7 8 8 9 9 10 10 11 11 12 12 13 13
REMARK SMILES IDX 14 14
REMARK H PARENT
REMARK Flexibility Score: inf
ROOT
ATOM      1  C   UNL     1       4.950 -36.365  21.092  1.00  0.00     0.000 C 
ENDROOT
BRANCH   1   2
ATOM      2  C   UNL     1       5.996 -36.001  22.153  1.00  0.00     0.000 C 
BRANCH   2   3
ATOM      3  C   UNL     1       5.380 -36.006  23.557  1.00  0.00     0.006 C 
BRANCH   3   4
ATOM      4  C   UNL     1       6.073 -37.034  24.457  1.00  0.00     0.053 C 
BRANCH   4   5
ATOM      5  C   UNL     1       5.120 -38.122  24.840  1.00  0.00     0.041 C 
ATOM      6  O   UNL     1       4.413 -38.009  25.876  1.00  0.00    -0.550 OA
ATOM      7  O   UNL     1       4.976 -39.239  24.028  1.00  0.00    -0.550 OA
ENDBRANCH   4   5
ENDBRANCH   3   4
ENDBRANCH   2   3
ENDBRANCH   1   2
BRANCH   1   8
ATOM      8  C   UNL     1       4.850 -37.884  20.916  1.00  0.00     0.000 C 
BRANCH   8   9
ATOM      9  C   UNL     1       4.560 -38.252  19.455  1.00  0.00     0.000 C 
BRANCH   9  10
ATOM     10  C   UNL     1       3.573 -37.260  18.823  1.00  0.00     0.006 C 
BRANCH  10  11
ATOM     11  C   UNL     1       2.441 -37.968  18.068  1.00  0.00     0.053 C 
BRANCH  11  12
ATOM     12  C   UNL     1       2.471 -37.654  16.603  1.00  0.00     0.041 C 
ATOM     13  O   UNL     1       3.209 -38.316  15.828  1.00  0.00    -0.550 OA
ATOM     14  O   UNL     1       1.659 -36.650  16.090  1.00  0.00    -0.550 OA
ENDBRANCH  11  12
ENDBRANCH  10  11
ENDBRANCH   9  10
ENDBRANCH   8   9
ENDBRANCH   1   8
TORSDOF 9
ENDMDL
MODEL 3
REMARK VINA RESULT:    -4.918      1.110      7.720
REMARK INTER + INTRA:          -7.920
REMARK INTER:                  -7.587
REMARK INTRA:                  -0.333
REMARK UNBOUND:                -0.414
REMARK SMILES O=C([O-])CCCCCCCCC(=O)[O-]
REMARK SMILES IDX 7 1 6 2 5 3 4 4 2 5 1 6 3 7 8 8 9 9 10 10 11 11 12 12 13 13
REMARK SMILES IDX 14 14
REMARK H PARENT
REMARK Flexibility Score: inf
ROOT
ATOM      1  C   UNL     1       5.374 -36.433  20.076  1.00  0.00     0.000 C 
ENDROOT
BRANCH   1   2
ATOM      2  C   UNL     1       4.808 -36.307  21.496  1.00  0.00     0.000 C 
BRANCH   2   3
ATOM      3  C   UNL     1       5.117 -37.560  22.325  1.00  0.00     0.006 C 
BRANCH   3   4
ATOM      4  C   UNL     1       5.249 -37.216  23.812  1.00  0.00     0.053 C 
BRANCH   4   5
ATOM      5  C   UNL     1       4.956 -38.417  24.655  1.00  0.00     0.041 C 
ATOM      6  O   UNL     1       4.654 -38.279  25.869  1.00  0.00    -0.550 OA
ATOM      7  O   UNL     1       4.967 -39.685  24.088  1.00  0.00    -0.550 OA
ENDBRANCH   4   5
ENDBRANCH   3   4
ENDBRANCH   2   3
ENDBRANCH   1   2
BRANCH   1   8
ATOM      8  C   UNL     1       4.248 -36.469  19.037  1.00  0.00     0.000 C 
BRANCH   8   9
ATOM      9  C   UNL     1       3.637 -37.872  18.936  1.00  0.00     0.000 C 
BRANCH   9  10
ATOM     10  C   UNL     1       2.649 -37.959  17.763  1.00  0.00     0.006 C 
BRANCH  10  11
ATOM     11  C   UNL     1       2.987 -36.968  16.643  1.00  0.00     0.053 C 
BRANCH  11  12
ATOM     12  C   UNL     1       2.846 -37.592  15.289  1.00  0.00     0.041 C 
ATOM     13  O   UNL     1       2.088 -37.075  14.427  1.00  0.00    -0.550 OA
ATOM     14  O   UNL     1       3.578 -38.729  14.968  1.00  0.00    -0.550 OA
ENDBRANCH  11  12
ENDBRANCH  10  11
ENDBRANCH   9  10
ENDBRANCH   8   9
ENDBRANCH   1   8
TORSDOF 9
ENDMDL
MODEL 4
REMARK VINA RESULT:    -4.868      0.921      7.487
REMARK INTER + INTRA:          -7.842
REMARK INTER:                  -7.360
REMARK INTRA:                  -0.482
REMARK UNBOUND:                -0.414
REMARK SMILES O=C([O-])CCCCCCCCC(=O)[O-]
REMARK SMILES IDX 7 1 6 2 5 3 4 4 2 5 1 6 3 7 8 8 9 9 10 10 11 11 12 12 13 13
REMARK SMILES IDX 14 14
REMARK H PARENT
REMARK Flexibility Score: inf
ROOT
ATOM      1  C   UNL     1       5.375 -36.432  20.110  1.00  0.00     0.000 C 
ENDROOT
BRANCH   1   2
ATOM      2  C   UNL     1       5.995 -36.010  21.448  1.00  0.00     0.000 C 
BRANCH   2   3
ATOM      3  C   UNL     1       5.045 -36.312  22.613  1.00  0.00     0.006 C 
BRANCH   3   4
ATOM      4  C   UNL     1       5.798 -36.952  23.784  1.00  0.00     0.053 C 
BRANCH   4   5
ATOM      5  C   UNL     1       5.065 -38.156  24.283  1.00  0.00     0.041 C 
ATOM      6  O   UNL     1       4.797 -39.104  23.498  1.00  0.00    -0.550 OA
ATOM      7  O   UNL     1       4.720 -38.255  25.624  1.00  0.00    -0.550 OA
ENDBRANCH   4   5
ENDBRANCH   3   4
ENDBRANCH   2   3
ENDBRANCH   1   2
BRANCH   1   8
ATOM      8  C   UNL     1       4.949 -37.904  20.141  1.00  0.00     0.000 C 
BRANCH   8   9
ATOM      9  C   UNL     1       3.580 -38.096  19.477  1.00  0.00     0.000 C 
BRANCH   9  10
ATOM     10  C   UNL     1       3.474 -37.273  18.185  1.00  0.00     0.006 C 
BRANCH  10  11
ATOM     11  C   UNL     1       2.799 -38.055  17.052  1.00  0.00     0.053 C 
BRANCH  11  12
ATOM     12  C   UNL     1       2.370 -37.153  15.935  1.00  0.00     0.041 C 
ATOM     13  O   UNL     1       1.361 -36.412  16.069  1.00  0.00    -0.550 OA
ATOM     14  O   UNL     1       3.105 -37.108  14.756  1.00  0.00    -0.550 OA
ENDBRANCH  11  12
ENDBRANCH  10  11
ENDBRANCH   9  10
ENDBRANCH   8   9
ENDBRANCH   1   8
TORSDOF 9
ENDMDL
MODEL 5
REMARK VINA RESULT:    -4.839      1.096      1.316
REMARK INTER + INTRA:          -7.799
REMARK INTER:                  -7.560
REMARK INTRA:                  -0.239
REMARK UNBOUND:                -0.414
REMARK SMILES O=C([O-])CCCCCCCCC(=O)[O-]
REMARK SMILES IDX 7 1 6 2 5 3 4 4 2 5 1 6 3 7 8 8 9 9 10 10 11 11 12 12 13 13
REMARK SMILES IDX 14 14
REMARK H PARENT
REMARK Flexibility Score: inf
ROOT
ATOM      1  C   UNL     1       4.253 -36.663  19.701  1.00  0.00     0.000 C 
ENDROOT
BRANCH   1   2
ATOM      2  C   UNL     1       3.865 -38.022  19.106  1.00  0.00     0.000 C 
BRANCH   2   3
ATOM      3  C   UNL     1       2.753 -37.868  18.062  1.00  0.00     0.006 C 
BRANCH   3   4
ATOM      4  C   UNL     1       3.206 -36.971  16.906  1.00  0.00     0.053 C 
BRANCH   4   5
ATOM      5  C   UNL     1       2.807 -37.566  15.593  1.00  0.00     0.041 C 
ATOM      6  O   UNL     1       1.867 -37.058  14.927  1.00  0.00    -0.550 OA
ATOM      7  O   UNL     1       3.504 -38.653  15.081  1.00  0.00    -0.550 OA
ENDBRANCH   4   5
ENDBRANCH   3   4
ENDBRANCH   2   3
ENDBRANCH   1   2
BRANCH   1   8
ATOM      8  C   UNL     1       5.407 -36.809  20.700  1.00  0.00     0.000 C 
BRANCH   8   9
ATOM      9  C   UNL     1       5.083 -36.102  22.022  1.00  0.00     0.000 C 
BRANCH   9  10
ATOM     10  C   UNL     1       6.089 -36.491  23.115  1.00  0.00     0.006 C 
BRANCH  10  11
ATOM     11  C   UNL     1       5.437 -36.580  24.500  1.00  0.00     0.053 C 
BRANCH  11  12
ATOM     12  C   UNL     1       4.968 -37.970  24.804  1.00  0.00     0.041 C 
ATOM     13  O   UNL     1       4.559 -38.264  25.958  1.00  0.00    -0.550 OA
ATOM     14  O   UNL     1       4.955 -38.933  23.803  1.00  0.00    -0.550 OA
ENDBRANCH  11  12
ENDBRANCH  10  11
ENDBRANCH   9  10
ENDBRANCH   8   9
ENDBRANCH   1   8
TORSDOF 9
ENDMDL
MODEL 6
REMARK VINA RESULT:    -4.775      2.021      6.616
REMARK INTER + INTRA:          -7.701
REMARK INTER:                  -7.036
REMARK INTRA:                  -0.665
REMARK UNBOUND:                -0.414
REMARK SMILES O=C([O-])CCCCCCCCC(=O)[O-]
REMARK SMILES IDX 7 1 6 2 5 3 4 4 2 5 1 6 3 7 8 8 9 9 10 10 11 11 12 12 13 13
REMARK SMILES IDX 14 14
REMARK H PARENT
REMARK Flexibility Score: inf
ROOT
ATOM      1  C   UNL     1       4.956 -35.819  22.476  1.00  0.00     0.000 C 
ENDROOT
BRANCH   1   2
ATOM      2  C   UNL     1       5.516 -35.948  23.898  1.00  0.00     0.000 C 
BRANCH   2   3
ATOM      3  C   UNL     1       6.047 -37.364  24.154  1.00  0.00     0.006 C 
BRANCH   3   4
ATOM      4  C   UNL     1       4.911 -38.312  24.551  1.00  0.00     0.053 C 
BRANCH   4   5
ATOM      5  C   UNL     1       4.852 -39.479  23.616  1.00  0.00     0.041 C 
ATOM      6  O   UNL     1       5.303 -40.599  23.973  1.00  0.00    -0.550 OA
ATOM      7  O   UNL     1       4.255 -39.343  22.370  1.00  0.00    -0.550 OA
ENDBRANCH   4   5
ENDBRANCH   3   4
ENDBRANCH   2   3
ENDBRANCH   1   2
BRANCH   1   8
ATOM      8  C   UNL     1       5.957 -36.343  21.441  1.00  0.00     0.000 C 
BRANCH   8   9
ATOM      9  C   UNL     1       5.400 -36.210  20.018  1.00  0.00     0.000 C 
BRANCH   9  10
ATOM     10  C   UNL     1       3.963 -36.747  19.938  1.00  0.00     0.006 C 
BRANCH  10  11
ATOM     11  C   UNL     1       3.862 -38.010  19.074  1.00  0.00     0.053 C 
BRANCH  11  12
ATOM     12  C   UNL     1       2.546 -38.090  18.361  1.00  0.00     0.041 C 
ATOM     13  O   UNL     1       2.432 -37.646  17.189  1.00  0.00    -0.550 OA
ATOM     14  O   UNL     1       1.455 -38.685  18.981  1.00  0.00    -0.550 OA
ENDBRANCH  11  12
ENDBRANCH  10  11
ENDBRANCH   9  10
ENDBRANCH   8   9
ENDBRANCH   1   8
TORSDOF 9
ENDMDL
MODEL 7
REMARK VINA RESULT:    -4.661      2.245      3.350
REMARK INTER + INTRA:          -7.527
REMARK INTER:                  -6.929
REMARK INTRA:                  -0.598
REMARK UNBOUND:                -0.414
REMARK SMILES O=C([O-])CCCCCCCCC(=O)[O-]
REMARK SMILES IDX 7 1 6 2 5 3 4 4 2 5 1 6 3 7 8 8 9 9 10 10 11 11 12 12 13 13
REMARK SMILES IDX 14 14
REMARK H PARENT
REMARK Flexibility Score: inf
ROOT
ATOM      1  C   UNL     1       4.681 -36.043  21.978  1.00  0.00     0.000 C 
ENDROOT
BRANCH   1   2
ATOM      2  C   UNL     1       5.442 -36.428  20.702  1.00  0.00     0.000 C 
BRANCH   2   3
ATOM      3  C   UNL     1       4.491 -36.522  19.503  1.00  0.00     0.006 C 
BRANCH   3   4
ATOM      4  C   UNL     1       4.163 -37.982  19.176  1.00  0.00     0.053 C 
BRANCH   4   5
ATOM      5  C   UNL     1       2.888 -38.071  18.399  1.00  0.00     0.041 C 
ATOM      6  O   UNL     1       2.878 -37.816  17.166  1.00  0.00    -0.550 OA
ATOM      7  O   UNL     1       1.719 -38.484  19.025  1.00  0.00    -0.550 OA
ENDBRANCH   4   5
ENDBRANCH   3   4
ENDBRANCH   2   3
ENDBRANCH   1   2
BRANCH   1   8
ATOM      8  C   UNL     1       5.641 -35.878  23.161  1.00  0.00     0.000 C 
BRANCH   8   9
ATOM      9  C   UNL     1       6.104 -37.241  23.690  1.00  0.00     0.000 C 
BRANCH   9  10
ATOM     10  C   UNL     1       4.949 -37.990  24.370  1.00  0.00     0.006 C 
BRANCH  10  11
ATOM     11  C   UNL     1       5.066 -39.510  24.207  1.00  0.00     0.053 C 
BRANCH  11  12
ATOM     12  C   UNL     1       4.842 -39.935  22.788  1.00  0.00     0.041 C 
ATOM     13  O   UNL     1       3.876 -39.466  22.130  1.00  0.00    -0.550 OA
ATOM     14  O   UNL     1       5.719 -40.825  22.181  1.00  0.00    -0.550 OA
ENDBRANCH  11  12
ENDBRANCH  10  11
ENDBRANCH   9  10
ENDBRANCH   8   9
ENDBRANCH   1   8
TORSDOF 9
ENDMDL
MODEL 8
REMARK VINA RESULT:    -4.453      1.723      2.615
REMARK INTER + INTRA:          -7.210
REMARK INTER:                  -6.723
REMARK INTRA:                  -0.487
REMARK UNBOUND:                -0.414
REMARK SMILES O=C([O-])CCCCCCCCC(=O)[O-]
REMARK SMILES IDX 7 1 6 2 5 3 4 4 2 5 1 6 3 7 8 8 9 9 10 10 11 11 12 12 13 13
REMARK SMILES IDX 14 14
REMARK H PARENT
REMARK Flexibility Score: inf
ROOT
ATOM      1  C   UNL     1       4.960 -36.712  21.268  1.00  0.00     0.000 C 
ENDROOT
BRANCH   1   2
ATOM      2  C   UNL     1       5.258 -36.139  19.877  1.00  0.00     0.000 C 
BRANCH   2   3
ATOM      3  C   UNL     1       4.251 -36.655  18.842  1.00  0.00     0.006 C 
BRANCH   3   4
ATOM      4  C   UNL     1       3.548 -37.920  19.345  1.00  0.00     0.053 C 
BRANCH   4   5
ATOM      5  C   UNL     1       2.286 -38.158  18.578  1.00  0.00     0.041 C 
ATOM      6  O   UNL     1       1.282 -38.657  19.150  1.00  0.00    -0.550 OA
ATOM      7  O   UNL     1       2.201 -37.782  17.243  1.00  0.00    -0.550 OA
ENDBRANCH   4   5
ENDBRANCH   3   4
ENDBRANCH   2   3
ENDBRANCH   1   2
BRANCH   1   8
ATOM      8  C   UNL     1       4.715 -35.591  22.284  1.00  0.00     0.000 C 
BRANCH   8   9
ATOM      9  C   UNL     1       5.943 -35.381  23.179  1.00  0.00     0.000 C 
BRANCH   9  10
ATOM     10  C   UNL     1       5.732 -36.014  24.562  1.00  0.00     0.006 C 
BRANCH  10  11
ATOM     11  C   UNL     1       6.125 -37.496  24.589  1.00  0.00     0.053 C 
BRANCH  11  12
ATOM     12  C   UNL     1       4.935 -38.382  24.797  1.00  0.00     0.041 C 
ATOM     13  O   UNL     1       4.285 -38.329  25.874  1.00  0.00    -0.550 OA
ATOM     14  O   UNL     1       4.525 -39.244  23.788  1.00  0.00    -0.550 OA
ENDBRANCH  11  12
ENDBRANCH  10  11
ENDBRANCH   9  10
ENDBRANCH   8   9
ENDBRANCH   1   8
TORSDOF 9
ENDMDL
MODEL 9
REMARK VINA RESULT:    -4.360      1.129      7.626
REMARK INTER + INTRA:          -7.067
REMARK INTER:                  -6.726
REMARK INTRA:                  -0.341
REMARK UNBOUND:                -0.414
REMARK SMILES O=C([O-])CCCCCCCCC(=O)[O-]
REMARK SMILES IDX 7 1 6 2 5 3 4 4 2 5 1 6 3 7 8 8 9 9 10 10 11 11 12 12 13 13
REMARK SMILES IDX 14 14
REMARK H PARENT
REMARK Flexibility Score: inf
ROOT
ATOM      1  C   UNL     1       5.043 -37.646  20.575  1.00  0.00     0.000 C 
ENDROOT
BRANCH   1   2
ATOM      2  C   UNL     1       4.748 -38.727  21.622  1.00  0.00     0.000 C 
BRANCH   2   3
ATOM      3  C   UNL     1       5.036 -38.213  23.038  1.00  0.00     0.006 C 
BRANCH   3   4
ATOM      4  C   UNL     1       6.097 -37.108  23.016  1.00  0.00     0.053 C 
BRANCH   4   5
ATOM      5  C   UNL     1       5.784 -36.061  24.038  1.00  0.00     0.041 C 
ATOM      6  O   UNL     1       5.864 -36.331  25.265  1.00  0.00    -0.550 OA
ATOM      7  O   UNL     1       5.451 -34.774  23.637  1.00  0.00    -0.550 OA
ENDBRANCH   4   5
ENDBRANCH   3   4
ENDBRANCH   2   3
ENDBRANCH   1   2
BRANCH   1   8
ATOM      8  C   UNL     1       3.746 -37.102  19.966  1.00  0.00     0.000 C 
BRANCH   8   9
ATOM      9  C   UNL     1       3.854 -36.998  18.440  1.00  0.00     0.000 C 
BRANCH   9  10
ATOM     10  C   UNL     1       2.837 -37.921  17.751  1.00  0.00     0.006 C 
BRANCH  10  11
ATOM     11  C   UNL     1       3.080 -38.029  16.241  1.00  0.00     0.053 C 
BRANCH  11  12
ATOM     12  C   UNL     1       2.099 -37.208  15.462  1.00  0.00     0.041 C 
ATOM     13  O   UNL     1       2.083 -37.264  14.204  1.00  0.00    -0.550 OA
ATOM     14  O   UNL     1       1.180 -36.406  16.127  1.00  0.00    -0.550 OA
ENDBRANCH  11  12
ENDBRANCH  10  11
ENDBRANCH   9  10
ENDBRANCH   8   9
ENDBRANCH   1   8
TORSDOF 9
ENDMDL
