MODEL 1
REMARK VINA RESULT:    24.034      0.000      0.000
REMARK INTER + INTRA:          26.846
REMARK INTER:                  26.142
REMARK INTRA:                   0.704
REMARK UNBOUND:                 0.704
REMARK SMILES CC1=C[C@@H]2[C@@H](C(C)C)CC[C@](C)(O)[C@H]2CC1
REMARK SMILES IDX 1 1 2 2 3 3 4 4 5 5 9 6 10 7 11 8 14 9 15 10 16 11 12 12
REMARK SMILES IDX 6 13 7 14 8 15 13 16
REMARK H PARENT 13 17
REMARK Flexibility Score: inf
ROOT
ATOM      1  C   UNL     1     -33.239  25.349   6.074  1.00  0.00     0.039 C 
ATOM      2  C   UNL     1     -34.425  24.446   6.277  1.00  0.00    -0.077 C 
ATOM      3  C   UNL     1     -35.110  24.011   5.195  1.00  0.00    -0.024 C 
ATOM      4  C   UNL     1     -36.274  23.028   5.282  1.00  0.00     0.021 C 
ATOM      5  C   UNL     1     -37.364  23.268   4.185  1.00  0.00    -0.001 C 
ATOM      6  C   UNL     1     -38.509  22.233   4.347  1.00  0.00     0.007 C 
ATOM      7  C   UNL     1     -39.125  22.265   5.752  1.00  0.00     0.035 C 
ATOM      8  C   UNL     1     -38.081  22.050   6.876  1.00  0.00     0.065 C 
ATOM      9  C   UNL     1     -36.918  23.079   6.695  1.00  0.00     0.028 C 
ATOM     10  C   UNL     1     -35.821  22.944   7.767  1.00  0.00     0.011 C 
ATOM     11  C   UNL     1     -34.873  24.143   7.691  1.00  0.00     0.031 C 
ATOM     12  C   UNL     1     -37.589  20.584   6.871  1.00  0.00     0.042 C 
ENDROOT
BRANCH   5  13
ATOM     13  C   UNL     1     -36.812  23.304   2.715  1.00  0.00    -0.014 C 
ATOM     14  C   UNL     1     -37.270  24.531   1.908  1.00  0.00     0.007 C 
ATOM     15  C   UNL     1     -35.280  23.179   2.656  1.00  0.00     0.007 C 
ENDBRANCH   5  13
BRANCH   8  16
ATOM     16  O   UNL     1     -38.710  22.260   8.121  1.00  0.00    -0.390 OA
ATOM     17  H   UNL     1     -39.672  22.449   7.961  1.00  0.00     0.211 HD
ENDBRANCH   8  16
TORSDOF 2
ENDMDL
