MODEL 1
REMARK VINA RESULT:    -6.731      0.000      0.000
REMARK INTER + INTRA:          -6.731
REMARK INTER:                  -6.731
REMARK INTRA:                   0.000
REMARK UNBOUND:                 0.000
REMARK SMILES O=c1ccc2ccc3occc3c2o1
REMARK SMILES IDX 6 1 7 2 8 3 12 4 11 5 10 6 9 7 13 8 5 9 4 10 3 11 2 12 1 13
REMARK SMILES IDX 14 14
REMARK H PARENT
REMARK Flexibility Score: inf
ROOT
ATOM      1  C   UNL     1      26.498  22.918  49.119  1.00  0.00     0.016 A 
ATOM      2  C   UNL     1      26.872  22.226  50.287  1.00  0.00     0.048 A 
ATOM      3  C   UNL     1      28.224  22.195  50.628  1.00  0.00     0.137 A 
ATOM      4  C   UNL     1      29.176  22.814  49.864  1.00  0.00     0.064 A 
ATOM      5  C   UNL     1      30.388  22.590  50.476  1.00  0.00     0.054 A 
ATOM      6  C   UNL     1      30.077  21.832  51.601  1.00  0.00     0.196 A 
ATOM      7  O   UNL     1      28.775  21.612  51.663  1.00  0.00    -0.464 OA
ATOM      8  C   UNL     1      28.848  23.509  48.702  1.00  0.00     0.149 A 
ATOM      9  C   UNL     1      27.480  23.560  48.326  1.00  0.00     0.018 A 
ATOM     10  C   UNL     1      27.144  24.256  47.161  1.00  0.00     0.019 A 
ATOM     11  C   UNL     1      28.152  24.870  46.415  1.00  0.00     0.094 A 
ATOM     12  C   UNL     1      29.479  24.775  46.852  1.00  0.00     0.336 A 
ATOM     13  O   UNL     1      30.398  25.324  46.190  1.00  0.00    -0.246 OA
ATOM     14  O   UNL     1      29.778  24.108  47.964  1.00  0.00    -0.422 OA
ENDROOT
TORSDOF 0
ENDMDL
MODEL 2
REMARK VINA RESULT:    -6.630      1.722      5.231
REMARK INTER + INTRA:          -6.630
REMARK INTER:                  -6.630
REMARK INTRA:                   0.000
REMARK UNBOUND:                 0.000
REMARK SMILES O=c1ccc2ccc3occc3c2o1
REMARK SMILES IDX 6 1 7 2 8 3 12 4 11 5 10 6 9 7 13 8 5 9 4 10 3 11 2 12 1 13
REMARK SMILES IDX 14 14
REMARK H PARENT
REMARK Flexibility Score: inf
ROOT
ATOM      1  C   UNL     1      30.034  24.445  47.662  1.00  0.00     0.016 A 
ATOM      2  C   UNL     1      29.810  25.002  46.389  1.00  0.00     0.048 A 
ATOM      3  C   UNL     1      28.543  24.863  45.824  1.00  0.00     0.137 A 
ATOM      4  C   UNL     1      27.530  24.208  46.473  1.00  0.00     0.064 A 
ATOM      5  C   UNL     1      26.431  24.254  45.647  1.00  0.00     0.054 A 
ATOM      6  C   UNL     1      26.864  24.954  44.525  1.00  0.00     0.196 A 
ATOM      7  O   UNL     1      28.131  25.304  44.662  1.00  0.00    -0.464 OA
ATOM      8  C   UNL     1      27.711  23.643  47.733  1.00  0.00     0.149 A 
ATOM      9  C   UNL     1      28.989  23.766  48.337  1.00  0.00     0.018 A 
ATOM     10  C   UNL     1      29.177  23.202  49.601  1.00  0.00     0.019 A 
ATOM     11  C   UNL     1      28.113  22.543  50.222  1.00  0.00     0.094 A 
ATOM     12  C   UNL     1      26.881  22.464  49.562  1.00  0.00     0.336 A 
ATOM     13  O   UNL     1      25.913  21.873  50.109  1.00  0.00    -0.246 OA
ATOM     14  O   UNL     1      26.723  23.008  48.358  1.00  0.00    -0.422 OA
ENDROOT
TORSDOF 0
ENDMDL
MODEL 3
REMARK VINA RESULT:    -6.334      1.681      2.806
REMARK INTER + INTRA:          -6.334
REMARK INTER:                  -6.334
REMARK INTRA:                   0.000
REMARK UNBOUND:                 0.000
REMARK SMILES O=c1ccc2ccc3occc3c2o1
REMARK SMILES IDX 6 1 7 2 8 3 12 4 11 5 10 6 9 7 13 8 5 9 4 10 3 11 2 12 1 13
REMARK SMILES IDX 14 14
REMARK H PARENT
REMARK Flexibility Score: inf
ROOT
ATOM      1  C   UNL     1      30.027  23.709  48.608  1.00  0.00     0.016 A 
ATOM      2  C   UNL     1      29.641  22.996  49.759  1.00  0.00     0.048 A 
ATOM      3  C   UNL     1      28.303  22.625  49.884  1.00  0.00     0.137 A 
ATOM      4  C   UNL     1      27.375  22.935  48.926  1.00  0.00     0.064 A 
ATOM      5  C   UNL     1      26.170  22.428  49.357  1.00  0.00     0.054 A 
ATOM      6  C   UNL     1      26.461  21.829  50.580  1.00  0.00     0.196 A 
ATOM      7  O   UNL     1      27.743  21.965  50.866  1.00  0.00    -0.464 OA
ATOM      8  C   UNL     1      27.717  23.639  47.774  1.00  0.00     0.149 A 
ATOM      9  C   UNL     1      29.071  24.032  47.615  1.00  0.00     0.018 A 
ATOM     10  C   UNL     1      29.420  24.738  46.461  1.00  0.00     0.019 A 
ATOM     11  C   UNL     1      28.437  25.030  45.513  1.00  0.00     0.094 A 
ATOM     12  C   UNL     1      27.121  24.608  45.741  1.00  0.00     0.336 A 
ATOM     13  O   UNL     1      26.225  24.864  44.895  1.00  0.00    -0.246 OA
ATOM     14  O   UNL     1      26.810  23.936  46.847  1.00  0.00    -0.422 OA
ENDROOT
TORSDOF 0
ENDMDL
MODEL 4
REMARK VINA RESULT:    -6.264      1.743      2.176
REMARK INTER + INTRA:          -6.264
REMARK INTER:                  -6.264
REMARK INTRA:                   0.000
REMARK UNBOUND:                 0.000
REMARK SMILES O=c1ccc2ccc3occc3c2o1
REMARK SMILES IDX 6 1 7 2 8 3 12 4 11 5 10 6 9 7 13 8 5 9 4 10 3 11 2 12 1 13
REMARK SMILES IDX 14 14
REMARK H PARENT
REMARK Flexibility Score: inf
ROOT
ATOM      1  C   UNL     1      28.086  23.947  50.218  1.00  0.00     0.016 A 
ATOM      2  C   UNL     1      29.235  23.342  50.761  1.00  0.00     0.048 A 
ATOM      3  C   UNL     1      30.283  23.029  49.897  1.00  0.00     0.137 A 
ATOM      4  C   UNL     1      30.218  23.294  48.556  1.00  0.00     0.064 A 
ATOM      5  C   UNL     1      31.403  22.865  48.005  1.00  0.00     0.054 A 
ATOM      6  C   UNL     1      32.125  22.356  49.080  1.00  0.00     0.196 A 
ATOM      7  O   UNL     1      31.428  22.469  50.197  1.00  0.00    -0.464 OA
ATOM      8  C   UNL     1      29.099  23.892  47.980  1.00  0.00     0.149 A 
ATOM      9  C   UNL     1      28.013  24.224  48.831  1.00  0.00     0.018 A 
ATOM     10  C   UNL     1      26.888  24.824  48.259  1.00  0.00     0.019 A 
ATOM     11  C   UNL     1      26.869  25.074  46.885  1.00  0.00     0.094 A 
ATOM     12  C   UNL     1      27.980  24.717  46.111  1.00  0.00     0.336 A 
ATOM     13  O   UNL     1      27.977  24.937  44.871  1.00  0.00    -0.246 OA
ATOM     14  O   UNL     1      29.042  24.147  46.675  1.00  0.00    -0.422 OA
ENDROOT
TORSDOF 0
ENDMDL
MODEL 5
REMARK VINA RESULT:    -6.238      1.215      4.297
REMARK INTER + INTRA:          -6.238
REMARK INTER:                  -6.238
REMARK INTRA:                   0.000
REMARK UNBOUND:                 0.000
REMARK SMILES O=c1ccc2ccc3occc3c2o1
REMARK SMILES IDX 6 1 7 2 8 3 12 4 11 5 10 6 9 7 13 8 5 9 4 10 3 11 2 12 1 13
REMARK SMILES IDX 14 14
REMARK H PARENT
REMARK Flexibility Score: inf
ROOT
ATOM      1  C   UNL     1      26.807  24.266  48.713  1.00  0.00     0.016 A 
ATOM      2  C   UNL     1      27.294  24.869  47.537  1.00  0.00     0.048 A 
ATOM      3  C   UNL     1      28.651  24.737  47.245  1.00  0.00     0.137 A 
ATOM      4  C   UNL     1      29.503  24.044  48.063  1.00  0.00     0.064 A 
ATOM      5  C   UNL     1      30.751  24.109  47.488  1.00  0.00     0.054 A 
ATOM      6  C   UNL     1      30.564  24.856  46.329  1.00  0.00     0.196 A 
ATOM      7  O   UNL     1      29.298  25.217  46.213  1.00  0.00    -0.464 OA
ATOM      8  C   UNL     1      29.060  23.433  49.234  1.00  0.00     0.149 A 
ATOM      9  C   UNL     1      27.684  23.548  49.562  1.00  0.00     0.018 A 
ATOM     10  C   UNL     1      27.234  22.937  50.736  1.00  0.00     0.019 A 
ATOM     11  C   UNL     1      28.142  22.242  51.537  1.00  0.00     0.094 A 
ATOM     12  C   UNL     1      29.485  22.173  51.146  1.00  0.00     0.336 A 
ATOM     13  O   UNL     1      30.314  21.549  51.859  1.00  0.00    -0.246 OA
ATOM     14  O   UNL     1      29.893  22.762  50.025  1.00  0.00    -0.422 OA
ENDROOT
TORSDOF 0
ENDMDL
MODEL 6
REMARK VINA RESULT:    -6.214      1.513      4.169
REMARK INTER + INTRA:          -6.214
REMARK INTER:                  -6.214
REMARK INTRA:                   0.000
REMARK UNBOUND:                 0.000
REMARK SMILES O=c1ccc2ccc3occc3c2o1
REMARK SMILES IDX 6 1 7 2 8 3 12 4 11 5 10 6 9 7 13 8 5 9 4 10 3 11 2 12 1 13
REMARK SMILES IDX 14 14
REMARK H PARENT
REMARK Flexibility Score: inf
ROOT
ATOM      1  C   UNL     1      26.863  22.094  50.330  1.00  0.00     0.016 A 
ATOM      2  C   UNL     1      26.327  22.681  49.168  1.00  0.00     0.048 A 
ATOM      3  C   UNL     1      27.174  23.441  48.364  1.00  0.00     0.137 A 
ATOM      4  C   UNL     1      28.495  23.625  48.677  1.00  0.00     0.064 A 
ATOM      5  C   UNL     1      29.034  24.414  47.688  1.00  0.00     0.054 A 
ATOM      6  C   UNL     1      27.975  24.661  46.820  1.00  0.00     0.196 A 
ATOM      7  O   UNL     1      26.877  24.066  47.252  1.00  0.00    -0.464 OA
ATOM      8  C   UNL     1      29.064  23.061  49.817  1.00  0.00     0.149 A 
ATOM      9  C   UNL     1      28.229  22.281  50.657  1.00  0.00     0.018 A 
ATOM     10  C   UNL     1      28.794  21.713  51.802  1.00  0.00     0.019 A 
ATOM     11  C   UNL     1      30.146  21.929  52.078  1.00  0.00     0.094 A 
ATOM     12  C   UNL     1      30.905  22.711  51.200  1.00  0.00     0.336 A 
ATOM     13  O   UNL     1      32.125  22.914  51.435  1.00  0.00    -0.246 OA
ATOM     14  O   UNL     1      30.348  23.243  50.114  1.00  0.00    -0.422 OA
ENDROOT
TORSDOF 0
ENDMDL
MODEL 7
REMARK VINA RESULT:    -5.978      1.377      5.016
REMARK INTER + INTRA:          -5.978
REMARK INTER:                  -5.978
REMARK INTRA:                   0.000
REMARK UNBOUND:                 0.000
REMARK SMILES O=c1ccc2ccc3occc3c2o1
REMARK SMILES IDX 6 1 7 2 8 3 12 4 11 5 10 6 9 7 13 8 5 9 4 10 3 11 2 12 1 13
REMARK SMILES IDX 14 14
REMARK H PARENT
REMARK Flexibility Score: inf
ROOT
ATOM      1  C   UNL     1      30.874  22.770  49.088  1.00  0.00     0.016 A 
ATOM      2  C   UNL     1      30.366  23.435  47.955  1.00  0.00     0.048 A 
ATOM      3  C   UNL     1      29.065  23.933  48.013  1.00  0.00     0.137 A 
ATOM      4  C   UNL     1      28.286  23.790  49.130  1.00  0.00     0.064 A 
ATOM      5  C   UNL     1      27.077  24.386  48.854  1.00  0.00     0.054 A 
ATOM      6  C   UNL     1      27.212  24.863  47.553  1.00  0.00     0.196 A 
ATOM      7  O   UNL     1      28.411  24.575  47.079  1.00  0.00    -0.464 OA
ATOM      8  C   UNL     1      28.751  23.139  50.271  1.00  0.00     0.149 A 
ATOM      9  C   UNL     1      30.072  22.620  50.246  1.00  0.00     0.018 A 
ATOM     10  C   UNL     1      30.544  21.966  51.386  1.00  0.00     0.019 A 
ATOM     11  C   UNL     1      29.711  21.846  52.501  1.00  0.00     0.094 A 
ATOM     12  C   UNL     1      28.419  22.384  52.449  1.00  0.00     0.336 A 
ATOM     13  O   UNL     1      27.658  22.283  53.446  1.00  0.00    -0.246 OA
ATOM     14  O   UNL     1      27.989  23.004  51.353  1.00  0.00    -0.422 OA
ENDROOT
TORSDOF 0
ENDMDL
MODEL 8
REMARK VINA RESULT:    -5.851     13.449     14.743
REMARK INTER + INTRA:          -5.851
REMARK INTER:                  -5.851
REMARK INTRA:                   0.000
REMARK UNBOUND:                 0.000
REMARK SMILES O=c1ccc2ccc3occc3c2o1
REMARK SMILES IDX 6 1 7 2 8 3 12 4 11 5 10 6 9 7 13 8 5 9 4 10 3 11 2 12 1 13
REMARK SMILES IDX 14 14
REMARK H PARENT
REMARK Flexibility Score: inf
ROOT
ATOM      1  C   UNL     1      17.102  18.622  44.586  1.00  0.00     0.016 A 
ATOM      2  C   UNL     1      16.234  17.743  45.262  1.00  0.00     0.048 A 
ATOM      3  C   UNL     1      14.910  18.138  45.442  1.00  0.00     0.137 A 
ATOM      4  C   UNL     1      14.445  19.341  44.983  1.00  0.00     0.064 A 
ATOM      5  C   UNL     1      13.114  19.412  45.323  1.00  0.00     0.054 A 
ATOM      6  C   UNL     1      12.857  18.214  45.983  1.00  0.00     0.196 A 
ATOM      7  O   UNL     1      13.951  17.475  46.038  1.00  0.00    -0.464 OA
ATOM      8  C   UNL     1      15.271  20.238  44.309  1.00  0.00     0.149 A 
ATOM      9  C   UNL     1      16.626  19.868  44.109  1.00  0.00     0.018 A 
ATOM     10  C   UNL     1      17.460  20.763  43.434  1.00  0.00     0.019 A 
ATOM     11  C   UNL     1      16.939  21.979  42.985  1.00  0.00     0.094 A 
ATOM     12  C   UNL     1      15.590  22.272  43.221  1.00  0.00     0.336 A 
ATOM     13  O   UNL     1      15.107  23.364  42.822  1.00  0.00    -0.246 OA
ATOM     14  O   UNL     1      14.813  21.405  43.865  1.00  0.00    -0.422 OA
ENDROOT
TORSDOF 0
ENDMDL
MODEL 9
REMARK VINA RESULT:    -5.800      1.897      2.971
REMARK INTER + INTRA:          -5.800
REMARK INTER:                  -5.800
REMARK INTRA:                   0.000
REMARK UNBOUND:                 0.000
REMARK SMILES O=c1ccc2ccc3occc3c2o1
REMARK SMILES IDX 6 1 7 2 8 3 12 4 11 5 10 6 9 7 13 8 5 9 4 10 3 11 2 12 1 13
REMARK SMILES IDX 14 14
REMARK H PARENT
REMARK Flexibility Score: inf
ROOT
ATOM      1  C   UNL     1      31.587  23.133  47.969  1.00  0.00     0.016 A 
ATOM      2  C   UNL     1      32.125  22.382  49.031  1.00  0.00     0.048 A 
ATOM      3  C   UNL     1      31.323  22.155  50.148  1.00  0.00     0.137 A 
ATOM      4  C   UNL     1      30.044  22.639  50.230  1.00  0.00     0.064 A 
ATOM      5  C   UNL     1      29.542  22.239  51.447  1.00  0.00     0.054 A 
ATOM      6  C   UNL     1      30.579  21.520  52.034  1.00  0.00     0.196 A 
ATOM      7  O   UNL     1      31.629  21.488  51.233  1.00  0.00    -0.464 OA
ATOM      8  C   UNL     1      29.475  23.386  49.201  1.00  0.00     0.149 A 
ATOM      9  C   UNL     1      30.265  23.636  48.049  1.00  0.00     0.018 A 
ATOM     10  C   UNL     1      29.700  24.384  47.013  1.00  0.00     0.019 A 
ATOM     11  C   UNL     1      28.392  24.857  47.144  1.00  0.00     0.094 A 
ATOM     12  C   UNL     1      27.676  24.569  48.313  1.00  0.00     0.336 A 
ATOM     13  O   UNL     1      26.497  24.988  48.445  1.00  0.00    -0.246 OA
ATOM     14  O   UNL     1      28.233  23.854  49.288  1.00  0.00    -0.422 OA
ENDROOT
TORSDOF 0
ENDMDL
