MODEL 1
REMARK VINA RESULT:    -7.772      0.000      0.000
REMARK INTER + INTRA:          -8.454
REMARK INTER:                  -8.454
REMARK INTRA:                   0.000
REMARK UNBOUND:                 0.000
REMARK SMILES Cc1cc(O)c2c(c1)C(=O)c1cc(O)cc(O)c1C2=O
REMARK SMILES IDX 1 1 2 2 8 3 7 4 6 5 4 6 3 7 19 8 20 9 18 10 11 11 9 12 10 13
REMARK SMILES IDX 12 14 13 15 15 16 16 17 5 18 17 20 14 22
REMARK H PARENT 5 19 17 21 14 23
REMARK Flexibility Score: inf
ROOT
ATOM      1  C   UNL     1      -1.410   4.055   4.080  1.00  0.00     0.044 C 
ATOM      2  C   UNL     1      -1.630   2.573   4.147  1.00  0.00    -0.047 A 
ATOM      3  C   UNL     1      -2.344   2.014   5.212  1.00  0.00     0.016 A 
ATOM      4  C   UNL     1      -2.579   0.630   5.270  1.00  0.00     0.038 A 
ATOM      5  C   UNL     1      -2.092  -0.209   4.243  1.00  0.00     0.076 A 
ATOM      6  C   UNL     1      -1.443   0.373   3.124  1.00  0.00     0.127 A 
ATOM      7  C   UNL     1      -1.202   1.750   3.099  1.00  0.00     0.050 A 
ATOM      8  C   UNL     1      -2.231  -1.678   4.412  1.00  0.00     0.201 C 
ATOM      9  O   UNL     1      -1.379  -2.452   3.897  1.00  0.00    -0.288 OA
ATOM     10  C   UNL     1      -3.258  -2.222   5.338  1.00  0.00     0.076 A 
ATOM     11  C   UNL     1      -3.745  -1.378   6.363  1.00  0.00     0.041 A 
ATOM     12  C   UNL     1      -3.344   0.048   6.399  1.00  0.00     0.194 C 
ATOM     13  O   UNL     1      -3.673   0.772   7.379  1.00  0.00    -0.289 OA
ATOM     14  C   UNL     1      -4.612  -1.896   7.341  1.00  0.00     0.059 A 
ATOM     15  C   UNL     1      -5.009  -3.235   7.299  1.00  0.00     0.120 A 
ATOM     16  C   UNL     1      -4.563  -4.059   6.267  1.00  0.00     0.093 A 
ATOM     17  C   UNL     1      -3.715  -3.563   5.271  1.00  0.00     0.131 A 
ENDROOT
BRANCH   6  18
ATOM     18  O   UNL     1      -1.056  -0.369   2.006  1.00  0.00    -0.507 OA
ATOM     19  H   UNL     1      -0.491  -1.206   2.058  1.00  0.00     0.293 HD
ENDBRANCH   6  18
BRANCH  17  20
ATOM     20  O   UNL     1      -3.384  -4.423   4.221  1.00  0.00    -0.507 OA
ATOM     21  H   UNL     1      -3.480  -5.428   4.270  1.00  0.00     0.293 HD
ENDBRANCH  17  20
BRANCH  15  22
ATOM     22  O   UNL     1      -5.859  -3.754   8.274  1.00  0.00    -0.508 OA
ATOM     23  H   UNL     1      -5.842  -4.735   8.525  1.00  0.00     0.293 HD
ENDBRANCH  15  22
TORSDOF 3
ENDMDL
MODEL 2
REMARK VINA RESULT:    -7.644      2.969      6.420
REMARK INTER + INTRA:          -8.314
REMARK INTER:                  -8.314
REMARK INTRA:                   0.000
REMARK UNBOUND:                 0.000
REMARK SMILES Cc1cc(O)c2c(c1)C(=O)c1cc(O)cc(O)c1C2=O
REMARK SMILES IDX 1 1 2 2 8 3 7 4 6 5 4 6 3 7 19 8 20 9 18 10 11 11 9 12 10 13
REMARK SMILES IDX 12 14 13 15 15 16 16 17 5 18 17 20 14 22
REMARK H PARENT 5 19 17 21 14 23
REMARK Flexibility Score: inf
ROOT
ATOM      1  C   UNL     1      -1.498  -3.093   5.395  1.00  0.00     0.044 C 
ATOM      2  C   UNL     1      -1.460  -1.636   5.037  1.00  0.00    -0.047 A 
ATOM      3  C   UNL     1      -1.243  -0.673   6.028  1.00  0.00     0.016 A 
ATOM      4  C   UNL     1      -1.179   0.692   5.699  1.00  0.00     0.038 A 
ATOM      5  C   UNL     1      -1.332   1.099   4.354  1.00  0.00     0.076 A 
ATOM      6  C   UNL     1      -1.466   0.111   3.345  1.00  0.00     0.127 A 
ATOM      7  C   UNL     1      -1.549  -1.239   3.699  1.00  0.00     0.050 A 
ATOM      8  C   UNL     1      -1.406   2.553   4.065  1.00  0.00     0.201 C 
ATOM      9  O   UNL     1      -2.078   2.964   3.081  1.00  0.00    -0.288 OA
ATOM     10  C   UNL     1      -0.848   3.529   5.037  1.00  0.00     0.076 A 
ATOM     11  C   UNL     1      -0.693   3.118   6.381  1.00  0.00     0.041 A 
ATOM     12  C   UNL     1      -0.942   1.705   6.754  1.00  0.00     0.194 C 
ATOM     13  O   UNL     1      -0.928   1.361   7.968  1.00  0.00    -0.289 OA
ATOM     14  C   UNL     1      -0.299   4.050   7.356  1.00  0.00     0.059 A 
ATOM     15  C   UNL     1      -0.044   5.378   7.005  1.00  0.00     0.120 A 
ATOM     16  C   UNL     1      -0.156   5.778   5.674  1.00  0.00     0.093 A 
ATOM     17  C   UNL     1      -0.527   4.865   4.682  1.00  0.00     0.131 A 
ENDROOT
BRANCH   6  18
ATOM     18  O   UNL     1      -1.484   0.422   1.982  1.00  0.00    -0.507 OA
ATOM     19  H   UNL     1      -0.931  -0.065   1.290  1.00  0.00     0.293 HD
ENDBRANCH   6  18
BRANCH  17  20
ATOM     20  O   UNL     1      -0.530   5.316   3.360  1.00  0.00    -0.507 OA
ATOM     21  H   UNL     1       0.311   5.538   2.843  1.00  0.00     0.293 HD
ENDBRANCH  17  20
BRANCH  15  22
ATOM     22  O   UNL     1       0.335   6.307   7.972  1.00  0.00    -0.508 OA
ATOM     23  H   UNL     1       0.890   6.040   8.776  1.00  0.00     0.293 HD
ENDBRANCH  15  22
TORSDOF 3
ENDMDL
MODEL 3
REMARK VINA RESULT:    -7.386      2.664      5.971
REMARK INTER + INTRA:          -8.034
REMARK INTER:                  -8.034
REMARK INTRA:                   0.000
REMARK UNBOUND:                 0.000
REMARK SMILES Cc1cc(O)c2c(c1)C(=O)c1cc(O)cc(O)c1C2=O
REMARK SMILES IDX 1 1 2 2 8 3 7 4 6 5 4 6 3 7 19 8 20 9 18 10 11 11 9 12 10 13
REMARK SMILES IDX 12 14 13 15 15 16 16 17 5 18 17 20 14 22
REMARK H PARENT 5 19 17 21 14 23
REMARK Flexibility Score: inf
ROOT
ATOM      1  C   UNL     1      -1.037  -4.031   7.475  1.00  0.00     0.044 C 
ATOM      2  C   UNL     1      -1.209  -2.828   6.595  1.00  0.00    -0.047 A 
ATOM      3  C   UNL     1      -1.005  -1.544   7.109  1.00  0.00     0.016 A 
ATOM      4  C   UNL     1      -1.137  -0.413   6.286  1.00  0.00     0.038 A 
ATOM      5  C   UNL     1      -1.479  -0.571   4.924  1.00  0.00     0.076 A 
ATOM      6  C   UNL     1      -1.601  -1.879   4.389  1.00  0.00     0.127 A 
ATOM      7  C   UNL     1      -1.486  -2.988   5.233  1.00  0.00     0.050 A 
ATOM      8  C   UNL     1      -1.754   0.649   4.123  1.00  0.00     0.201 C 
ATOM      9  O   UNL     1      -2.571   0.599   3.164  1.00  0.00    -0.288 OA
ATOM     10  C   UNL     1      -1.216   1.961   4.566  1.00  0.00     0.076 A 
ATOM     11  C   UNL     1      -0.872   2.115   5.929  1.00  0.00     0.041 A 
ATOM     12  C   UNL     1      -0.912   0.945   6.837  1.00  0.00     0.194 C 
ATOM     13  O   UNL     1      -0.730   1.100   8.076  1.00  0.00    -0.289 OA
ATOM     14  C   UNL     1      -0.490   3.377   6.416  1.00  0.00     0.059 A 
ATOM     15  C   UNL     1      -0.433   4.479   5.559  1.00  0.00     0.120 A 
ATOM     16  C   UNL     1      -0.731   4.323   4.206  1.00  0.00     0.093 A 
ATOM     17  C   UNL     1      -1.095   3.073   3.693  1.00  0.00     0.131 A 
ENDROOT
BRANCH   6  18
ATOM     18  O   UNL     1      -1.799  -2.123   3.028  1.00  0.00    -0.507 OA
ATOM     19  H   UNL     1      -2.676  -2.444   2.639  1.00  0.00     0.293 HD
ENDBRANCH   6  18
BRANCH  17  20
ATOM     20  O   UNL     1      -1.290   2.975   2.314  1.00  0.00    -0.507 OA
ATOM     21  H   UNL     1      -1.698   3.711   1.753  1.00  0.00     0.293 HD
ENDBRANCH  17  20
BRANCH  15  22
ATOM     22  O   UNL     1      -0.066   5.734   6.040  1.00  0.00    -0.508 OA
ATOM     23  H   UNL     1      -0.536   6.578   5.735  1.00  0.00     0.293 HD
ENDBRANCH  15  22
TORSDOF 3
ENDMDL
MODEL 4
REMARK VINA RESULT:    -7.361      2.347      6.390
REMARK INTER + INTRA:          -8.007
REMARK INTER:                  -8.007
REMARK INTRA:                   0.000
REMARK UNBOUND:                 0.000
REMARK SMILES Cc1cc(O)c2c(c1)C(=O)c1cc(O)cc(O)c1C2=O
REMARK SMILES IDX 1 1 2 2 8 3 7 4 6 5 4 6 3 7 19 8 20 9 18 10 11 11 9 12 10 13
REMARK SMILES IDX 12 14 13 15 15 16 16 17 5 18 17 20 14 22
REMARK H PARENT 5 19 17 21 14 23
REMARK Flexibility Score: inf
ROOT
ATOM      1  C   UNL     1      -2.524  -4.387   3.556  1.00  0.00     0.044 C 
ATOM      2  C   UNL     1      -2.152  -3.109   4.247  1.00  0.00    -0.047 A 
ATOM      3  C   UNL     1      -1.884  -1.956   3.501  1.00  0.00     0.016 A 
ATOM      4  C   UNL     1      -1.561  -0.747   4.141  1.00  0.00     0.038 A 
ATOM      5  C   UNL     1      -1.506  -0.691   5.552  1.00  0.00     0.076 A 
ATOM      6  C   UNL     1      -1.862  -1.841   6.303  1.00  0.00     0.127 A 
ATOM      7  C   UNL     1      -2.159  -3.038   5.644  1.00  0.00     0.050 A 
ATOM      8  C   UNL     1      -1.019   0.560   6.186  1.00  0.00     0.201 C 
ATOM      9  O   UNL     1      -0.420   0.509   7.294  1.00  0.00    -0.288 OA
ATOM     10  C   UNL     1      -1.069   1.839   5.432  1.00  0.00     0.076 A 
ATOM     11  C   UNL     1      -1.126   1.779   4.020  1.00  0.00     0.041 A 
ATOM     12  C   UNL     1      -1.285   0.471   3.343  1.00  0.00     0.194 C 
ATOM     13  O   UNL     1      -1.210   0.398   2.085  1.00  0.00    -0.289 OA
ATOM     14  C   UNL     1      -1.037   2.962   3.266  1.00  0.00     0.059 A 
ATOM     15  C   UNL     1      -0.907   4.199   3.902  1.00  0.00     0.120 A 
ATOM     16  C   UNL     1      -0.891   4.266   5.294  1.00  0.00     0.093 A 
ATOM     17  C   UNL     1      -0.998   3.106   6.068  1.00  0.00     0.131 A 
ENDROOT
BRANCH   6  18
ATOM     18  O   UNL     1      -1.968  -1.828   7.696  1.00  0.00    -0.507 OA
ATOM     19  H   UNL     1      -2.388  -1.071   8.218  1.00  0.00     0.293 HD
ENDBRANCH   6  18
BRANCH  17  20
ATOM     20  O   UNL     1      -1.067   3.260   7.454  1.00  0.00    -0.507 OA
ATOM     21  H   UNL     1      -0.329   2.979   8.085  1.00  0.00     0.293 HD
ENDBRANCH  17  20
BRANCH  15  22
ATOM     22  O   UNL     1      -0.805   5.373   3.157  1.00  0.00    -0.508 OA
ATOM     23  H   UNL     1      -1.371   5.527   2.331  1.00  0.00     0.293 HD
ENDBRANCH  15  22
TORSDOF 3
ENDMDL
MODEL 5
REMARK VINA RESULT:    -7.286      1.557      5.448
REMARK INTER + INTRA:          -7.925
REMARK INTER:                  -7.925
REMARK INTRA:                   0.000
REMARK UNBOUND:                 0.000
REMARK SMILES Cc1cc(O)c2c(c1)C(=O)c1cc(O)cc(O)c1C2=O
REMARK SMILES IDX 1 1 2 2 8 3 7 4 6 5 4 6 3 7 19 8 20 9 18 10 11 11 9 12 10 13
REMARK SMILES IDX 12 14 13 15 15 16 16 17 5 18 17 20 14 22
REMARK H PARENT 5 19 17 21 14 23
REMARK Flexibility Score: inf
ROOT
ATOM      1  C   UNL     1      -4.182  -4.685   8.978  1.00  0.00     0.044 C 
ATOM      2  C   UNL     1      -3.691  -4.001   7.737  1.00  0.00    -0.047 A 
ATOM      3  C   UNL     1      -3.950  -2.642   7.532  1.00  0.00     0.016 A 
ATOM      4  C   UNL     1      -3.470  -1.986   6.385  1.00  0.00     0.038 A 
ATOM      5  C   UNL     1      -2.718  -2.703   5.428  1.00  0.00     0.076 A 
ATOM      6  C   UNL     1      -2.387  -4.059   5.683  1.00  0.00     0.127 A 
ATOM      7  C   UNL     1      -2.893  -4.696   6.821  1.00  0.00     0.050 A 
ATOM      8  C   UNL     1      -2.356  -2.017   4.161  1.00  0.00     0.201 C 
ATOM      9  O   UNL     1      -2.225  -2.685   3.101  1.00  0.00    -0.288 OA
ATOM     10  C   UNL     1      -2.333  -0.532   4.107  1.00  0.00     0.076 A 
ATOM     11  C   UNL     1      -3.085   0.182   5.067  1.00  0.00     0.041 A 
ATOM     12  C   UNL     1      -3.743  -0.544   6.179  1.00  0.00     0.194 C 
ATOM     13  O   UNL     1      -4.517   0.071   6.964  1.00  0.00    -0.289 OA
ATOM     14  C   UNL     1      -3.201   1.580   4.966  1.00  0.00     0.059 A 
ATOM     15  C   UNL     1      -2.565   2.270   3.931  1.00  0.00     0.120 A 
ATOM     16  C   UNL     1      -1.790   1.574   3.005  1.00  0.00     0.093 A 
ATOM     17  C   UNL     1      -1.643   0.186   3.096  1.00  0.00     0.131 A 
ENDROOT
BRANCH   6  18
ATOM     18  O   UNL     1      -1.534  -4.796   4.858  1.00  0.00    -0.507 OA
ATOM     19  H   UNL     1      -0.559  -4.960   5.066  1.00  0.00     0.293 HD
ENDBRANCH   6  18
BRANCH  17  20
ATOM     20  O   UNL     1      -0.778  -0.430   2.189  1.00  0.00    -0.507 OA
ATOM     21  H   UNL     1       0.052  -0.938   2.464  1.00  0.00     0.293 HD
ENDBRANCH  17  20
BRANCH  15  22
ATOM     22  O   UNL     1      -2.688   3.654   3.822  1.00  0.00    -0.508 OA
ATOM     23  H   UNL     1      -2.614   4.259   4.631  1.00  0.00     0.293 HD
ENDBRANCH  15  22
TORSDOF 3
ENDMDL
MODEL 6
REMARK VINA RESULT:    -7.220     13.328     15.865
REMARK INTER + INTRA:          -7.853
REMARK INTER:                  -7.853
REMARK INTRA:                   0.000
REMARK UNBOUND:                 0.000
REMARK SMILES Cc1cc(O)c2c(c1)C(=O)c1cc(O)cc(O)c1C2=O
REMARK SMILES IDX 1 1 2 2 8 3 7 4 6 5 4 6 3 7 19 8 20 9 18 10 11 11 9 12 10 13
REMARK SMILES IDX 12 14 13 15 15 16 16 17 5 18 17 20 14 22
REMARK H PARENT 5 19 17 21 14 23
REMARK Flexibility Score: inf
ROOT
ATOM      1  C   UNL     1      -3.741   2.052 -11.005  1.00  0.00     0.044 C 
ATOM      2  C   UNL     1      -2.902   2.687  -9.937  1.00  0.00    -0.047 A 
ATOM      3  C   UNL     1      -1.825   3.510 -10.284  1.00  0.00     0.016 A 
ATOM      4  C   UNL     1      -1.049   4.132  -9.290  1.00  0.00     0.038 A 
ATOM      5  C   UNL     1      -1.358   3.928  -7.927  1.00  0.00     0.076 A 
ATOM      6  C   UNL     1      -2.502   3.162  -7.584  1.00  0.00     0.127 A 
ATOM      7  C   UNL     1      -3.246   2.536  -8.590  1.00  0.00     0.050 A 
ATOM      8  C   UNL     1      -0.430   4.479  -6.906  1.00  0.00     0.201 C 
ATOM      9  O   UNL     1      -0.301   3.897  -5.796  1.00  0.00    -0.288 OA
ATOM     10  C   UNL     1       0.478   5.600  -7.263  1.00  0.00     0.076 A 
ATOM     11  C   UNL     1       0.783   5.803  -8.628  1.00  0.00     0.041 A 
ATOM     12  C   UNL     1       0.086   5.008  -9.667  1.00  0.00     0.194 C 
ATOM     13  O   UNL     1       0.443   5.095 -10.874  1.00  0.00    -0.289 OA
ATOM     14  C   UNL     1       1.742   6.762  -8.995  1.00  0.00     0.059 A 
ATOM     15  C   UNL     1       2.387   7.528  -8.020  1.00  0.00     0.120 A 
ATOM     16  C   UNL     1       2.060   7.359  -6.676  1.00  0.00     0.093 A 
ATOM     17  C   UNL     1       1.094   6.425  -6.286  1.00  0.00     0.131 A 
ENDROOT
BRANCH   6  18
ATOM     18  O   UNL     1      -2.955   3.027  -6.269  1.00  0.00    -0.507 OA
ATOM     19  H   UNL     1      -2.371   2.707  -5.507  1.00  0.00     0.293 HD
ENDBRANCH   6  18
BRANCH  17  20
ATOM     20  O   UNL     1       0.754   6.377  -4.933  1.00  0.00    -0.507 OA
ATOM     21  H   UNL     1      -0.180   6.185  -4.598  1.00  0.00     0.293 HD
ENDBRANCH  17  20
BRANCH  15  22
ATOM     22  O   UNL     1       3.348   8.471  -8.380  1.00  0.00    -0.508 OA
ATOM     23  H   UNL     1       3.661   8.572  -9.338  1.00  0.00     0.293 HD
ENDBRANCH  15  22
TORSDOF 3
ENDMDL
MODEL 7
REMARK VINA RESULT:    -7.186      1.608      2.257
REMARK INTER + INTRA:          -7.817
REMARK INTER:                  -7.817
REMARK INTRA:                   0.000
REMARK UNBOUND:                 0.000
REMARK SMILES Cc1cc(O)c2c(c1)C(=O)c1cc(O)cc(O)c1C2=O
REMARK SMILES IDX 1 1 2 2 8 3 7 4 6 5 4 6 3 7 19 8 20 9 18 10 11 11 9 12 10 13
REMARK SMILES IDX 12 14 13 15 15 16 16 17 5 18 17 20 14 22
REMARK H PARENT 5 19 17 21 14 23
REMARK Flexibility Score: inf
ROOT
ATOM      1  C   UNL     1      -4.415   3.223   6.339  1.00  0.00     0.044 C 
ATOM      2  C   UNL     1      -3.946   1.907   5.790  1.00  0.00    -0.047 A 
ATOM      3  C   UNL     1      -4.238   0.718   6.465  1.00  0.00     0.016 A 
ATOM      4  C   UNL     1      -3.826  -0.521   5.946  1.00  0.00     0.038 A 
ATOM      5  C   UNL     1      -3.111  -0.570   4.728  1.00  0.00     0.076 A 
ATOM      6  C   UNL     1      -2.892   0.632   4.007  1.00  0.00     0.127 A 
ATOM      7  C   UNL     1      -3.292   1.855   4.555  1.00  0.00     0.050 A 
ATOM      8  C   UNL     1      -2.565  -1.878   4.286  1.00  0.00     0.201 C 
ATOM      9  O   UNL     1      -1.508  -1.918   3.601  1.00  0.00    -0.288 OA
ATOM     10  C   UNL     1      -3.155  -3.138   4.807  1.00  0.00     0.076 A 
ATOM     11  C   UNL     1      -3.873  -3.086   6.024  1.00  0.00     0.041 A 
ATOM     12  C   UNL     1      -4.147  -1.778   6.664  1.00  0.00     0.194 C 
ATOM     13  O   UNL     1      -4.675  -1.733   7.809  1.00  0.00    -0.289 OA
ATOM     14  C   UNL     1      -4.328  -4.275   6.619  1.00  0.00     0.059 A 
ATOM     15  C   UNL     1      -4.089  -5.509   6.009  1.00  0.00     0.120 A 
ATOM     16  C   UNL     1      -3.417  -5.562   4.789  1.00  0.00     0.093 A 
ATOM     17  C   UNL     1      -2.972  -4.392   4.166  1.00  0.00     0.131 A 
ENDROOT
BRANCH   6  18
ATOM     18  O   UNL     1      -2.317   0.654   2.733  1.00  0.00    -0.507 OA
ATOM     19  H   UNL     1      -1.367   0.951   2.554  1.00  0.00     0.293 HD
ENDBRANCH   6  18
BRANCH  17  20
ATOM     20  O   UNL     1      -2.388  -4.516   2.904  1.00  0.00    -0.507 OA
ATOM     21  H   UNL     1      -1.825  -5.308   2.623  1.00  0.00     0.293 HD
ENDBRANCH  17  20
BRANCH  15  22
ATOM     22  O   UNL     1      -4.528  -6.691   6.603  1.00  0.00    -0.508 OA
ATOM     23  H   UNL     1      -5.504  -6.965   6.582  1.00  0.00     0.293 HD
ENDBRANCH  15  22
TORSDOF 3
ENDMDL
MODEL 8
REMARK VINA RESULT:    -7.171      2.332      2.824
REMARK INTER + INTRA:          -7.800
REMARK INTER:                  -7.800
REMARK INTRA:                   0.000
REMARK UNBOUND:                 0.000
REMARK SMILES Cc1cc(O)c2c(c1)C(=O)c1cc(O)cc(O)c1C2=O
REMARK SMILES IDX 1 1 2 2 8 3 7 4 6 5 4 6 3 7 19 8 20 9 18 10 11 11 9 12 10 13
REMARK SMILES IDX 12 14 13 15 15 16 16 17 5 18 17 20 14 22
REMARK H PARENT 5 19 17 21 14 23
REMARK Flexibility Score: inf
ROOT
ATOM      1  C   UNL     1      -0.802   5.056   6.738  1.00  0.00     0.044 C 
ATOM      2  C   UNL     1      -0.976   3.752   6.016  1.00  0.00    -0.047 A 
ATOM      3  C   UNL     1      -0.772   2.542   6.687  1.00  0.00     0.016 A 
ATOM      4  C   UNL     1      -0.959   1.316   6.026  1.00  0.00     0.038 A 
ATOM      5  C   UNL     1      -1.360   1.302   4.671  1.00  0.00     0.076 A 
ATOM      6  C   UNL     1      -1.647   2.530   4.022  1.00  0.00     0.127 A 
ATOM      7  C   UNL     1      -1.433   3.738   4.694  1.00  0.00     0.050 A 
ATOM      8  C   UNL     1      -1.405  -0.005   3.966  1.00  0.00     0.201 C 
ATOM      9  O   UNL     1      -1.185  -0.056   2.726  1.00  0.00    -0.288 OA
ATOM     10  C   UNL     1      -1.521  -1.262   4.748  1.00  0.00     0.076 A 
ATOM     11  C   UNL     1      -1.122  -1.244   6.104  1.00  0.00     0.041 A 
ATOM     12  C   UNL     1      -0.748   0.038   6.747  1.00  0.00     0.194 C 
ATOM     13  O   UNL     1      -0.272   0.044   7.915  1.00  0.00    -0.289 OA
ATOM     14  C   UNL     1      -1.086  -2.442   6.839  1.00  0.00     0.059 A 
ATOM     15  C   UNL     1      -1.457  -3.650   6.243  1.00  0.00     0.120 A 
ATOM     16  C   UNL     1      -1.890  -3.666   4.918  1.00  0.00     0.093 A 
ATOM     17  C   UNL     1      -1.953  -2.485   4.171  1.00  0.00     0.131 A 
ENDROOT
BRANCH   6  18
ATOM     18  O   UNL     1      -2.179   2.596   2.732  1.00  0.00    -0.507 OA
ATOM     19  H   UNL     1      -2.222   1.804   2.104  1.00  0.00     0.293 HD
ENDBRANCH   6  18
BRANCH  17  20
ATOM     20  O   UNL     1      -2.482  -2.566   2.882  1.00  0.00    -0.507 OA
ATOM     21  H   UNL     1      -3.408  -2.241   2.635  1.00  0.00     0.293 HD
ENDBRANCH  17  20
BRANCH  15  22
ATOM     22  O   UNL     1      -1.412  -4.841   6.965  1.00  0.00    -0.508 OA
ATOM     23  H   UNL     1      -1.186  -4.854   7.953  1.00  0.00     0.293 HD
ENDBRANCH  15  22
TORSDOF 3
ENDMDL
MODEL 9
REMARK VINA RESULT:    -7.151      1.208      6.280
REMARK INTER + INTRA:          -7.778
REMARK INTER:                  -7.778
REMARK INTRA:                   0.000
REMARK UNBOUND:                 0.000
REMARK SMILES Cc1cc(O)c2c(c1)C(=O)c1cc(O)cc(O)c1C2=O
REMARK SMILES IDX 1 1 2 2 8 3 7 4 6 5 4 6 3 7 19 8 20 9 18 10 11 11 9 12 10 13
REMARK SMILES IDX 12 14 13 15 15 16 16 17 5 18 17 20 14 22
REMARK H PARENT 5 19 17 21 14 23
REMARK Flexibility Score: inf
ROOT
ATOM      1  C   UNL     1      -4.129  -6.239   5.662  1.00  0.00     0.044 C 
ATOM      2  C   UNL     1      -4.050  -4.749   5.816  1.00  0.00    -0.047 A 
ATOM      3  C   UNL     1      -3.229  -3.996   4.970  1.00  0.00     0.016 A 
ATOM      4  C   UNL     1      -3.169  -2.597   5.088  1.00  0.00     0.038 A 
ATOM      5  C   UNL     1      -3.946  -1.941   6.069  1.00  0.00     0.076 A 
ATOM      6  C   UNL     1      -4.840  -2.702   6.866  1.00  0.00     0.127 A 
ATOM      7  C   UNL     1      -4.866  -4.095   6.745  1.00  0.00     0.050 A 
ATOM      8  C   UNL     1      -3.746  -0.482   6.263  1.00  0.00     0.201 C 
ATOM      9  O   UNL     1      -3.928   0.031   7.400  1.00  0.00    -0.288 OA
ATOM     10  C   UNL     1      -3.155   0.334   5.170  1.00  0.00     0.076 A 
ATOM     11  C   UNL     1      -2.380  -0.326   4.189  1.00  0.00     0.041 A 
ATOM     12  C   UNL     1      -2.302  -1.806   4.183  1.00  0.00     0.194 C 
ATOM     13  O   UNL     1      -1.514  -2.393   3.391  1.00  0.00    -0.289 OA
ATOM     14  C   UNL     1      -1.692   0.424   3.220  1.00  0.00     0.059 A 
ATOM     15  C   UNL     1      -1.780   1.818   3.210  1.00  0.00     0.120 A 
ATOM     16  C   UNL     1      -2.575   2.471   4.152  1.00  0.00     0.093 A 
ATOM     17  C   UNL     1      -3.286   1.746   5.113  1.00  0.00     0.131 A 
ENDROOT
BRANCH   6  18
ATOM     18  O   UNL     1      -5.740  -2.116   7.759  1.00  0.00    -0.507 OA
ATOM     19  H   UNL     1      -6.729  -2.328   7.776  1.00  0.00     0.293 HD
ENDBRANCH   6  18
BRANCH  17  20
ATOM     20  O   UNL     1      -4.132   2.461   5.964  1.00  0.00    -0.507 OA
ATOM     21  H   UNL     1      -5.140   2.443   5.893  1.00  0.00     0.293 HD
ENDBRANCH  17  20
BRANCH  15  22
ATOM     22  O   UNL     1      -1.089   2.566   2.259  1.00  0.00    -0.508 OA
ATOM     23  H   UNL     1      -0.896   3.551   2.395  1.00  0.00     0.293 HD
ENDBRANCH  15  22
TORSDOF 3
ENDMDL
