MODEL 1
REMARK VINA RESULT:    -5.970      0.000      0.000
REMARK INTER + INTRA:          -6.412
REMARK INTER:                  -6.319
REMARK INTRA:                  -0.092
REMARK UNBOUND:                -0.092
REMARK SMILES C=C(C)[C@@H]1CC=C(C)C(=O)C1
REMARK SMILES IDX 8 1 7 2 6 3 5 4 4 5 11 6 9 7 10 8 2 9 1 10 3 11
REMARK H PARENT
REMARK Flexibility Score: inf
ROOT
ATOM      1  C   UNL     1      -7.760  34.935  26.130  1.00  0.00     0.048 C 
ATOM      2  C   UNL     1      -7.784  34.296  24.769  1.00  0.00    -0.012 C 
ATOM      3  C   UNL     1      -7.846  35.065  23.669  1.00  0.00    -0.019 C 
ATOM      4  C   UNL     1      -7.854  34.477  22.283  1.00  0.00     0.036 C 
ATOM      5  C   UNL     1      -8.565  33.110  22.264  1.00  0.00     0.025 C 
ATOM      6  C   UNL     1      -7.928  32.162  23.297  1.00  0.00     0.089 C 
ATOM      7  C   UNL     1      -7.864  32.818  24.649  1.00  0.00     0.158 C 
ATOM      8  O   UNL     1      -7.841  32.095  25.681  1.00  0.00    -0.295 OA
ENDROOT
BRANCH   5   9
ATOM      9  C   UNL     1      -8.572  32.499  20.869  1.00  0.00    -0.077 C 
ATOM     10  C   UNL     1      -9.548  31.661  20.479  1.00  0.00     0.008 C 
ATOM     11  C   UNL     1      -7.470  32.826  19.895  1.00  0.00     0.039 C 
ENDBRANCH   5   9
TORSDOF 1
ENDMDL
MODEL 2
REMARK VINA RESULT:    -5.800      1.627      4.267
REMARK INTER + INTRA:          -6.232
REMARK INTER:                  -6.134
REMARK INTRA:                  -0.098
REMARK UNBOUND:                -0.092
REMARK SMILES C=C(C)[C@@H]1CC=C(C)C(=O)C1
REMARK SMILES IDX 8 1 7 2 6 3 5 4 4 5 11 6 9 7 10 8 2 9 1 10 3 11
REMARK H PARENT
REMARK Flexibility Score: inf
ROOT
ATOM      1  C   UNL     1      -7.531  33.066  19.746  1.00  0.00     0.048 C 
ATOM      2  C   UNL     1      -7.804  33.291  21.209  1.00  0.00    -0.012 C 
ATOM      3  C   UNL     1      -7.867  34.542  21.693  1.00  0.00    -0.019 C 
ATOM      4  C   UNL     1      -8.154  34.823  23.145  1.00  0.00     0.036 C 
ATOM      5  C   UNL     1      -7.584  33.713  24.048  1.00  0.00     0.025 C 
ATOM      6  C   UNL     1      -8.113  32.337  23.604  1.00  0.00     0.089 C 
ATOM      7  C   UNL     1      -7.880  32.131  22.132  1.00  0.00     0.158 C 
ATOM      8  O   UNL     1      -7.786  30.956  21.684  1.00  0.00    -0.295 OA
ENDROOT
BRANCH   5   9
ATOM      9  C   UNL     1      -7.876  33.979  25.519  1.00  0.00    -0.077 C 
ATOM     10  C   UNL     1      -7.858  32.987  26.425  1.00  0.00     0.008 C 
ATOM     11  C   UNL     1      -8.195  35.376  25.986  1.00  0.00     0.039 C 
ENDBRANCH   5   9
TORSDOF 1
ENDMDL
MODEL 3
REMARK VINA RESULT:    -5.788      2.211      2.880
REMARK INTER + INTRA:          -6.219
REMARK INTER:                  -6.125
REMARK INTRA:                  -0.094
REMARK UNBOUND:                -0.092
REMARK SMILES C=C(C)[C@@H]1CC=C(C)C(=O)C1
REMARK SMILES IDX 8 1 7 2 6 3 5 4 4 5 11 6 9 7 10 8 2 9 1 10 3 11
REMARK H PARENT
REMARK Flexibility Score: inf
ROOT
ATOM      1  C   UNL     1      -7.168  30.111  26.323  1.00  0.00     0.048 C 
ATOM      2  C   UNL     1      -7.632  30.472  24.939  1.00  0.00    -0.012 C 
ATOM      3  C   UNL     1      -6.942  30.045  23.868  1.00  0.00    -0.019 C 
ATOM      4  C   UNL     1      -7.373  30.363  22.461  1.00  0.00     0.036 C 
ATOM      5  C   UNL     1      -8.061  31.739  22.389  1.00  0.00     0.025 C 
ATOM      6  C   UNL     1      -9.232  31.804  23.387  1.00  0.00     0.089 C 
ATOM      7  C   UNL     1      -8.778  31.401  24.763  1.00  0.00     0.158 C 
ATOM      8  O   UNL     1      -9.405  31.831  25.768  1.00  0.00    -0.295 OA
ENDROOT
BRANCH   5   9
ATOM      9  C   UNL     1      -8.512  32.070  20.972  1.00  0.00    -0.077 C 
ATOM     10  C   UNL     1      -9.707  31.667  20.507  1.00  0.00     0.008 C 
ATOM     11  C   UNL     1      -7.612  32.863  20.059  1.00  0.00     0.039 C 
ENDBRANCH   5   9
TORSDOF 1
ENDMDL
MODEL 4
REMARK VINA RESULT:    -5.770      2.425      3.690
REMARK INTER + INTRA:          -6.200
REMARK INTER:                  -6.106
REMARK INTRA:                  -0.094
REMARK UNBOUND:                -0.092
REMARK SMILES C=C(C)[C@@H]1CC=C(C)C(=O)C1
REMARK SMILES IDX 8 1 7 2 6 3 5 4 4 5 11 6 9 7 10 8 2 9 1 10 3 11
REMARK H PARENT
REMARK Flexibility Score: inf
ROOT
ATOM      1  C   UNL     1      -8.593  28.651  24.862  1.00  0.00     0.048 C 
ATOM      2  C   UNL     1      -8.236  29.802  23.962  1.00  0.00    -0.012 C 
ATOM      3  C   UNL     1      -7.935  30.999  24.493  1.00  0.00    -0.019 C 
ATOM      4  C   UNL     1      -7.554  32.179  23.638  1.00  0.00     0.036 C 
ATOM      5  C   UNL     1      -8.284  32.141  22.282  1.00  0.00     0.025 C 
ATOM      6  C   UNL     1      -8.025  30.798  21.573  1.00  0.00     0.089 C 
ATOM      7  C   UNL     1      -8.340  29.647  22.489  1.00  0.00     0.158 C 
ATOM      8  O   UNL     1      -8.657  28.534  21.989  1.00  0.00    -0.295 OA
ENDROOT
BRANCH   5   9
ATOM      9  C   UNL     1      -7.901  33.323  21.402  1.00  0.00    -0.077 C 
ATOM     10  C   UNL     1      -7.896  34.579  21.882  1.00  0.00     0.008 C 
ATOM     11  C   UNL     1      -7.520  33.100  19.961  1.00  0.00     0.039 C 
ENDBRANCH   5   9
TORSDOF 1
ENDMDL
MODEL 5
REMARK VINA RESULT:    -5.708      2.789      4.012
REMARK INTER + INTRA:          -6.134
REMARK INTER:                  -6.039
REMARK INTRA:                  -0.095
REMARK UNBOUND:                -0.092
REMARK SMILES C=C(C)[C@@H]1CC=C(C)C(=O)C1
REMARK SMILES IDX 8 1 7 2 6 3 5 4 4 5 11 6 9 7 10 8 2 9 1 10 3 11
REMARK H PARENT
REMARK Flexibility Score: inf
ROOT
ATOM      1  C   UNL     1      -7.870  34.625  22.062  1.00  0.00     0.048 C 
ATOM      2  C   UNL     1      -8.186  33.187  22.370  1.00  0.00    -0.012 C 
ATOM      3  C   UNL     1      -8.402  32.806  23.640  1.00  0.00    -0.019 C 
ATOM      4  C   UNL     1      -8.739  31.384  24.000  1.00  0.00     0.036 C 
ATOM      5  C   UNL     1      -8.052  30.391  23.043  1.00  0.00     0.025 C 
ATOM      6  C   UNL     1      -8.409  30.723  21.582  1.00  0.00     0.089 C 
ATOM      7  C   UNL     1      -8.135  32.172  21.287  1.00  0.00     0.158 C 
ATOM      8  O   UNL     1      -7.897  32.523  20.100  1.00  0.00    -0.295 OA
ENDROOT
BRANCH   5   9
ATOM      9  C   UNL     1      -8.392  28.947  23.390  1.00  0.00    -0.077 C 
ATOM     10  C   UNL     1      -8.622  28.569  24.659  1.00  0.00     0.008 C 
ATOM     11  C   UNL     1      -8.474  27.908  22.302  1.00  0.00     0.039 C 
ENDBRANCH   5   9
TORSDOF 1
ENDMDL
MODEL 6
REMARK VINA RESULT:    -5.700      2.261      3.642
REMARK INTER + INTRA:          -6.125
REMARK INTER:                  -6.027
REMARK INTRA:                  -0.098
REMARK UNBOUND:                -0.092
REMARK SMILES C=C(C)[C@@H]1CC=C(C)C(=O)C1
REMARK SMILES IDX 8 1 7 2 6 3 5 4 4 5 11 6 9 7 10 8 2 9 1 10 3 11
REMARK H PARENT
REMARK Flexibility Score: inf
ROOT
ATOM      1  C   UNL     1      -7.876  34.633  21.718  1.00  0.00     0.048 C 
ATOM      2  C   UNL     1      -7.866  33.182  22.113  1.00  0.00    -0.012 C 
ATOM      3  C   UNL     1      -8.164  32.238  21.204  1.00  0.00    -0.019 C 
ATOM      4  C   UNL     1      -8.151  30.771  21.543  1.00  0.00     0.036 C 
ATOM      5  C   UNL     1      -8.565  30.535  23.008  1.00  0.00     0.025 C 
ATOM      6  C   UNL     1      -7.673  31.361  23.954  1.00  0.00     0.089 C 
ATOM      7  C   UNL     1      -7.648  32.805  23.533  1.00  0.00     0.158 C 
ATOM      8  O   UNL     1      -7.403  33.692  24.394  1.00  0.00    -0.295 OA
ENDROOT
BRANCH   5   9
ATOM      9  C   UNL     1      -8.547  29.056  23.368  1.00  0.00    -0.077 C 
ATOM     10  C   UNL     1      -8.554  28.648  24.648  1.00  0.00     0.008 C 
ATOM     11  C   UNL     1      -8.519  28.014  22.279  1.00  0.00     0.039 C 
ENDBRANCH   5   9
TORSDOF 1
ENDMDL
MODEL 7
REMARK VINA RESULT:    -5.572      2.323      4.623
REMARK INTER + INTRA:          -5.991
REMARK INTER:                  -5.895
REMARK INTRA:                  -0.096
REMARK UNBOUND:                -0.092
REMARK SMILES C=C(C)[C@@H]1CC=C(C)C(=O)C1
REMARK SMILES IDX 8 1 7 2 6 3 5 4 4 5 11 6 9 7 10 8 2 9 1 10 3 11
REMARK H PARENT
REMARK Flexibility Score: inf
ROOT
ATOM      1  C   UNL     1      -8.632  28.526  21.999  1.00  0.00     0.048 C 
ATOM      2  C   UNL     1      -8.236  29.922  22.395  1.00  0.00    -0.012 C 
ATOM      3  C   UNL     1      -7.466  30.117  23.478  1.00  0.00    -0.019 C 
ATOM      4  C   UNL     1      -7.026  31.492  23.908  1.00  0.00     0.036 C 
ATOM      5  C   UNL     1      -8.094  32.548  23.567  1.00  0.00     0.025 C 
ATOM      6  C   UNL     1      -8.444  32.489  22.068  1.00  0.00     0.089 C 
ATOM      7  C   UNL     1      -8.798  31.085  21.662  1.00  0.00     0.158 C 
ATOM      8  O   UNL     1      -9.549  30.905  20.666  1.00  0.00    -0.295 OA
ENDROOT
BRANCH   5   9
ATOM      9  C   UNL     1      -7.658  33.946  23.988  1.00  0.00    -0.077 C 
ATOM     10  C   UNL     1      -7.286  34.864  23.080  1.00  0.00     0.008 C 
ATOM     11  C   UNL     1      -7.636  34.323  25.446  1.00  0.00     0.039 C 
ENDBRANCH   5   9
TORSDOF 1
ENDMDL
MODEL 8
REMARK VINA RESULT:    -5.568      2.081      4.121
REMARK INTER + INTRA:          -5.985
REMARK INTER:                  -5.890
REMARK INTRA:                  -0.095
REMARK UNBOUND:                -0.092
REMARK SMILES C=C(C)[C@@H]1CC=C(C)C(=O)C1
REMARK SMILES IDX 8 1 7 2 6 3 5 4 4 5 11 6 9 7 10 8 2 9 1 10 3 11
REMARK H PARENT
REMARK Flexibility Score: inf
ROOT
ATOM      1  C   UNL     1      -8.235  28.012  22.756  1.00  0.00     0.048 C 
ATOM      2  C   UNL     1      -8.272  29.507  22.914  1.00  0.00    -0.012 C 
ATOM      3  C   UNL     1      -8.367  30.293  21.828  1.00  0.00    -0.019 C 
ATOM      4  C   UNL     1      -8.425  31.794  21.931  1.00  0.00     0.036 C 
ATOM      5  C   UNL     1      -7.606  32.300  23.134  1.00  0.00     0.025 C 
ATOM      6  C   UNL     1      -8.072  31.607  24.428  1.00  0.00     0.089 C 
ATOM      7  C   UNL     1      -8.078  30.113  24.255  1.00  0.00     0.158 C 
ATOM      8  O   UNL     1      -7.952  29.377  25.271  1.00  0.00    -0.295 OA
ENDROOT
BRANCH   5   9
ATOM      9  C   UNL     1      -7.664  33.817  23.257  1.00  0.00    -0.077 C 
ATOM     10  C   UNL     1      -7.848  34.599  22.179  1.00  0.00     0.008 C 
ATOM     11  C   UNL     1      -7.513  34.472  24.605  1.00  0.00     0.039 C 
ENDBRANCH   5   9
TORSDOF 1
ENDMDL
MODEL 9
REMARK VINA RESULT:    -5.472      1.317      2.288
REMARK INTER + INTRA:          -5.885
REMARK INTER:                  -5.791
REMARK INTRA:                  -0.094
REMARK UNBOUND:                -0.092
REMARK SMILES C=C(C)[C@@H]1CC=C(C)C(=O)C1
REMARK SMILES IDX 8 1 7 2 6 3 5 4 4 5 11 6 9 7 10 8 2 9 1 10 3 11
REMARK H PARENT
REMARK Flexibility Score: inf
ROOT
ATOM      1  C   UNL     1      -7.559  33.135  26.806  1.00  0.00     0.048 C 
ATOM      2  C   UNL     1      -7.931  33.013  25.354  1.00  0.00    -0.012 C 
ATOM      3  C   UNL     1      -8.217  31.808  24.835  1.00  0.00    -0.019 C 
ATOM      4  C   UNL     1      -8.612  31.632  23.392  1.00  0.00     0.036 C 
ATOM      5  C   UNL     1      -7.911  32.670  22.495  1.00  0.00     0.025 C 
ATOM      6  C   UNL     1      -8.191  34.095  23.008  1.00  0.00     0.089 C 
ATOM      7  C   UNL     1      -7.861  34.205  24.471  1.00  0.00     0.158 C 
ATOM      8  O   UNL     1      -7.558  35.332  24.949  1.00  0.00    -0.295 OA
ENDROOT
BRANCH   5   9
ATOM      9  C   UNL     1      -8.309  32.511  21.034  1.00  0.00    -0.077 C 
ATOM     10  C   UNL     1      -7.561  33.030  20.045  1.00  0.00     0.008 C 
ATOM     11  C   UNL     1      -9.565  31.762  20.670  1.00  0.00     0.039 C 
ENDBRANCH   5   9
TORSDOF 1
ENDMDL
