MODEL 1
REMARK VINA RESULT:    -2.606      0.000      0.000
REMARK INTER + INTRA:          -2.962
REMARK INTER:                  -2.911
REMARK INTRA:                  -0.051
REMARK UNBOUND:                -0.051
REMARK SMILES CCCC(=O)[O-]
REMARK SMILES IDX 3 1 4 2 5 3 6 4 2 5 1 6
REMARK H PARENT
REMARK Flexibility Score: inf
ROOT
ATOM      1  C   UNL     1      21.627  15.502 -16.532  1.00  0.00     0.052 C 
ENDROOT
BRANCH   1   2
ATOM      2  C   UNL     1      20.963  14.240 -16.070  1.00  0.00     0.041 C 
ATOM      3  O   UNL     1      21.406  13.121 -16.439  1.00  0.00    -0.550 OA
ATOM      4  O   UNL     1      19.835  14.303 -15.262  1.00  0.00    -0.550 OA
ENDBRANCH   1   2
BRANCH   1   5
ATOM      5  C   UNL     1      20.613  16.635 -16.740  1.00  0.00     0.003 C 
ATOM      6  C   UNL     1      19.853  16.500 -18.059  1.00  0.00     0.004 C 
ENDBRANCH   1   5
TORSDOF 2
ENDMDL
MODEL 2
REMARK VINA RESULT:    -2.589      1.231      1.738
REMARK INTER + INTRA:          -2.943
REMARK INTER:                  -2.886
REMARK INTRA:                  -0.056
REMARK UNBOUND:                -0.051
REMARK SMILES CCCC(=O)[O-]
REMARK SMILES IDX 3 1 4 2 5 3 6 4 2 5 1 6
REMARK H PARENT
REMARK Flexibility Score: inf
ROOT
ATOM      1  C   UNL     1      21.285  14.237 -16.397  1.00  0.00     0.052 C 
ENDROOT
BRANCH   1   2
ATOM      2  C   UNL     1      19.874  14.041 -15.932  1.00  0.00     0.041 C 
ATOM      3  O   UNL     1      19.572  14.233 -14.726  1.00  0.00    -0.550 OA
ATOM      4  O   UNL     1      18.901  13.611 -16.826  1.00  0.00    -0.550 OA
ENDBRANCH   1   2
BRANCH   1   5
ATOM      5  C   UNL     1      21.693  15.716 -16.368  1.00  0.00     0.003 C 
ATOM      6  C   UNL     1      20.679  16.612 -17.078  1.00  0.00     0.004 C 
ENDBRANCH   1   5
TORSDOF 2
ENDMDL
MODEL 3
REMARK VINA RESULT:    -2.588      1.734      2.133
REMARK INTER + INTRA:          -2.941
REMARK INTER:                  -2.903
REMARK INTRA:                  -0.038
REMARK UNBOUND:                -0.051
REMARK SMILES CCCC(=O)[O-]
REMARK SMILES IDX 3 1 4 2 5 3 6 4 2 5 1 6
REMARK H PARENT
REMARK Flexibility Score: inf
ROOT
ATOM      1  C   UNL     1      19.917  14.273 -15.452  1.00  0.00     0.052 C 
ENDROOT
BRANCH   1   2
ATOM      2  C   UNL     1      19.270  13.196 -16.269  1.00  0.00     0.041 C 
ATOM      3  O   UNL     1      19.498  11.985 -16.013  1.00  0.00    -0.550 OA
ATOM      4  O   UNL     1      18.444  13.532 -17.333  1.00  0.00    -0.550 OA
ENDBRANCH   1   2
BRANCH   1   5
ATOM      5  C   UNL     1      21.049  14.968 -16.221  1.00  0.00     0.003 C 
ATOM      6  C   UNL     1      20.659  16.370 -16.690  1.00  0.00     0.004 C 
ENDBRANCH   1   5
TORSDOF 2
ENDMDL
MODEL 4
REMARK VINA RESULT:    -2.586      1.711      2.313
REMARK INTER + INTRA:          -2.939
REMARK INTER:                  -2.901
REMARK INTRA:                  -0.038
REMARK UNBOUND:                -0.051
REMARK SMILES CCCC(=O)[O-]
REMARK SMILES IDX 3 1 4 2 5 3 6 4 2 5 1 6
REMARK H PARENT
REMARK Flexibility Score: inf
ROOT
ATOM      1  C   UNL     1      19.917  14.207 -15.490  1.00  0.00     0.052 C 
ENDROOT
BRANCH   1   2
ATOM      2  C   UNL     1      19.303  13.155 -16.362  1.00  0.00     0.041 C 
ATOM      3  O   UNL     1      18.479  13.478 -17.258  1.00  0.00    -0.550 OA
ATOM      4  O   UNL     1      19.614  11.817 -16.162  1.00  0.00    -0.550 OA
ENDBRANCH   1   2
BRANCH   1   5
ATOM      5  C   UNL     1      21.060  14.942 -16.203  1.00  0.00     0.003 C 
ATOM      6  C   UNL     1      20.655  16.345 -16.657  1.00  0.00     0.004 C 
ENDBRANCH   1   5
TORSDOF 2
ENDMDL
MODEL 5
REMARK VINA RESULT:    -2.571      2.036      2.888
REMARK INTER + INTRA:          -2.922
REMARK INTER:                  -2.884
REMARK INTRA:                  -0.038
REMARK UNBOUND:                -0.051
REMARK SMILES CCCC(=O)[O-]
REMARK SMILES IDX 3 1 4 2 5 3 6 4 2 5 1 6
REMARK H PARENT
REMARK Flexibility Score: inf
ROOT
ATOM      1  C   UNL     1      19.907  14.292 -15.895  1.00  0.00     0.052 C 
ENDROOT
BRANCH   1   2
ATOM      2  C   UNL     1      21.334  14.370 -16.343  1.00  0.00     0.041 C 
ATOM      3  O   UNL     1      21.944  13.329 -16.699  1.00  0.00    -0.550 OA
ATOM      4  O   UNL     1      22.000  15.589 -16.334  1.00  0.00    -0.550 OA
ENDBRANCH   1   2
BRANCH   1   5
ATOM      5  C   UNL     1      19.444  12.839 -15.721  1.00  0.00     0.003 C 
ATOM      6  C   UNL     1      18.438  12.417 -16.792  1.00  0.00     0.004 C 
ENDBRANCH   1   5
TORSDOF 2
ENDMDL
MODEL 6
REMARK VINA RESULT:    -2.544      2.555      3.277
REMARK INTER + INTRA:          -2.893
REMARK INTER:                  -2.856
REMARK INTRA:                  -0.037
REMARK UNBOUND:                -0.051
REMARK SMILES CCCC(=O)[O-]
REMARK SMILES IDX 3 1 4 2 5 3 6 4 2 5 1 6
REMARK H PARENT
REMARK Flexibility Score: inf
ROOT
ATOM      1  C   UNL     1      19.732  12.699 -15.940  1.00  0.00     0.052 C 
ENDROOT
BRANCH   1   2
ATOM      2  C   UNL     1      18.463  12.487 -16.709  1.00  0.00     0.041 C 
ATOM      3  O   UNL     1      17.656  11.585 -16.363  1.00  0.00    -0.550 OA
ATOM      4  O   UNL     1      18.190  13.264 -17.828  1.00  0.00    -0.550 OA
ENDBRANCH   1   2
BRANCH   1   5
ATOM      5  C   UNL     1      19.900  14.163 -15.511  1.00  0.00     0.003 C 
ATOM      6  C   UNL     1      21.114  14.824 -16.163  1.00  0.00     0.004 C 
ENDBRANCH   1   5
TORSDOF 2
ENDMDL
MODEL 7
REMARK VINA RESULT:    -2.538      2.515      3.515
REMARK INTER + INTRA:          -2.886
REMARK INTER:                  -2.848
REMARK INTRA:                  -0.038
REMARK UNBOUND:                -0.051
REMARK SMILES CCCC(=O)[O-]
REMARK SMILES IDX 3 1 4 2 5 3 6 4 2 5 1 6
REMARK H PARENT
REMARK Flexibility Score: inf
ROOT
ATOM      1  C   UNL     1      19.417  13.187 -15.469  1.00  0.00     0.052 C 
ENDROOT
BRANCH   1   2
ATOM      2  C   UNL     1      20.055  14.278 -16.275  1.00  0.00     0.041 C 
ATOM      3  O   UNL     1      21.218  14.671 -15.998  1.00  0.00    -0.550 OA
ATOM      4  O   UNL     1      19.351  14.883 -17.308  1.00  0.00    -0.550 OA
ENDBRANCH   1   2
BRANCH   1   5
ATOM      5  C   UNL     1      19.217  11.910 -16.297  1.00  0.00     0.003 C 
ATOM      6  C   UNL     1      17.746  11.650 -16.619  1.00  0.00     0.004 C 
ENDBRANCH   1   5
TORSDOF 2
ENDMDL
MODEL 8
REMARK VINA RESULT:    -2.476      2.398      3.170
REMARK INTER + INTRA:          -2.816
REMARK INTER:                  -2.780
REMARK INTRA:                  -0.036
REMARK UNBOUND:                -0.051
REMARK SMILES CCCC(=O)[O-]
REMARK SMILES IDX 3 1 4 2 5 3 6 4 2 5 1 6
REMARK H PARENT
REMARK Flexibility Score: inf
ROOT
ATOM      1  C   UNL     1      21.359  15.750 -16.398  1.00  0.00     0.052 C 
ENDROOT
BRANCH   1   2
ATOM      2  C   UNL     1      20.772  16.666 -17.429  1.00  0.00     0.041 C 
ATOM      3  O   UNL     1      21.451  17.622 -17.886  1.00  0.00    -0.550 OA
ATOM      4  O   UNL     1      19.464  16.483 -17.858  1.00  0.00    -0.550 OA
ENDBRANCH   1   2
BRANCH   1   5
ATOM      5  C   UNL     1      20.333  14.724 -15.898  1.00  0.00     0.003 C 
ATOM      6  C   UNL     1      20.682  13.298 -16.323  1.00  0.00     0.004 C 
ENDBRANCH   1   5
TORSDOF 2
ENDMDL
MODEL 9
REMARK VINA RESULT:    -2.348      3.910      5.188
REMARK INTER + INTRA:          -2.673
REMARK INTER:                  -2.654
REMARK INTRA:                  -0.019
REMARK UNBOUND:                -0.051
REMARK SMILES CCCC(=O)[O-]
REMARK SMILES IDX 3 1 4 2 5 3 6 4 2 5 1 6
REMARK H PARENT
REMARK Flexibility Score: inf
ROOT
ATOM      1  C   UNL     1      18.332  11.020 -16.991  1.00  0.00     0.052 C 
ENDROOT
BRANCH   1   2
ATOM      2  C   UNL     1      18.660  12.432 -16.610  1.00  0.00     0.041 C 
ATOM      3  O   UNL     1      19.292  12.670 -15.548  1.00  0.00    -0.550 OA
ATOM      4  O   UNL     1      18.237  13.485 -17.411  1.00  0.00    -0.550 OA
ENDBRANCH   1   2
BRANCH   1   5
ATOM      5  C   UNL     1      19.548  10.095 -16.848  1.00  0.00     0.003 C 
ATOM      6  C   UNL     1      19.161   8.696 -16.371  1.00  0.00     0.004 C 
ENDBRANCH   1   5
TORSDOF 2
ENDMDL
