MODEL 1
REMARK VINA RESULT:    -4.309      0.000      0.000
REMARK INTER + INTRA:          -4.714
REMARK INTER:                  -4.687
REMARK INTRA:                  -0.027
REMARK UNBOUND:                -0.027
REMARK SMILES O=C([O-])c1ccc(O)cc1
REMARK SMILES IDX 4 1 5 2 10 3 6 4 9 5 7 6 2 7 1 8 3 9 8 10
REMARK H PARENT 8 11
REMARK Flexibility Score: inf
ROOT
ATOM      1  C   UNL     1     -30.444 -20.895 -32.586  1.00  0.00    -0.003 A 
ATOM      2  C   UNL     1     -30.749 -21.175 -31.241  1.00  0.00     0.014 A 
ATOM      3  C   UNL     1     -29.223 -20.266 -32.891  1.00  0.00     0.014 A 
ATOM      4  C   UNL     1     -29.851 -20.833 -30.226  1.00  0.00     0.047 A 
ATOM      5  C   UNL     1     -28.328 -19.926 -31.872  1.00  0.00     0.047 A 
ATOM      6  C   UNL     1     -28.640 -20.209 -30.536  1.00  0.00     0.115 A 
ENDROOT
BRANCH   1   7
ATOM      7  C   UNL     1     -31.396 -21.257 -33.658  1.00  0.00     0.071 C 
ATOM      8  O   UNL     1     -31.461 -22.442 -34.084  1.00  0.00    -0.545 OA
ATOM      9  O   UNL     1     -32.234 -20.296 -34.213  1.00  0.00    -0.545 OA
ENDBRANCH   1   7
BRANCH   6  10
ATOM     10  O   UNL     1     -27.755 -19.875 -29.513  1.00  0.00    -0.508 OA
ATOM     11  H   UNL     1     -26.899 -19.365 -29.699  1.00  0.00     0.293 HD
ENDBRANCH   6  10
TORSDOF 2
ENDMDL
MODEL 2
REMARK VINA RESULT:    -4.279      0.109      1.533
REMARK INTER + INTRA:          -4.682
REMARK INTER:                  -4.654
REMARK INTRA:                  -0.027
REMARK UNBOUND:                -0.027
REMARK SMILES O=C([O-])c1ccc(O)cc1
REMARK SMILES IDX 4 1 5 2 10 3 6 4 9 5 7 6 2 7 1 8 3 9 8 10
REMARK H PARENT 8 11
REMARK Flexibility Score: inf
ROOT
ATOM      1  C   UNL     1     -30.487 -20.978 -32.592  1.00  0.00    -0.003 A 
ATOM      2  C   UNL     1     -29.318 -20.254 -32.891  1.00  0.00     0.014 A 
ATOM      3  C   UNL     1     -30.749 -21.329 -31.256  1.00  0.00     0.014 A 
ATOM      4  C   UNL     1     -28.431 -19.891 -31.872  1.00  0.00     0.047 A 
ATOM      5  C   UNL     1     -29.859 -20.964 -30.241  1.00  0.00     0.047 A 
ATOM      6  C   UNL     1     -28.698 -20.244 -30.547  1.00  0.00     0.115 A 
ENDROOT
BRANCH   1   7
ATOM      7  C   UNL     1     -31.423 -21.360 -33.672  1.00  0.00     0.071 C 
ATOM      8  O   UNL     1     -31.487 -22.555 -34.071  1.00  0.00    -0.545 OA
ATOM      9  O   UNL     1     -32.246 -20.408 -34.264  1.00  0.00    -0.545 OA
ENDBRANCH   1   7
BRANCH   6  10
ATOM     10  O   UNL     1     -27.805 -19.875 -29.543  1.00  0.00    -0.508 OA
ATOM     11  H   UNL     1     -26.953 -19.367 -29.753  1.00  0.00     0.293 HD
ENDBRANCH   6  10
TORSDOF 2
ENDMDL
MODEL 3
REMARK VINA RESULT:    -3.786      5.591      6.794
REMARK INTER + INTRA:          -4.145
REMARK INTER:                  -4.109
REMARK INTRA:                  -0.036
REMARK UNBOUND:                -0.027
REMARK SMILES O=C([O-])c1ccc(O)cc1
REMARK SMILES IDX 4 1 5 2 10 3 6 4 9 5 7 6 2 7 1 8 3 9 8 10
REMARK H PARENT 8 11
REMARK Flexibility Score: inf
ROOT
ATOM      1  C   UNL     1     -32.851 -22.238 -36.906  1.00  0.00    -0.003 A 
ATOM      2  C   UNL     1     -32.504 -22.451 -38.252  1.00  0.00     0.014 A 
ATOM      3  C   UNL     1     -32.355 -23.117 -35.926  1.00  0.00     0.014 A 
ATOM      4  C   UNL     1     -31.677 -23.522 -38.608  1.00  0.00     0.047 A 
ATOM      5  C   UNL     1     -31.529 -24.185 -36.286  1.00  0.00     0.047 A 
ATOM      6  C   UNL     1     -31.188 -24.391 -37.629  1.00  0.00     0.115 A 
ENDROOT
BRANCH   1   7
ATOM      7  C   UNL     1     -33.726 -21.105 -36.532  1.00  0.00     0.071 C 
ATOM      8  O   UNL     1     -34.122 -20.286 -37.405  1.00  0.00    -0.545 OA
ATOM      9  O   UNL     1     -34.125 -20.926 -35.212  1.00  0.00    -0.545 OA
ENDBRANCH   1   7
BRANCH   6  10
ATOM     10  O   UNL     1     -30.365 -25.452 -38.000  1.00  0.00    -0.508 OA
ATOM     11  H   UNL     1     -29.736 -25.382 -38.791  1.00  0.00     0.293 HD
ENDBRANCH   6  10
TORSDOF 2
ENDMDL
MODEL 4
REMARK VINA RESULT:    -3.653      2.522      5.504
REMARK INTER + INTRA:          -4.000
REMARK INTER:                  -3.970
REMARK INTRA:                  -0.030
REMARK UNBOUND:                -0.027
REMARK SMILES O=C([O-])c1ccc(O)cc1
REMARK SMILES IDX 4 1 5 2 10 3 6 4 9 5 7 6 2 7 1 8 3 9 8 10
REMARK H PARENT 8 11
REMARK Flexibility Score: inf
ROOT
ATOM      1  C   UNL     1     -31.668 -21.566 -33.997  1.00  0.00    -0.003 A 
ATOM      2  C   UNL     1     -32.638 -20.739 -34.591  1.00  0.00     0.014 A 
ATOM      3  C   UNL     1     -31.529 -22.889 -34.453  1.00  0.00     0.014 A 
ATOM      4  C   UNL     1     -33.451 -21.227 -35.620  1.00  0.00     0.047 A 
ATOM      5  C   UNL     1     -32.343 -23.373 -35.481  1.00  0.00     0.047 A 
ATOM      6  C   UNL     1     -33.307 -22.543 -36.067  1.00  0.00     0.115 A 
ENDROOT
BRANCH   1   7
ATOM      7  C   UNL     1     -30.810 -21.047 -32.909  1.00  0.00     0.071 C 
ATOM      8  O   UNL     1     -30.162 -19.976 -33.060  1.00  0.00    -0.545 OA
ATOM      9  O   UNL     1     -30.705 -21.733 -31.705  1.00  0.00    -0.545 OA
ENDBRANCH   1   7
BRANCH   6  10
ATOM     10  O   UNL     1     -34.123 -23.015 -37.092  1.00  0.00    -0.508 OA
ATOM     11  H   UNL     1     -34.107 -23.987 -37.378  1.00  0.00     0.293 HD
ENDBRANCH   6  10
TORSDOF 2
ENDMDL
MODEL 5
REMARK VINA RESULT:    -3.593      4.935      6.499
REMARK INTER + INTRA:          -3.935
REMARK INTER:                  -3.909
REMARK INTRA:                  -0.027
REMARK UNBOUND:                -0.027
REMARK SMILES O=C([O-])c1ccc(O)cc1
REMARK SMILES IDX 4 1 5 2 10 3 6 4 9 5 7 6 2 7 1 8 3 9 8 10
REMARK H PARENT 8 11
REMARK Flexibility Score: inf
ROOT
ATOM      1  C   UNL     1     -32.391 -23.828 -36.979  1.00  0.00    -0.003 A 
ATOM      2  C   UNL     1     -33.069 -22.837 -37.712  1.00  0.00     0.014 A 
ATOM      3  C   UNL     1     -32.146 -23.616 -35.610  1.00  0.00     0.014 A 
ATOM      4  C   UNL     1     -33.491 -21.659 -37.087  1.00  0.00     0.047 A 
ATOM      5  C   UNL     1     -32.570 -22.437 -34.990  1.00  0.00     0.047 A 
ATOM      6  C   UNL     1     -33.243 -21.455 -35.727  1.00  0.00     0.115 A 
ENDROOT
BRANCH   1   7
ATOM      7  C   UNL     1     -31.946 -25.073 -37.643  1.00  0.00     0.071 C 
ATOM      8  O   UNL     1     -30.792 -25.154 -38.144  1.00  0.00    -0.545 OA
ATOM      9  O   UNL     1     -32.793 -26.172 -37.723  1.00  0.00    -0.545 OA
ENDBRANCH   1   7
BRANCH   6  10
ATOM     10  O   UNL     1     -33.670 -20.277 -35.119  1.00  0.00    -0.508 OA
ATOM     11  H   UNL     1     -34.037 -19.504 -35.662  1.00  0.00     0.293 HD
ENDBRANCH   6  10
TORSDOF 2
ENDMDL
MODEL 6
REMARK VINA RESULT:    -3.262      1.602      4.360
REMARK INTER + INTRA:          -3.576
REMARK INTER:                  -3.548
REMARK INTRA:                  -0.027
REMARK UNBOUND:                -0.027
REMARK SMILES O=C([O-])c1ccc(O)cc1
REMARK SMILES IDX 4 1 5 2 10 3 6 4 9 5 7 6 2 7 1 8 3 9 8 10
REMARK H PARENT 8 11
REMARK Flexibility Score: inf
ROOT
ATOM      1  C   UNL     1     -30.818 -20.767 -31.816  1.00  0.00    -0.003 A 
ATOM      2  C   UNL     1     -30.620 -22.092 -32.245  1.00  0.00     0.014 A 
ATOM      3  C   UNL     1     -31.514 -19.876 -32.654  1.00  0.00     0.014 A 
ATOM      4  C   UNL     1     -31.109 -22.514 -33.486  1.00  0.00     0.047 A 
ATOM      5  C   UNL     1     -32.000 -20.303 -33.893  1.00  0.00     0.047 A 
ATOM      6  C   UNL     1     -31.798 -21.623 -34.312  1.00  0.00     0.115 A 
ENDROOT
BRANCH   1   7
ATOM      7  C   UNL     1     -30.300 -20.322 -30.503  1.00  0.00     0.071 C 
ATOM      8  O   UNL     1     -29.075 -20.065 -30.352  1.00  0.00    -0.545 OA
ATOM      9  O   UNL     1     -31.157 -20.182 -29.417  1.00  0.00    -0.545 OA
ENDBRANCH   1   7
BRANCH   6  10
ATOM     10  O   UNL     1     -32.279 -22.060 -35.545  1.00  0.00    -0.508 OA
ATOM     11  H   UNL     1     -31.730 -21.963 -36.391  1.00  0.00     0.293 HD
ENDBRANCH   6  10
TORSDOF 2
ENDMDL
