MODEL 1
REMARK VINA RESULT:    -2.882      0.000      0.000
REMARK INTER + INTRA:          -7.859
REMARK INTER:                  -5.073
REMARK INTRA:                  -2.786
REMARK UNBOUND:                -2.786
REMARK SMILES CCCCCCC=CCCCCCCCC(=O)[O-]
REMARK SMILES IDX 10 1 11 2 12 3 13 4 14 5 15 6 16 7 17 8 18 9 9 10 8 11 7 12
REMARK SMILES IDX 6 13 5 14 4 15 3 16 2 17 1 18
REMARK H PARENT
REMARK Flexibility Score: inf
ROOT
ATOM      1  C   UNL     1     -30.347  -0.777 -38.134  1.00  0.00     0.004 C 
ENDROOT
BRANCH   1   2
ATOM      2  C   UNL     1     -30.378  -0.235 -36.694  1.00  0.00     0.000 C 
BRANCH   2   3
ATOM      3  C   UNL     1     -29.384   0.916 -36.475  1.00  0.00     0.000 C 
BRANCH   3   4
ATOM      4  C   UNL     1     -29.736   1.777 -35.253  1.00  0.00     0.000 C 
BRANCH   4   5
ATOM      5  C   UNL     1     -31.144   2.372 -35.388  1.00  0.00     0.006 C 
BRANCH   5   6
ATOM      6  C   UNL     1     -31.079   3.874 -35.681  1.00  0.00     0.053 C 
BRANCH   6   7
ATOM      7  C   UNL     1     -32.445   4.481 -35.610  1.00  0.00     0.041 C 
ATOM      8  O   UNL     1     -32.887   4.921 -34.517  1.00  0.00    -0.550 OA
ATOM      9  O   UNL     1     -33.213   4.604 -36.762  1.00  0.00    -0.550 OA
ENDBRANCH   6   7
ENDBRANCH   5   6
ENDBRANCH   4   5
ENDBRANCH   3   4
ENDBRANCH   2   3
ENDBRANCH   1   2
BRANCH   1  10
ATOM     10  C   UNL     1     -31.707  -0.634 -38.834  1.00  0.00     0.027 C 
BRANCH  10  11
ATOM     11  C   UNL     1     -32.665   0.216 -38.037  1.00  0.00    -0.031 C 
ATOM     12  C   UNL     1     -33.037   1.467 -38.366  1.00  0.00    -0.031 C 
BRANCH  12  13
ATOM     13  C   UNL     1     -32.480   2.247 -39.530  1.00  0.00     0.027 C 
BRANCH  13  14
ATOM     14  C   UNL     1     -31.173   2.947 -39.139  1.00  0.00     0.004 C 
BRANCH  14  15
ATOM     15  C   UNL     1     -30.008   2.465 -40.010  1.00  0.00     0.000 C 
BRANCH  15  16
ATOM     16  C   UNL     1     -28.659   2.876 -39.403  1.00  0.00    -0.000 C 
BRANCH  16  17
ATOM     17  C   UNL     1     -28.759   4.150 -38.551  1.00  0.00    -0.003 C 
ATOM     18  C   UNL     1     -27.600   4.294 -37.565  1.00  0.00     0.004 C 
ENDBRANCH  16  17
ENDBRANCH  15  16
ENDBRANCH  14  15
ENDBRANCH  13  14
ENDBRANCH  12  13
ENDBRANCH  10  11
ENDBRANCH   1  10
TORSDOF 13
ENDMDL
MODEL 2
REMARK VINA RESULT:    -2.845      2.596      3.852
REMARK INTER + INTRA:          -7.792
REMARK INTER:                  -5.413
REMARK INTRA:                  -2.380
REMARK UNBOUND:                -2.786
REMARK SMILES CCCCCCC=CCCCCCCCC(=O)[O-]
REMARK SMILES IDX 10 1 11 2 12 3 13 4 14 5 15 6 16 7 17 8 18 9 9 10 8 11 7 12
REMARK SMILES IDX 6 13 5 14 4 15 3 16 2 17 1 18
REMARK H PARENT
REMARK Flexibility Score: inf
ROOT
ATOM      1  C   UNL     1     -29.297   0.135 -36.649  1.00  0.00     0.004 C 
ENDROOT
BRANCH   1   2
ATOM      2  C   UNL     1     -29.689   1.410 -35.882  1.00  0.00     0.000 C 
BRANCH   2   3
ATOM      3  C   UNL     1     -29.738   2.651 -36.786  1.00  0.00     0.000 C 
BRANCH   3   4
ATOM      4  C   UNL     1     -28.997   2.443 -38.115  1.00  0.00     0.000 C 
BRANCH   4   5
ATOM      5  C   UNL     1     -27.948   3.541 -38.336  1.00  0.00     0.006 C 
BRANCH   5   6
ATOM      6  C   UNL     1     -28.067   4.636 -37.271  1.00  0.00     0.053 C 
BRANCH   6   7
ATOM      7  C   UNL     1     -26.763   4.819 -36.561  1.00  0.00     0.041 C 
ATOM      8  O   UNL     1     -25.754   4.150 -36.905  1.00  0.00    -0.550 OA
ATOM      9  O   UNL     1     -26.650   5.764 -35.547  1.00  0.00    -0.550 OA
ENDBRANCH   6   7
ENDBRANCH   5   6
ENDBRANCH   4   5
ENDBRANCH   3   4
ENDBRANCH   2   3
ENDBRANCH   1   2
BRANCH   1  10
ATOM     10  C   UNL     1     -30.502  -0.784 -36.897  1.00  0.00     0.027 C 
BRANCH  10  11
ATOM     11  C   UNL     1     -30.904  -0.807 -38.351  1.00  0.00    -0.031 C 
ATOM     12  C   UNL     1     -32.034  -0.268 -38.842  1.00  0.00    -0.031 C 
BRANCH  12  13
ATOM     13  C   UNL     1     -33.120   0.357 -38.003  1.00  0.00     0.027 C 
BRANCH  13  14
ATOM     14  C   UNL     1     -33.077   1.885 -38.110  1.00  0.00     0.004 C 
BRANCH  14  15
ATOM     15  C   UNL     1     -32.451   2.327 -39.437  1.00  0.00     0.000 C 
BRANCH  15  16
ATOM     16  C   UNL     1     -32.764   3.802 -39.730  1.00  0.00    -0.000 C 
BRANCH  16  17
ATOM     17  C   UNL     1     -31.580   4.730 -39.422  1.00  0.00    -0.003 C 
ATOM     18  C   UNL     1     -31.739   5.472 -38.095  1.00  0.00     0.004 C 
ENDBRANCH  16  17
ENDBRANCH  15  16
ENDBRANCH  14  15
ENDBRANCH  13  14
ENDBRANCH  12  13
ENDBRANCH  10  11
ENDBRANCH   1  10
TORSDOF 13
ENDMDL
MODEL 3
REMARK VINA RESULT:    -2.822      8.573     10.726
REMARK INTER + INTRA:          -7.753
REMARK INTER:                  -5.662
REMARK INTRA:                  -2.091
REMARK UNBOUND:                -2.786
REMARK SMILES CCCCCCC=CCCCCCCCC(=O)[O-]
REMARK SMILES IDX 10 1 11 2 12 3 13 4 14 5 15 6 16 7 17 8 18 9 9 10 8 11 7 12
REMARK SMILES IDX 6 13 5 14 4 15 3 16 2 17 1 18
REMARK H PARENT
REMARK Flexibility Score: inf
ROOT
ATOM      1  C   UNL     1     -23.042  -0.585 -35.351  1.00  0.00     0.004 C 
ENDROOT
BRANCH   1   2
ATOM      2  C   UNL     1     -22.909   0.707 -36.177  1.00  0.00     0.000 C 
BRANCH   2   3
ATOM      3  C   UNL     1     -23.512   1.927 -35.464  1.00  0.00     0.000 C 
BRANCH   3   4
ATOM      4  C   UNL     1     -23.836   1.649 -33.989  1.00  0.00     0.000 C 
BRANCH   4   5
ATOM      5  C   UNL     1     -23.418   2.830 -33.103  1.00  0.00     0.006 C 
BRANCH   5   6
ATOM      6  C   UNL     1     -23.446   4.144 -33.890  1.00  0.00     0.053 C 
BRANCH   6   7
ATOM      7  C   UNL     1     -24.486   5.065 -33.335  1.00  0.00     0.041 C 
ATOM      8  O   UNL     1     -24.276   5.683 -32.259  1.00  0.00    -0.550 OA
ATOM      9  O   UNL     1     -25.670   5.277 -34.031  1.00  0.00    -0.550 OA
ENDBRANCH   6   7
ENDBRANCH   5   6
ENDBRANCH   4   5
ENDBRANCH   3   4
ENDBRANCH   2   3
ENDBRANCH   1   2
BRANCH   1  10
ATOM     10  C   UNL     1     -21.675  -1.209 -35.030  1.00  0.00     0.027 C 
BRANCH  10  11
ATOM     11  C   UNL     1     -20.625  -0.158 -34.764  1.00  0.00    -0.031 C 
ATOM     12  C   UNL     1     -20.296   0.304 -33.544  1.00  0.00    -0.031 C 
BRANCH  12  13
ATOM     13  C   UNL     1     -20.992  -0.085 -32.265  1.00  0.00     0.027 C 
BRANCH  13  14
ATOM     14  C   UNL     1     -20.108  -1.015 -31.426  1.00  0.00     0.004 C 
BRANCH  14  15
ATOM     15  C   UNL     1     -20.741  -2.405 -31.293  1.00  0.00     0.000 C 
BRANCH  15  16
ATOM     16  C   UNL     1     -19.778  -3.498 -31.779  1.00  0.00    -0.000 C 
BRANCH  16  17
ATOM     17  C   UNL     1     -18.834  -3.004 -32.885  1.00  0.00    -0.003 C 
ATOM     18  C   UNL     1     -19.056  -3.723 -34.216  1.00  0.00     0.004 C 
ENDBRANCH  16  17
ENDBRANCH  15  16
ENDBRANCH  14  15
ENDBRANCH  13  14
ENDBRANCH  12  13
ENDBRANCH  10  11
ENDBRANCH   1  10
TORSDOF 13
ENDMDL
MODEL 4
REMARK VINA RESULT:    -2.780      3.038      4.615
REMARK INTER + INTRA:          -7.678
REMARK INTER:                  -5.823
REMARK INTRA:                  -1.855
REMARK UNBOUND:                -2.786
REMARK SMILES CCCCCCC=CCCCCCCCC(=O)[O-]
REMARK SMILES IDX 10 1 11 2 12 3 13 4 14 5 15 6 16 7 17 8 18 9 9 10 8 11 7 12
REMARK SMILES IDX 6 13 5 14 4 15 3 16 2 17 1 18
REMARK H PARENT
REMARK Flexibility Score: inf
ROOT
ATOM      1  C   UNL     1     -30.881   3.484 -37.425  1.00  0.00     0.004 C 
ENDROOT
BRANCH   1   2
ATOM      2  C   UNL     1     -30.318   4.256 -38.632  1.00  0.00     0.000 C 
BRANCH   2   3
ATOM      3  C   UNL     1     -28.889   4.767 -38.392  1.00  0.00     0.000 C 
BRANCH   3   4
ATOM      4  C   UNL     1     -28.279   4.224 -37.092  1.00  0.00     0.000 C 
BRANCH   4   5
ATOM      5  C   UNL     1     -26.833   4.709 -36.920  1.00  0.00     0.006 C 
BRANCH   5   6
ATOM      6  C   UNL     1     -26.676   5.519 -35.629  1.00  0.00     0.053 C 
BRANCH   6   7
ATOM      7  C   UNL     1     -25.786   4.801 -34.665  1.00  0.00     0.041 C 
ATOM      8  O   UNL     1     -25.268   5.419 -33.698  1.00  0.00    -0.550 OA
ATOM      9  O   UNL     1     -25.566   3.435 -34.806  1.00  0.00    -0.550 OA
ENDBRANCH   6   7
ENDBRANCH   5   6
ENDBRANCH   4   5
ENDBRANCH   3   4
ENDBRANCH   2   3
ENDBRANCH   1   2
BRANCH   1  10
ATOM     10  C   UNL     1     -32.387   3.216 -37.562  1.00  0.00     0.027 C 
BRANCH  10  11
ATOM     11  C   UNL     1     -32.719   2.514 -38.855  1.00  0.00    -0.031 C 
ATOM     12  C   UNL     1     -32.943   1.192 -38.974  1.00  0.00    -0.031 C 
BRANCH  12  13
ATOM     13  C   UNL     1     -32.802   0.196 -37.851  1.00  0.00     0.027 C 
BRANCH  13  14
ATOM     14  C   UNL     1     -31.408  -0.441 -37.862  1.00  0.00     0.004 C 
BRANCH  14  15
ATOM     15  C   UNL     1     -31.037  -0.931 -39.266  1.00  0.00     0.000 C 
BRANCH  15  16
ATOM     16  C   UNL     1     -29.604  -0.518 -39.633  1.00  0.00    -0.000 C 
BRANCH  16  17
ATOM     17  C   UNL     1     -29.120   0.704 -38.839  1.00  0.00    -0.003 C 
ATOM     18  C   UNL     1     -27.808   1.276 -39.375  1.00  0.00     0.004 C 
ENDBRANCH  16  17
ENDBRANCH  15  16
ENDBRANCH  14  15
ENDBRANCH  13  14
ENDBRANCH  12  13
ENDBRANCH  10  11
ENDBRANCH   1  10
TORSDOF 13
ENDMDL
MODEL 5
REMARK VINA RESULT:    -2.763      3.459      5.330
REMARK INTER + INTRA:          -7.649
REMARK INTER:                  -5.752
REMARK INTRA:                  -1.898
REMARK UNBOUND:                -2.786
REMARK SMILES CCCCCCC=CCCCCCCCC(=O)[O-]
REMARK SMILES IDX 10 1 11 2 12 3 13 4 14 5 15 6 16 7 17 8 18 9 9 10 8 11 7 12
REMARK SMILES IDX 6 13 5 14 4 15 3 16 2 17 1 18
REMARK H PARENT
REMARK Flexibility Score: inf
ROOT
ATOM      1  C   UNL     1     -28.848   5.273 -38.486  1.00  0.00     0.004 C 
ENDROOT
BRANCH   1   2
ATOM      2  C   UNL     1     -28.209   3.892 -38.260  1.00  0.00     0.000 C 
BRANCH   2   3
ATOM      3  C   UNL     1     -27.147   3.907 -37.150  1.00  0.00     0.000 C 
BRANCH   3   4
ATOM      4  C   UNL     1     -26.737   5.331 -36.744  1.00  0.00     0.000 C 
BRANCH   4   5
ATOM      5  C   UNL     1     -26.788   5.504 -35.221  1.00  0.00     0.006 C 
BRANCH   5   6
ATOM      6  C   UNL     1     -26.170   4.295 -34.510  1.00  0.00     0.053 C 
BRANCH   6   7
ATOM      7  C   UNL     1     -24.825   4.644 -33.956  1.00  0.00     0.041 C 
ATOM      8  O   UNL     1     -24.722   5.482 -33.022  1.00  0.00    -0.550 OA
ATOM      9  O   UNL     1     -23.687   4.010 -34.441  1.00  0.00    -0.550 OA
ENDBRANCH   6   7
ENDBRANCH   5   6
ENDBRANCH   4   5
ENDBRANCH   3   4
ENDBRANCH   2   3
ENDBRANCH   1   2
BRANCH   1  10
ATOM     10  C   UNL     1     -30.370   5.183 -38.674  1.00  0.00     0.027 C 
BRANCH  10  11
ATOM     11  C   UNL     1     -30.739   4.504 -39.970  1.00  0.00    -0.031 C 
ATOM     12  C   UNL     1     -31.766   3.648 -40.121  1.00  0.00    -0.031 C 
BRANCH  12  13
ATOM     13  C   UNL     1     -32.648   3.162 -38.999  1.00  0.00     0.027 C 
BRANCH  13  14
ATOM     14  C   UNL     1     -32.740   1.632 -39.004  1.00  0.00     0.004 C 
BRANCH  14  15
ATOM     15  C   UNL     1     -32.221   1.044 -37.687  1.00  0.00     0.000 C 
BRANCH  15  16
ATOM     16  C   UNL     1     -30.699   1.215 -37.569  1.00  0.00    -0.000 C 
BRANCH  16  17
ATOM     17  C   UNL     1     -30.264   1.683 -36.172  1.00  0.00    -0.003 C 
ATOM     18  C   UNL     1     -30.929   2.994 -35.754  1.00  0.00     0.004 C 
ENDBRANCH  16  17
ENDBRANCH  15  16
ENDBRANCH  14  15
ENDBRANCH  13  14
ENDBRANCH  12  13
ENDBRANCH  10  11
ENDBRANCH   1  10
TORSDOF 13
ENDMDL
MODEL 6
REMARK VINA RESULT:    -2.762      2.589      4.622
REMARK INTER + INTRA:          -7.647
REMARK INTER:                  -5.318
REMARK INTRA:                  -2.329
REMARK UNBOUND:                -2.786
REMARK SMILES CCCCCCC=CCCCCCCCC(=O)[O-]
REMARK SMILES IDX 10 1 11 2 12 3 13 4 14 5 15 6 16 7 17 8 18 9 9 10 8 11 7 12
REMARK SMILES IDX 6 13 5 14 4 15 3 16 2 17 1 18
REMARK H PARENT
REMARK Flexibility Score: inf
ROOT
ATOM      1  C   UNL     1     -32.852   2.829 -37.993  1.00  0.00     0.004 C 
ENDROOT
BRANCH   1   2
ATOM      2  C   UNL     1     -32.348   4.181 -38.527  1.00  0.00     0.000 C 
BRANCH   2   3
ATOM      3  C   UNL     1     -30.886   4.121 -38.997  1.00  0.00     0.000 C 
BRANCH   3   4
ATOM      4  C   UNL     1     -29.898   3.939 -37.836  1.00  0.00     0.000 C 
BRANCH   4   5
ATOM      5  C   UNL     1     -28.493   4.409 -38.231  1.00  0.00     0.006 C 
BRANCH   5   6
ATOM      6  C   UNL     1     -27.421   3.693 -37.404  1.00  0.00     0.053 C 
BRANCH   6   7
ATOM      7  C   UNL     1     -26.610   4.681 -36.628  1.00  0.00     0.041 C 
ATOM      8  O   UNL     1     -26.831   5.915 -36.746  1.00  0.00    -0.550 OA
ATOM      9  O   UNL     1     -25.640   4.238 -35.736  1.00  0.00    -0.550 OA
ENDBRANCH   6   7
ENDBRANCH   5   6
ENDBRANCH   4   5
ENDBRANCH   3   4
ENDBRANCH   2   3
ENDBRANCH   1   2
BRANCH   1  10
ATOM     10  C   UNL     1     -32.878   1.749 -39.086  1.00  0.00     0.027 C 
BRANCH  10  11
ATOM     11  C   UNL     1     -32.868   0.357 -38.503  1.00  0.00    -0.031 C 
ATOM     12  C   UNL     1     -31.827  -0.493 -38.569  1.00  0.00    -0.031 C 
BRANCH  12  13
ATOM     13  C   UNL     1     -30.546  -0.223 -39.317  1.00  0.00     0.027 C 
BRANCH  13  14
ATOM     14  C   UNL     1     -29.488   0.376 -38.384  1.00  0.00     0.004 C 
BRANCH  14  15
ATOM     15  C   UNL     1     -29.616  -0.195 -36.967  1.00  0.00     0.000 C 
BRANCH  15  16
ATOM     16  C   UNL     1     -29.651   0.928 -35.921  1.00  0.00    -0.000 C 
BRANCH  16  17
ATOM     17  C   UNL     1     -31.017   1.049 -35.230  1.00  0.00    -0.003 C 
ATOM     18  C   UNL     1     -31.643  -0.310 -34.914  1.00  0.00     0.004 C 
ENDBRANCH  16  17
ENDBRANCH  15  16
ENDBRANCH  14  15
ENDBRANCH  13  14
ENDBRANCH  12  13
ENDBRANCH  10  11
ENDBRANCH   1  10
TORSDOF 13
ENDMDL
MODEL 7
REMARK VINA RESULT:    -2.758      3.860      5.185
REMARK INTER + INTRA:          -7.640
REMARK INTER:                  -5.576
REMARK INTRA:                  -2.065
REMARK UNBOUND:                -2.786
REMARK SMILES CCCCCCC=CCCCCCCCC(=O)[O-]
REMARK SMILES IDX 10 1 11 2 12 3 13 4 14 5 15 6 16 7 17 8 18 9 9 10 8 11 7 12
REMARK SMILES IDX 6 13 5 14 4 15 3 16 2 17 1 18
REMARK H PARENT
REMARK Flexibility Score: inf
ROOT
ATOM      1  C   UNL     1     -31.783   1.186 -37.286  1.00  0.00     0.004 C 
ENDROOT
BRANCH   1   2
ATOM      2  C   UNL     1     -32.282   0.110 -38.268  1.00  0.00     0.000 C 
BRANCH   2   3
ATOM      3  C   UNL     1     -31.182  -0.891 -38.654  1.00  0.00     0.000 C 
BRANCH   3   4
ATOM      4  C   UNL     1     -30.146  -0.289 -39.615  1.00  0.00     0.000 C 
BRANCH   4   5
ATOM      5  C   UNL     1     -28.740  -0.820 -39.309  1.00  0.00     0.006 C 
BRANCH   5   6
ATOM      6  C   UNL     1     -28.790  -1.936 -38.260  1.00  0.00     0.053 C 
BRANCH   6   7
ATOM      7  C   UNL     1     -28.339  -3.233 -38.853  1.00  0.00     0.041 C 
ATOM      8  O   UNL     1     -27.597  -4.007 -38.195  1.00  0.00    -0.550 OA
ATOM      9  O   UNL     1     -28.777  -3.610 -40.118  1.00  0.00    -0.550 OA
ENDBRANCH   6   7
ENDBRANCH   5   6
ENDBRANCH   4   5
ENDBRANCH   3   4
ENDBRANCH   2   3
ENDBRANCH   1   2
BRANCH   1  10
ATOM     10  C   UNL     1     -32.312   2.583 -37.643  1.00  0.00     0.027 C 
BRANCH  10  11
ATOM     11  C   UNL     1     -32.584   2.723 -39.121  1.00  0.00    -0.031 C 
ATOM     12  C   UNL     1     -31.789   3.377 -39.987  1.00  0.00    -0.031 C 
BRANCH  12  13
ATOM     13  C   UNL     1     -30.556   4.152 -39.600  1.00  0.00     0.027 C 
BRANCH  13  14
ATOM     14  C   UNL     1     -29.289   3.348 -39.910  1.00  0.00     0.004 C 
BRANCH  14  15
ATOM     15  C   UNL     1     -28.614   2.865 -38.622  1.00  0.00     0.000 C 
BRANCH  15  16
ATOM     16  C   UNL     1     -28.761   3.904 -37.500  1.00  0.00    -0.000 C 
BRANCH  16  17
ATOM     17  C   UNL     1     -27.664   4.978 -37.543  1.00  0.00    -0.003 C 
ATOM     18  C   UNL     1     -26.399   4.562 -36.792  1.00  0.00     0.004 C 
ENDBRANCH  16  17
ENDBRANCH  15  16
ENDBRANCH  14  15
ENDBRANCH  13  14
ENDBRANCH  12  13
ENDBRANCH  10  11
ENDBRANCH   1  10
TORSDOF 13
ENDMDL
MODEL 8
REMARK VINA RESULT:    -2.734      3.906      4.489
REMARK INTER + INTRA:          -7.597
REMARK INTER:                  -5.547
REMARK INTRA:                  -2.050
REMARK UNBOUND:                -2.786
REMARK SMILES CCCCCCC=CCCCCCCCC(=O)[O-]
REMARK SMILES IDX 10 1 11 2 12 3 13 4 14 5 15 6 16 7 17 8 18 9 9 10 8 11 7 12
REMARK SMILES IDX 6 13 5 14 4 15 3 16 2 17 1 18
REMARK H PARENT
REMARK Flexibility Score: inf
ROOT
ATOM      1  C   UNL     1     -30.060  -0.578 -37.556  1.00  0.00     0.004 C 
ENDROOT
BRANCH   1   2
ATOM      2  C   UNL     1     -30.924  -1.061 -36.378  1.00  0.00     0.000 C 
BRANCH   2   3
ATOM      3  C   UNL     1     -31.032  -0.015 -35.258  1.00  0.00     0.000 C 
BRANCH   3   4
ATOM      4  C   UNL     1     -31.902  -0.492 -34.086  1.00  0.00     0.000 C 
BRANCH   4   5
ATOM      5  C   UNL     1     -32.903  -1.560 -34.544  1.00  0.00     0.006 C 
BRANCH   5   6
ATOM      6  C   UNL     1     -33.493  -2.310 -33.345  1.00  0.00     0.053 C 
BRANCH   6   7
ATOM      7  C   UNL     1     -33.386  -3.788 -33.546  1.00  0.00     0.041 C 
ATOM      8  O   UNL     1     -32.272  -4.364 -33.435  1.00  0.00    -0.550 OA
ATOM      9  O   UNL     1     -34.525  -4.539 -33.811  1.00  0.00    -0.550 OA
ENDBRANCH   6   7
ENDBRANCH   5   6
ENDBRANCH   4   5
ENDBRANCH   3   4
ENDBRANCH   2   3
ENDBRANCH   1   2
BRANCH   1  10
ATOM     10  C   UNL     1     -30.879  -0.425 -38.847  1.00  0.00     0.027 C 
BRANCH  10  11
ATOM     11  C   UNL     1     -32.361  -0.368 -38.572  1.00  0.00    -0.031 C 
ATOM     12  C   UNL     1     -33.108   0.750 -38.623  1.00  0.00    -0.031 C 
BRANCH  12  13
ATOM     13  C   UNL     1     -32.562   2.134 -38.870  1.00  0.00     0.027 C 
BRANCH  13  14
ATOM     14  C   UNL     1     -32.047   2.755 -37.567  1.00  0.00     0.004 C 
BRANCH  14  15
ATOM     15  C   UNL     1     -30.593   3.216 -37.713  1.00  0.00     0.000 C 
BRANCH  15  16
ATOM     16  C   UNL     1     -30.183   3.286 -39.191  1.00  0.00    -0.000 C 
BRANCH  16  17
ATOM     17  C   UNL     1     -28.771   2.736 -39.439  1.00  0.00    -0.003 C 
ATOM     18  C   UNL     1     -27.979   2.533 -38.147  1.00  0.00     0.004 C 
ENDBRANCH  16  17
ENDBRANCH  15  16
ENDBRANCH  14  15
ENDBRANCH  13  14
ENDBRANCH  12  13
ENDBRANCH  10  11
ENDBRANCH   1  10
TORSDOF 13
ENDMDL
MODEL 9
REMARK VINA RESULT:    -2.711      3.309      5.127
REMARK INTER + INTRA:          -7.557
REMARK INTER:                  -5.363
REMARK INTRA:                  -2.194
REMARK UNBOUND:                -2.786
REMARK SMILES CCCCCCC=CCCCCCCCC(=O)[O-]
REMARK SMILES IDX 10 1 11 2 12 3 13 4 14 5 15 6 16 7 17 8 18 9 9 10 8 11 7 12
REMARK SMILES IDX 6 13 5 14 4 15 3 16 2 17 1 18
REMARK H PARENT
REMARK Flexibility Score: inf
ROOT
ATOM      1  C   UNL     1     -30.119   2.855 -35.942  1.00  0.00     0.004 C 
ENDROOT
BRANCH   1   2
ATOM      2  C   UNL     1     -29.263   3.658 -36.937  1.00  0.00     0.000 C 
BRANCH   2   3
ATOM      3  C   UNL     1     -27.794   3.208 -36.949  1.00  0.00     0.000 C 
BRANCH   3   4
ATOM      4  C   UNL     1     -26.815   4.388 -37.051  1.00  0.00     0.000 C 
BRANCH   4   5
ATOM      5  C   UNL     1     -26.761   5.172 -35.734  1.00  0.00     0.006 C 
BRANCH   5   6
ATOM      6  C   UNL     1     -26.424   4.248 -34.559  1.00  0.00     0.053 C 
BRANCH   6   7
ATOM      7  C   UNL     1     -25.052   4.541 -34.039  1.00  0.00     0.041 C 
ATOM      8  O   UNL     1     -24.057   3.913 -34.486  1.00  0.00    -0.550 OA
ATOM      9  O   UNL     1     -24.866   5.542 -33.092  1.00  0.00    -0.550 OA
ENDBRANCH   6   7
ENDBRANCH   5   6
ENDBRANCH   4   5
ENDBRANCH   3   4
ENDBRANCH   2   3
ENDBRANCH   1   2
BRANCH   1  10
ATOM     10  C   UNL     1     -29.624   1.409 -35.790  1.00  0.00     0.027 C 
BRANCH  10  11
ATOM     11  C   UNL     1     -30.764   0.442 -35.578  1.00  0.00    -0.031 C 
ATOM     12  C   UNL     1     -31.020  -0.624 -36.358  1.00  0.00    -0.031 C 
BRANCH  12  13
ATOM     13  C   UNL     1     -30.266  -0.962 -37.619  1.00  0.00     0.027 C 
BRANCH  13  14
ATOM     14  C   UNL     1     -31.027  -0.470 -38.855  1.00  0.00     0.004 C 
BRANCH  14  15
ATOM     15  C   UNL     1     -30.418   0.830 -39.395  1.00  0.00     0.000 C 
BRANCH  15  16
ATOM     16  C   UNL     1     -31.444   1.972 -39.366  1.00  0.00    -0.000 C 
BRANCH  16  17
ATOM     17  C   UNL     1     -32.789   1.543 -38.762  1.00  0.00    -0.003 C 
ATOM     18  C   UNL     1     -33.365   2.583 -37.802  1.00  0.00     0.004 C 
ENDBRANCH  16  17
ENDBRANCH  15  16
ENDBRANCH  14  15
ENDBRANCH  13  14
ENDBRANCH  12  13
ENDBRANCH  10  11
ENDBRANCH   1  10
TORSDOF 13
ENDMDL
