MODEL 1
REMARK VINA RESULT:    -3.953      0.000      0.000
REMARK INTER + INTRA:          -5.845
REMARK INTER:                  -5.571
REMARK INTRA:                  -0.274
REMARK UNBOUND:                -0.274
REMARK SMILES CCCCCCCCC(=O)[O-]
REMARK SMILES IDX 6 1 7 2 8 3 9 4 10 5 11 6 5 7 4 8 3 9 2 10 1 11
REMARK H PARENT
REMARK Flexibility Score: inf
ROOT
ATOM      1  C   UNL     1      -0.342  -2.692   0.602  1.00  0.00     0.000 C 
ENDROOT
BRANCH   1   2
ATOM      2  C   UNL     1      -1.775  -2.160   0.757  1.00  0.00     0.006 C 
BRANCH   2   3
ATOM      3  C   UNL     1      -2.665  -3.093   1.586  1.00  0.00     0.053 C 
BRANCH   3   4
ATOM      4  C   UNL     1      -4.009  -2.472   1.808  1.00  0.00     0.041 C 
ATOM      5  O   UNL     1      -5.039  -2.996   1.307  1.00  0.00    -0.550 OA
ATOM      6  O   UNL     1      -4.118  -1.289   2.527  1.00  0.00    -0.550 OA
ENDBRANCH   3   4
ENDBRANCH   2   3
ENDBRANCH   1   2
BRANCH   1   7
ATOM      7  C   UNL     1      -0.047  -3.876   1.535  1.00  0.00     0.000 C 
BRANCH   7   8
ATOM      8  C   UNL     1       1.098  -4.735   0.987  1.00  0.00    -0.000 C 
BRANCH   8   9
ATOM      9  C   UNL     1       2.276  -4.776   1.972  1.00  0.00    -0.000 C 
BRANCH   9  10
ATOM     10  C   UNL     1       3.127  -3.497   1.929  1.00  0.00    -0.003 C 
ATOM     11  C   UNL     1       4.202  -3.464   3.014  1.00  0.00     0.004 C 
ENDBRANCH   9  10
ENDBRANCH   8   9
ENDBRANCH   7   8
ENDBRANCH   1   7
TORSDOF 7
ENDMDL
MODEL 2
REMARK VINA RESULT:    -3.915      3.213      4.581
REMARK INTER + INTRA:          -5.791
REMARK INTER:                  -5.459
REMARK INTRA:                  -0.332
REMARK UNBOUND:                -0.274
REMARK SMILES CCCCCCCCC(=O)[O-]
REMARK SMILES IDX 6 1 7 2 8 3 9 4 10 5 11 6 5 7 4 8 3 9 2 10 1 11
REMARK H PARENT
REMARK Flexibility Score: inf
ROOT
ATOM      1  C   UNL     1      -4.994  -2.635   1.637  1.00  0.00     0.000 C 
ENDROOT
BRANCH   1   2
ATOM      2  C   UNL     1      -5.154  -4.131   1.325  1.00  0.00     0.006 C 
BRANCH   2   3
ATOM      3  C   UNL     1      -6.512  -4.460   0.693  1.00  0.00     0.053 C 
BRANCH   3   4
ATOM      4  C   UNL     1      -7.197  -5.546   1.462  1.00  0.00     0.041 C 
ATOM      5  O   UNL     1      -8.357  -5.915   1.141  1.00  0.00    -0.550 OA
ATOM      6  O   UNL     1      -6.574  -6.117   2.564  1.00  0.00    -0.550 OA
ENDBRANCH   3   4
ENDBRANCH   2   3
ENDBRANCH   1   2
BRANCH   1   7
ATOM      7  C   UNL     1      -3.522  -2.206   1.741  1.00  0.00     0.000 C 
BRANCH   7   8
ATOM      8  C   UNL     1      -2.597  -3.263   1.126  1.00  0.00    -0.000 C 
BRANCH   8   9
ATOM      9  C   UNL     1      -1.129  -2.983   1.482  1.00  0.00    -0.000 C 
BRANCH   9  10
ATOM     10  C   UNL     1      -0.305  -2.524   0.268  1.00  0.00    -0.003 C 
ATOM     11  C   UNL     1      -1.080  -2.622  -1.045  1.00  0.00     0.004 C 
ENDBRANCH   9  10
ENDBRANCH   8   9
ENDBRANCH   7   8
ENDBRANCH   1   7
TORSDOF 7
ENDMDL
MODEL 3
REMARK VINA RESULT:    -3.857      1.753      3.157
REMARK INTER + INTRA:          -5.709
REMARK INTER:                  -5.033
REMARK INTRA:                  -0.677
REMARK UNBOUND:                -0.274
REMARK SMILES CCCCCCCCC(=O)[O-]
REMARK SMILES IDX 6 1 7 2 8 3 9 4 10 5 11 6 5 7 4 8 3 9 2 10 1 11
REMARK H PARENT
REMARK Flexibility Score: inf
ROOT
ATOM      1  C   UNL     1      -0.654  -2.654   0.070  1.00  0.00     0.000 C 
ENDROOT
BRANCH   1   2
ATOM      2  C   UNL     1      -1.902  -2.006   0.689  1.00  0.00     0.006 C 
BRANCH   2   3
ATOM      3  C   UNL     1      -2.656  -2.955   1.628  1.00  0.00     0.053 C 
BRANCH   3   4
ATOM      4  C   UNL     1      -4.042  -2.449   1.878  1.00  0.00     0.041 C 
ATOM      5  O   UNL     1      -5.030  -3.022   1.349  1.00  0.00    -0.550 OA
ATOM      6  O   UNL     1      -4.239  -1.316   2.656  1.00  0.00    -0.550 OA
ENDBRANCH   3   4
ENDBRANCH   2   3
ENDBRANCH   1   2
BRANCH   1   7
ATOM      7  C   UNL     1       0.267  -3.291   1.122  1.00  0.00     0.000 C 
BRANCH   7   8
ATOM      8  C   UNL     1       0.552  -4.759   0.786  1.00  0.00    -0.000 C 
BRANCH   8   9
ATOM      9  C   UNL     1      -0.168  -5.178  -0.504  1.00  0.00    -0.000 C 
BRANCH   9  10
ATOM     10  C   UNL     1      -1.109  -6.375  -0.293  1.00  0.00    -0.003 C 
ATOM     11  C   UNL     1      -2.581  -6.012  -0.483  1.00  0.00     0.004 C 
ENDBRANCH   9  10
ENDBRANCH   8   9
ENDBRANCH   7   8
ENDBRANCH   1   7
TORSDOF 7
ENDMDL
MODEL 4
REMARK VINA RESULT:    -3.829      3.122      4.569
REMARK INTER + INTRA:          -5.670
REMARK INTER:                  -5.106
REMARK INTRA:                  -0.564
REMARK UNBOUND:                -0.274
REMARK SMILES CCCCCCCCC(=O)[O-]
REMARK SMILES IDX 6 1 7 2 8 3 9 4 10 5 11 6 5 7 4 8 3 9 2 10 1 11
REMARK H PARENT
REMARK Flexibility Score: inf
ROOT
ATOM      1  C   UNL     1      -4.081  -4.312   1.389  1.00  0.00     0.000 C 
ENDROOT
BRANCH   1   2
ATOM      2  C   UNL     1      -5.149  -5.142   2.118  1.00  0.00     0.006 C 
BRANCH   2   3
ATOM      3  C   UNL     1      -4.544  -6.134   3.119  1.00  0.00     0.053 C 
BRANCH   3   4
ATOM      4  C   UNL     1      -3.557  -5.443   4.007  1.00  0.00     0.041 C 
ATOM      5  O   UNL     1      -2.343  -5.774   3.982  1.00  0.00    -0.550 OA
ATOM      6  O   UNL     1      -3.987  -4.468   4.898  1.00  0.00    -0.550 OA
ENDBRANCH   3   4
ENDBRANCH   2   3
ENDBRANCH   1   2
BRANCH   1   7
ATOM      7  C   UNL     1      -4.287  -2.799   1.559  1.00  0.00     0.000 C 
BRANCH   7   8
ATOM      8  C   UNL     1      -2.951  -2.051   1.494  1.00  0.00    -0.000 C 
BRANCH   8   9
ATOM      9  C   UNL     1      -1.769  -3.033   1.522  1.00  0.00    -0.000 C 
BRANCH   9  10
ATOM     10  C   UNL     1      -0.646  -2.633   0.552  1.00  0.00    -0.003 C 
ATOM     11  C   UNL     1      -1.082  -2.682  -0.912  1.00  0.00     0.004 C 
ENDBRANCH   9  10
ENDBRANCH   8   9
ENDBRANCH   7   8
ENDBRANCH   1   7
TORSDOF 7
ENDMDL
MODEL 5
REMARK VINA RESULT:    -3.824      3.035      4.134
REMARK INTER + INTRA:          -5.663
REMARK INTER:                  -5.173
REMARK INTRA:                  -0.490
REMARK UNBOUND:                -0.274
REMARK SMILES CCCCCCCCC(=O)[O-]
REMARK SMILES IDX 6 1 7 2 8 3 9 4 10 5 11 6 5 7 4 8 3 9 2 10 1 11
REMARK H PARENT
REMARK Flexibility Score: inf
ROOT
ATOM      1  C   UNL     1      -2.678  -2.243   1.415  1.00  0.00     0.000 C 
ENDROOT
BRANCH   1   2
ATOM      2  C   UNL     1      -3.836  -3.242   1.563  1.00  0.00     0.006 C 
BRANCH   2   3
ATOM      3  C   UNL     1      -3.353  -4.665   1.868  1.00  0.00     0.053 C 
BRANCH   3   4
ATOM      4  C   UNL     1      -3.293  -4.890   3.347  1.00  0.00     0.041 C 
ATOM      5  O   UNL     1      -4.145  -4.354   4.103  1.00  0.00    -0.550 OA
ATOM      6  O   UNL     1      -2.269  -5.651   3.894  1.00  0.00    -0.550 OA
ENDBRANCH   3   4
ENDBRANCH   2   3
ENDBRANCH   1   2
BRANCH   1   7
ATOM      7  C   UNL     1      -1.307  -2.932   1.351  1.00  0.00     0.000 C 
BRANCH   7   8
ATOM      8  C   UNL     1      -0.483  -2.408   0.169  1.00  0.00    -0.000 C 
BRANCH   8   9
ATOM      9  C   UNL     1      -1.050  -2.918  -1.165  1.00  0.00    -0.000 C 
BRANCH   9  10
ATOM     10  C   UNL     1      -1.085  -4.453  -1.243  1.00  0.00    -0.003 C 
ATOM     11  C   UNL     1      -1.308  -4.969  -2.664  1.00  0.00     0.004 C 
ENDBRANCH   9  10
ENDBRANCH   8   9
ENDBRANCH   7   8
ENDBRANCH   1   7
TORSDOF 7
ENDMDL
MODEL 6
REMARK VINA RESULT:    -3.801      3.777      5.606
REMARK INTER + INTRA:          -5.630
REMARK INTER:                  -5.279
REMARK INTRA:                  -0.351
REMARK UNBOUND:                -0.274
REMARK SMILES CCCCCCCCC(=O)[O-]
REMARK SMILES IDX 6 1 7 2 8 3 9 4 10 5 11 6 5 7 4 8 3 9 2 10 1 11
REMARK H PARENT
REMARK Flexibility Score: inf
ROOT
ATOM      1  C   UNL     1      -5.392  -5.091   0.953  1.00  0.00     0.000 C 
ENDROOT
BRANCH   1   2
ATOM      2  C   UNL     1      -6.592  -4.174   0.669  1.00  0.00     0.006 C 
BRANCH   2   3
ATOM      3  C   UNL     1      -7.896  -4.956   0.466  1.00  0.00     0.053 C 
BRANCH   3   4
ATOM      4  C   UNL     1      -8.707  -4.341  -0.632  1.00  0.00     0.041 C 
ATOM      5  O   UNL     1      -9.917  -4.052  -0.439  1.00  0.00    -0.550 OA
ATOM      6  O   UNL     1      -8.140  -4.132  -1.882  1.00  0.00    -0.550 OA
ENDBRANCH   3   4
ENDBRANCH   2   3
ENDBRANCH   1   2
BRANCH   1   7
ATOM      7  C   UNL     1      -4.213  -4.341   1.592  1.00  0.00     0.000 C 
BRANCH   7   8
ATOM      8  C   UNL     1      -4.486  -2.834   1.649  1.00  0.00    -0.000 C 
BRANCH   8   9
ATOM      9  C   UNL     1      -3.176  -2.035   1.577  1.00  0.00    -0.000 C 
BRANCH   9  10
ATOM     10  C   UNL     1      -1.946  -2.934   1.372  1.00  0.00    -0.003 C 
ATOM     11  C   UNL     1      -0.979  -2.386   0.324  1.00  0.00     0.004 C 
ENDBRANCH   9  10
ENDBRANCH   8   9
ENDBRANCH   7   8
ENDBRANCH   1   7
TORSDOF 7
ENDMDL
MODEL 7
REMARK VINA RESULT:    -3.744      4.224      6.459
REMARK INTER + INTRA:          -5.550
REMARK INTER:                  -5.257
REMARK INTRA:                  -0.294
REMARK UNBOUND:                -0.274
REMARK SMILES CCCCCCCCC(=O)[O-]
REMARK SMILES IDX 6 1 7 2 8 3 9 4 10 5 11 6 5 7 4 8 3 9 2 10 1 11
REMARK H PARENT
REMARK Flexibility Score: inf
ROOT
ATOM      1  C   UNL     1      -6.546  -3.992   0.735  1.00  0.00     0.000 C 
ENDROOT
BRANCH   1   2
ATOM      2  C   UNL     1      -7.534  -4.668  -0.229  1.00  0.00     0.006 C 
BRANCH   2   3
ATOM      3  C   UNL     1      -8.548  -3.681  -0.822  1.00  0.00     0.053 C 
BRANCH   3   4
ATOM      4  C   UNL     1      -9.907  -4.305  -0.885  1.00  0.00     0.041 C 
ATOM      5  O   UNL     1     -10.680  -4.241   0.107  1.00  0.00    -0.550 OA
ATOM      6  O   UNL     1     -10.301  -5.000  -2.021  1.00  0.00    -0.550 OA
ENDBRANCH   3   4
ENDBRANCH   2   3
ENDBRANCH   1   2
BRANCH   1   7
ATOM      7  C   UNL     1      -5.345  -4.888   1.075  1.00  0.00     0.000 C 
BRANCH   7   8
ATOM      8  C   UNL     1      -4.349  -4.151   1.978  1.00  0.00    -0.000 C 
BRANCH   8   9
ATOM      9  C   UNL     1      -4.293  -2.655   1.631  1.00  0.00    -0.000 C 
BRANCH   9  10
ATOM     10  C   UNL     1      -2.855  -2.140   1.468  1.00  0.00    -0.003 C 
ATOM     11  C   UNL     1      -1.822  -3.266   1.437  1.00  0.00     0.004 C 
ENDBRANCH   9  10
ENDBRANCH   8   9
ENDBRANCH   7   8
ENDBRANCH   1   7
TORSDOF 7
ENDMDL
MODEL 8
REMARK VINA RESULT:    -3.674      3.759      6.172
REMARK INTER + INTRA:          -5.452
REMARK INTER:                  -5.174
REMARK INTRA:                  -0.278
REMARK UNBOUND:                -0.274
REMARK SMILES CCCCCCCCC(=O)[O-]
REMARK SMILES IDX 6 1 7 2 8 3 9 4 10 5 11 6 5 7 4 8 3 9 2 10 1 11
REMARK H PARENT
REMARK Flexibility Score: inf
ROOT
ATOM      1  C   UNL     1       0.417  -2.917   1.096  1.00  0.00     0.000 C 
ENDROOT
BRANCH   1   2
ATOM      2  C   UNL     1       0.926  -4.360   0.949  1.00  0.00     0.006 C 
BRANCH   2   3
ATOM      3  C   UNL     1       1.938  -4.742   2.036  1.00  0.00     0.053 C 
BRANCH   3   4
ATOM      4  C   UNL     1       3.324  -4.366   1.614  1.00  0.00     0.041 C 
ATOM      5  O   UNL     1       4.041  -5.190   0.988  1.00  0.00    -0.550 OA
ATOM      6  O   UNL     1       3.841  -3.123   1.953  1.00  0.00    -0.550 OA
ENDBRANCH   3   4
ENDBRANCH   2   3
ENDBRANCH   1   2
BRANCH   1   7
ATOM      7  C   UNL     1      -0.656  -2.559   0.057  1.00  0.00     0.000 C 
BRANCH   7   8
ATOM      8  C   UNL     1      -1.986  -2.213   0.737  1.00  0.00    -0.000 C 
BRANCH   8   9
ATOM      9  C   UNL     1      -2.494  -3.390   1.583  1.00  0.00    -0.000 C 
BRANCH   9  10
ATOM     10  C   UNL     1      -3.954  -3.210   2.029  1.00  0.00    -0.003 C 
ATOM     11  C   UNL     1      -4.264  -1.784   2.481  1.00  0.00     0.004 C 
ENDBRANCH   9  10
ENDBRANCH   8   9
ENDBRANCH   7   8
ENDBRANCH   1   7
TORSDOF 7
ENDMDL
MODEL 9
REMARK VINA RESULT:    -3.630      3.560      6.529
REMARK INTER + INTRA:          -5.389
REMARK INTER:                  -5.049
REMARK INTRA:                  -0.340
REMARK UNBOUND:                -0.274
REMARK SMILES CCCCCCCCC(=O)[O-]
REMARK SMILES IDX 6 1 7 2 8 3 9 4 10 5 11 6 5 7 4 8 3 9 2 10 1 11
REMARK H PARENT
REMARK Flexibility Score: inf
ROOT
ATOM      1  C   UNL     1      -2.860  -3.117   1.265  1.00  0.00     0.000 C 
ENDROOT
BRANCH   1   2
ATOM      2  C   UNL     1      -1.554  -2.332   1.069  1.00  0.00     0.006 C 
BRANCH   2   3
ATOM      3  C   UNL     1      -0.882  -2.631  -0.276  1.00  0.00     0.053 C 
BRANCH   3   4
ATOM      4  C   UNL     1      -0.561  -4.089  -0.386  1.00  0.00     0.041 C 
ATOM      5  O   UNL     1       0.215  -4.631   0.445  1.00  0.00    -0.550 OA
ATOM      6  O   UNL     1      -1.080  -4.839  -1.433  1.00  0.00    -0.550 OA
ENDBRANCH   3   4
ENDBRANCH   2   3
ENDBRANCH   1   2
BRANCH   1   7
ATOM      7  C   UNL     1      -3.990  -2.252   1.844  1.00  0.00     0.000 C 
BRANCH   7   8
ATOM      8  C   UNL     1      -5.364  -2.841   1.501  1.00  0.00    -0.000 C 
BRANCH   8   9
ATOM      9  C   UNL     1      -5.248  -4.326   1.127  1.00  0.00    -0.000 C 
BRANCH   9  10
ATOM     10  C   UNL     1      -6.618  -5.004   0.971  1.00  0.00    -0.003 C 
ATOM     11  C   UNL     1      -7.521  -4.291  -0.035  1.00  0.00     0.004 C 
ENDBRANCH   9  10
ENDBRANCH   8   9
ENDBRANCH   7   8
ENDBRANCH   1   7
TORSDOF 7
ENDMDL
