MODEL 1
REMARK VINA RESULT:     0.148      0.000      0.000
REMARK INTER + INTRA:           2.052
REMARK INTER:                   0.269
REMARK INTRA:                   1.783
REMARK UNBOUND:                 1.783
REMARK SMILES CCCCCCCCCCCCCCCC(=O)[O-]
REMARK SMILES IDX 9 1 10 2 11 3 12 4 13 5 14 6 15 7 16 8 17 9 18 10 8 11 7 12
REMARK SMILES IDX 6 13 5 14 4 15 3 16 2 17 1 18
REMARK H PARENT
REMARK Flexibility Score: inf
ROOT
ATOM      1  C   UNL     1     -29.571 -19.551 -24.569  1.00  0.00     0.000 C 
ENDROOT
BRANCH   1   2
ATOM      2  C   UNL     1     -29.981 -19.556 -26.053  1.00  0.00     0.000 C 
BRANCH   2   3
ATOM      3  C   UNL     1     -30.076 -20.972 -26.645  1.00  0.00     0.000 C 
BRANCH   3   4
ATOM      4  C   UNL     1     -30.975 -21.909 -25.819  1.00  0.00     0.000 C 
BRANCH   4   5
ATOM      5  C   UNL     1     -31.889 -21.209 -24.796  1.00  0.00     0.000 C 
BRANCH   5   6
ATOM      6  C   UNL     1     -31.368 -21.309 -23.356  1.00  0.00     0.006 C 
BRANCH   6   7
ATOM      7  C   UNL     1     -32.413 -20.805 -22.356  1.00  0.00     0.053 C 
BRANCH   7   8
ATOM      8  C   UNL     1     -32.587 -19.324 -22.481  1.00  0.00     0.041 C 
ATOM      9  O   UNL     1     -33.021 -18.826 -23.553  1.00  0.00    -0.550 OA
ATOM     10  O   UNL     1     -32.318 -18.499 -21.396  1.00  0.00    -0.550 OA
ENDBRANCH   7   8
ENDBRANCH   6   7
ENDBRANCH   5   6
ENDBRANCH   4   5
ENDBRANCH   3   4
ENDBRANCH   2   3
ENDBRANCH   1   2
BRANCH   1  11
ATOM     11  C   UNL     1     -28.283 -20.330 -24.241  1.00  0.00     0.000 C 
BRANCH  11  12
ATOM     12  C   UNL     1     -28.544 -21.617 -23.444  1.00  0.00    -0.000 C 
BRANCH  12  13
ATOM     13  C   UNL     1     -27.274 -22.079 -22.716  1.00  0.00    -0.000 C 
BRANCH  13  14
ATOM     14  C   UNL     1     -27.435 -22.103 -21.185  1.00  0.00    -0.000 C 
BRANCH  14  15
ATOM     15  C   UNL     1     -28.890 -22.124 -20.685  1.00  0.00    -0.000 C 
BRANCH  15  16
ATOM     16  C   UNL     1     -29.000 -22.041 -19.155  1.00  0.00    -0.000 C 
BRANCH  16  17
ATOM     17  C   UNL     1     -27.848 -21.219 -18.566  1.00  0.00    -0.003 C 
ATOM     18  C   UNL     1     -26.786 -22.123 -17.948  1.00  0.00     0.004 C 
ENDBRANCH  16  17
ENDBRANCH  15  16
ENDBRANCH  14  15
ENDBRANCH  13  14
ENDBRANCH  12  13
ENDBRANCH  11  12
ENDBRANCH   1  11
TORSDOF 14
ENDMDL
MODEL 2
REMARK VINA RESULT:     0.729      1.538      2.139
REMARK INTER + INTRA:           3.109
REMARK INTER:                   2.254
REMARK INTRA:                   0.855
REMARK UNBOUND:                 1.783
REMARK SMILES CCCCCCCCCCCCCCCC(=O)[O-]
REMARK SMILES IDX 9 1 10 2 11 3 12 4 13 5 14 6 15 7 16 8 17 9 18 10 8 11 7 12
REMARK SMILES IDX 6 13 5 14 4 15 3 16 2 17 1 18
REMARK H PARENT
REMARK Flexibility Score: inf
ROOT
ATOM      1  C   UNL     1     -29.069 -20.845 -24.097  1.00  0.00     0.000 C 
ENDROOT
BRANCH   1   2
ATOM      2  C   UNL     1     -29.632 -21.548 -25.346  1.00  0.00     0.000 C 
BRANCH   2   3
ATOM      3  C   UNL     1     -30.060 -20.563 -26.447  1.00  0.00     0.000 C 
BRANCH   3   4
ATOM      4  C   UNL     1     -31.239 -19.666 -26.026  1.00  0.00     0.000 C 
BRANCH   4   5
ATOM      5  C   UNL     1     -31.147 -19.087 -24.602  1.00  0.00     0.000 C 
BRANCH   5   6
ATOM      6  C   UNL     1     -32.380 -19.402 -23.744  1.00  0.00     0.006 C 
BRANCH   6   7
ATOM      7  C   UNL     1     -31.992 -19.605 -22.276  1.00  0.00     0.053 C 
BRANCH   7   8
ATOM      8  C   UNL     1     -31.792 -21.057 -21.981  1.00  0.00     0.041 C 
ATOM      9  O   UNL     1     -31.983 -21.499 -20.818  1.00  0.00    -0.550 OA
ATOM     10  O   UNL     1     -31.442 -21.932 -23.002  1.00  0.00    -0.550 OA
ENDBRANCH   7   8
ENDBRANCH   6   7
ENDBRANCH   5   6
ENDBRANCH   4   5
ENDBRANCH   3   4
ENDBRANCH   2   3
ENDBRANCH   1   2
BRANCH   1  11
ATOM     11  C   UNL     1     -27.576 -21.101 -23.817  1.00  0.00     0.000 C 
BRANCH  11  12
ATOM     12  C   UNL     1     -27.316 -21.669 -22.413  1.00  0.00    -0.000 C 
BRANCH  12  13
ATOM     13  C   UNL     1     -28.539 -21.469 -21.506  1.00  0.00    -0.000 C 
BRANCH  13  14
ATOM     14  C   UNL     1     -28.359 -22.093 -20.110  1.00  0.00    -0.000 C 
BRANCH  14  15
ATOM     15  C   UNL     1     -28.506 -21.110 -18.934  1.00  0.00    -0.000 C 
BRANCH  15  16
ATOM     16  C   UNL     1     -27.990 -21.682 -17.606  1.00  0.00    -0.000 C 
BRANCH  16  17
ATOM     17  C   UNL     1     -26.500 -21.372 -17.417  1.00  0.00    -0.003 C 
ATOM     18  C   UNL     1     -25.932 -22.115 -16.211  1.00  0.00     0.004 C 
ENDBRANCH  16  17
ENDBRANCH  15  16
ENDBRANCH  14  15
ENDBRANCH  13  14
ENDBRANCH  12  13
ENDBRANCH  11  12
ENDBRANCH   1  11
TORSDOF 14
ENDMDL
MODEL 3
REMARK VINA RESULT:     0.781      3.123      5.824
REMARK INTER + INTRA:           3.203
REMARK INTER:                   2.780
REMARK INTRA:                   0.423
REMARK UNBOUND:                 1.783
REMARK SMILES CCCCCCCCCCCCCCCC(=O)[O-]
REMARK SMILES IDX 9 1 10 2 11 3 12 4 13 5 14 6 15 7 16 8 17 9 18 10 8 11 7 12
REMARK SMILES IDX 6 13 5 14 4 15 3 16 2 17 1 18
REMARK H PARENT
REMARK Flexibility Score: inf
ROOT
ATOM      1  C   UNL     1     -28.591 -21.951 -23.943  1.00  0.00     0.000 C 
ENDROOT
BRANCH   1   2
ATOM      2  C   UNL     1     -27.163 -21.987 -23.365  1.00  0.00     0.000 C 
BRANCH   2   3
ATOM      3  C   UNL     1     -27.138 -21.980 -21.828  1.00  0.00     0.000 C 
BRANCH   3   4
ATOM      4  C   UNL     1     -28.542 -21.897 -21.203  1.00  0.00     0.000 C 
BRANCH   4   5
ATOM      5  C   UNL     1     -28.792 -20.667 -20.311  1.00  0.00     0.000 C 
BRANCH   5   6
ATOM      6  C   UNL     1     -27.939 -20.666 -19.035  1.00  0.00     0.006 C 
BRANCH   6   7
ATOM      7  C   UNL     1     -27.704 -22.093 -18.529  1.00  0.00     0.053 C 
BRANCH   7   8
ATOM      8  C   UNL     1     -27.096 -22.073 -17.163  1.00  0.00     0.041 C 
ATOM      9  O   UNL     1     -25.847 -21.986 -17.027  1.00  0.00    -0.550 OA
ATOM     10  O   UNL     1     -27.912 -22.099 -16.039  1.00  0.00    -0.550 OA
ENDBRANCH   7   8
ENDBRANCH   6   7
ENDBRANCH   5   6
ENDBRANCH   4   5
ENDBRANCH   3   4
ENDBRANCH   2   3
ENDBRANCH   1   2
BRANCH   1  11
ATOM     11  C   UNL     1     -29.288 -20.579 -23.886  1.00  0.00     0.000 C 
BRANCH  11  12
ATOM     12  C   UNL     1     -29.764 -20.088 -25.262  1.00  0.00    -0.000 C 
BRANCH  12  13
ATOM     13  C   UNL     1     -31.258 -19.737 -25.231  1.00  0.00    -0.000 C 
BRANCH  13  14
ATOM     14  C   UNL     1     -31.593 -18.624 -24.221  1.00  0.00    -0.000 C 
BRANCH  14  15
ATOM     15  C   UNL     1     -32.693 -18.978 -23.205  1.00  0.00    -0.000 C 
BRANCH  15  16
ATOM     16  C   UNL     1     -32.162 -19.753 -21.990  1.00  0.00    -0.000 C 
BRANCH  16  17
ATOM     17  C   UNL     1     -32.049 -21.250 -22.301  1.00  0.00    -0.003 C 
ATOM     18  C   UNL     1     -31.424 -22.010 -21.135  1.00  0.00     0.004 C 
ENDBRANCH  16  17
ENDBRANCH  15  16
ENDBRANCH  14  15
ENDBRANCH  13  14
ENDBRANCH  12  13
ENDBRANCH  11  12
ENDBRANCH   1  11
TORSDOF 14
ENDMDL
MODEL 4
REMARK VINA RESULT:     1.753      3.722      5.904
REMARK INTER + INTRA:           4.970
REMARK INTER:                   5.617
REMARK INTRA:                  -0.647
REMARK UNBOUND:                 1.783
REMARK SMILES CCCCCCCCCCCCCCCC(=O)[O-]
REMARK SMILES IDX 9 1 10 2 11 3 12 4 13 5 14 6 15 7 16 8 17 9 18 10 8 11 7 12
REMARK SMILES IDX 6 13 5 14 4 15 3 16 2 17 1 18
REMARK H PARENT
REMARK Flexibility Score: inf
ROOT
ATOM      1  C   UNL     1     -27.859 -21.065 -18.131  1.00  0.00     0.000 C 
ENDROOT
BRANCH   1   2
ATOM      2  C   UNL     1     -27.826 -21.570 -19.585  1.00  0.00     0.000 C 
BRANCH   2   3
ATOM      3  C   UNL     1     -28.896 -20.913 -20.473  1.00  0.00     0.000 C 
BRANCH   3   4
ATOM      4  C   UNL     1     -29.447 -21.861 -21.554  1.00  0.00     0.000 C 
BRANCH   4   5
ATOM      5  C   UNL     1     -28.752 -21.765 -22.925  1.00  0.00     0.000 C 
BRANCH   5   6
ATOM      6  C   UNL     1     -29.741 -21.671 -24.095  1.00  0.00     0.006 C 
BRANCH   6   7
ATOM      7  C   UNL     1     -31.146 -21.311 -23.601  1.00  0.00     0.053 C 
BRANCH   7   8
ATOM      8  C   UNL     1     -31.441 -19.869 -23.861  1.00  0.00     0.041 C 
ATOM      9  O   UNL     1     -30.926 -19.286 -24.851  1.00  0.00    -0.550 OA
ATOM     10  O   UNL     1     -32.324 -19.180 -23.039  1.00  0.00    -0.550 OA
ENDBRANCH   7   8
ENDBRANCH   6   7
ENDBRANCH   5   6
ENDBRANCH   4   5
ENDBRANCH   3   4
ENDBRANCH   2   3
ENDBRANCH   1   2
BRANCH   1  11
ATOM     11  C   UNL     1     -28.250 -22.120 -17.079  1.00  0.00     0.000 C 
BRANCH  11  12
ATOM     12  C   UNL     1     -29.753 -22.125 -16.761  1.00  0.00    -0.000 C 
BRANCH  12  13
ATOM     13  C   UNL     1     -29.993 -22.125 -15.244  1.00  0.00    -0.000 C 
BRANCH  13  14
ATOM     14  C   UNL     1     -30.989 -21.040 -14.794  1.00  0.00    -0.000 C 
BRANCH  14  15
ATOM     15  C   UNL     1     -30.714 -20.442 -13.403  1.00  0.00    -0.000 C 
BRANCH  15  16
ATOM     16  C   UNL     1     -29.779 -19.225 -13.447  1.00  0.00    -0.000 C 
BRANCH  16  17
ATOM     17  C   UNL     1     -29.042 -19.050 -12.114  1.00  0.00    -0.003 C 
ATOM     18  C   UNL     1     -29.635 -17.902 -11.302  1.00  0.00     0.004 C 
ENDBRANCH  16  17
ENDBRANCH  15  16
ENDBRANCH  14  15
ENDBRANCH  13  14
ENDBRANCH  12  13
ENDBRANCH  11  12
ENDBRANCH   1  11
TORSDOF 14
ENDMDL
MODEL 5
REMARK VINA RESULT:     2.586      1.267      2.041
REMARK INTER + INTRA:           6.485
REMARK INTER:                   7.104
REMARK INTRA:                  -0.619
REMARK UNBOUND:                 1.783
REMARK SMILES CCCCCCCCCCCCCCCC(=O)[O-]
REMARK SMILES IDX 9 1 10 2 11 3 12 4 13 5 14 6 15 7 16 8 17 9 18 10 8 11 7 12
REMARK SMILES IDX 6 13 5 14 4 15 3 16 2 17 1 18
REMARK H PARENT
REMARK Flexibility Score: inf
ROOT
ATOM      1  C   UNL     1     -27.407 -20.624 -23.226  1.00  0.00     0.000 C 
ENDROOT
BRANCH   1   2
ATOM      2  C   UNL     1     -27.998 -20.038 -24.522  1.00  0.00     0.000 C 
BRANCH   2   3
ATOM      3  C   UNL     1     -29.534 -19.965 -24.503  1.00  0.00     0.000 C 
BRANCH   3   4
ATOM      4  C   UNL     1     -30.203 -21.249 -25.025  1.00  0.00     0.000 C 
BRANCH   4   5
ATOM      5  C   UNL     1     -31.319 -21.818 -24.129  1.00  0.00     0.000 C 
BRANCH   5   6
ATOM      6  C   UNL     1     -31.241 -21.319 -22.680  1.00  0.00     0.006 C 
BRANCH   6   7
ATOM      7  C   UNL     1     -32.571 -20.701 -22.239  1.00  0.00     0.053 C 
BRANCH   7   8
ATOM      8  C   UNL     1     -32.520 -19.210 -22.349  1.00  0.00     0.041 C 
ATOM      9  O   UNL     1     -32.498 -18.660 -23.482  1.00  0.00    -0.550 OA
ATOM     10  O   UNL     1     -32.546 -18.427 -21.203  1.00  0.00    -0.550 OA
ENDBRANCH   7   8
ENDBRANCH   6   7
ENDBRANCH   5   6
ENDBRANCH   4   5
ENDBRANCH   3   4
ENDBRANCH   2   3
ENDBRANCH   1   2
BRANCH   1  11
ATOM     11  C   UNL     1     -27.963 -22.000 -22.815  1.00  0.00     0.000 C 
BRANCH  11  12
ATOM     12  C   UNL     1     -28.492 -22.028 -21.372  1.00  0.00    -0.000 C 
BRANCH  12  13
ATOM     13  C   UNL     1     -27.336 -22.114 -20.366  1.00  0.00    -0.000 C 
BRANCH  13  14
ATOM     14  C   UNL     1     -27.135 -20.812 -19.569  1.00  0.00    -0.000 C 
BRANCH  14  15
ATOM     15  C   UNL     1     -27.899 -20.741 -18.235  1.00  0.00    -0.000 C 
BRANCH  15  16
ATOM     16  C   UNL     1     -28.277 -22.125 -17.686  1.00  0.00    -0.000 C 
BRANCH  16  17
ATOM     17  C   UNL     1     -29.703 -22.121 -17.123  1.00  0.00    -0.003 C 
ATOM     18  C   UNL     1     -29.694 -22.024 -15.600  1.00  0.00     0.004 C 
ENDBRANCH  16  17
ENDBRANCH  15  16
ENDBRANCH  14  15
ENDBRANCH  13  14
ENDBRANCH  12  13
ENDBRANCH  11  12
ENDBRANCH   1  11
TORSDOF 14
ENDMDL
MODEL 6
REMARK VINA RESULT:     2.695      2.600      4.120
REMARK INTER + INTRA:           6.683
REMARK INTER:                   7.548
REMARK INTRA:                  -0.865
REMARK UNBOUND:                 1.783
REMARK SMILES CCCCCCCCCCCCCCCC(=O)[O-]
REMARK SMILES IDX 9 1 10 2 11 3 12 4 13 5 14 6 15 7 16 8 17 9 18 10 8 11 7 12
REMARK SMILES IDX 6 13 5 14 4 15 3 16 2 17 1 18
REMARK H PARENT
REMARK Flexibility Score: inf
ROOT
ATOM      1  C   UNL     1     -28.125 -20.179 -20.439  1.00  0.00     0.000 C 
ENDROOT
BRANCH   1   2
ATOM      2  C   UNL     1     -28.144 -20.247 -21.978  1.00  0.00     0.000 C 
BRANCH   2   3
ATOM      3  C   UNL     1     -27.952 -21.674 -22.518  1.00  0.00     0.000 C 
BRANCH   3   4
ATOM      4  C   UNL     1     -29.087 -22.119 -23.458  1.00  0.00     0.000 C 
BRANCH   4   5
ATOM      5  C   UNL     1     -29.395 -21.152 -24.617  1.00  0.00     0.000 C 
BRANCH   5   6
ATOM      6  C   UNL     1     -30.706 -20.377 -24.421  1.00  0.00     0.006 C 
BRANCH   6   7
ATOM      7  C   UNL     1     -31.545 -20.991 -23.296  1.00  0.00     0.053 C 
BRANCH   7   8
ATOM      8  C   UNL     1     -32.147 -19.919 -22.445  1.00  0.00     0.041 C 
ATOM      9  O   UNL     1     -33.344 -19.569 -22.620  1.00  0.00    -0.550 OA
ATOM     10  O   UNL     1     -31.402 -19.339 -21.427  1.00  0.00    -0.550 OA
ENDBRANCH   7   8
ENDBRANCH   6   7
ENDBRANCH   5   6
ENDBRANCH   4   5
ENDBRANCH   3   4
ENDBRANCH   2   3
ENDBRANCH   1   2
BRANCH   1  11
ATOM     11  C   UNL     1     -27.476 -21.386 -19.737  1.00  0.00     0.000 C 
BRANCH  11  12
ATOM     12  C   UNL     1     -26.951 -21.054 -18.331  1.00  0.00    -0.000 C 
BRANCH  12  13
ATOM     13  C   UNL     1     -27.384 -22.123 -17.318  1.00  0.00    -0.000 C 
BRANCH  13  14
ATOM     14  C   UNL     1     -28.901 -22.124 -17.057  1.00  0.00    -0.000 C 
BRANCH  14  15
ATOM     15  C   UNL     1     -29.305 -22.124 -15.572  1.00  0.00    -0.000 C 
BRANCH  15  16
ATOM     16  C   UNL     1     -30.820 -21.976 -15.363  1.00  0.00    -0.000 C 
BRANCH  16  17
ATOM     17  C   UNL     1     -31.122 -21.088 -14.150  1.00  0.00    -0.003 C 
ATOM     18  C   UNL     1     -32.306 -20.166 -14.424  1.00  0.00     0.004 C 
ENDBRANCH  16  17
ENDBRANCH  15  16
ENDBRANCH  14  15
ENDBRANCH  13  14
ENDBRANCH  12  13
ENDBRANCH  11  12
ENDBRANCH   1  11
TORSDOF 14
ENDMDL
MODEL 7
REMARK VINA RESULT:     2.934      3.117      5.287
REMARK INTER + INTRA:           7.117
REMARK INTER:                   6.935
REMARK INTRA:                   0.183
REMARK UNBOUND:                 1.783
REMARK SMILES CCCCCCCCCCCCCCCC(=O)[O-]
REMARK SMILES IDX 9 1 10 2 11 3 12 4 13 5 14 6 15 7 16 8 17 9 18 10 8 11 7 12
REMARK SMILES IDX 6 13 5 14 4 15 3 16 2 17 1 18
REMARK H PARENT
REMARK Flexibility Score: inf
ROOT
ATOM      1  C   UNL     1     -27.934 -20.274 -19.302  1.00  0.00     0.000 C 
ENDROOT
BRANCH   1   2
ATOM      2  C   UNL     1     -29.204 -20.309 -20.173  1.00  0.00     0.000 C 
BRANCH   2   3
ATOM      3  C   UNL     1     -29.239 -21.509 -21.135  1.00  0.00     0.000 C 
BRANCH   3   4
ATOM      4  C   UNL     1     -27.841 -21.931 -21.621  1.00  0.00     0.000 C 
BRANCH   4   5
ATOM      5  C   UNL     1     -27.429 -21.371 -22.996  1.00  0.00     0.000 C 
BRANCH   5   6
ATOM      6  C   UNL     1     -28.476 -21.627 -24.089  1.00  0.00     0.006 C 
BRANCH   6   7
ATOM      7  C   UNL     1     -29.438 -20.442 -24.217  1.00  0.00     0.053 C 
BRANCH   7   8
ATOM      8  C   UNL     1     -30.517 -20.746 -25.207  1.00  0.00     0.041 C 
ATOM      9  O   UNL     1     -31.607 -21.245 -24.822  1.00  0.00    -0.550 OA
ATOM     10  O   UNL     1     -30.338 -20.433 -26.548  1.00  0.00    -0.550 OA
ENDBRANCH   7   8
ENDBRANCH   6   7
ENDBRANCH   5   6
ENDBRANCH   4   5
ENDBRANCH   3   4
ENDBRANCH   2   3
ENDBRANCH   1   2
BRANCH   1  11
ATOM     11  C   UNL     1     -27.354 -21.652 -18.932  1.00  0.00     0.000 C 
BRANCH  11  12
ATOM     12  C   UNL     1     -27.591 -22.029 -17.461  1.00  0.00    -0.000 C 
BRANCH  12  13
ATOM     13  C   UNL     1     -29.092 -22.122 -17.153  1.00  0.00    -0.000 C 
BRANCH  13  14
ATOM     14  C   UNL     1     -29.407 -21.992 -15.652  1.00  0.00    -0.000 C 
BRANCH  14  15
ATOM     15  C   UNL     1     -30.899 -22.094 -15.289  1.00  0.00    -0.000 C 
BRANCH  15  16
ATOM     16  C   UNL     1     -31.385 -20.925 -14.419  1.00  0.00    -0.000 C 
BRANCH  16  17
ATOM     17  C   UNL     1     -30.297 -20.484 -13.434  1.00  0.00    -0.003 C 
ATOM     18  C   UNL     1     -30.265 -18.965 -13.292  1.00  0.00     0.004 C 
ENDBRANCH  16  17
ENDBRANCH  15  16
ENDBRANCH  14  15
ENDBRANCH  13  14
ENDBRANCH  12  13
ENDBRANCH  11  12
ENDBRANCH   1  11
TORSDOF 14
ENDMDL
