MODEL 1
REMARK VINA RESULT:    -5.636      0.000      0.000
REMARK INTER + INTRA:          -6.130
REMARK INTER:                  -6.130
REMARK INTRA:                   0.000
REMARK UNBOUND:                 0.000
REMARK SMILES Cc1cc(O)c2c(c1)C(=O)c1cc(O)cc(O)c1C2=O
REMARK SMILES IDX 1 1 2 2 8 3 7 4 6 5 4 6 3 7 19 8 20 9 18 10 11 11 9 12 10 13
REMARK SMILES IDX 12 14 13 15 15 16 16 17 5 18 17 20 14 22
REMARK H PARENT 5 19 17 21 14 23
REMARK Flexibility Score: inf
ROOT
ATOM      1  C   UNL     1      11.166  44.998  37.130  1.00  0.00     0.044 C 
ATOM      2  C   UNL     1      12.075  44.780  35.956  1.00  0.00    -0.047 A 
ATOM      3  C   UNL     1      12.563  45.872  35.231  1.00  0.00     0.016 A 
ATOM      4  C   UNL     1      13.437  45.679  34.148  1.00  0.00     0.038 A 
ATOM      5  C   UNL     1      13.831  44.373  33.785  1.00  0.00     0.076 A 
ATOM      6  C   UNL     1      13.400  43.276  34.577  1.00  0.00     0.127 A 
ATOM      7  C   UNL     1      12.514  43.490  35.637  1.00  0.00     0.050 A 
ATOM      8  C   UNL     1      14.635  44.198  32.548  1.00  0.00     0.201 C 
ATOM      9  O   UNL     1      14.533  43.135  31.879  1.00  0.00    -0.288 OA
ATOM     10  C   UNL     1      15.408  45.344  32.004  1.00  0.00     0.076 A 
ATOM     11  C   UNL     1      15.014  46.650  32.371  1.00  0.00     0.041 A 
ATOM     12  C   UNL     1      13.955  46.843  33.390  1.00  0.00     0.194 C 
ATOM     13  O   UNL     1      13.513  48.001  33.628  1.00  0.00    -0.289 OA
ATOM     14  C   UNL     1      15.630  47.762  31.771  1.00  0.00     0.059 A 
ATOM     15  C   UNL     1      16.642  47.587  30.826  1.00  0.00     0.120 A 
ATOM     16  C   UNL     1      17.063  46.298  30.490  1.00  0.00     0.093 A 
ATOM     17  C   UNL     1      16.479  45.176  31.088  1.00  0.00     0.131 A 
ENDROOT
BRANCH   6  18
ATOM     18  O   UNL     1      13.854  41.971  34.369  1.00  0.00    -0.507 OA
ATOM     19  H   UNL     1      13.285  41.151  34.519  1.00  0.00     0.293 HD
ENDBRANCH   6  18
BRANCH  17  20
ATOM     20  O   UNL     1      17.014  43.926  30.770  1.00  0.00    -0.507 OA
ATOM     21  H   UNL     1      17.878  43.801  30.261  1.00  0.00     0.293 HD
ENDBRANCH  17  20
BRANCH  15  22
ATOM     22  O   UNL     1      17.230  48.703  30.236  1.00  0.00    -0.508 OA
ATOM     23  H   UNL     1      17.610  49.459  30.792  1.00  0.00     0.293 HD
ENDBRANCH  15  22
TORSDOF 3
ENDMDL
MODEL 2
REMARK VINA RESULT:    -5.605      9.442     11.267
REMARK INTER + INTRA:          -6.097
REMARK INTER:                  -6.097
REMARK INTRA:                   0.000
REMARK UNBOUND:                 0.000
REMARK SMILES Cc1cc(O)c2c(c1)C(=O)c1cc(O)cc(O)c1C2=O
REMARK SMILES IDX 1 1 2 2 8 3 7 4 6 5 4 6 3 7 19 8 20 9 18 10 11 11 9 12 10 13
REMARK SMILES IDX 12 14 13 15 15 16 16 17 5 18 17 20 14 22
REMARK H PARENT 5 19 17 21 14 23
REMARK Flexibility Score: inf
ROOT
ATOM      1  C   UNL     1      11.209  53.625  37.497  1.00  0.00     0.044 C 
ATOM      2  C   UNL     1      12.304  54.142  36.611  1.00  0.00    -0.047 A 
ATOM      3  C   UNL     1      12.209  55.418  36.047  1.00  0.00     0.016 A 
ATOM      4  C   UNL     1      13.241  55.922  35.238  1.00  0.00     0.038 A 
ATOM      5  C   UNL     1      14.388  55.137  34.990  1.00  0.00     0.076 A 
ATOM      6  C   UNL     1      14.516  53.878  35.633  1.00  0.00     0.127 A 
ATOM      7  C   UNL     1      13.467  53.389  36.417  1.00  0.00     0.050 A 
ATOM      8  C   UNL     1      15.389  55.640  34.014  1.00  0.00     0.201 C 
ATOM      9  O   UNL     1      16.072  54.825  33.339  1.00  0.00    -0.288 OA
ATOM     10  C   UNL     1      15.448  57.091  33.702  1.00  0.00     0.076 A 
ATOM     11  C   UNL     1      14.300  57.876  33.953  1.00  0.00     0.041 A 
ATOM     12  C   UNL     1      13.136  57.279  34.651  1.00  0.00     0.194 C 
ATOM     13  O   UNL     1      12.065  57.937  34.766  1.00  0.00    -0.289 OA
ATOM     14  C   UNL     1      14.268  59.221  33.546  1.00  0.00     0.059 A 
ATOM     15  C   UNL     1      15.368  59.794  32.907  1.00  0.00     0.120 A 
ATOM     16  C   UNL     1      16.520  59.034  32.692  1.00  0.00     0.093 A 
ATOM     17  C   UNL     1      16.584  57.699  33.106  1.00  0.00     0.131 A 
ENDROOT
BRANCH   6  18
ATOM     18  O   UNL     1      15.675  53.102  35.550  1.00  0.00    -0.507 OA
ATOM     19  H   UNL     1      15.785  52.210  36.011  1.00  0.00     0.293 HD
ENDBRANCH   6  18
BRANCH  17  20
ATOM     20  O   UNL     1      17.799  57.031  32.940  1.00  0.00    -0.507 OA
ATOM     21  H   UNL     1      18.670  57.498  32.729  1.00  0.00     0.293 HD
ENDBRANCH  17  20
BRANCH  15  22
ATOM     22  O   UNL     1      15.309  61.125  32.500  1.00  0.00    -0.508 OA
ATOM     23  H   UNL     1      14.870  61.835  33.072  1.00  0.00     0.293 HD
ENDBRANCH  15  22
TORSDOF 3
ENDMDL
MODEL 3
REMARK VINA RESULT:    -5.300     13.181     16.034
REMARK INTER + INTRA:          -5.764
REMARK INTER:                  -5.764
REMARK INTRA:                   0.000
REMARK UNBOUND:                 0.000
REMARK SMILES Cc1cc(O)c2c(c1)C(=O)c1cc(O)cc(O)c1C2=O
REMARK SMILES IDX 1 1 2 2 8 3 7 4 6 5 4 6 3 7 19 8 20 9 18 10 11 11 9 12 10 13
REMARK SMILES IDX 12 14 13 15 15 16 16 17 5 18 17 20 14 22
REMARK H PARENT 5 19 17 21 14 23
REMARK Flexibility Score: inf
ROOT
ATOM      1  C   UNL     1      26.475  60.443  33.800  1.00  0.00     0.044 C 
ATOM      2  C   UNL     1      26.094  59.260  32.960  1.00  0.00    -0.047 A 
ATOM      3  C   UNL     1      26.625  57.997  33.240  1.00  0.00     0.016 A 
ATOM      4  C   UNL     1      26.253  56.878  32.476  1.00  0.00     0.038 A 
ATOM      5  C   UNL     1      25.333  57.025  31.415  1.00  0.00     0.076 A 
ATOM      6  C   UNL     1      24.734  58.292  31.190  1.00  0.00     0.127 A 
ATOM      7  C   UNL     1      25.135  59.395  31.950  1.00  0.00     0.050 A 
ATOM      8  C   UNL     1      25.076  55.853  30.538  1.00  0.00     0.201 C 
ATOM      9  O   UNL     1      24.769  56.030  29.329  1.00  0.00    -0.288 OA
ATOM     10  C   UNL     1      25.365  54.484  31.036  1.00  0.00     0.076 A 
ATOM     11  C   UNL     1      26.284  54.339  32.099  1.00  0.00     0.041 A 
ATOM     12  C   UNL     1      26.815  55.542  32.785  1.00  0.00     0.194 C 
ATOM     13  O   UNL     1      27.728  55.424  33.648  1.00  0.00    -0.289 OA
ATOM     14  C   UNL     1      26.687  53.056  32.507  1.00  0.00     0.059 A 
ATOM     15  C   UNL     1      26.176  51.920  31.879  1.00  0.00     0.120 A 
ATOM     16  C   UNL     1      25.236  52.057  30.854  1.00  0.00     0.093 A 
ATOM     17  C   UNL     1      24.803  53.322  30.444  1.00  0.00     0.131 A 
ENDROOT
BRANCH   6  18
ATOM     18  O   UNL     1      23.716  58.490  30.254  1.00  0.00    -0.507 OA
ATOM     19  H   UNL     1      23.837  59.013  29.398  1.00  0.00     0.293 HD
ENDBRANCH   6  18
BRANCH  17  20
ATOM     20  O   UNL     1      23.796  53.377  29.478  1.00  0.00    -0.507 OA
ATOM     21  H   UNL     1      23.912  53.044  28.531  1.00  0.00     0.293 HD
ENDBRANCH  17  20
BRANCH  15  22
ATOM     22  O   UNL     1      26.599  50.658  32.290  1.00  0.00    -0.508 OA
ATOM     23  H   UNL     1      26.068  50.113  32.958  1.00  0.00     0.293 HD
ENDBRANCH  15  22
TORSDOF 3
ENDMDL
MODEL 4
REMARK VINA RESULT:    -5.248     13.511     15.364
REMARK INTER + INTRA:          -5.708
REMARK INTER:                  -5.708
REMARK INTRA:                   0.000
REMARK UNBOUND:                 0.000
REMARK SMILES Cc1cc(O)c2c(c1)C(=O)c1cc(O)cc(O)c1C2=O
REMARK SMILES IDX 1 1 2 2 8 3 7 4 6 5 4 6 3 7 19 8 20 9 18 10 11 11 9 12 10 13
REMARK SMILES IDX 12 14 13 15 15 16 16 17 5 18 17 20 14 22
REMARK H PARENT 5 19 17 21 14 23
REMARK Flexibility Score: inf
ROOT
ATOM      1  C   UNL     1      28.654  51.958  34.808  1.00  0.00     0.044 C 
ATOM      2  C   UNL     1      27.645  52.611  33.910  1.00  0.00    -0.047 A 
ATOM      3  C   UNL     1      27.602  54.004  33.795  1.00  0.00     0.016 A 
ATOM      4  C   UNL     1      26.680  54.623  32.935  1.00  0.00     0.038 A 
ATOM      5  C   UNL     1      25.786  53.836  32.177  1.00  0.00     0.076 A 
ATOM      6  C   UNL     1      25.891  52.421  32.235  1.00  0.00     0.127 A 
ATOM      7  C   UNL     1      26.803  51.828  33.113  1.00  0.00     0.050 A 
ATOM      8  C   UNL     1      24.729  54.527  31.393  1.00  0.00     0.201 C 
ATOM      9  O   UNL     1      23.625  53.956  31.190  1.00  0.00    -0.288 OA
ATOM     10  C   UNL     1      24.905  55.953  31.016  1.00  0.00     0.076 A 
ATOM     11  C   UNL     1      25.803  56.738  31.775  1.00  0.00     0.041 A 
ATOM     12  C   UNL     1      26.647  56.100  32.813  1.00  0.00     0.194 C 
ATOM     13  O   UNL     1      27.355  56.814  33.576  1.00  0.00    -0.289 OA
ATOM     14  C   UNL     1      25.895  58.120  31.539  1.00  0.00     0.059 A 
ATOM     15  C   UNL     1      25.118  58.723  30.549  1.00  0.00     0.120 A 
ATOM     16  C   UNL     1      24.259  57.945  29.770  1.00  0.00     0.093 A 
ATOM     17  C   UNL     1      24.164  56.564  29.972  1.00  0.00     0.131 A 
ENDROOT
BRANCH   6  18
ATOM     18  O   UNL     1      25.140  51.575  31.415  1.00  0.00    -0.507 OA
ATOM     19  H   UNL     1      25.542  50.998  30.690  1.00  0.00     0.293 HD
ENDBRANCH   6  18
BRANCH  17  20
ATOM     20  O   UNL     1      23.355  55.839  29.095  1.00  0.00    -0.507 OA
ATOM     21  H   UNL     1      22.361  55.994  28.994  1.00  0.00     0.293 HD
ENDBRANCH  17  20
BRANCH  15  22
ATOM     22  O   UNL     1      25.216  60.098  30.341  1.00  0.00    -0.508 OA
ATOM     23  H   UNL     1      24.448  60.631  29.952  1.00  0.00     0.293 HD
ENDBRANCH  15  22
TORSDOF 3
ENDMDL
MODEL 5
REMARK VINA RESULT:    -5.196     13.880     15.595
REMARK INTER + INTRA:          -5.651
REMARK INTER:                  -5.651
REMARK INTRA:                   0.000
REMARK UNBOUND:                 0.000
REMARK SMILES Cc1cc(O)c2c(c1)C(=O)c1cc(O)cc(O)c1C2=O
REMARK SMILES IDX 1 1 2 2 8 3 7 4 6 5 4 6 3 7 19 8 20 9 18 10 11 11 9 12 10 13
REMARK SMILES IDX 12 14 13 15 15 16 16 17 5 18 17 20 14 22
REMARK H PARENT 5 19 17 21 14 23
REMARK Flexibility Score: inf
ROOT
ATOM      1  C   UNL     1      24.040  59.212  29.781  1.00  0.00     0.044 C 
ATOM      2  C   UNL     1      24.430  57.805  30.126  1.00  0.00    -0.047 A 
ATOM      3  C   UNL     1      25.407  57.563  31.096  1.00  0.00     0.016 A 
ATOM      4  C   UNL     1      25.759  56.249  31.446  1.00  0.00     0.038 A 
ATOM      5  C   UNL     1      25.122  55.158  30.815  1.00  0.00     0.076 A 
ATOM      6  C   UNL     1      24.073  55.410  29.893  1.00  0.00     0.127 A 
ATOM      7  C   UNL     1      23.754  56.726  29.546  1.00  0.00     0.050 A 
ATOM      8  C   UNL     1      25.622  53.788  31.102  1.00  0.00     0.201 C 
ATOM      9  O   UNL     1      25.532  52.891  30.223  1.00  0.00    -0.288 OA
ATOM     10  C   UNL     1      26.392  53.531  32.346  1.00  0.00     0.076 A 
ATOM     11  C   UNL     1      27.027  54.625  32.977  1.00  0.00     0.041 A 
ATOM     12  C   UNL     1      26.790  56.002  32.482  1.00  0.00     0.194 C 
ATOM     13  O   UNL     1      27.450  56.966  32.961  1.00  0.00    -0.289 OA
ATOM     14  C   UNL     1      27.876  54.403  34.075  1.00  0.00     0.059 A 
ATOM     15  C   UNL     1      28.087  53.112  34.558  1.00  0.00     0.120 A 
ATOM     16  C   UNL     1      27.430  52.032  33.963  1.00  0.00     0.093 A 
ATOM     17  C   UNL     1      26.564  52.228  32.882  1.00  0.00     0.131 A 
ENDROOT
BRANCH   6  18
ATOM     18  O   UNL     1      23.301  54.389  29.331  1.00  0.00    -0.507 OA
ATOM     19  H   UNL     1      22.754  53.738  29.876  1.00  0.00     0.293 HD
ENDBRANCH   6  18
BRANCH  17  20
ATOM     20  O   UNL     1      25.874  51.114  32.399  1.00  0.00    -0.507 OA
ATOM     21  H   UNL     1      25.646  50.309  32.966  1.00  0.00     0.293 HD
ENDBRANCH  17  20
BRANCH  15  22
ATOM     22  O   UNL     1      28.943  52.914  35.640  1.00  0.00    -0.508 OA
ATOM     23  H   UNL     1      29.344  52.006  35.839  1.00  0.00     0.293 HD
ENDBRANCH  15  22
TORSDOF 3
ENDMDL
MODEL 6
REMARK VINA RESULT:    -5.064     13.534     15.219
REMARK INTER + INTRA:          -5.508
REMARK INTER:                  -5.508
REMARK INTRA:                   0.000
REMARK UNBOUND:                 0.000
REMARK SMILES Cc1cc(O)c2c(c1)C(=O)c1cc(O)cc(O)c1C2=O
REMARK SMILES IDX 1 1 2 2 8 3 7 4 6 5 4 6 3 7 19 8 20 9 18 10 11 11 9 12 10 13
REMARK SMILES IDX 12 14 13 15 15 16 16 17 5 18 17 20 14 22
REMARK H PARENT 5 19 17 21 14 23
REMARK Flexibility Score: inf
ROOT
ATOM      1  C   UNL     1      30.498  48.780  33.415  1.00  0.00     0.044 C 
ATOM      2  C   UNL     1      29.645  50.012  33.349  1.00  0.00    -0.047 A 
ATOM      3  C   UNL     1      28.823  50.241  32.241  1.00  0.00     0.016 A 
ATOM      4  C   UNL     1      27.999  51.377  32.183  1.00  0.00     0.038 A 
ATOM      5  C   UNL     1      27.998  52.301  33.251  1.00  0.00     0.076 A 
ATOM      6  C   UNL     1      28.770  52.020  34.408  1.00  0.00     0.127 A 
ATOM      7  C   UNL     1      29.597  50.893  34.435  1.00  0.00     0.050 A 
ATOM      8  C   UNL     1      27.229  53.562  33.091  1.00  0.00     0.201 C 
ATOM      9  O   UNL     1      27.614  54.610  33.675  1.00  0.00    -0.288 OA
ATOM     10  C   UNL     1      26.126  53.631  32.098  1.00  0.00     0.076 A 
ATOM     11  C   UNL     1      26.128  52.704  31.031  1.00  0.00     0.041 A 
ATOM     12  C   UNL     1      27.124  51.607  31.009  1.00  0.00     0.194 C 
ATOM     13  O   UNL     1      27.211  50.855  29.999  1.00  0.00    -0.289 OA
ATOM     14  C   UNL     1      25.182  52.823  29.999  1.00  0.00     0.059 A 
ATOM     15  C   UNL     1      24.229  53.841  30.025  1.00  0.00     0.120 A 
ATOM     16  C   UNL     1      24.197  54.736  31.098  1.00  0.00     0.093 A 
ATOM     17  C   UNL     1      25.114  54.626  32.148  1.00  0.00     0.131 A 
ENDROOT
BRANCH   6  18
ATOM     18  O   UNL     1      28.717  52.809  35.560  1.00  0.00    -0.507 OA
ATOM     19  H   UNL     1      27.880  52.942  36.109  1.00  0.00     0.293 HD
ENDBRANCH   6  18
BRANCH  17  20
ATOM     20  O   UNL     1      24.964  55.498  33.229  1.00  0.00    -0.507 OA
ATOM     21  H   UNL     1      25.383  56.417  33.269  1.00  0.00     0.293 HD
ENDBRANCH  17  20
BRANCH  15  22
ATOM     22  O   UNL     1      23.308  53.948  28.984  1.00  0.00    -0.508 OA
ATOM     23  H   UNL     1      22.551  54.620  29.013  1.00  0.00     0.293 HD
ENDBRANCH  15  22
TORSDOF 3
ENDMDL
MODEL 7
REMARK VINA RESULT:    -5.016      9.625     12.566
REMARK INTER + INTRA:          -5.455
REMARK INTER:                  -5.455
REMARK INTRA:                   0.000
REMARK UNBOUND:                 0.000
REMARK SMILES Cc1cc(O)c2c(c1)C(=O)c1cc(O)cc(O)c1C2=O
REMARK SMILES IDX 1 1 2 2 8 3 7 4 6 5 4 6 3 7 19 8 20 9 18 10 11 11 9 12 10 13
REMARK SMILES IDX 12 14 13 15 15 16 16 17 5 18 17 20 14 22
REMARK H PARENT 5 19 17 21 14 23
REMARK Flexibility Score: inf
ROOT
ATOM      1  C   UNL     1      15.396  60.666  32.478  1.00  0.00     0.044 C 
ATOM      2  C   UNL     1      14.616  59.618  33.215  1.00  0.00    -0.047 A 
ATOM      3  C   UNL     1      15.158  58.344  33.410  1.00  0.00     0.016 A 
ATOM      4  C   UNL     1      14.447  57.364  34.123  1.00  0.00     0.038 A 
ATOM      5  C   UNL     1      13.172  57.664  34.651  1.00  0.00     0.076 A 
ATOM      6  C   UNL     1      12.664  58.984  34.522  1.00  0.00     0.127 A 
ATOM      7  C   UNL     1      13.381  59.935  33.791  1.00  0.00     0.050 A 
ATOM      8  C   UNL     1      12.388  56.563  35.269  1.00  0.00     0.201 C 
ATOM      9  O   UNL     1      11.130  56.590  35.227  1.00  0.00    -0.288 OA
ATOM     10  C   UNL     1      13.087  55.349  35.763  1.00  0.00     0.076 A 
ATOM     11  C   UNL     1      14.364  55.052  35.236  1.00  0.00     0.041 A 
ATOM     12  C   UNL     1      15.033  56.019  34.332  1.00  0.00     0.194 C 
ATOM     13  O   UNL     1      16.114  55.704  33.761  1.00  0.00    -0.289 OA
ATOM     14  C   UNL     1      14.998  53.844  35.574  1.00  0.00     0.059 A 
ATOM     15  C   UNL     1      14.382  52.940  36.440  1.00  0.00     0.120 A 
ATOM     16  C   UNL     1      13.138  53.247  36.995  1.00  0.00     0.093 A 
ATOM     17  C   UNL     1      12.496  54.452  36.691  1.00  0.00     0.131 A 
ENDROOT
BRANCH   6  18
ATOM     18  O   UNL     1      11.477  59.398  35.132  1.00  0.00    -0.507 OA
ATOM     19  H   UNL     1      11.226  60.367  35.265  1.00  0.00     0.293 HD
ENDBRANCH   6  18
BRANCH  17  20
ATOM     20  O   UNL     1      11.299  54.731  37.354  1.00  0.00    -0.507 OA
ATOM     21  H   UNL     1      10.550  55.276  36.950  1.00  0.00     0.293 HD
ENDBRANCH  17  20
BRANCH  15  22
ATOM     22  O   UNL     1      15.023  51.742  36.751  1.00  0.00    -0.508 OA
ATOM     23  H   UNL     1      14.733  51.176  37.539  1.00  0.00     0.293 HD
ENDBRANCH  15  22
TORSDOF 3
ENDMDL
MODEL 8
REMARK VINA RESULT:    -4.928     13.197     15.459
REMARK INTER + INTRA:          -5.360
REMARK INTER:                  -5.360
REMARK INTRA:                   0.000
REMARK UNBOUND:                 0.000
REMARK SMILES Cc1cc(O)c2c(c1)C(=O)c1cc(O)cc(O)c1C2=O
REMARK SMILES IDX 1 1 2 2 8 3 7 4 6 5 4 6 3 7 19 8 20 9 18 10 11 11 9 12 10 13
REMARK SMILES IDX 12 14 13 15 15 16 16 17 5 18 17 20 14 22
REMARK H PARENT 5 19 17 21 14 23
REMARK Flexibility Score: inf
ROOT
ATOM      1  C   UNL     1      23.155  53.495  27.818  1.00  0.00     0.044 C 
ATOM      2  C   UNL     1      23.925  53.974  29.013  1.00  0.00    -0.047 A 
ATOM      3  C   UNL     1      24.457  53.055  29.923  1.00  0.00     0.016 A 
ATOM      4  C   UNL     1      25.203  53.492  31.029  1.00  0.00     0.038 A 
ATOM      5  C   UNL     1      25.422  54.873  31.230  1.00  0.00     0.076 A 
ATOM      6  C   UNL     1      24.951  55.795  30.258  1.00  0.00     0.127 A 
ATOM      7  C   UNL     1      24.194  55.337  29.176  1.00  0.00     0.050 A 
ATOM      8  C   UNL     1      26.087  55.306  32.486  1.00  0.00     0.201 C 
ATOM      9  O   UNL     1      25.812  56.429  32.986  1.00  0.00    -0.288 OA
ATOM     10  C   UNL     1      26.925  54.343  33.246  1.00  0.00     0.076 A 
ATOM     11  C   UNL     1      26.706  52.962  33.042  1.00  0.00     0.041 A 
ATOM     12  C   UNL     1      25.771  52.510  31.984  1.00  0.00     0.194 C 
ATOM     13  O   UNL     1      25.478  51.287  31.881  1.00  0.00    -0.289 OA
ATOM     14  C   UNL     1      27.380  52.021  33.839  1.00  0.00     0.059 A 
ATOM     15  C   UNL     1      28.277  52.439  34.823  1.00  0.00     0.120 A 
ATOM     16  C   UNL     1      28.526  53.802  35.001  1.00  0.00     0.093 A 
ATOM     17  C   UNL     1      27.884  54.757  34.207  1.00  0.00     0.131 A 
ENDROOT
BRANCH   6  18
ATOM     18  O   UNL     1      25.243  57.160  30.310  1.00  0.00    -0.507 OA
ATOM     19  H   UNL     1      24.568  57.867  30.565  1.00  0.00     0.293 HD
ENDBRANCH   6  18
BRANCH  17  20
ATOM     20  O   UNL     1      28.252  56.093  34.380  1.00  0.00    -0.507 OA
ATOM     21  H   UNL     1      28.841  56.417  35.135  1.00  0.00     0.293 HD
ENDBRANCH  17  20
BRANCH  15  22
ATOM     22  O   UNL     1      28.924  51.490  35.611  1.00  0.00    -0.508 OA
ATOM     23  H   UNL     1      28.797  51.459  36.615  1.00  0.00     0.293 HD
ENDBRANCH  15  22
TORSDOF 3
ENDMDL
MODEL 9
REMARK VINA RESULT:    -4.919     13.313     16.331
REMARK INTER + INTRA:          -5.351
REMARK INTER:                  -5.351
REMARK INTRA:                   0.000
REMARK UNBOUND:                 0.000
REMARK SMILES Cc1cc(O)c2c(c1)C(=O)c1cc(O)cc(O)c1C2=O
REMARK SMILES IDX 1 1 2 2 8 3 7 4 6 5 4 6 3 7 19 8 20 9 18 10 11 11 9 12 10 13
REMARK SMILES IDX 12 14 13 15 15 16 16 17 5 18 17 20 14 22
REMARK H PARENT 5 19 17 21 14 23
REMARK Flexibility Score: inf
ROOT
ATOM      1  C   UNL     1      24.072  60.021  28.934  1.00  0.00     0.044 C 
ATOM      2  C   UNL     1      24.675  59.089  29.943  1.00  0.00    -0.047 A 
ATOM      3  C   UNL     1      24.337  57.732  29.939  1.00  0.00     0.016 A 
ATOM      4  C   UNL     1      24.917  56.847  30.863  1.00  0.00     0.038 A 
ATOM      5  C   UNL     1      25.852  57.327  31.806  1.00  0.00     0.076 A 
ATOM      6  C   UNL     1      26.254  58.687  31.750  1.00  0.00     0.127 A 
ATOM      7  C   UNL     1      25.647  59.553  30.836  1.00  0.00     0.050 A 
ATOM      8  C   UNL     1      26.333  56.394  32.859  1.00  0.00     0.201 C 
ATOM      9  O   UNL     1      26.665  56.842  33.988  1.00  0.00    -0.288 OA
ATOM     10  C   UNL     1      26.240  54.928  32.642  1.00  0.00     0.076 A 
ATOM     11  C   UNL     1      25.305  54.450  31.696  1.00  0.00     0.041 A 
ATOM     12  C   UNL     1      24.560  55.408  30.845  1.00  0.00     0.194 C 
ATOM     13  O   UNL     1      23.636  54.995  30.091  1.00  0.00    -0.289 OA
ATOM     14  C   UNL     1      25.091  53.068  31.560  1.00  0.00     0.059 A 
ATOM     15  C   UNL     1      25.805  52.160  32.343  1.00  0.00     0.120 A 
ATOM     16  C   UNL     1      26.759  52.625  33.251  1.00  0.00     0.093 A 
ATOM     17  C   UNL     1      27.006  53.995  33.390  1.00  0.00     0.131 A 
ENDROOT
BRANCH   6  18
ATOM     18  O   UNL     1      27.272  59.207  32.554  1.00  0.00    -0.507 OA
ATOM     19  H   UNL     1      27.128  59.941  33.233  1.00  0.00     0.293 HD
ENDBRANCH   6  18
BRANCH  17  20
ATOM     20  O   UNL     1      28.037  54.380  34.250  1.00  0.00    -0.507 OA
ATOM     21  H   UNL     1      28.931  54.727  33.930  1.00  0.00     0.293 HD
ENDBRANCH  17  20
BRANCH  15  22
ATOM     22  O   UNL     1      25.566  50.794  32.201  1.00  0.00    -0.508 OA
ATOM     23  H   UNL     1      26.135  50.105  32.677  1.00  0.00     0.293 HD
ENDBRANCH  15  22
TORSDOF 3
ENDMDL
