MODEL 1
REMARK VINA RESULT:    -7.795      0.000      0.000
REMARK INTER + INTRA:         -14.241
REMARK INTER:                 -12.352
REMARK INTRA:                  -1.889
REMARK UNBOUND:                -1.889
REMARK SMILES C[C@H]1O[C@H](O[C@@H]2[C@@H](Oc3cc(O)c4c(c3)O[C@H](c3ccc(O)cc3)CC4=O)O[C@@H](CO)[C@@H](O)[C@@H]2O)[C@@H](O)[C@H](O)[C@@H]1O
REMARK SMILES IDX 6 1 34 2 32 3 29 4 28 5 7 6 5 7 4 8 1 9 2 10 40 11 3 12
REMARK SMILES IDX 38 13 36 14 41 15 39 17 37 19 35 21 8 23 9 24 10 25 15 26
REMARK SMILES IDX 11 27 14 28 13 29 16 30 26 31 17 32 27 33 25 34 12 35 18 37
REMARK SMILES IDX 19 38 24 39 20 40 23 41 21 42 22 43 33 45 30 47 31 48
REMARK H PARENT 41 16 39 18 37 20 35 22 12 36 22 44 33 46 31 49
REMARK Flexibility Score: inf
ROOT
ATOM      1  C   UNL     1      49.134   6.908   6.255  1.00  0.00     0.221 C 
ATOM      2  C   UNL     1      49.466   5.731   7.214  1.00  0.00     0.181 C 
ATOM      3  C   UNL     1      50.978   5.408   7.275  1.00  0.00     0.177 C 
ATOM      4  C   UNL     1      51.862   6.665   7.125  1.00  0.00     0.179 C 
ATOM      5  O   UNL     1      51.506   7.532   6.063  1.00  0.00    -0.332 OA
ATOM      6  C   UNL     1      50.343   7.198   5.318  1.00  0.00     0.339 C 
ENDROOT
BRANCH   1   7
ATOM      7  O   UNL     1      47.928   6.572   5.564  1.00  0.00    -0.337 OA
BRANCH   7   8
ATOM      8  C   UNL     1      46.758   7.289   5.930  1.00  0.00     0.282 C 
ATOM      9  C   UNL     1      46.813  10.958   5.325  1.00  0.00     0.041 C 
ATOM     10  C   UNL     1      46.318   9.519   5.137  1.00  0.00     0.150 C 
ATOM     11  C   UNL     1      44.847   9.390   5.560  1.00  0.00     0.174 C 
ATOM     12  O   UNL     1      47.133   8.672   5.916  1.00  0.00    -0.344 OA
ATOM     13  C   UNL     1      44.342   7.947   5.336  1.00  0.00     0.179 C 
ATOM     14  C   UNL     1      45.492   6.953   5.036  1.00  0.00     0.202 C 
BRANCH  11  15
ATOM     15  O   UNL     1      44.052  10.321   4.857  1.00  0.00    -0.388 OA
ATOM     16  H   UNL     1      43.131  10.270   5.217  1.00  0.00     0.211 HD
ENDBRANCH  11  15
BRANCH  13  17
ATOM     17  O   UNL     1      43.351   7.888   4.325  1.00  0.00    -0.387 OA
ATOM     18  H   UNL     1      43.292   6.949   4.015  1.00  0.00     0.211 HD
ENDBRANCH  13  17
BRANCH  14  19
ATOM     19  O   UNL     1      45.006   5.647   5.225  1.00  0.00    -0.385 OA
ATOM     20  H   UNL     1      45.493   5.241   6.008  1.00  0.00     0.211 HD
ENDBRANCH  14  19
ENDBRANCH   7   8
ENDBRANCH   1   7
BRANCH   2  21
ATOM     21  O   UNL     1      48.786   4.560   6.808  1.00  0.00    -0.387 OA
ATOM     22  H   UNL     1      49.018   3.836   7.460  1.00  0.00     0.211 HD
ENDBRANCH   2  21
BRANCH   6  23
ATOM     23  O   UNL     1      50.044   8.286   4.430  1.00  0.00    -0.462 OA
BRANCH  23  24
ATOM     24  C   UNL     1      50.965   9.292   4.092  1.00  0.00     0.130 A 
ATOM     25  C   UNL     1      51.690   9.213   2.900  1.00  0.00     0.093 A 
ATOM     26  C   UNL     1      51.114  10.417   4.912  1.00  0.00     0.094 A 
ATOM     27  C   UNL     1      52.452  10.313   2.470  1.00  0.00     0.133 A 
ATOM     28  C   UNL     1      51.800  11.532   4.463  1.00  0.00     0.138 A 
ATOM     29  C   UNL     1      52.478  11.484   3.247  1.00  0.00     0.102 A 
ATOM     30  O   UNL     1      51.799  12.685   5.236  1.00  0.00    -0.484 OA
ATOM     31  C   UNL     1      53.166  12.708   2.816  1.00  0.00     0.174 C 
ATOM     32  C   UNL     1      52.139  13.997   4.761  1.00  0.00     0.211 C 
ATOM     33  O   UNL     1      54.125  12.667   2.004  1.00  0.00    -0.294 OA
ATOM     34  C   UNL     1      52.663  14.034   3.300  1.00  0.00     0.131 C 
BRANCH  27  35
ATOM     35  O   UNL     1      53.140  10.250   1.265  1.00  0.00    -0.507 OA
ATOM     36  H   UNL     1      52.652  10.274   0.379  1.00  0.00     0.293 HD
ENDBRANCH  27  35
BRANCH  32  37
ATOM     37  C   UNL     1      50.918  14.881   4.943  1.00  0.00    -0.007 A 
ATOM     38  C   UNL     1      50.982  16.260   4.659  1.00  0.00     0.011 A 
ATOM     39  C   UNL     1      49.665  14.303   5.237  1.00  0.00     0.011 A 
ATOM     40  C   UNL     1      49.828  17.042   4.717  1.00  0.00     0.046 A 
ATOM     41  C   UNL     1      48.516  15.096   5.280  1.00  0.00     0.046 A 
ATOM     42  C   UNL     1      48.592  16.465   5.028  1.00  0.00     0.115 A 
BRANCH  42  43
ATOM     43  O   UNL     1      47.450  17.270   5.054  1.00  0.00    -0.508 OA
ATOM     44  H   UNL     1      46.519  16.869   4.979  1.00  0.00     0.293 HD
ENDBRANCH  42  43
ENDBRANCH  32  37
ENDBRANCH  23  24
ENDBRANCH   6  23
BRANCH   3  45
ATOM     45  O   UNL     1      51.318   4.663   8.422  1.00  0.00    -0.387 OA
ATOM     46  H   UNL     1      52.170   5.032   8.802  1.00  0.00     0.211 HD
ENDBRANCH   3  45
BRANCH   4  47
ATOM     47  C   UNL     1      52.012   7.498   8.414  1.00  0.00     0.191 C 
BRANCH  47  48
ATOM     48  O   UNL     1      53.021   6.984   9.239  1.00  0.00    -0.394 OA
ATOM     49  H   UNL     1      52.772   7.211  10.175  1.00  0.00     0.210 HD
ENDBRANCH  47  48
ENDBRANCH   4  47
TORSDOF 14
ENDMDL
MODEL 2
REMARK VINA RESULT:    -7.131      1.115      2.054
REMARK INTER + INTRA:         -13.189
REMARK INTER:                 -11.640
REMARK INTRA:                  -1.549
REMARK UNBOUND:                -1.889
REMARK SMILES C[C@H]1O[C@H](O[C@@H]2[C@@H](Oc3cc(O)c4c(c3)O[C@H](c3ccc(O)cc3)CC4=O)O[C@@H](CO)[C@@H](O)[C@@H]2O)[C@@H](O)[C@H](O)[C@@H]1O
REMARK SMILES IDX 6 1 34 2 32 3 29 4 28 5 7 6 5 7 4 8 1 9 2 10 40 11 3 12
REMARK SMILES IDX 38 13 36 14 41 15 39 17 37 19 35 21 8 23 9 24 10 25 15 26
REMARK SMILES IDX 11 27 14 28 13 29 16 30 26 31 17 32 27 33 25 34 12 35 18 37
REMARK SMILES IDX 19 38 24 39 20 40 23 41 21 42 22 43 33 45 30 47 31 48
REMARK H PARENT 41 16 39 18 37 20 35 22 12 36 22 44 33 46 31 49
REMARK Flexibility Score: inf
ROOT
ATOM      1  C   UNL     1      48.992   7.767   6.340  1.00  0.00     0.221 C 
ATOM      2  C   UNL     1      49.017   6.550   7.307  1.00  0.00     0.181 C 
ATOM      3  C   UNL     1      49.703   5.306   6.695  1.00  0.00     0.177 C 
ATOM      4  C   UNL     1      50.868   5.671   5.750  1.00  0.00     0.179 C 
ATOM      5  O   UNL     1      50.585   6.689   4.806  1.00  0.00    -0.332 OA
ATOM      6  C   UNL     1      49.309   7.308   4.887  1.00  0.00     0.339 C 
ENDROOT
BRANCH   1   7
ATOM      7  O   UNL     1      47.722   8.406   6.487  1.00  0.00    -0.337 OA
BRANCH   7   8
ATOM      8  C   UNL     1      46.853   8.372   5.364  1.00  0.00     0.282 C 
ATOM      9  C   UNL     1      44.012   5.980   5.546  1.00  0.00     0.041 C 
ATOM     10  C   UNL     1      44.670   7.362   5.460  1.00  0.00     0.150 C 
ATOM     11  C   UNL     1      44.272   8.073   4.157  1.00  0.00     0.174 C 
ATOM     12  O   UNL     1      46.067   7.184   5.520  1.00  0.00    -0.344 OA
ATOM     13  C   UNL     1      44.910   9.479   4.090  1.00  0.00     0.179 C 
ATOM     14  C   UNL     1      45.996   9.693   5.174  1.00  0.00     0.202 C 
BRANCH  11  15
ATOM     15  O   UNL     1      42.867   8.146   4.049  1.00  0.00    -0.388 OA
ATOM     16  H   UNL     1      42.475   7.568   4.752  1.00  0.00     0.211 HD
ENDBRANCH  11  15
BRANCH  13  17
ATOM     17  O   UNL     1      43.932  10.503   4.151  1.00  0.00    -0.387 OA
ATOM     18  H   UNL     1      43.275  10.251   4.847  1.00  0.00     0.211 HD
ENDBRANCH  13  17
BRANCH  14  19
ATOM     19  O   UNL     1      46.767  10.811   4.809  1.00  0.00    -0.385 OA
ATOM     20  H   UNL     1      47.644  10.480   4.438  1.00  0.00     0.211 HD
ENDBRANCH  14  19
ENDBRANCH   7   8
ENDBRANCH   1   7
BRANCH   2  21
ATOM     21  O   UNL     1      47.701   6.187   7.673  1.00  0.00    -0.387 OA
ATOM     22  H   UNL     1      47.216   7.027   7.922  1.00  0.00     0.211 HD
ENDBRANCH   2  21
BRANCH   6  23
ATOM     23  O   UNL     1      49.290   8.428   3.988  1.00  0.00    -0.462 OA
BRANCH  23  24
ATOM     24  C   UNL     1      50.337   9.358   3.880  1.00  0.00     0.130 A 
ATOM     25  C   UNL     1      51.293   9.229   2.867  1.00  0.00     0.093 A 
ATOM     26  C   UNL     1      50.395  10.461   4.740  1.00  0.00     0.094 A 
ATOM     27  C   UNL     1      52.212  10.266   2.636  1.00  0.00     0.133 A 
ATOM     28  C   UNL     1      51.247  11.520   4.474  1.00  0.00     0.138 A 
ATOM     29  C   UNL     1      52.162  11.426   3.430  1.00  0.00     0.102 A 
ATOM     30  O   UNL     1      51.169  12.663   5.258  1.00  0.00    -0.484 OA
ATOM     31  C   UNL     1      53.021  12.593   3.185  1.00  0.00     0.174 C 
ATOM     32  C   UNL     1      51.705  13.946   4.898  1.00  0.00     0.211 C 
ATOM     33  O   UNL     1      54.125  12.479   2.595  1.00  0.00    -0.294 OA
ATOM     34  C   UNL     1      52.531  13.952   3.584  1.00  0.00     0.131 C 
BRANCH  27  35
ATOM     35  O   UNL     1      53.136  10.156   1.605  1.00  0.00    -0.507 OA
ATOM     36  H   UNL     1      53.248   9.291   1.090  1.00  0.00     0.293 HD
ENDBRANCH  27  35
BRANCH  32  37
ATOM     37  C   UNL     1      50.546  14.926   4.838  1.00  0.00    -0.007 A 
ATOM     38  C   UNL     1      49.238  14.508   5.157  1.00  0.00     0.011 A 
ATOM     39  C   UNL     1      50.791  16.299   4.626  1.00  0.00     0.011 A 
ATOM     40  C   UNL     1      48.199  15.439   5.212  1.00  0.00     0.046 A 
ATOM     41  C   UNL     1      49.744  17.220   4.695  1.00  0.00     0.046 A 
ATOM     42  C   UNL     1      48.447  16.796   4.981  1.00  0.00     0.115 A 
BRANCH  42  43
ATOM     43  O   UNL     1      47.390  17.708   5.068  1.00  0.00    -0.508 OA
ATOM     44  H   UNL     1      47.009  17.990   5.966  1.00  0.00     0.293 HD
ENDBRANCH  42  43
ENDBRANCH  32  37
ENDBRANCH  23  24
ENDBRANCH   6  23
BRANCH   3  45
ATOM     45  O   UNL     1      50.099   4.378   7.680  1.00  0.00    -0.387 OA
ATOM     46  H   UNL     1      49.691   4.649   8.556  1.00  0.00     0.211 HD
ENDBRANCH   3  45
BRANCH   4  47
ATOM     47  C   UNL     1      52.188   6.018   6.469  1.00  0.00     0.191 C 
BRANCH  47  48
ATOM     48  O   UNL     1      52.947   4.868   6.725  1.00  0.00    -0.394 OA
ATOM     49  H   UNL     1      52.894   4.698   7.703  1.00  0.00     0.210 HD
ENDBRANCH  47  48
ENDBRANCH   4  47
TORSDOF 14
ENDMDL
MODEL 3
REMARK VINA RESULT:    -6.825      1.190      4.965
REMARK INTER + INTRA:         -12.704
REMARK INTER:                 -10.795
REMARK INTRA:                  -1.910
REMARK UNBOUND:                -1.889
REMARK SMILES C[C@H]1O[C@H](O[C@@H]2[C@@H](Oc3cc(O)c4c(c3)O[C@H](c3ccc(O)cc3)CC4=O)O[C@@H](CO)[C@@H](O)[C@@H]2O)[C@@H](O)[C@H](O)[C@@H]1O
REMARK SMILES IDX 6 1 34 2 32 3 29 4 28 5 7 6 5 7 4 8 1 9 2 10 40 11 3 12
REMARK SMILES IDX 38 13 36 14 41 15 39 17 37 19 35 21 8 23 9 24 10 25 15 26
REMARK SMILES IDX 11 27 14 28 13 29 16 30 26 31 17 32 27 33 25 34 12 35 18 37
REMARK SMILES IDX 19 38 24 39 20 40 23 41 21 42 22 43 33 45 30 47 31 48
REMARK H PARENT 41 16 39 18 37 20 35 22 12 36 22 44 33 46 31 49
REMARK Flexibility Score: inf
ROOT
ATOM      1  C   UNL     1      47.535   8.130   5.694  1.00  0.00     0.221 C 
ATOM      2  C   UNL     1      46.233   8.451   6.479  1.00  0.00     0.181 C 
ATOM      3  C   UNL     1      45.293   9.418   5.722  1.00  0.00     0.177 C 
ATOM      4  C   UNL     1      45.342   9.222   4.192  1.00  0.00     0.179 C 
ATOM      5  O   UNL     1      46.642   9.136   3.634  1.00  0.00    -0.332 OA
ATOM      6  C   UNL     1      47.736   9.156   4.540  1.00  0.00     0.339 C 
ENDROOT
BRANCH   1   7
ATOM      7  O   UNL     1      48.609   8.096   6.638  1.00  0.00    -0.337 OA
BRANCH   7   8
ATOM      8  C   UNL     1      49.659   7.175   6.383  1.00  0.00     0.282 C 
ATOM      9  C   UNL     1      53.109   8.364   7.095  1.00  0.00     0.041 C 
ATOM     10  C   UNL     1      51.874   7.474   7.276  1.00  0.00     0.150 C 
ATOM     11  C   UNL     1      52.211   6.008   6.960  1.00  0.00     0.174 C 
ATOM     12  O   UNL     1      50.866   7.947   6.411  1.00  0.00    -0.344 OA
ATOM     13  C   UNL     1      50.973   5.109   7.176  1.00  0.00     0.179 C 
ATOM     14  C   UNL     1      49.668   5.925   7.358  1.00  0.00     0.202 C 
BRANCH  11  15
ATOM     15  O   UNL     1      53.298   5.574   7.749  1.00  0.00    -0.388 OA
ATOM     16  H   UNL     1      53.668   6.363   8.220  1.00  0.00     0.211 HD
ENDBRANCH  11  15
BRANCH  13  17
ATOM     17  O   UNL     1      51.158   4.211   8.256  1.00  0.00    -0.387 OA
ATOM     18  H   UNL     1      51.535   4.724   9.014  1.00  0.00     0.211 HD
ENDBRANCH  13  17
BRANCH  14  19
ATOM     19  O   UNL     1      48.577   5.058   7.166  1.00  0.00    -0.385 OA
ATOM     20  H   UNL     1      47.966   5.141   7.962  1.00  0.00     0.211 HD
ENDBRANCH  14  19
ENDBRANCH   7   8
ENDBRANCH   1   7
BRANCH   2  21
ATOM     21  O   UNL     1      46.544   9.033   7.729  1.00  0.00    -0.387 OA
ATOM     22  H   UNL     1      45.751   9.574   8.015  1.00  0.00     0.211 HD
ENDBRANCH   2  21
BRANCH   6  23
ATOM     23  O   UNL     1      48.937   8.865   3.809  1.00  0.00    -0.462 OA
BRANCH  23  24
ATOM     24  C   UNL     1      50.054   9.717   3.773  1.00  0.00     0.130 A 
ATOM     25  C   UNL     1      51.053   9.530   2.813  1.00  0.00     0.093 A 
ATOM     26  C   UNL     1      50.143  10.802   4.653  1.00  0.00     0.094 A 
ATOM     27  C   UNL     1      52.057  10.500   2.651  1.00  0.00     0.133 A 
ATOM     28  C   UNL     1      51.083  11.799   4.453  1.00  0.00     0.138 A 
ATOM     29  C   UNL     1      52.047  11.650   3.459  1.00  0.00     0.102 A 
ATOM     30  O   UNL     1      51.045  12.934   5.249  1.00  0.00    -0.484 OA
ATOM     31  C   UNL     1      53.001  12.754   3.281  1.00  0.00     0.174 C 
ATOM     32  C   UNL     1      51.692  14.179   4.941  1.00  0.00     0.211 C 
ATOM     33  O   UNL     1      54.125  12.566   2.752  1.00  0.00    -0.294 OA
ATOM     34  C   UNL     1      52.590  14.140   3.675  1.00  0.00     0.131 C 
BRANCH  27  35
ATOM     35  O   UNL     1      53.027  10.335   1.670  1.00  0.00    -0.507 OA
ATOM     36  H   UNL     1      53.685   9.566   1.706  1.00  0.00     0.293 HD
ENDBRANCH  27  35
BRANCH  32  37
ATOM     37  C   UNL     1      50.613  15.242   4.833  1.00  0.00    -0.007 A 
ATOM     38  C   UNL     1      49.294  14.968   5.248  1.00  0.00     0.011 A 
ATOM     39  C   UNL     1      50.955  16.563   4.474  1.00  0.00     0.011 A 
ATOM     40  C   UNL     1      48.336  15.983   5.255  1.00  0.00     0.046 A 
ATOM     41  C   UNL     1      49.988  17.571   4.496  1.00  0.00     0.046 A 
ATOM     42  C   UNL     1      48.678  17.287   4.878  1.00  0.00     0.115 A 
BRANCH  42  43
ATOM     43  O   UNL     1      47.703  18.287   4.918  1.00  0.00    -0.508 OA
ATOM     44  H   UNL     1      46.739  18.076   5.158  1.00  0.00     0.293 HD
ENDBRANCH  42  43
ENDBRANCH  32  37
ENDBRANCH  23  24
ENDBRANCH   6  23
BRANCH   3  45
ATOM     45  O   UNL     1      43.973   9.371   6.214  1.00  0.00    -0.387 OA
ATOM     46  H   UNL     1      43.498   8.599   5.782  1.00  0.00     0.211 HD
ENDBRANCH   3  45
BRANCH   4  47
ATOM     47  C   UNL     1      44.503   8.037   3.673  1.00  0.00     0.191 C 
BRANCH  47  48
ATOM     48  O   UNL     1      43.131   8.282   3.815  1.00  0.00    -0.394 OA
ATOM     49  H   UNL     1      43.024   9.261   3.950  1.00  0.00     0.210 HD
ENDBRANCH  47  48
ENDBRANCH   4  47
TORSDOF 14
ENDMDL
MODEL 4
REMARK VINA RESULT:    -6.562     14.070     16.946
REMARK INTER + INTRA:         -12.288
REMARK INTER:                  -9.797
REMARK INTRA:                  -2.491
REMARK UNBOUND:                -1.889
REMARK SMILES C[C@H]1O[C@H](O[C@@H]2[C@@H](Oc3cc(O)c4c(c3)O[C@H](c3ccc(O)cc3)CC4=O)O[C@@H](CO)[C@@H](O)[C@@H]2O)[C@@H](O)[C@H](O)[C@@H]1O
REMARK SMILES IDX 6 1 34 2 32 3 29 4 28 5 7 6 5 7 4 8 1 9 2 10 40 11 3 12
REMARK SMILES IDX 38 13 36 14 41 15 39 17 37 19 35 21 8 23 9 24 10 25 15 26
REMARK SMILES IDX 11 27 14 28 13 29 16 30 26 31 17 32 27 33 25 34 12 35 18 37
REMARK SMILES IDX 19 38 24 39 20 40 23 41 21 42 22 43 33 45 30 47 31 48
REMARK H PARENT 41 16 39 18 37 20 35 22 12 36 22 44 33 46 31 49
REMARK Flexibility Score: inf
ROOT
ATOM      1  C   UNL     1      39.826  15.607  17.160  1.00  0.00     0.221 C 
ATOM      2  C   UNL     1      39.535  14.961  18.544  1.00  0.00     0.181 C 
ATOM      3  C   UNL     1      38.248  14.103  18.551  1.00  0.00     0.177 C 
ATOM      4  C   UNL     1      37.999  13.389  17.205  1.00  0.00     0.179 C 
ATOM      5  O   UNL     1      38.135  14.205  16.054  1.00  0.00    -0.332 OA
ATOM      6  C   UNL     1      38.559  15.545  16.259  1.00  0.00     0.339 C 
ENDROOT
BRANCH   1   7
ATOM      7  O   UNL     1      40.309  16.932  17.398  1.00  0.00    -0.337 OA
BRANCH   7   8
ATOM      8  C   UNL     1      41.650  17.204  17.019  1.00  0.00     0.282 C 
ATOM      9  C   UNL     1      42.314  17.461  13.369  1.00  0.00     0.041 C 
ATOM     10  C   UNL     1      42.229  17.972  14.812  1.00  0.00     0.150 C 
ATOM     11  C   UNL     1      43.613  18.408  15.315  1.00  0.00     0.174 C 
ATOM     12  O   UNL     1      41.716  16.931  15.613  1.00  0.00    -0.344 OA
ATOM     13  C   UNL     1      43.519  18.955  16.758  1.00  0.00     0.179 C 
ATOM     14  C   UNL     1      42.150  18.654  17.420  1.00  0.00     0.202 C 
BRANCH  11  15
ATOM     15  O   UNL     1      44.171  19.368  14.444  1.00  0.00    -0.388 OA
ATOM     16  H   UNL     1      43.474  20.043  14.246  1.00  0.00     0.211 HD
ENDBRANCH  11  15
BRANCH  13  17
ATOM     17  O   UNL     1      43.810  20.340  16.815  1.00  0.00    -0.387 OA
ATOM     18  H   UNL     1      44.545  20.521  16.177  1.00  0.00     0.211 HD
ENDBRANCH  13  17
BRANCH  14  19
ATOM     19  O   UNL     1      42.284  18.835  18.808  1.00  0.00    -0.385 OA
ATOM     20  H   UNL     1      41.920  18.015  19.268  1.00  0.00     0.211 HD
ENDBRANCH  14  19
ENDBRANCH   7   8
ENDBRANCH   1   7
BRANCH   2  21
ATOM     21  O   UNL     1      39.398  15.961  19.533  1.00  0.00    -0.387 OA
ATOM     22  H   UNL     1      40.279  16.041  20.003  1.00  0.00     0.211 HD
ENDBRANCH   2  21
BRANCH   6  23
ATOM     23  O   UNL     1      38.821  16.139  14.978  1.00  0.00    -0.462 OA
BRANCH  23  24
ATOM     24  C   UNL     1      38.299  17.379  14.572  1.00  0.00     0.130 A 
ATOM     25  C   UNL     1      37.723  18.243  15.509  1.00  0.00     0.093 A 
ATOM     26  C   UNL     1      38.412  17.792  13.239  1.00  0.00     0.094 A 
ATOM     27  C   UNL     1      37.391  19.556  15.138  1.00  0.00     0.133 A 
ATOM     28  C   UNL     1      38.159  19.105  12.882  1.00  0.00     0.138 A 
ATOM     29  C   UNL     1      37.641  19.990  13.824  1.00  0.00     0.102 A 
ATOM     30  O   UNL     1      38.429  19.518  11.585  1.00  0.00    -0.484 OA
ATOM     31  C   UNL     1      37.416  21.375  13.388  1.00  0.00     0.174 C 
ATOM     32  C   UNL     1      38.565  20.885  11.166  1.00  0.00     0.211 C 
ATOM     33  O   UNL     1      36.589  22.118  13.975  1.00  0.00    -0.294 OA
ATOM     34  C   UNL     1      38.245  21.929  12.270  1.00  0.00     0.131 C 
BRANCH  27  35
ATOM     35  O   UNL     1      36.857  20.428  16.078  1.00  0.00    -0.507 OA
ATOM     36  H   UNL     1      36.747  21.414  15.878  1.00  0.00     0.293 HD
ENDBRANCH  27  35
BRANCH  32  37
ATOM     37  C   UNL     1      39.971  21.058  10.618  1.00  0.00    -0.007 A 
ATOM     38  C   UNL     1      40.175  21.513   9.300  1.00  0.00     0.011 A 
ATOM     39  C   UNL     1      41.084  20.926  11.475  1.00  0.00     0.011 A 
ATOM     40  C   UNL     1      41.466  21.781   8.843  1.00  0.00     0.046 A 
ATOM     41  C   UNL     1      42.369  21.208  11.007  1.00  0.00     0.046 A 
ATOM     42  C   UNL     1      42.568  21.629   9.693  1.00  0.00     0.115 A 
BRANCH  42  43
ATOM     43  O   UNL     1      43.846  21.927   9.214  1.00  0.00    -0.508 OA
ATOM     44  H   UNL     1      44.408  22.663   9.633  1.00  0.00     0.293 HD
ENDBRANCH  42  43
ENDBRANCH  32  37
ENDBRANCH  23  24
ENDBRANCH   6  23
BRANCH   3  45
ATOM     45  O   UNL     1      38.215  13.202  19.634  1.00  0.00    -0.387 OA
ATOM     46  H   UNL     1      38.896  13.492  20.312  1.00  0.00     0.211 HD
ENDBRANCH   3  45
BRANCH   4  47
ATOM     47  C   UNL     1      38.828  12.105  17.000  1.00  0.00     0.191 C 
BRANCH  47  48
ATOM     48  O   UNL     1      38.150  10.978  17.483  1.00  0.00    -0.394 OA
ATOM     49  H   UNL     1      38.043  10.354  16.716  1.00  0.00     0.210 HD
ENDBRANCH  47  48
ENDBRANCH   4  47
TORSDOF 14
ENDMDL
MODEL 5
REMARK VINA RESULT:    -6.297     14.688     18.151
REMARK INTER + INTRA:         -11.868
REMARK INTER:                  -9.371
REMARK INTRA:                  -2.497
REMARK UNBOUND:                -1.889
REMARK SMILES C[C@H]1O[C@H](O[C@@H]2[C@@H](Oc3cc(O)c4c(c3)O[C@H](c3ccc(O)cc3)CC4=O)O[C@@H](CO)[C@@H](O)[C@@H]2O)[C@@H](O)[C@H](O)[C@@H]1O
REMARK SMILES IDX 6 1 34 2 32 3 29 4 28 5 7 6 5 7 4 8 1 9 2 10 40 11 3 12
REMARK SMILES IDX 38 13 36 14 41 15 39 17 37 19 35 21 8 23 9 24 10 25 15 26
REMARK SMILES IDX 11 27 14 28 13 29 16 30 26 31 17 32 27 33 25 34 12 35 18 37
REMARK SMILES IDX 19 38 24 39 20 40 23 41 21 42 22 43 33 45 30 47 31 48
REMARK H PARENT 41 16 39 18 37 20 35 22 12 36 22 44 33 46 31 49
REMARK Flexibility Score: inf
ROOT
ATOM      1  C   UNL     1      38.984  15.584  18.695  1.00  0.00     0.221 C 
ATOM      2  C   UNL     1      39.853  14.319  18.945  1.00  0.00     0.181 C 
ATOM      3  C   UNL     1      39.018  13.081  19.347  1.00  0.00     0.177 C 
ATOM      4  C   UNL     1      37.636  13.046  18.660  1.00  0.00     0.179 C 
ATOM      5  O   UNL     1      36.909  14.262  18.699  1.00  0.00    -0.332 OA
ATOM      6  C   UNL     1      37.558  15.382  19.284  1.00  0.00     0.339 C 
ENDROOT
BRANCH   1   7
ATOM      7  O   UNL     1      39.687  16.704  19.239  1.00  0.00    -0.337 OA
BRANCH   7   8
ATOM      8  C   UNL     1      40.739  17.244  18.452  1.00  0.00     0.282 C 
ATOM      9  C   UNL     1      39.953  20.339  16.546  1.00  0.00     0.041 C 
ATOM     10  C   UNL     1      40.679  19.495  17.601  1.00  0.00     0.150 C 
ATOM     11  C   UNL     1      42.185  19.435  17.305  1.00  0.00     0.174 C 
ATOM     12  O   UNL     1      40.119  18.201  17.584  1.00  0.00    -0.344 OA
ATOM     13  C   UNL     1      42.918  18.612  18.389  1.00  0.00     0.179 C 
ATOM     14  C   UNL     1      41.943  17.829  19.303  1.00  0.00     0.202 C 
BRANCH  11  15
ATOM     15  O   UNL     1      42.718  20.739  17.210  1.00  0.00    -0.388 OA
ATOM     16  H   UNL     1      42.070  21.298  16.711  1.00  0.00     0.211 HD
ENDBRANCH  11  15
BRANCH  13  17
ATOM     17  O   UNL     1      43.790  19.419  19.161  1.00  0.00    -0.387 OA
ATOM     18  H   UNL     1      43.768  20.334  18.784  1.00  0.00     0.211 HD
ENDBRANCH  13  17
BRANCH  14  19
ATOM     19  O   UNL     1      42.676  16.841  19.984  1.00  0.00    -0.385 OA
ATOM     20  H   UNL     1      42.293  15.941  19.741  1.00  0.00     0.211 HD
ENDBRANCH  14  19
ENDBRANCH   7   8
ENDBRANCH   1   7
BRANCH   2  21
ATOM     21  O   UNL     1      40.792  14.565  19.974  1.00  0.00    -0.387 OA
ATOM     22  H   UNL     1      40.897  15.558  20.054  1.00  0.00     0.211 HD
ENDBRANCH   2  21
BRANCH   6  23
ATOM     23  O   UNL     1      36.747  16.546  19.055  1.00  0.00    -0.462 OA
BRANCH  23  24
ATOM     24  C   UNL     1      36.610  17.165  17.801  1.00  0.00     0.130 A 
ATOM     25  C   UNL     1      35.780  18.280  17.653  1.00  0.00     0.093 A 
ATOM     26  C   UNL     1      37.354  16.715  16.705  1.00  0.00     0.094 A 
ATOM     27  C   UNL     1      35.803  19.016  16.456  1.00  0.00     0.133 A 
ATOM     28  C   UNL     1      37.441  17.474  15.550  1.00  0.00     0.138 A 
ATOM     29  C   UNL     1      36.663  18.620  15.416  1.00  0.00     0.102 A 
ATOM     30  O   UNL     1      38.309  17.077  14.543  1.00  0.00    -0.484 OA
ATOM     31  C   UNL     1      36.818  19.394  14.177  1.00  0.00     0.174 C 
ATOM     32  C   UNL     1      38.775  17.918  13.477  1.00  0.00     0.211 C 
ATOM     33  O   UNL     1      35.908  20.157  13.764  1.00  0.00    -0.294 OA
ATOM     34  C   UNL     1      38.118  19.324  13.435  1.00  0.00     0.131 C 
BRANCH  27  35
ATOM     35  O   UNL     1      35.009  20.147  16.323  1.00  0.00    -0.507 OA
ATOM     36  H   UNL     1      34.879  20.596  15.424  1.00  0.00     0.293 HD
ENDBRANCH  27  35
BRANCH  32  37
ATOM     37  C   UNL     1      40.287  18.007  13.591  1.00  0.00    -0.007 A 
ATOM     38  C   UNL     1      40.972  19.159  13.154  1.00  0.00     0.011 A 
ATOM     39  C   UNL     1      41.002  17.010  14.287  1.00  0.00     0.011 A 
ATOM     40  C   UNL     1      42.346  19.280  13.369  1.00  0.00     0.046 A 
ATOM     41  C   UNL     1      42.375  17.151  14.504  1.00  0.00     0.046 A 
ATOM     42  C   UNL     1      43.052  18.278  14.043  1.00  0.00     0.115 A 
BRANCH  42  43
ATOM     43  O   UNL     1      44.423  18.440  14.264  1.00  0.00    -0.508 OA
ATOM     44  H   UNL     1      44.789  19.264  14.733  1.00  0.00     0.293 HD
ENDBRANCH  42  43
ENDBRANCH  32  37
ENDBRANCH  23  24
ENDBRANCH   6  23
BRANCH   3  45
ATOM     45  O   UNL     1      39.727  11.878  19.158  1.00  0.00    -0.387 OA
ATOM     46  H   UNL     1      39.821  11.713  18.173  1.00  0.00     0.211 HD
ENDBRANCH   3  45
BRANCH   4  47
ATOM     47  C   UNL     1      37.659  12.532  17.206  1.00  0.00     0.191 C 
BRANCH  47  48
ATOM     48  O   UNL     1      37.664  11.131  17.160  1.00  0.00    -0.394 OA
ATOM     49  H   UNL     1      37.091  10.865  16.393  1.00  0.00     0.210 HD
ENDBRANCH  47  48
ENDBRANCH   4  47
TORSDOF 14
ENDMDL
MODEL 6
REMARK VINA RESULT:    -6.290     15.217     19.610
REMARK INTER + INTRA:         -11.857
REMARK INTER:                  -9.694
REMARK INTRA:                  -2.163
REMARK UNBOUND:                -1.889
REMARK SMILES C[C@H]1O[C@H](O[C@@H]2[C@@H](Oc3cc(O)c4c(c3)O[C@H](c3ccc(O)cc3)CC4=O)O[C@@H](CO)[C@@H](O)[C@@H]2O)[C@@H](O)[C@H](O)[C@@H]1O
REMARK SMILES IDX 6 1 34 2 32 3 29 4 28 5 7 6 5 7 4 8 1 9 2 10 40 11 3 12
REMARK SMILES IDX 38 13 36 14 41 15 39 17 37 19 35 21 8 23 9 24 10 25 15 26
REMARK SMILES IDX 11 27 14 28 13 29 16 30 26 31 17 32 27 33 25 34 12 35 18 37
REMARK SMILES IDX 19 38 24 39 20 40 23 41 21 42 22 43 33 45 30 47 31 48
REMARK H PARENT 41 16 39 18 37 20 35 22 12 36 22 44 33 46 31 49
REMARK Flexibility Score: inf
ROOT
ATOM      1  C   UNL     1      37.804  19.266  12.672  1.00  0.00     0.221 C 
ATOM      2  C   UNL     1      37.104  19.206  11.286  1.00  0.00     0.181 C 
ATOM      3  C   UNL     1      36.054  20.325  11.090  1.00  0.00     0.177 C 
ATOM      4  C   UNL     1      36.447  21.642  11.792  1.00  0.00     0.179 C 
ATOM      5  O   UNL     1      36.892  21.505  13.131  1.00  0.00    -0.332 OA
ATOM      6  C   UNL     1      37.004  20.183  13.642  1.00  0.00     0.339 C 
ENDROOT
BRANCH   1   7
ATOM      7  O   UNL     1      37.959  17.922  13.134  1.00  0.00    -0.337 OA
BRANCH   7   8
ATOM      8  C   UNL     1      39.280  17.494  13.430  1.00  0.00     0.282 C 
ATOM      9  C   UNL     1      41.914  20.119  13.399  1.00  0.00     0.041 C 
ATOM     10  C   UNL     1      41.027  19.038  14.029  1.00  0.00     0.150 C 
ATOM     11  C   UNL     1      41.881  17.880  14.566  1.00  0.00     0.174 C 
ATOM     12  O   UNL     1      40.134  18.577  13.040  1.00  0.00    -0.344 OA
ATOM     13  C   UNL     1      40.987  16.809  15.231  1.00  0.00     0.179 C 
ATOM     14  C   UNL     1      39.481  17.021  14.930  1.00  0.00     0.202 C 
BRANCH  11  15
ATOM     15  O   UNL     1      42.850  18.366  15.471  1.00  0.00    -0.388 OA
ATOM     16  H   UNL     1      42.643  19.315  15.661  1.00  0.00     0.211 HD
ENDBRANCH  11  15
BRANCH  13  17
ATOM     17  O   UNL     1      41.213  16.729  16.628  1.00  0.00    -0.387 OA
ATOM     18  H   UNL     1      41.957  16.094  16.777  1.00  0.00     0.211 HD
ENDBRANCH  13  17
BRANCH  14  19
ATOM     19  O   UNL     1      38.801  15.828  15.236  1.00  0.00    -0.385 OA
ATOM     20  H   UNL     1      38.431  15.449  14.378  1.00  0.00     0.211 HD
ENDBRANCH  14  19
ENDBRANCH   7   8
ENDBRANCH   1   7
BRANCH   2  21
ATOM     21  O   UNL     1      36.453  17.962  11.118  1.00  0.00    -0.387 OA
ATOM     22  H   UNL     1      36.370  17.797  10.134  1.00  0.00     0.211 HD
ENDBRANCH   2  21
BRANCH   6  23
ATOM     23  O   UNL     1      37.646  20.246  14.924  1.00  0.00    -0.462 OA
BRANCH  23  24
ATOM     24  C   UNL     1      37.067  19.764  16.111  1.00  0.00     0.130 A 
ATOM     25  C   UNL     1      35.805  20.212  16.512  1.00  0.00     0.093 A 
ATOM     26  C   UNL     1      37.717  18.780  16.865  1.00  0.00     0.094 A 
ATOM     27  C   UNL     1      35.146  19.581  17.580  1.00  0.00     0.133 A 
ATOM     28  C   UNL     1      37.046  18.102  17.869  1.00  0.00     0.138 A 
ATOM     29  C   UNL     1      35.765  18.503  18.237  1.00  0.00     0.102 A 
ATOM     30  O   UNL     1      37.667  17.030  18.493  1.00  0.00    -0.484 OA
ATOM     31  C   UNL     1      35.098  17.729  19.293  1.00  0.00     0.174 C 
ATOM     32  C   UNL     1      36.995  16.025  19.269  1.00  0.00     0.211 C 
ATOM     33  O   UNL     1      34.174  18.227  19.985  1.00  0.00    -0.294 OA
ATOM     34  C   UNL     1      35.483  16.294  19.495  1.00  0.00     0.131 C 
BRANCH  27  35
ATOM     35  O   UNL     1      33.875  20.000  17.954  1.00  0.00    -0.507 OA
ATOM     36  H   UNL     1      33.485  19.754  18.856  1.00  0.00     0.293 HD
ENDBRANCH  27  35
BRANCH  32  37
ATOM     37  C   UNL     1      37.233  14.687  18.592  1.00  0.00    -0.007 A 
ATOM     38  C   UNL     1      38.205  13.795  19.090  1.00  0.00     0.011 A 
ATOM     39  C   UNL     1      36.372  14.253  17.562  1.00  0.00     0.011 A 
ATOM     40  C   UNL     1      38.337  12.522  18.534  1.00  0.00     0.046 A 
ATOM     41  C   UNL     1      36.509  12.972  17.023  1.00  0.00     0.046 A 
ATOM     42  C   UNL     1      37.492  12.105  17.500  1.00  0.00     0.115 A 
BRANCH  42  43
ATOM     43  O   UNL     1      37.633  10.815  16.980  1.00  0.00    -0.508 OA
ATOM     44  H   UNL     1      38.295  10.155  17.378  1.00  0.00     0.293 HD
ENDBRANCH  42  43
ENDBRANCH  32  37
ENDBRANCH  23  24
ENDBRANCH   6  23
BRANCH   3  45
ATOM     45  O   UNL     1      35.741  20.529   9.731  1.00  0.00    -0.387 OA
ATOM     46  H   UNL     1      36.307  21.281   9.383  1.00  0.00     0.211 HD
ENDBRANCH   3  45
BRANCH   4  47
ATOM     47  C   UNL     1      37.470  22.498  11.018  1.00  0.00     0.191 C 
BRANCH  47  48
ATOM     48  O   UNL     1      38.697  22.560  11.692  1.00  0.00    -0.394 OA
ATOM     49  H   UNL     1      38.518  22.965  12.581  1.00  0.00     0.210 HD
ENDBRANCH  47  48
ENDBRANCH   4  47
TORSDOF 14
ENDMDL
MODEL 7
REMARK VINA RESULT:    -6.289     15.124     18.043
REMARK INTER + INTRA:         -11.855
REMARK INTER:                  -9.065
REMARK INTRA:                  -2.790
REMARK UNBOUND:                -1.889
REMARK SMILES C[C@H]1O[C@H](O[C@@H]2[C@@H](Oc3cc(O)c4c(c3)O[C@H](c3ccc(O)cc3)CC4=O)O[C@@H](CO)[C@@H](O)[C@@H]2O)[C@@H](O)[C@H](O)[C@@H]1O
REMARK SMILES IDX 6 1 34 2 32 3 29 4 28 5 7 6 5 7 4 8 1 9 2 10 40 11 3 12
REMARK SMILES IDX 38 13 36 14 41 15 39 17 37 19 35 21 8 23 9 24 10 25 15 26
REMARK SMILES IDX 11 27 14 28 13 29 16 30 26 31 17 32 27 33 25 34 12 35 18 37
REMARK SMILES IDX 19 38 24 39 20 40 23 41 21 42 22 43 33 45 30 47 31 48
REMARK H PARENT 41 16 39 18 37 20 35 22 12 36 22 44 33 46 31 49
REMARK Flexibility Score: inf
ROOT
ATOM      1  C   UNL     1      39.337  15.163  17.245  1.00  0.00     0.221 C 
ATOM      2  C   UNL     1      40.089  14.426  18.389  1.00  0.00     0.181 C 
ATOM      3  C   UNL     1      39.154  13.565  19.270  1.00  0.00     0.177 C 
ATOM      4  C   UNL     1      37.989  12.941  18.472  1.00  0.00     0.179 C 
ATOM      5  O   UNL     1      37.301  13.831  17.610  1.00  0.00    -0.332 OA
ATOM      6  C   UNL     1      37.804  15.156  17.515  1.00  0.00     0.339 C 
ENDROOT
BRANCH   1   7
ATOM      7  O   UNL     1      39.903  16.471  17.131  1.00  0.00    -0.337 OA
BRANCH   7   8
ATOM      8  C   UNL     1      40.741  16.712  16.011  1.00  0.00     0.282 C 
ATOM      9  C   UNL     1      39.113  18.208  13.020  1.00  0.00     0.041 C 
ATOM     10  C   UNL     1      40.086  18.163  14.205  1.00  0.00     0.150 C 
ATOM     11  C   UNL     1      41.541  18.228  13.715  1.00  0.00     0.174 C 
ATOM     12  O   UNL     1      39.855  16.965  14.913  1.00  0.00    -0.344 OA
ATOM     13  C   UNL     1      42.517  18.218  14.913  1.00  0.00     0.179 C 
ATOM     14  C   UNL     1      41.819  17.851  16.247  1.00  0.00     0.202 C 
BRANCH  11  15
ATOM     15  O   UNL     1      41.736  19.372  12.911  1.00  0.00    -0.388 OA
ATOM     16  H   UNL     1      40.888  19.884  12.897  1.00  0.00     0.211 HD
ENDBRANCH  11  15
BRANCH  13  17
ATOM     17  O   UNL     1      43.215  19.445  15.033  1.00  0.00    -0.387 OA
ATOM     18  H   UNL     1      42.927  19.875  15.878  1.00  0.00     0.211 HD
ENDBRANCH  13  17
BRANCH  14  19
ATOM     19  O   UNL     1      42.811  17.496  17.179  1.00  0.00    -0.385 OA
ATOM     20  H   UNL     1      42.386  17.462  18.092  1.00  0.00     0.211 HD
ENDBRANCH  14  19
ENDBRANCH   7   8
ENDBRANCH   1   7
BRANCH   2  21
ATOM     21  O   UNL     1      40.742  15.359  19.226  1.00  0.00    -0.387 OA
ATOM     22  H   UNL     1      41.597  15.622  18.775  1.00  0.00     0.211 HD
ENDBRANCH   2  21
BRANCH   6  23
ATOM     23  O   UNL     1      37.102  15.834  16.461  1.00  0.00    -0.462 OA
BRANCH  23  24
ATOM     24  C   UNL     1      36.751  17.194  16.507  1.00  0.00     0.130 A 
ATOM     25  C   UNL     1      36.917  17.925  17.686  1.00  0.00     0.093 A 
ATOM     26  C   UNL     1      36.298  17.845  15.354  1.00  0.00     0.094 A 
ATOM     27  C   UNL     1      36.761  19.322  17.671  1.00  0.00     0.133 A 
ATOM     28  C   UNL     1      36.214  19.227  15.310  1.00  0.00     0.138 A 
ATOM     29  C   UNL     1      36.436  19.970  16.466  1.00  0.00     0.102 A 
ATOM     30  O   UNL     1      35.910  19.849  14.107  1.00  0.00    -0.484 OA
ATOM     31  C   UNL     1      36.356  21.432  16.348  1.00  0.00     0.174 C 
ATOM     32  C   UNL     1      36.139  21.236  13.816  1.00  0.00     0.211 C 
ATOM     33  O   UNL     1      36.112  22.156  17.347  1.00  0.00    -0.294 OA
ATOM     34  C   UNL     1      36.643  22.071  15.024  1.00  0.00     0.131 C 
BRANCH  27  35
ATOM     35  O   UNL     1      36.965  20.054  18.834  1.00  0.00    -0.507 OA
ATOM     36  H   UNL     1      36.284  20.732  19.154  1.00  0.00     0.293 HD
ENDBRANCH  27  35
BRANCH  32  37
ATOM     37  C   UNL     1      37.101  21.306  12.643  1.00  0.00    -0.007 A 
ATOM     38  C   UNL     1      38.397  21.835  12.810  1.00  0.00     0.011 A 
ATOM     39  C   UNL     1      36.768  20.689  11.419  1.00  0.00     0.011 A 
ATOM     40  C   UNL     1      39.313  21.788  11.758  1.00  0.00     0.046 A 
ATOM     41  C   UNL     1      37.699  20.640  10.379  1.00  0.00     0.046 A 
ATOM     42  C   UNL     1      38.969  21.192  10.540  1.00  0.00     0.115 A 
BRANCH  42  43
ATOM     43  O   UNL     1      39.917  21.139   9.514  1.00  0.00    -0.508 OA
ATOM     44  H   UNL     1      40.630  20.416   9.491  1.00  0.00     0.293 HD
ENDBRANCH  42  43
ENDBRANCH  32  37
ENDBRANCH  23  24
ENDBRANCH   6  23
BRANCH   3  45
ATOM     45  O   UNL     1      39.862  12.595  20.007  1.00  0.00    -0.387 OA
ATOM     46  H   UNL     1      40.838  12.678  19.788  1.00  0.00     0.211 HD
ENDBRANCH   3  45
BRANCH   4  47
ATOM     47  C   UNL     1      38.367  11.676  17.675  1.00  0.00     0.191 C 
BRANCH  47  48
ATOM     48  O   UNL     1      37.227  11.001  17.218  1.00  0.00    -0.394 OA
ATOM     49  H   UNL     1      36.929  11.464  16.391  1.00  0.00     0.210 HD
ENDBRANCH  47  48
ENDBRANCH   4  47
TORSDOF 14
ENDMDL
MODEL 8
REMARK VINA RESULT:    -6.258     14.832     17.907
REMARK INTER + INTRA:         -11.805
REMARK INTER:                 -10.049
REMARK INTRA:                  -1.756
REMARK UNBOUND:                -1.889
REMARK SMILES C[C@H]1O[C@H](O[C@@H]2[C@@H](Oc3cc(O)c4c(c3)O[C@H](c3ccc(O)cc3)CC4=O)O[C@@H](CO)[C@@H](O)[C@@H]2O)[C@@H](O)[C@H](O)[C@@H]1O
REMARK SMILES IDX 6 1 34 2 32 3 29 4 28 5 7 6 5 7 4 8 1 9 2 10 40 11 3 12
REMARK SMILES IDX 38 13 36 14 41 15 39 17 37 19 35 21 8 23 9 24 10 25 15 26
REMARK SMILES IDX 11 27 14 28 13 29 16 30 26 31 17 32 27 33 25 34 12 35 18 37
REMARK SMILES IDX 19 38 24 39 20 40 23 41 21 42 22 43 33 45 30 47 31 48
REMARK H PARENT 41 16 39 18 37 20 35 22 12 36 22 44 33 46 31 49
REMARK Flexibility Score: inf
ROOT
ATOM      1  C   UNL     1      39.285  18.069  15.492  1.00  0.00     0.221 C 
ATOM      2  C   UNL     1      40.780  17.796  15.165  1.00  0.00     0.181 C 
ATOM      3  C   UNL     1      41.096  17.894  13.654  1.00  0.00     0.177 C 
ATOM      4  C   UNL     1      40.244  18.962  12.935  1.00  0.00     0.179 C 
ATOM      5  O   UNL     1      38.858  18.929  13.227  1.00  0.00    -0.332 OA
ATOM      6  C   UNL     1      38.425  17.985  14.198  1.00  0.00     0.339 C 
ENDROOT
BRANCH   1   7
ATOM      7  O   UNL     1      38.893  17.148  16.513  1.00  0.00    -0.337 OA
BRANCH   7   8
ATOM      8  C   UNL     1      38.030  16.089  16.126  1.00  0.00     0.282 C 
ATOM      9  C   UNL     1      39.308  12.637  16.654  1.00  0.00     0.041 C 
ATOM     10  C   UNL     1      38.362  13.824  16.870  1.00  0.00     0.150 C 
ATOM     11  C   UNL     1      36.932  13.462  16.441  1.00  0.00     0.174 C 
ATOM     12  O   UNL     1      38.846  14.911  16.113  1.00  0.00    -0.344 OA
ATOM     13  C   UNL     1      35.973  14.649  16.692  1.00  0.00     0.179 C 
ATOM     14  C   UNL     1      36.726  15.963  17.019  1.00  0.00     0.202 C 
BRANCH  11  15
ATOM     15  O   UNL     1      36.495  12.304  17.120  1.00  0.00    -0.388 OA
ATOM     16  H   UNL     1      35.554  12.134  16.859  1.00  0.00     0.211 HD
ENDBRANCH  11  15
BRANCH  13  17
ATOM     17  O   UNL     1      35.021  14.352  17.698  1.00  0.00    -0.387 OA
ATOM     18  H   UNL     1      34.128  14.335  17.273  1.00  0.00     0.211 HD
ENDBRANCH  13  17
BRANCH  14  19
ATOM     19  O   UNL     1      35.831  17.035  16.855  1.00  0.00    -0.385 OA
ATOM     20  H   UNL     1      34.999  16.683  16.408  1.00  0.00     0.211 HD
ENDBRANCH  14  19
ENDBRANCH   7   8
ENDBRANCH   1   7
BRANCH   2  21
ATOM     21  O   UNL     1      41.151  16.505  15.606  1.00  0.00    -0.387 OA
ATOM     22  H   UNL     1      41.196  15.914  14.799  1.00  0.00     0.211 HD
ENDBRANCH   2  21
BRANCH   6  23
ATOM     23  O   UNL     1      37.043  18.238  14.492  1.00  0.00    -0.462 OA
BRANCH  23  24
ATOM     24  C   UNL     1      36.251  19.160  13.785  1.00  0.00     0.130 A 
ATOM     25  C   UNL     1      36.011  20.432  14.312  1.00  0.00     0.093 A 
ATOM     26  C   UNL     1      35.753  18.838  12.518  1.00  0.00     0.094 A 
ATOM     27  C   UNL     1      35.396  21.414  13.517  1.00  0.00     0.133 A 
ATOM     28  C   UNL     1      35.214  19.817  11.700  1.00  0.00     0.138 A 
ATOM     29  C   UNL     1      35.026  21.104  12.196  1.00  0.00     0.102 A 
ATOM     30  O   UNL     1      34.873  19.496  10.394  1.00  0.00    -0.484 OA
ATOM     31  C   UNL     1      34.472  22.103  11.272  1.00  0.00     0.174 C 
ATOM     32  C   UNL     1      34.654  20.448   9.341  1.00  0.00     0.211 C 
ATOM     33  O   UNL     1      33.875  23.125  11.695  1.00  0.00    -0.294 OA
ATOM     34  C   UNL     1      34.691  21.931   9.799  1.00  0.00     0.131 C 
BRANCH  27  35
ATOM     35  O   UNL     1      35.193  22.691  14.025  1.00  0.00    -0.507 OA
ATOM     36  H   UNL     1      35.422  23.515  13.482  1.00  0.00     0.293 HD
ENDBRANCH  27  35
BRANCH  32  37
ATOM     37  C   UNL     1      35.676  20.169   8.253  1.00  0.00    -0.007 A 
ATOM     38  C   UNL     1      35.278  19.601   7.025  1.00  0.00     0.011 A 
ATOM     39  C   UNL     1      37.002  20.629   8.395  1.00  0.00     0.011 A 
ATOM     40  C   UNL     1      36.202  19.457   5.989  1.00  0.00     0.046 A 
ATOM     41  C   UNL     1      37.912  20.487   7.345  1.00  0.00     0.046 A 
ATOM     42  C   UNL     1      37.521  19.897   6.144  1.00  0.00     0.115 A 
BRANCH  42  43
ATOM     43  O   UNL     1      38.416  19.760   5.079  1.00  0.00    -0.508 OA
ATOM     44  H   UNL     1      38.231  20.186   4.175  1.00  0.00     0.293 HD
ENDBRANCH  42  43
ENDBRANCH  32  37
ENDBRANCH  23  24
ENDBRANCH   6  23
BRANCH   3  45
ATOM     45  O   UNL     1      42.472  18.070  13.408  1.00  0.00    -0.387 OA
ATOM     46  H   UNL     1      42.863  17.187  13.134  1.00  0.00     0.211 HD
ENDBRANCH   3  45
BRANCH   4  47
ATOM     47  C   UNL     1      40.751  20.408  13.111  1.00  0.00     0.191 C 
BRANCH  47  48
ATOM     48  O   UNL     1      41.721  20.729  12.153  1.00  0.00    -0.394 OA
ATOM     49  H   UNL     1      41.260  21.236  11.433  1.00  0.00     0.210 HD
ENDBRANCH  47  48
ENDBRANCH   4  47
TORSDOF 14
ENDMDL
MODEL 9
REMARK VINA RESULT:    -6.220     14.980     18.049
REMARK INTER + INTRA:         -11.745
REMARK INTER:                 -10.248
REMARK INTRA:                  -1.497
REMARK UNBOUND:                -1.889
REMARK SMILES C[C@H]1O[C@H](O[C@@H]2[C@@H](Oc3cc(O)c4c(c3)O[C@H](c3ccc(O)cc3)CC4=O)O[C@@H](CO)[C@@H](O)[C@@H]2O)[C@@H](O)[C@H](O)[C@@H]1O
REMARK SMILES IDX 6 1 34 2 32 3 29 4 28 5 7 6 5 7 4 8 1 9 2 10 40 11 3 12
REMARK SMILES IDX 38 13 36 14 41 15 39 17 37 19 35 21 8 23 9 24 10 25 15 26
REMARK SMILES IDX 11 27 14 28 13 29 16 30 26 31 17 32 27 33 25 34 12 35 18 37
REMARK SMILES IDX 19 38 24 39 20 40 23 41 21 42 22 43 33 45 30 47 31 48
REMARK H PARENT 41 16 39 18 37 20 35 22 12 36 22 44 33 46 31 49
REMARK Flexibility Score: inf
ROOT
ATOM      1  C   UNL     1      38.817  15.171  16.341  1.00  0.00     0.221 C 
ATOM      2  C   UNL     1      38.636  13.628  16.385  1.00  0.00     0.181 C 
ATOM      3  C   UNL     1      37.705  13.161  17.529  1.00  0.00     0.177 C 
ATOM      4  C   UNL     1      36.568  14.164  17.819  1.00  0.00     0.179 C 
ATOM      5  O   UNL     1      36.968  15.519  17.926  1.00  0.00    -0.332 OA
ATOM      6  C   UNL     1      38.337  15.810  17.677  1.00  0.00     0.339 C 
ENDROOT
BRANCH   1   7
ATOM      7  O   UNL     1      40.187  15.435  16.027  1.00  0.00    -0.337 OA
BRANCH   7   8
ATOM      8  C   UNL     1      40.551  16.793  15.832  1.00  0.00     0.282 C 
ATOM      9  C   UNL     1      43.754  17.883  17.375  1.00  0.00     0.041 C 
ATOM     10  C   UNL     1      42.789  17.591  16.220  1.00  0.00     0.150 C 
ATOM     11  C   UNL     1      42.479  18.875  15.434  1.00  0.00     0.174 C 
ATOM     12  O   UNL     1      41.607  17.048  16.766  1.00  0.00    -0.344 OA
ATOM     13  C   UNL     1      41.533  18.571  14.250  1.00  0.00     0.179 C 
ATOM     14  C   UNL     1      40.915  17.152  14.331  1.00  0.00     0.202 C 
BRANCH  11  15
ATOM     15  O   UNL     1      43.675  19.476  14.987  1.00  0.00    -0.388 OA
ATOM     16  H   UNL     1      44.216  18.780  14.535  1.00  0.00     0.211 HD
ENDBRANCH  11  15
BRANCH  13  17
ATOM     17  O   UNL     1      42.173  18.768  13.002  1.00  0.00    -0.387 OA
ATOM     18  H   UNL     1      41.576  19.324  12.441  1.00  0.00     0.211 HD
ENDBRANCH  13  17
BRANCH  14  19
ATOM     19  O   UNL     1      39.811  17.103  13.462  1.00  0.00    -0.385 OA
ATOM     20  H   UNL     1      40.157  17.039  12.518  1.00  0.00     0.211 HD
ENDBRANCH  14  19
ENDBRANCH   7   8
ENDBRANCH   1   7
BRANCH   2  21
ATOM     21  O   UNL     1      39.887  12.992  16.554  1.00  0.00    -0.387 OA
ATOM     22  H   UNL     1      40.526  13.676  16.910  1.00  0.00     0.211 HD
ENDBRANCH   2  21
BRANCH   6  23
ATOM     23  O   UNL     1      38.499  17.236  17.642  1.00  0.00    -0.462 OA
BRANCH  23  24
ATOM     24  C   UNL     1      37.561  18.114  17.072  1.00  0.00     0.130 A 
ATOM     25  C   UNL     1      37.018  19.155  17.831  1.00  0.00     0.093 A 
ATOM     26  C   UNL     1      37.213  17.997  15.722  1.00  0.00     0.094 A 
ATOM     27  C   UNL     1      36.243  20.146  17.206  1.00  0.00     0.133 A 
ATOM     28  C   UNL     1      36.515  19.007  15.082  1.00  0.00     0.138 A 
ATOM     29  C   UNL     1      36.020  20.079  15.819  1.00  0.00     0.102 A 
ATOM     30  O   UNL     1      36.321  18.932  13.710  1.00  0.00    -0.484 OA
ATOM     31  C   UNL     1      35.309  21.130  15.078  1.00  0.00     0.174 C 
ATOM     32  C   UNL     1      35.952  20.035  12.868  1.00  0.00     0.211 C 
ATOM     33  O   UNL     1      34.479  21.883  15.647  1.00  0.00    -0.294 OA
ATOM     34  C   UNL     1      35.637  21.349  13.632  1.00  0.00     0.131 C 
BRANCH  27  35
ATOM     35  O   UNL     1      35.737  21.203  17.952  1.00  0.00    -0.507 OA
ATOM     36  H   UNL     1      36.346  21.919  18.330  1.00  0.00     0.293 HD
ENDBRANCH  27  35
BRANCH  32  37
ATOM     37  C   UNL     1      37.066  20.229  11.853  1.00  0.00    -0.007 A 
ATOM     38  C   UNL     1      36.773  20.644  10.538  1.00  0.00     0.011 A 
ATOM     39  C   UNL     1      38.414  20.157  12.262  1.00  0.00     0.011 A 
ATOM     40  C   UNL     1      37.809  20.932   9.648  1.00  0.00     0.046 A 
ATOM     41  C   UNL     1      39.440  20.459  11.363  1.00  0.00     0.046 A 
ATOM     42  C   UNL     1      39.144  20.840  10.055  1.00  0.00     0.115 A 
BRANCH  42  43
ATOM     43  O   UNL     1      40.158  21.157   9.147  1.00  0.00    -0.508 OA
ATOM     44  H   UNL     1      40.546  22.095   9.095  1.00  0.00     0.293 HD
ENDBRANCH  42  43
ENDBRANCH  32  37
ENDBRANCH  23  24
ENDBRANCH   6  23
BRANCH   3  45
ATOM     45  O   UNL     1      37.212  11.858  17.316  1.00  0.00    -0.387 OA
ATOM     46  H   UNL     1      37.990  11.228  17.257  1.00  0.00     0.211 HD
ENDBRANCH   3  45
BRANCH   4  47
ATOM     47  C   UNL     1      35.376  14.078  16.844  1.00  0.00     0.191 C 
BRANCH  47  48
ATOM     48  O   UNL     1      34.715  15.309  16.736  1.00  0.00    -0.394 OA
ATOM     49  H   UNL     1      35.272  15.979  17.214  1.00  0.00     0.210 HD
ENDBRANCH  47  48
ENDBRANCH   4  47
TORSDOF 14
ENDMDL
