MODEL 1
REMARK VINA RESULT:    -4.769      0.000      0.000
REMARK INTER + INTRA:          -7.103
REMARK INTER:                  -6.720
REMARK INTRA:                  -0.383
REMARK UNBOUND:                -0.383
REMARK SMILES C=CCCCCCCC(=O)[O-]
REMARK SMILES IDX 6 1 7 2 8 3 9 4 10 5 11 6 5 7 4 8 3 9 2 10 1 11
REMARK H PARENT
REMARK Flexibility Score: inf
ROOT
ATOM      1  C   UNL     1      14.809  16.969  27.791  1.00  0.00     0.000 C 
ENDROOT
BRANCH   1   2
ATOM      2  C   UNL     1      13.279  17.076  27.925  1.00  0.00     0.006 C 
BRANCH   2   3
ATOM      3  C   UNL     1      12.573  17.636  26.679  1.00  0.00     0.053 C 
BRANCH   3   4
ATOM      4  C   UNL     1      11.913  16.560  25.875  1.00  0.00     0.041 C 
ATOM      5  O   UNL     1      11.945  15.364  26.268  1.00  0.00    -0.550 OA
ATOM      6  O   UNL     1      11.291  16.873  24.673  1.00  0.00    -0.550 OA
ENDBRANCH   3   4
ENDBRANCH   2   3
ENDBRANCH   1   2
BRANCH   1   7
ATOM      7  C   UNL     1      15.406  15.849  28.656  1.00  0.00     0.000 C 
BRANCH   7   8
ATOM      8  C   UNL     1      14.305  14.932  29.205  1.00  0.00     0.004 C 
BRANCH   8   9
ATOM      9  C   UNL     1      14.866  13.551  29.563  1.00  0.00     0.027 C 
BRANCH   9  10
ATOM     10  C   UNL     1      15.100  13.426  31.044  1.00  0.00    -0.035 C 
ATOM     11  C   UNL     1      14.386  14.125  31.931  1.00  0.00     0.004 C 
ENDBRANCH   9  10
ENDBRANCH   8   9
ENDBRANCH   7   8
ENDBRANCH   1   7
TORSDOF 7
ENDMDL
MODEL 2
REMARK VINA RESULT:    -4.766      3.002      5.371
REMARK INTER + INTRA:          -7.099
REMARK INTER:                  -6.613
REMARK INTRA:                  -0.485
REMARK UNBOUND:                -0.383
REMARK SMILES C=CCCCCCCC(=O)[O-]
REMARK SMILES IDX 6 1 7 2 8 3 9 4 10 5 11 6 5 7 4 8 3 9 2 10 1 11
REMARK H PARENT
REMARK Flexibility Score: inf
ROOT
ATOM      1  C   UNL     1      15.362  16.021  28.531  1.00  0.00     0.000 C 
ENDROOT
BRANCH   1   2
ATOM      2  C   UNL     1      14.316  14.938  28.850  1.00  0.00     0.006 C 
BRANCH   2   3
ATOM      3  C   UNL     1      14.352  14.432  30.301  1.00  0.00     0.053 C 
BRANCH   3   4
ATOM      4  C   UNL     1      15.069  13.123  30.424  1.00  0.00     0.041 C 
ATOM      5  O   UNL     1      15.626  12.806  31.507  1.00  0.00    -0.550 OA
ATOM      6  O   UNL     1      15.151  12.270  29.331  1.00  0.00    -0.550 OA
ENDBRANCH   3   4
ENDBRANCH   2   3
ENDBRANCH   1   2
BRANCH   1   7
ATOM      7  C   UNL     1      14.786  17.181  27.705  1.00  0.00     0.000 C 
BRANCH   7   8
ATOM      8  C   UNL     1      15.248  17.098  26.245  1.00  0.00     0.004 C 
BRANCH   8   9
ATOM      9  C   UNL     1      14.049  17.088  25.288  1.00  0.00     0.027 C 
BRANCH   9  10
ATOM     10  C   UNL     1      13.347  15.759  25.308  1.00  0.00    -0.035 C 
ATOM     11  C   UNL     1      12.129  15.614  25.838  1.00  0.00     0.004 C 
ENDBRANCH   9  10
ENDBRANCH   8   9
ENDBRANCH   7   8
ENDBRANCH   1   7
TORSDOF 7
ENDMDL
MODEL 3
REMARK VINA RESULT:    -4.673      2.938      5.260
REMARK INTER + INTRA:          -6.968
REMARK INTER:                  -6.417
REMARK INTRA:                  -0.551
REMARK UNBOUND:                -0.383
REMARK SMILES C=CCCCCCCC(=O)[O-]
REMARK SMILES IDX 6 1 7 2 8 3 9 4 10 5 11 6 5 7 4 8 3 9 2 10 1 11
REMARK H PARENT
REMARK Flexibility Score: inf
ROOT
ATOM      1  C   UNL     1      14.828  17.047  27.758  1.00  0.00     0.000 C 
ENDROOT
BRANCH   1   2
ATOM      2  C   UNL     1      15.268  15.824  28.584  1.00  0.00     0.006 C 
BRANCH   2   3
ATOM      3  C   UNL     1      14.106  14.991  29.148  1.00  0.00     0.053 C 
BRANCH   3   4
ATOM      4  C   UNL     1      14.559  14.039  30.211  1.00  0.00     0.041 C 
ATOM      5  O   UNL     1      15.020  12.910  29.896  1.00  0.00    -0.550 OA
ATOM      6  O   UNL     1      14.442  14.385  31.551  1.00  0.00    -0.550 OA
ENDBRANCH   3   4
ENDBRANCH   2   3
ENDBRANCH   1   2
BRANCH   1   7
ATOM      7  C   UNL     1      15.415  17.048  26.339  1.00  0.00     0.000 C 
BRANCH   7   8
ATOM      8  C   UNL     1      14.305  17.163  25.285  1.00  0.00     0.004 C 
BRANCH   8   9
ATOM      9  C   UNL     1      13.383  15.939  25.322  1.00  0.00     0.027 C 
BRANCH   9  10
ATOM     10  C   UNL     1      11.955  16.340  25.572  1.00  0.00    -0.035 C 
ATOM     11  C   UNL     1      11.612  17.610  25.811  1.00  0.00     0.004 C 
ENDBRANCH   9  10
ENDBRANCH   8   9
ENDBRANCH   7   8
ENDBRANCH   1   7
TORSDOF 7
ENDMDL
MODEL 4
REMARK VINA RESULT:    -4.661      1.275      1.594
REMARK INTER + INTRA:          -6.952
REMARK INTER:                  -6.650
REMARK INTRA:                  -0.302
REMARK UNBOUND:                -0.383
REMARK SMILES C=CCCCCCCC(=O)[O-]
REMARK SMILES IDX 6 1 7 2 8 3 9 4 10 5 11 6 5 7 4 8 3 9 2 10 1 11
REMARK H PARENT
REMARK Flexibility Score: inf
ROOT
ATOM      1  C   UNL     1      14.978  16.542  27.564  1.00  0.00     0.000 C 
ENDROOT
BRANCH   1   2
ATOM      2  C   UNL     1      14.500  16.741  26.115  1.00  0.00     0.006 C 
BRANCH   2   3
ATOM      3  C   UNL     1      13.458  15.713  25.645  1.00  0.00     0.053 C 
BRANCH   3   4
ATOM      4  C   UNL     1      12.189  16.365  25.189  1.00  0.00     0.041 C 
ATOM      5  O   UNL     1      11.582  15.928  24.176  1.00  0.00    -0.550 OA
ATOM      6  O   UNL     1      11.697  17.475  25.862  1.00  0.00    -0.550 OA
ENDBRANCH   3   4
ENDBRANCH   2   3
ENDBRANCH   1   2
BRANCH   1   7
ATOM      7  C   UNL     1      13.990  15.724  28.410  1.00  0.00     0.000 C 
BRANCH   7   8
ATOM      8  C   UNL     1      14.732  14.765  29.348  1.00  0.00     0.004 C 
BRANCH   8   9
ATOM      9  C   UNL     1      14.024  14.663  30.705  1.00  0.00     0.027 C 
BRANCH   9  10
ATOM     10  C   UNL     1      14.753  13.730  31.631  1.00  0.00    -0.035 C 
ATOM     11  C   UNL     1      15.555  12.765  31.171  1.00  0.00     0.004 C 
ENDBRANCH   9  10
ENDBRANCH   8   9
ENDBRANCH   7   8
ENDBRANCH   1   7
TORSDOF 7
ENDMDL
MODEL 5
REMARK VINA RESULT:    -4.220      2.215      3.563
REMARK INTER + INTRA:          -6.330
REMARK INTER:                  -5.627
REMARK INTRA:                  -0.702
REMARK UNBOUND:                -0.383
REMARK SMILES C=CCCCCCCC(=O)[O-]
REMARK SMILES IDX 6 1 7 2 8 3 9 4 10 5 11 6 5 7 4 8 3 9 2 10 1 11
REMARK H PARENT
REMARK Flexibility Score: inf
ROOT
ATOM      1  C   UNL     1      12.786  17.347  27.375  1.00  0.00     0.000 C 
ENDROOT
BRANCH   1   2
ATOM      2  C   UNL     1      11.969  17.873  26.181  1.00  0.00     0.006 C 
BRANCH   2   3
ATOM      3  C   UNL     1      12.727  17.865  24.843  1.00  0.00     0.053 C 
BRANCH   3   4
ATOM      4  C   UNL     1      12.003  17.085  23.790  1.00  0.00     0.041 C 
ATOM      5  O   UNL     1      11.861  17.562  22.634  1.00  0.00    -0.550 OA
ATOM      6  O   UNL     1      11.454  15.846  24.096  1.00  0.00    -0.550 OA
ENDBRANCH   3   4
ENDBRANCH   2   3
ENDBRANCH   1   2
BRANCH   1   7
ATOM      7  C   UNL     1      12.983  15.824  27.338  1.00  0.00     0.000 C 
BRANCH   7   8
ATOM      8  C   UNL     1      14.391  15.441  27.809  1.00  0.00     0.004 C 
BRANCH   8   9
ATOM      9  C   UNL     1      15.264  16.685  28.005  1.00  0.00     0.027 C 
BRANCH   9  10
ATOM     10  C   UNL     1      16.389  16.724  27.008  1.00  0.00    -0.035 C 
ATOM     11  C   UNL     1      16.300  17.423  25.872  1.00  0.00     0.004 C 
ENDBRANCH   9  10
ENDBRANCH   8   9
ENDBRANCH   7   8
ENDBRANCH   1   7
TORSDOF 7
ENDMDL
MODEL 6
REMARK VINA RESULT:    -4.212      3.368      3.967
REMARK INTER + INTRA:          -6.318
REMARK INTER:                  -5.939
REMARK INTRA:                  -0.379
REMARK UNBOUND:                -0.383
REMARK SMILES C=CCCCCCCC(=O)[O-]
REMARK SMILES IDX 6 1 7 2 8 3 9 4 10 5 11 6 5 7 4 8 3 9 2 10 1 11
REMARK H PARENT
REMARK Flexibility Score: inf
ROOT
ATOM      1  C   UNL     1      14.859  17.014  27.943  1.00  0.00     0.000 C 
ENDROOT
BRANCH   1   2
ATOM      2  C   UNL     1      15.735  17.019  26.677  1.00  0.00     0.006 C 
BRANCH   2   3
ATOM      3  C   UNL     1      17.204  16.641  26.923  1.00  0.00     0.053 C 
BRANCH   3   4
ATOM      4  C   UNL     1      18.115  17.216  25.883  1.00  0.00     0.041 C 
ATOM      5  O   UNL     1      19.362  17.067  25.981  1.00  0.00    -0.550 OA
ATOM      6  O   UNL     1      17.590  17.945  24.824  1.00  0.00    -0.550 OA
ENDBRANCH   3   4
ENDBRANCH   2   3
ENDBRANCH   1   2
BRANCH   1   7
ATOM      7  C   UNL     1      13.676  16.039  27.845  1.00  0.00     0.000 C 
BRANCH   7   8
ATOM      8  C   UNL     1      13.575  15.168  29.103  1.00  0.00     0.004 C 
BRANCH   8   9
ATOM      9  C   UNL     1      14.818  14.284  29.262  1.00  0.00     0.027 C 
BRANCH   9  10
ATOM     10  C   UNL     1      14.901  13.704  30.647  1.00  0.00    -0.035 C 
ATOM     11  C   UNL     1      14.307  14.288  31.692  1.00  0.00     0.004 C 
ENDBRANCH   9  10
ENDBRANCH   8   9
ENDBRANCH   7   8
ENDBRANCH   1   7
TORSDOF 7
ENDMDL
MODEL 7
REMARK VINA RESULT:    -3.990      1.434      2.273
REMARK INTER + INTRA:          -6.006
REMARK INTER:                  -5.689
REMARK INTRA:                  -0.318
REMARK UNBOUND:                -0.383
REMARK SMILES C=CCCCCCCC(=O)[O-]
REMARK SMILES IDX 6 1 7 2 8 3 9 4 10 5 11 6 5 7 4 8 3 9 2 10 1 11
REMARK H PARENT
REMARK Flexibility Score: inf
ROOT
ATOM      1  C   UNL     1      15.629  17.792  25.220  1.00  0.00     0.000 C 
ENDROOT
BRANCH   1   2
ATOM      2  C   UNL     1      14.093  17.883  25.179  1.00  0.00     0.006 C 
BRANCH   2   3
ATOM      3  C   UNL     1      13.408  16.700  24.474  1.00  0.00     0.053 C 
BRANCH   3   4
ATOM      4  C   UNL     1      12.082  16.371  25.086  1.00  0.00     0.041 C 
ATOM      5  O   UNL     1      12.001  15.504  25.995  1.00  0.00    -0.550 OA
ATOM      6  O   UNL     1      10.930  16.998  24.628  1.00  0.00    -0.550 OA
ENDBRANCH   3   4
ENDBRANCH   2   3
ENDBRANCH   1   2
BRANCH   1   7
ATOM      7  C   UNL     1      16.151  17.095  26.485  1.00  0.00     0.000 C 
BRANCH   7   8
ATOM      8  C   UNL     1      15.052  16.994  27.550  1.00  0.00     0.004 C 
BRANCH   8   9
ATOM      9  C   UNL     1      15.414  15.953  28.617  1.00  0.00     0.027 C 
BRANCH   9  10
ATOM     10  C   UNL     1      14.203  15.173  29.048  1.00  0.00    -0.035 C 
ATOM     11  C   UNL     1      14.243  14.324  30.080  1.00  0.00     0.004 C 
ENDBRANCH   9  10
ENDBRANCH   8   9
ENDBRANCH   7   8
ENDBRANCH   1   7
TORSDOF 7
ENDMDL
MODEL 8
REMARK VINA RESULT:    -3.917      3.692      5.563
REMARK INTER + INTRA:          -5.903
REMARK INTER:                  -5.246
REMARK INTRA:                  -0.657
REMARK UNBOUND:                -0.383
REMARK SMILES C=CCCCCCCC(=O)[O-]
REMARK SMILES IDX 6 1 7 2 8 3 9 4 10 5 11 6 5 7 4 8 3 9 2 10 1 11
REMARK H PARENT
REMARK Flexibility Score: inf
ROOT
ATOM      1  C   UNL     1      14.432  15.742  27.450  1.00  0.00     0.000 C 
ENDROOT
BRANCH   1   2
ATOM      2  C   UNL     1      15.301  17.012  27.398  1.00  0.00     0.006 C 
BRANCH   2   3
ATOM      3  C   UNL     1      16.013  17.235  26.054  1.00  0.00     0.053 C 
BRANCH   3   4
ATOM      4  C   UNL     1      17.499  17.096  26.174  1.00  0.00     0.041 C 
ATOM      5  O   UNL     1      18.011  16.675  27.245  1.00  0.00    -0.550 OA
ATOM      6  O   UNL     1      18.320  17.462  25.116  1.00  0.00    -0.550 OA
ENDBRANCH   3   4
ENDBRANCH   2   3
ENDBRANCH   1   2
BRANCH   1   7
ATOM      7  C   UNL     1      12.927  16.050  27.465  1.00  0.00     0.000 C 
BRANCH   7   8
ATOM      8  C   UNL     1      12.672  17.554  27.301  1.00  0.00     0.004 C 
BRANCH   8   9
ATOM      9  C   UNL     1      11.749  17.829  26.108  1.00  0.00     0.027 C 
BRANCH   9  10
ATOM     10  C   UNL     1      12.528  17.918  24.825  1.00  0.00    -0.035 C 
ATOM     11  C   UNL     1      12.563  16.908  23.951  1.00  0.00     0.004 C 
ENDBRANCH   9  10
ENDBRANCH   8   9
ENDBRANCH   7   8
ENDBRANCH   1   7
TORSDOF 7
ENDMDL
MODEL 9
REMARK VINA RESULT:    -3.678      3.007      6.204
REMARK INTER + INTRA:          -5.567
REMARK INTER:                  -5.324
REMARK INTRA:                  -0.243
REMARK UNBOUND:                -0.383
REMARK SMILES C=CCCCCCCC(=O)[O-]
REMARK SMILES IDX 6 1 7 2 8 3 9 4 10 5 11 6 5 7 4 8 3 9 2 10 1 11
REMARK H PARENT
REMARK Flexibility Score: inf
ROOT
ATOM      1  C   UNL     1      12.888  15.539  26.684  1.00  0.00     0.000 C 
ENDROOT
BRANCH   1   2
ATOM      2  C   UNL     1      12.872  15.520  28.223  1.00  0.00     0.006 C 
BRANCH   2   3
ATOM      3  C   UNL     1      14.264  15.604  28.871  1.00  0.00     0.053 C 
BRANCH   3   4
ATOM      4  C   UNL     1      14.562  14.408  29.722  1.00  0.00     0.041 C 
ATOM      5  O   UNL     1      14.879  13.313  29.187  1.00  0.00    -0.550 OA
ATOM      6  O   UNL     1      14.455  14.495  31.104  1.00  0.00    -0.550 OA
ENDBRANCH   3   4
ENDBRANCH   2   3
ENDBRANCH   1   2
BRANCH   1   7
ATOM      7  C   UNL     1      13.911  16.530  26.111  1.00  0.00     0.000 C 
BRANCH   7   8
ATOM      8  C   UNL     1      13.730  16.693  24.596  1.00  0.00     0.004 C 
BRANCH   8   9
ATOM      9  C   UNL     1      12.951  17.973  24.270  1.00  0.00     0.027 C 
BRANCH   9  10
ATOM     10  C   UNL     1      11.976  17.745  23.148  1.00  0.00    -0.035 C 
ATOM     11  C   UNL     1      12.244  18.125  21.895  1.00  0.00     0.004 C 
ENDBRANCH   9  10
ENDBRANCH   8   9
ENDBRANCH   7   8
ENDBRANCH   1   7
TORSDOF 7
ENDMDL
