MODEL 1
REMARK VINA RESULT:    -0.634      0.000      0.000
REMARK INTER + INTRA:          -2.570
REMARK INTER:                  -1.004
REMARK INTRA:                  -1.566
REMARK UNBOUND:                -1.566
REMARK SMILES C[C@H]1O[C@@H](O[C@@H]2[C@@H](Oc3cc(O)c4c(c3)O[C@@H](c3ccc(O)cc3)CC4=O)O[C@H](CO)[C@H](O)[C@H]2O)[C@H](O)[C@H](O)[C@@H]1O
REMARK SMILES IDX 6 1 34 2 32 3 29 4 28 5 7 6 5 7 4 8 1 9 2 10 40 11 3 12
REMARK SMILES IDX 38 13 36 14 41 15 39 17 37 19 35 21 8 23 9 24 10 25 15 26
REMARK SMILES IDX 11 27 14 28 13 29 16 30 26 31 17 32 27 33 25 34 12 35 18 37
REMARK SMILES IDX 19 38 24 39 20 40 23 41 21 42 22 43 33 45 30 47 31 48
REMARK H PARENT 41 16 39 18 37 20 35 22 12 36 22 44 33 46 31 49
REMARK Flexibility Score: inf
ROOT
ATOM      1  C   UNL     1      37.619   4.575   7.760  1.00  0.00     0.221 C 
ATOM      2  C   UNL     1      37.198   3.300   6.956  1.00  0.00     0.181 C 
ATOM      3  C   UNL     1      37.600   1.931   7.587  1.00  0.00     0.177 C 
ATOM      4  C   UNL     1      37.832   2.027   9.106  1.00  0.00     0.179 C 
ATOM      5  O   UNL     1      38.696   3.106   9.412  1.00  0.00    -0.332 OA
ATOM      6  C   UNL     1      38.038   4.348   9.242  1.00  0.00     0.339 C 
ENDROOT
BRANCH   1   7
ATOM      7  O   UNL     1      38.455   5.468   7.029  1.00  0.00    -0.337 OA
BRANCH   7   8
ATOM      8  C   UNL     1      38.827   6.705   7.632  1.00  0.00     0.282 C 
ATOM      9  C   UNL     1      37.513  10.125   7.609  1.00  0.00     0.041 C 
ATOM     10  C   UNL     1      38.492   8.983   7.873  1.00  0.00     0.150 C 
ATOM     11  C   UNL     1      39.946   9.409   7.532  1.00  0.00     0.174 C 
ATOM     12  O   UNL     1      38.121   7.831   7.126  1.00  0.00    -0.344 OA
ATOM     13  C   UNL     1      40.742   8.235   6.919  1.00  0.00     0.179 C 
ATOM     14  C   UNL     1      40.376   6.896   7.585  1.00  0.00     0.202 C 
BRANCH  11  15
ATOM     15  O   UNL     1      40.591   9.874   8.693  1.00  0.00    -0.388 OA
ATOM     16  H   UNL     1      40.779  10.841   8.553  1.00  0.00     0.211 HD
ENDBRANCH  11  15
BRANCH  13  17
ATOM     17  O   UNL     1      42.125   8.465   7.028  1.00  0.00    -0.387 OA
ATOM     18  H   UNL     1      42.244   9.309   7.542  1.00  0.00     0.211 HD
ENDBRANCH  13  17
BRANCH  14  19
ATOM     19  O   UNL     1      40.901   6.864   8.888  1.00  0.00    -0.385 OA
ATOM     20  H   UNL     1      40.229   7.294   9.485  1.00  0.00     0.211 HD
ENDBRANCH  14  19
ENDBRANCH   7   8
ENDBRANCH   1   7
BRANCH   2  21
ATOM     21  O   UNL     1      35.814   3.328   6.712  1.00  0.00    -0.387 OA
ATOM     22  H   UNL     1      35.610   2.582   6.094  1.00  0.00     0.211 HD
ENDBRANCH   2  21
BRANCH   6  23
ATOM     23  O   UNL     1      36.903   4.432  10.125  1.00  0.00    -0.462 OA
BRANCH  23  24
ATOM     24  C   UNL     1      35.756   5.212   9.891  1.00  0.00     0.130 A 
ATOM     25  C   UNL     1      34.455   4.710  10.080  1.00  0.00     0.093 A 
ATOM     26  C   UNL     1      35.925   6.540   9.490  1.00  0.00     0.094 A 
ATOM     27  C   UNL     1      33.338   5.536   9.893  1.00  0.00     0.133 A 
ATOM     28  C   UNL     1      34.823   7.384   9.339  1.00  0.00     0.138 A 
ATOM     29  C   UNL     1      33.522   6.886   9.533  1.00  0.00     0.102 A 
ATOM     30  O   UNL     1      35.035   8.731   9.014  1.00  0.00    -0.484 OA
ATOM     31  C   UNL     1      32.394   7.831   9.395  1.00  0.00     0.174 C 
ATOM     32  C   UNL     1      33.985   9.661   8.717  1.00  0.00     0.211 C 
ATOM     33  O   UNL     1      31.207   7.419   9.303  1.00  0.00    -0.294 OA
ATOM     34  C   UNL     1      32.667   9.304   9.432  1.00  0.00     0.131 C 
BRANCH  27  35
ATOM     35  O   UNL     1      32.061   5.015  10.081  1.00  0.00    -0.507 OA
ATOM     36  H   UNL     1      31.253   5.393   9.598  1.00  0.00     0.293 HD
ENDBRANCH  27  35
BRANCH  32  37
ATOM     37  C   UNL     1      33.792   9.798   7.218  1.00  0.00    -0.007 A 
ATOM     38  C   UNL     1      32.487   9.830   6.688  1.00  0.00     0.011 A 
ATOM     39  C   UNL     1      34.888   9.857   6.336  1.00  0.00     0.011 A 
ATOM     40  C   UNL     1      32.280   9.948   5.311  1.00  0.00     0.046 A 
ATOM     41  C   UNL     1      34.678   9.975   4.957  1.00  0.00     0.046 A 
ATOM     42  C   UNL     1      33.377  10.021   4.441  1.00  0.00     0.115 A 
BRANCH  42  43
ATOM     43  O   UNL     1      33.185  10.125   3.066  1.00  0.00    -0.508 OA
ATOM     44  H   UNL     1      33.967  10.167   2.421  1.00  0.00     0.293 HD
ENDBRANCH  42  43
ENDBRANCH  32  37
ENDBRANCH  23  24
ENDBRANCH   6  23
BRANCH   3  45
ATOM     45  O   UNL     1      38.738   1.405   6.950  1.00  0.00    -0.387 OA
ATOM     46  H   UNL     1      39.236   2.174   6.569  1.00  0.00     0.211 HD
ENDBRANCH   3  45
BRANCH   4  47
ATOM     47  C   UNL     1      38.420   0.728   9.689  1.00  0.00     0.191 C 
BRANCH  47  48
ATOM     48  O   UNL     1      37.706  -0.396   9.249  1.00  0.00    -0.394 OA
ATOM     49  H   UNL     1      37.629  -1.008  10.022  1.00  0.00     0.210 HD
ENDBRANCH  47  48
ENDBRANCH   4  47
TORSDOF 14
ENDMDL
MODEL 2
REMARK VINA RESULT:     0.513     16.040     20.234
REMARK INTER + INTRA:          -0.752
REMARK INTER:                   0.903
REMARK INTRA:                  -1.655
REMARK UNBOUND:                -1.566
REMARK SMILES C[C@H]1O[C@@H](O[C@@H]2[C@@H](Oc3cc(O)c4c(c3)O[C@@H](c3ccc(O)cc3)CC4=O)O[C@H](CO)[C@H](O)[C@H]2O)[C@H](O)[C@H](O)[C@@H]1O
REMARK SMILES IDX 6 1 34 2 32 3 29 4 28 5 7 6 5 7 4 8 1 9 2 10 40 11 3 12
REMARK SMILES IDX 38 13 36 14 41 15 39 17 37 19 35 21 8 23 9 24 10 25 15 26
REMARK SMILES IDX 11 27 14 28 13 29 16 30 26 31 17 32 27 33 25 34 12 35 18 37
REMARK SMILES IDX 19 38 24 39 20 40 23 41 21 42 22 43 33 45 30 47 31 48
REMARK H PARENT 41 16 39 18 37 20 35 22 12 36 22 44 33 46 31 49
REMARK Flexibility Score: inf
ROOT
ATOM      1  C   UNL     1      35.935  -8.306  -7.060  1.00  0.00     0.221 C 
ATOM      2  C   UNL     1      35.946  -8.993  -8.465  1.00  0.00     0.181 C 
ATOM      3  C   UNL     1      37.351  -9.377  -9.027  1.00  0.00     0.177 C 
ATOM      4  C   UNL     1      38.408  -9.530  -7.918  1.00  0.00     0.179 C 
ATOM      5  O   UNL     1      38.392  -8.408  -7.054  1.00  0.00    -0.332 OA
ATOM      6  C   UNL     1      37.245  -8.421  -6.225  1.00  0.00     0.339 C 
ENDROOT
BRANCH   1   7
ATOM      7  O   UNL     1      35.329  -7.016  -7.053  1.00  0.00    -0.337 OA
BRANCH   7   8
ATOM      8  C   UNL     1      35.692  -6.085  -8.069  1.00  0.00     0.282 C 
ATOM      9  C   UNL     1      38.814  -5.092  -9.711  1.00  0.00     0.041 C 
ATOM     10  C   UNL     1      37.340  -5.037  -9.313  1.00  0.00     0.150 C 
ATOM     11  C   UNL     1      36.908  -3.583  -8.983  1.00  0.00     0.174 C 
ATOM     12  O   UNL     1      37.095  -5.895  -8.205  1.00  0.00    -0.344 OA
ATOM     13  C   UNL     1      35.895  -3.553  -7.817  1.00  0.00     0.179 C 
ATOM     14  C   UNL     1      34.919  -4.741  -7.886  1.00  0.00     0.202 C 
BRANCH  11  15
ATOM     15  O   UNL     1      36.346  -2.982 -10.125  1.00  0.00    -0.388 OA
ATOM     16  H   UNL     1      36.886  -2.169 -10.321  1.00  0.00     0.211 HD
ENDBRANCH  11  15
BRANCH  13  17
ATOM     17  O   UNL     1      35.181  -2.342  -7.813  1.00  0.00    -0.387 OA
ATOM     18  H   UNL     1      35.780  -1.645  -8.195  1.00  0.00     0.211 HD
ENDBRANCH  13  17
BRANCH  14  19
ATOM     19  O   UNL     1      34.029  -4.552  -8.958  1.00  0.00    -0.385 OA
ATOM     20  H   UNL     1      33.116  -4.762  -8.620  1.00  0.00     0.211 HD
ENDBRANCH  14  19
ENDBRANCH   7   8
ENDBRANCH   1   7
BRANCH   2  21
ATOM     21  O   UNL     1      35.112 -10.125  -8.447  1.00  0.00    -0.387 OA
ATOM     22  H   UNL     1      35.592 -10.851  -8.918  1.00  0.00     0.211 HD
ENDBRANCH   2  21
BRANCH   6  23
ATOM     23  O   UNL     1      37.240  -9.605  -5.405  1.00  0.00    -0.462 OA
BRANCH  23  24
ATOM     24  C   UNL     1      37.309  -9.613  -4.000  1.00  0.00     0.130 A 
ATOM     25  C   UNL     1      36.179  -9.843  -3.194  1.00  0.00     0.093 A 
ATOM     26  C   UNL     1      38.553  -9.418  -3.395  1.00  0.00     0.094 A 
ATOM     27  C   UNL     1      36.299  -9.901  -1.798  1.00  0.00     0.133 A 
ATOM     28  C   UNL     1      38.693  -9.514  -2.009  1.00  0.00     0.138 A 
ATOM     29  C   UNL     1      37.566  -9.749  -1.201  1.00  0.00     0.102 A 
ATOM     30  O   UNL     1      39.970  -9.393  -1.442  1.00  0.00    -0.484 OA
ATOM     31  C   UNL     1      37.776  -9.876   0.257  1.00  0.00     0.174 C 
ATOM     32  C   UNL     1      40.222  -9.353  -0.031  1.00  0.00     0.211 C 
ATOM     33  O   UNL     1      36.807  -9.833   1.061  1.00  0.00    -0.294 OA
ATOM     34  C   UNL     1      39.160 -10.125   0.776  1.00  0.00     0.131 C 
BRANCH  27  35
ATOM     35  O   UNL     1      35.165 -10.125  -1.021  1.00  0.00    -0.507 OA
ATOM     36  H   UNL     1      34.231  -9.965  -1.381  1.00  0.00     0.293 HD
ENDBRANCH  27  35
BRANCH  32  37
ATOM     37  C   UNL     1      40.367  -7.923   0.454  1.00  0.00    -0.007 A 
ATOM     38  C   UNL     1      39.603  -7.484   1.553  1.00  0.00     0.011 A 
ATOM     39  C   UNL     1      41.220  -7.008  -0.194  1.00  0.00     0.011 A 
ATOM     40  C   UNL     1      39.710  -6.169   2.015  1.00  0.00     0.046 A 
ATOM     41  C   UNL     1      41.325  -5.692   0.271  1.00  0.00     0.046 A 
ATOM     42  C   UNL     1      40.573  -5.269   1.373  1.00  0.00     0.115 A 
BRANCH  42  43
ATOM     43  O   UNL     1      40.679  -3.953   1.816  1.00  0.00    -0.508 OA
ATOM     44  H   UNL     1      40.728  -3.726   2.803  1.00  0.00     0.293 HD
ENDBRANCH  42  43
ENDBRANCH  32  37
ENDBRANCH  23  24
ENDBRANCH   6  23
BRANCH   3  45
ATOM     45  O   UNL     1      37.776  -8.438  -9.983  1.00  0.00    -0.387 OA
ATOM     46  H   UNL     1      38.171  -7.677  -9.484  1.00  0.00     0.211 HD
ENDBRANCH   3  45
BRANCH   4  47
ATOM     47  C   UNL     1      39.828  -9.710  -8.488  1.00  0.00     0.191 C 
BRANCH  47  48
ATOM     48  O   UNL     1      40.397  -8.476  -8.832  1.00  0.00    -0.394 OA
ATOM     49  H   UNL     1      41.354  -8.522  -8.584  1.00  0.00     0.210 HD
ENDBRANCH  47  48
ENDBRANCH   4  47
TORSDOF 14
ENDMDL
MODEL 3
REMARK VINA RESULT:     0.746     15.450     19.349
REMARK INTER + INTRA:          -0.383
REMARK INTER:                  -1.251
REMARK INTRA:                   0.868
REMARK UNBOUND:                -1.566
REMARK SMILES C[C@H]1O[C@@H](O[C@@H]2[C@@H](Oc3cc(O)c4c(c3)O[C@@H](c3ccc(O)cc3)CC4=O)O[C@H](CO)[C@H](O)[C@H]2O)[C@H](O)[C@H](O)[C@@H]1O
REMARK SMILES IDX 6 1 34 2 32 3 29 4 28 5 7 6 5 7 4 8 1 9 2 10 40 11 3 12
REMARK SMILES IDX 38 13 36 14 41 15 39 17 37 19 35 21 8 23 9 24 10 25 15 26
REMARK SMILES IDX 11 27 14 28 13 29 16 30 26 31 17 32 27 33 25 34 12 35 18 37
REMARK SMILES IDX 19 38 24 39 20 40 23 41 21 42 22 43 33 45 30 47 31 48
REMARK H PARENT 41 16 39 18 37 20 35 22 12 36 22 44 33 46 31 49
REMARK Flexibility Score: inf
ROOT
ATOM      1  C   UNL     1      41.192  -5.376  -2.329  1.00  0.00     0.221 C 
ATOM      2  C   UNL     1      40.711  -3.965  -2.802  1.00  0.00     0.181 C 
ATOM      3  C   UNL     1      41.005  -3.606  -4.292  1.00  0.00     0.177 C 
ATOM      4  C   UNL     1      41.201  -4.854  -5.171  1.00  0.00     0.179 C 
ATOM      5  O   UNL     1      42.125  -5.746  -4.573  1.00  0.00    -0.332 OA
ATOM      6  C   UNL     1      41.554  -6.393  -3.451  1.00  0.00     0.339 C 
ENDROOT
BRANCH   1   7
ATOM      7  O   UNL     1      42.104  -5.338  -1.235  1.00  0.00    -0.337 OA
BRANCH   7   8
ATOM      8  C   UNL     1      41.971  -6.308  -0.199  1.00  0.00     0.282 C 
ATOM      9  C   UNL     1      42.025  -9.967  -0.022  1.00  0.00     0.041 C 
ATOM     10  C   UNL     1      41.817  -8.527   0.443  1.00  0.00     0.150 C 
ATOM     11  C   UNL     1      40.489  -8.387   1.236  1.00  0.00     0.174 C 
ATOM     12  O   UNL     1      41.830  -7.642  -0.671  1.00  0.00    -0.344 OA
ATOM     13  C   UNL     1      39.806  -7.032   0.945  1.00  0.00     0.179 C 
ATOM     14  C   UNL     1      40.838  -5.900   0.796  1.00  0.00     0.202 C 
BRANCH  11  15
ATOM     15  O   UNL     1      40.742  -8.512   2.614  1.00  0.00    -0.388 OA
ATOM     16  H   UNL     1      41.462  -7.863   2.838  1.00  0.00     0.211 HD
ENDBRANCH  11  15
BRANCH  13  17
ATOM     17  O   UNL     1      38.885  -6.714   1.958  1.00  0.00    -0.387 OA
ATOM     18  H   UNL     1      38.877  -5.723   2.050  1.00  0.00     0.211 HD
ENDBRANCH  13  17
BRANCH  14  19
ATOM     19  O   UNL     1      41.391  -5.604   2.054  1.00  0.00    -0.385 OA
ATOM     20  H   UNL     1      40.679  -5.767   2.731  1.00  0.00     0.211 HD
ENDBRANCH  14  19
ENDBRANCH   7   8
ENDBRANCH   1   7
BRANCH   2  21
ATOM     21  O   UNL     1      39.339  -3.816  -2.535  1.00  0.00    -0.387 OA
ATOM     22  H   UNL     1      39.162  -2.846  -2.438  1.00  0.00     0.211 HD
ENDBRANCH   2  21
BRANCH   6  23
ATOM     23  O   UNL     1      40.403  -7.160  -3.853  1.00  0.00    -0.462 OA
BRANCH  23  24
ATOM     24  C   UNL     1      39.927  -7.269  -5.173  1.00  0.00     0.130 A 
ATOM     25  C   UNL     1      40.767  -7.614  -6.247  1.00  0.00     0.093 A 
ATOM     26  C   UNL     1      38.566  -7.059  -5.408  1.00  0.00     0.094 A 
ATOM     27  C   UNL     1      40.245  -7.769  -7.539  1.00  0.00     0.133 A 
ATOM     28  C   UNL     1      38.027  -7.251  -6.681  1.00  0.00     0.138 A 
ATOM     29  C   UNL     1      38.863  -7.601  -7.757  1.00  0.00     0.102 A 
ATOM     30  O   UNL     1      36.644  -7.110  -6.864  1.00  0.00    -0.484 OA
ATOM     31  C   UNL     1      38.235  -7.826  -9.075  1.00  0.00     0.174 C 
ATOM     32  C   UNL     1      35.992  -7.163  -8.141  1.00  0.00     0.211 C 
ATOM     33  O   UNL     1      38.928  -7.891 -10.125  1.00  0.00    -0.294 OA
ATOM     34  C   UNL     1      36.754  -8.045  -9.151  1.00  0.00     0.131 C 
BRANCH  27  35
ATOM     35  O   UNL     1      41.097  -8.106  -8.587  1.00  0.00    -0.507 OA
ATOM     36  H   UNL     1      40.752  -8.258  -9.529  1.00  0.00     0.293 HD
ENDBRANCH  27  35
BRANCH  32  37
ATOM     37  C   UNL     1      35.750  -5.768  -8.684  1.00  0.00    -0.007 A 
ATOM     38  C   UNL     1      36.509  -4.690  -8.189  1.00  0.00     0.011 A 
ATOM     39  C   UNL     1      34.754  -5.515  -9.648  1.00  0.00     0.011 A 
ATOM     40  C   UNL     1      36.301  -3.393  -8.666  1.00  0.00     0.046 A 
ATOM     41  C   UNL     1      34.548  -4.216 -10.124  1.00  0.00     0.046 A 
ATOM     42  C   UNL     1      35.317  -3.152  -9.636  1.00  0.00     0.115 A 
BRANCH  42  43
ATOM     43  O   UNL     1      35.091  -1.864 -10.110  1.00  0.00    -0.508 OA
ATOM     44  H   UNL     1      35.702  -1.433 -10.796  1.00  0.00     0.293 HD
ENDBRANCH  42  43
ENDBRANCH  32  37
ENDBRANCH  23  24
ENDBRANCH   6  23
BRANCH   3  45
ATOM     45  O   UNL     1      42.123  -2.760  -4.388  1.00  0.00    -0.387 OA
ATOM     46  H   UNL     1      42.017  -2.235  -5.223  1.00  0.00     0.211 HD
ENDBRANCH   3  45
BRANCH   4  47
ATOM     47  C   UNL     1      41.686  -4.498  -6.589  1.00  0.00     0.191 C 
BRANCH  47  48
ATOM     48  O   UNL     1      40.652  -4.622  -7.526  1.00  0.00    -0.394 OA
ATOM     49  H   UNL     1      40.533  -5.589  -7.698  1.00  0.00     0.210 HD
ENDBRANCH  47  48
ENDBRANCH   4  47
TORSDOF 14
ENDMDL
MODEL 4
REMARK VINA RESULT:     1.887     16.937     19.724
REMARK INTER + INTRA:           1.425
REMARK INTER:                   1.806
REMARK INTRA:                  -0.381
REMARK UNBOUND:                -1.566
REMARK SMILES C[C@H]1O[C@@H](O[C@@H]2[C@@H](Oc3cc(O)c4c(c3)O[C@@H](c3ccc(O)cc3)CC4=O)O[C@H](CO)[C@H](O)[C@H]2O)[C@H](O)[C@H](O)[C@@H]1O
REMARK SMILES IDX 6 1 34 2 32 3 29 4 28 5 7 6 5 7 4 8 1 9 2 10 40 11 3 12
REMARK SMILES IDX 38 13 36 14 41 15 39 17 37 19 35 21 8 23 9 24 10 25 15 26
REMARK SMILES IDX 11 27 14 28 13 29 16 30 26 31 17 32 27 33 25 34 12 35 18 37
REMARK SMILES IDX 19 38 24 39 20 40 23 41 21 42 22 43 33 45 30 47 31 48
REMARK H PARENT 41 16 39 18 37 20 35 22 12 36 22 44 33 46 31 49
REMARK Flexibility Score: inf
ROOT
ATOM      1  C   UNL     1      40.410  -7.941  -1.360  1.00  0.00     0.221 C 
ATOM      2  C   UNL     1      41.406  -8.698  -0.421  1.00  0.00     0.181 C 
ATOM      3  C   UNL     1      40.781  -9.365   0.844  1.00  0.00     0.177 C 
ATOM      4  C   UNL     1      39.277  -9.647   0.679  1.00  0.00     0.179 C 
ATOM      5  O   UNL     1      38.601  -8.494   0.211  1.00  0.00    -0.332 OA
ATOM      6  C   UNL     1      38.897  -8.248  -1.150  1.00  0.00     0.339 C 
ENDROOT
BRANCH   1   7
ATOM      7  O   UNL     1      40.724  -6.563  -1.544  1.00  0.00    -0.337 OA
BRANCH   7   8
ATOM      8  C   UNL     1      41.316  -6.155  -2.774  1.00  0.00     0.282 C 
ATOM      9  C   UNL     1      42.100  -2.948  -4.363  1.00  0.00     0.041 C 
ATOM     10  C   UNL     1      41.910  -4.458  -4.232  1.00  0.00     0.150 C 
ATOM     11  C   UNL     1      41.180  -5.034  -5.476  1.00  0.00     0.174 C 
ATOM     12  O   UNL     1      41.191  -4.765  -3.044  1.00  0.00    -0.344 OA
ATOM     13  C   UNL     1      40.217  -6.175  -5.078  1.00  0.00     0.179 C 
ATOM     14  C   UNL     1      40.806  -7.044  -3.952  1.00  0.00     0.202 C 
BRANCH  11  15
ATOM     15  O   UNL     1      42.123  -5.502  -6.408  1.00  0.00    -0.388 OA
ATOM     16  H   UNL     1      42.364  -4.732  -6.991  1.00  0.00     0.211 HD
ENDBRANCH  11  15
BRANCH  13  17
ATOM     17  O   UNL     1      39.910  -6.974  -6.194  1.00  0.00    -0.387 OA
ATOM     18  H   UNL     1      40.542  -6.721  -6.920  1.00  0.00     0.211 HD
ENDBRANCH  13  17
BRANCH  14  19
ATOM     19  O   UNL     1      41.865  -7.814  -4.463  1.00  0.00    -0.385 OA
ATOM     20  H   UNL     1      41.861  -8.680  -3.970  1.00  0.00     0.211 HD
ENDBRANCH  14  19
ENDBRANCH   7   8
ENDBRANCH   1   7
BRANCH   2  21
ATOM     21  O   UNL     1      42.125  -9.653  -1.161  1.00  0.00    -0.387 OA
ATOM     22  H   UNL     1      42.379  -9.229  -2.019  1.00  0.00     0.211 HD
ENDBRANCH   2  21
BRANCH   6  23
ATOM     23  O   UNL     1      38.473  -9.362  -1.959  1.00  0.00    -0.462 OA
BRANCH  23  24
ATOM     24  C   UNL     1      38.510  -9.397  -3.365  1.00  0.00     0.130 A 
ATOM     25  C   UNL     1      39.678  -9.723  -4.078  1.00  0.00     0.093 A 
ATOM     26  C   UNL     1      37.331  -9.132  -4.067  1.00  0.00     0.094 A 
ATOM     27  C   UNL     1      39.659  -9.805  -5.477  1.00  0.00     0.133 A 
ATOM     28  C   UNL     1      37.289  -9.250  -5.458  1.00  0.00     0.138 A 
ATOM     29  C   UNL     1      38.454  -9.581  -6.173  1.00  0.00     0.102 A 
ATOM     30  O   UNL     1      36.071  -9.054  -6.123  1.00  0.00    -0.484 OA
ATOM     31  C   UNL     1      38.346  -9.727  -7.639  1.00  0.00     0.174 C 
ATOM     32  C   UNL     1      35.928  -9.031  -7.549  1.00  0.00     0.211 C 
ATOM     33  O   UNL     1      39.374  -9.770  -8.368  1.00  0.00    -0.294 OA
ATOM     34  C   UNL     1      36.992  -9.892  -8.259  1.00  0.00     0.131 C 
BRANCH  27  35
ATOM     35  O   UNL     1      40.830 -10.125  -6.161  1.00  0.00    -0.507 OA
ATOM     36  H   UNL     1      41.718  -9.695  -5.928  1.00  0.00     0.293 HD
ENDBRANCH  27  35
BRANCH  32  37
ATOM     37  C   UNL     1      35.922  -7.605  -8.069  1.00  0.00    -0.007 A 
ATOM     38  C   UNL     1      35.443  -7.344  -9.368  1.00  0.00     0.011 A 
ATOM     39  C   UNL     1      36.420  -6.537  -7.298  1.00  0.00     0.011 A 
ATOM     40  C   UNL     1      35.434  -6.042  -9.875  1.00  0.00     0.046 A 
ATOM     41  C   UNL     1      36.409  -5.234  -7.808  1.00  0.00     0.046 A 
ATOM     42  C   UNL     1      35.918  -4.982  -9.094  1.00  0.00     0.115 A 
BRANCH  42  43
ATOM     43  O   UNL     1      35.926  -3.682  -9.593  1.00  0.00    -0.508 OA
ATOM     44  H   UNL     1      35.889  -3.494 -10.589  1.00  0.00     0.293 HD
ENDBRANCH  42  43
ENDBRANCH  32  37
ENDBRANCH  23  24
ENDBRANCH   6  23
BRANCH   3  45
ATOM     45  O   UNL     1      41.009  -8.577   1.985  1.00  0.00    -0.387 OA
ATOM     46  H   UNL     1      41.990  -8.557   2.131  1.00  0.00     0.211 HD
ENDBRANCH   3  45
BRANCH   4  47
ATOM     47  C   UNL     1      38.625 -10.118   1.993  1.00  0.00     0.191 C 
BRANCH  47  48
ATOM     48  O   UNL     1      38.702  -9.127   2.982  1.00  0.00    -0.394 OA
ATOM     49  H   UNL     1      37.790  -8.758   3.091  1.00  0.00     0.210 HD
ENDBRANCH  47  48
ENDBRANCH   4  47
TORSDOF 14
ENDMDL
