MODEL 1
REMARK VINA RESULT:    -3.704      0.000      0.000
REMARK INTER + INTRA:          -5.210
REMARK INTER:                  -5.003
REMARK INTRA:                  -0.207
REMARK UNBOUND:                -0.207
REMARK SMILES CCCCCCC=CC(=O)[O-]
REMARK SMILES IDX 5 1 6 2 7 3 8 4 9 5 10 6 11 7 4 8 3 9 2 10 1 11
REMARK H PARENT
REMARK Flexibility Score: inf
ROOT
ATOM      1  C   UNL     1      57.426  28.145  50.113  1.00  0.00     0.004 C 
ENDROOT
BRANCH   1   2
ATOM      2  C   UNL     1      56.046  28.765  50.365  1.00  0.00     0.027 C 
BRANCH   2   3
ATOM      3  C   UNL     1      54.948  27.870  49.866  1.00  0.00    -0.025 C 
ATOM      4  C   UNL     1      55.168  26.580  49.593  1.00  0.00     0.020 C 
BRANCH   4   5
ATOM      5  C   UNL     1      54.105  25.697  49.090  1.00  0.00     0.064 C 
ATOM      6  O   UNL     1      54.103  24.481  49.417  1.00  0.00    -0.545 OA
ATOM      7  O   UNL     1      53.102  26.182  48.260  1.00  0.00    -0.545 OA
ENDBRANCH   4   5
ENDBRANCH   2   3
ENDBRANCH   1   2
BRANCH   1   8
ATOM      8  C   UNL     1      58.520  29.220  50.114  1.00  0.00     0.000 C 
BRANCH   8   9
ATOM      9  C   UNL     1      59.510  28.996  48.962  1.00  0.00    -0.000 C 
BRANCH   9  10
ATOM     10  C   UNL     1      60.753  28.203  49.397  1.00  0.00    -0.003 C 
ATOM     11  C   UNL     1      60.537  26.690  49.347  1.00  0.00     0.004 C 
ENDBRANCH   9  10
ENDBRANCH   8   9
ENDBRANCH   1   8
TORSDOF 6
ENDMDL
MODEL 2
REMARK VINA RESULT:    -3.655     13.243     14.408
REMARK INTER + INTRA:          -5.144
REMARK INTER:                  -4.738
REMARK INTRA:                  -0.406
REMARK UNBOUND:                -0.207
REMARK SMILES CCCCCCC=CC(=O)[O-]
REMARK SMILES IDX 5 1 6 2 7 3 8 4 9 5 10 6 11 7 4 8 3 9 2 10 1 11
REMARK H PARENT
REMARK Flexibility Score: inf
ROOT
ATOM      1  C   UNL     1      62.496  34.673  59.536  1.00  0.00     0.004 C 
ENDROOT
BRANCH   1   2
ATOM      2  C   UNL     1      61.646  33.447  59.890  1.00  0.00     0.027 C 
BRANCH   2   3
ATOM      3  C   UNL     1      62.508  32.280  60.277  1.00  0.00    -0.025 C 
ATOM      4  C   UNL     1      61.979  31.148  60.753  1.00  0.00     0.020 C 
BRANCH   4   5
ATOM      5  C   UNL     1      62.813  30.003  61.149  1.00  0.00     0.064 C 
ATOM      6  O   UNL     1      64.057  30.154  61.271  1.00  0.00    -0.545 OA
ATOM      7  O   UNL     1      62.250  28.756  61.390  1.00  0.00    -0.545 OA
ENDBRANCH   4   5
ENDBRANCH   2   3
ENDBRANCH   1   2
BRANCH   1   8
ATOM      8  C   UNL     1      62.182  35.849  60.469  1.00  0.00     0.000 C 
BRANCH   8   9
ATOM      9  C   UNL     1      63.468  36.418  61.087  1.00  0.00    -0.000 C 
BRANCH   9  10
ATOM     10  C   UNL     1      64.544  35.343  61.304  1.00  0.00    -0.003 C 
ATOM     11  C   UNL     1      65.917  35.765  60.779  1.00  0.00     0.004 C 
ENDBRANCH   9  10
ENDBRANCH   8   9
ENDBRANCH   1   8
TORSDOF 6
ENDMDL
MODEL 3
REMARK VINA RESULT:    -3.650      3.243      5.375
REMARK INTER + INTRA:          -5.137
REMARK INTER:                  -4.764
REMARK INTRA:                  -0.373
REMARK UNBOUND:                -0.207
REMARK SMILES CCCCCCC=CC(=O)[O-]
REMARK SMILES IDX 5 1 6 2 7 3 8 4 9 5 10 6 11 7 4 8 3 9 2 10 1 11
REMARK H PARENT
REMARK Flexibility Score: inf
ROOT
ATOM      1  C   UNL     1      56.284  27.945  50.527  1.00  0.00     0.004 C 
ENDROOT
BRANCH   1   2
ATOM      2  C   UNL     1      57.324  29.072  50.491  1.00  0.00     0.027 C 
BRANCH   2   3
ATOM      3  C   UNL     1      58.595  28.619  49.833  1.00  0.00    -0.025 C 
ATOM      4  C   UNL     1      59.118  27.413  50.079  1.00  0.00     0.020 C 
BRANCH   4   5
ATOM      5  C   UNL     1      60.370  26.962  49.452  1.00  0.00     0.064 C 
ATOM      6  O   UNL     1      60.617  25.730  49.376  1.00  0.00    -0.545 OA
ATOM      7  O   UNL     1      61.285  27.875  48.940  1.00  0.00    -0.545 OA
ENDBRANCH   4   5
ENDBRANCH   2   3
ENDBRANCH   1   2
BRANCH   1   8
ATOM      8  C   UNL     1      54.896  28.464  50.133  1.00  0.00     0.000 C 
BRANCH   8   9
ATOM      9  C   UNL     1      54.102  27.389  49.377  1.00  0.00    -0.000 C 
BRANCH   9  10
ATOM     10  C   UNL     1      54.918  26.108  49.144  1.00  0.00    -0.003 C 
ATOM     11  C   UNL     1      54.118  24.836  49.430  1.00  0.00     0.004 C 
ENDBRANCH   9  10
ENDBRANCH   8   9
ENDBRANCH   1   8
TORSDOF 6
ENDMDL
MODEL 4
REMARK VINA RESULT:    -3.609      1.010      1.710
REMARK INTER + INTRA:          -5.082
REMARK INTER:                  -4.733
REMARK INTRA:                  -0.349
REMARK UNBOUND:                -0.207
REMARK SMILES CCCCCCC=CC(=O)[O-]
REMARK SMILES IDX 5 1 6 2 7 3 8 4 9 5 10 6 11 7 4 8 3 9 2 10 1 11
REMARK H PARENT
REMARK Flexibility Score: inf
ROOT
ATOM      1  C   UNL     1      58.499  29.268  50.030  1.00  0.00     0.004 C 
ENDROOT
BRANCH   1   2
ATOM      2  C   UNL     1      58.061  27.849  50.414  1.00  0.00     0.027 C 
BRANCH   2   3
ATOM      3  C   UNL     1      56.621  27.610  50.062  1.00  0.00    -0.025 C 
ATOM      4  C   UNL     1      56.180  26.398  49.709  1.00  0.00     0.020 C 
BRANCH   4   5
ATOM      5  C   UNL     1      54.775  26.153  49.349  1.00  0.00     0.064 C 
ATOM      6  O   UNL     1      53.996  27.130  49.187  1.00  0.00    -0.545 OA
ATOM      7  O   UNL     1      54.292  24.861  49.184  1.00  0.00    -0.545 OA
ENDBRANCH   4   5
ENDBRANCH   2   3
ENDBRANCH   1   2
BRANCH   1   8
ATOM      8  C   UNL     1      59.701  29.234  49.079  1.00  0.00     0.000 C 
BRANCH   8   9
ATOM      9  C   UNL     1      60.305  27.824  49.009  1.00  0.00    -0.000 C 
BRANCH   9  10
ATOM     10  C   UNL     1      61.798  27.802  49.376  1.00  0.00    -0.003 C 
ATOM     11  C   UNL     1      62.270  26.428  49.852  1.00  0.00     0.004 C 
ENDBRANCH   9  10
ENDBRANCH   8   9
ENDBRANCH   1   8
TORSDOF 6
ENDMDL
MODEL 5
REMARK VINA RESULT:    -3.608      3.451      5.606
REMARK INTER + INTRA:          -5.080
REMARK INTER:                  -4.729
REMARK INTRA:                  -0.351
REMARK UNBOUND:                -0.207
REMARK SMILES CCCCCCC=CC(=O)[O-]
REMARK SMILES IDX 5 1 6 2 7 3 8 4 9 5 10 6 11 7 4 8 3 9 2 10 1 11
REMARK H PARENT
REMARK Flexibility Score: inf
ROOT
ATOM      1  C   UNL     1      58.555  29.157  50.567  1.00  0.00     0.004 C 
ENDROOT
BRANCH   1   2
ATOM      2  C   UNL     1      59.218  29.255  49.187  1.00  0.00     0.027 C 
BRANCH   2   3
ATOM      3  C   UNL     1      60.281  28.208  49.018  1.00  0.00    -0.025 C 
ATOM      4  C   UNL     1      60.365  27.159  49.842  1.00  0.00     0.020 C 
BRANCH   4   5
ATOM      5  C   UNL     1      61.411  26.134  49.696  1.00  0.00     0.064 C 
ATOM      6  O   UNL     1      62.610  26.488  49.546  1.00  0.00    -0.545 OA
ATOM      7  O   UNL     1      61.096  24.781  49.722  1.00  0.00    -0.545 OA
ENDBRANCH   4   5
ENDBRANCH   2   3
ENDBRANCH   1   2
BRANCH   1   8
ATOM      8  C   UNL     1      57.042  28.942  50.437  1.00  0.00     0.000 C 
BRANCH   8   9
ATOM      9  C   UNL     1      56.722  27.476  50.111  1.00  0.00    -0.000 C 
BRANCH   9  10
ATOM     10  C   UNL     1      55.253  27.267  49.712  1.00  0.00    -0.003 C 
ATOM     11  C   UNL     1      54.991  25.882  49.119  1.00  0.00     0.004 C 
ENDBRANCH   9  10
ENDBRANCH   8   9
ENDBRANCH   1   8
TORSDOF 6
ENDMDL
MODEL 6
REMARK VINA RESULT:    -3.601     13.250     14.026
REMARK INTER + INTRA:          -5.071
REMARK INTER:                  -4.602
REMARK INTRA:                  -0.469
REMARK UNBOUND:                -0.207
REMARK SMILES CCCCCCC=CC(=O)[O-]
REMARK SMILES IDX 5 1 6 2 7 3 8 4 9 5 10 6 11 7 4 8 3 9 2 10 1 11
REMARK H PARENT
REMARK Flexibility Score: inf
ROOT
ATOM      1  C   UNL     1      61.079  31.630  60.637  1.00  0.00     0.004 C 
ENDROOT
BRANCH   1   2
ATOM      2  C   UNL     1      61.724  30.504  61.455  1.00  0.00     0.027 C 
BRANCH   2   3
ATOM      3  C   UNL     1      63.130  30.238  61.000  1.00  0.00    -0.025 C 
ATOM      4  C   UNL     1      63.614  28.995  60.918  1.00  0.00     0.020 C 
BRANCH   4   5
ATOM      5  C   UNL     1      64.994  28.721  60.487  1.00  0.00     0.064 C 
ATOM      6  O   UNL     1      65.377  27.530  60.350  1.00  0.00    -0.545 OA
ATOM      7  O   UNL     1      65.883  29.758  60.228  1.00  0.00    -0.545 OA
ENDBRANCH   4   5
ENDBRANCH   2   3
ENDBRANCH   1   2
BRANCH   1   8
ATOM      8  C   UNL     1      62.141  32.444  59.888  1.00  0.00     0.000 C 
BRANCH   8   9
ATOM      9  C   UNL     1      61.856  33.950  59.997  1.00  0.00    -0.000 C 
BRANCH   9  10
ATOM     10  C   UNL     1      63.090  34.754  60.434  1.00  0.00    -0.003 C 
ATOM     11  C   UNL     1      64.323  33.875  60.651  1.00  0.00     0.004 C 
ENDBRANCH   9  10
ENDBRANCH   8   9
ENDBRANCH   1   8
TORSDOF 6
ENDMDL
MODEL 7
REMARK VINA RESULT:    -3.599     13.673     14.815
REMARK INTER + INTRA:          -5.068
REMARK INTER:                  -4.583
REMARK INTRA:                  -0.484
REMARK UNBOUND:                -0.207
REMARK SMILES CCCCCCC=CC(=O)[O-]
REMARK SMILES IDX 5 1 6 2 7 3 8 4 9 5 10 6 11 7 4 8 3 9 2 10 1 11
REMARK H PARENT
REMARK Flexibility Score: inf
ROOT
ATOM      1  C   UNL     1      61.952  31.918  59.870  1.00  0.00     0.004 C 
ENDROOT
BRANCH   1   2
ATOM      2  C   UNL     1      61.450  33.366  59.933  1.00  0.00     0.027 C 
BRANCH   2   3
ATOM      3  C   UNL     1      62.594  34.337  59.994  1.00  0.00    -0.025 C 
ATOM      4  C   UNL     1      63.761  34.006  60.555  1.00  0.00     0.020 C 
BRANCH   4   5
ATOM      5  C   UNL     1      64.885  34.951  60.634  1.00  0.00     0.064 C 
ATOM      6  O   UNL     1      65.239  35.403  61.755  1.00  0.00    -0.545 OA
ATOM      7  O   UNL     1      65.564  35.355  59.490  1.00  0.00    -0.545 OA
ENDBRANCH   4   5
ENDBRANCH   2   3
ENDBRANCH   1   2
BRANCH   1   8
ATOM      8  C   UNL     1      61.361  31.081  61.010  1.00  0.00     0.000 C 
BRANCH   8   9
ATOM      9  C   UNL     1      62.328  29.964  61.430  1.00  0.00    -0.000 C 
BRANCH   9  10
ATOM     10  C   UNL     1      63.792  30.295  61.095  1.00  0.00    -0.003 C 
ATOM     11  C   UNL     1      64.582  29.074  60.623  1.00  0.00     0.004 C 
ENDBRANCH   9  10
ENDBRANCH   8   9
ENDBRANCH   1   8
TORSDOF 6
ENDMDL
MODEL 8
REMARK VINA RESULT:    -3.439     13.186     14.453
REMARK INTER + INTRA:          -4.852
REMARK INTER:                  -4.416
REMARK INTRA:                  -0.436
REMARK UNBOUND:                -0.207
REMARK SMILES CCCCCCC=CC(=O)[O-]
REMARK SMILES IDX 5 1 6 2 7 3 8 4 9 5 10 6 11 7 4 8 3 9 2 10 1 11
REMARK H PARENT
REMARK Flexibility Score: inf
ROOT
ATOM      1  C   UNL     1      63.655  32.377  60.084  1.00  0.00     0.004 C 
ENDROOT
BRANCH   1   2
ATOM      2  C   UNL     1      64.356  33.633  60.616  1.00  0.00     0.027 C 
BRANCH   2   3
ATOM      3  C   UNL     1      63.465  34.838  60.515  1.00  0.00    -0.025 C 
ATOM      4  C   UNL     1      62.171  34.724  60.203  1.00  0.00     0.020 C 
BRANCH   4   5
ATOM      5  C   UNL     1      61.290  35.897  60.087  1.00  0.00     0.064 C 
ATOM      6  O   UNL     1      61.625  36.981  60.634  1.00  0.00    -0.545 OA
ATOM      7  O   UNL     1      60.093  35.828  59.385  1.00  0.00    -0.545 OA
ENDBRANCH   4   5
ENDBRANCH   2   3
ENDBRANCH   1   2
BRANCH   1   8
ATOM      8  C   UNL     1      64.362  31.105  60.570  1.00  0.00     0.000 C 
BRANCH   8   9
ATOM      9  C   UNL     1      63.349  30.089  61.117  1.00  0.00    -0.000 C 
BRANCH   9  10
ATOM     10  C   UNL     1      61.967  30.712  61.373  1.00  0.00    -0.003 C 
ATOM     11  C   UNL     1      60.843  29.979  60.642  1.00  0.00     0.004 C 
ENDBRANCH   9  10
ENDBRANCH   8   9
ENDBRANCH   1   8
TORSDOF 6
ENDMDL
MODEL 9
REMARK VINA RESULT:    -3.407     12.857     14.228
REMARK INTER + INTRA:          -4.810
REMARK INTER:                  -4.283
REMARK INTRA:                  -0.527
REMARK UNBOUND:                -0.207
REMARK SMILES CCCCCCC=CC(=O)[O-]
REMARK SMILES IDX 5 1 6 2 7 3 8 4 9 5 10 6 11 7 4 8 3 9 2 10 1 11
REMARK H PARENT
REMARK Flexibility Score: inf
ROOT
ATOM      1  C   UNL     1      64.464  34.361  60.989  1.00  0.00     0.004 C 
ENDROOT
BRANCH   1   2
ATOM      2  C   UNL     1      64.557  33.314  59.871  1.00  0.00     0.027 C 
BRANCH   2   3
ATOM      3  C   UNL     1      63.514  32.248  60.036  1.00  0.00    -0.025 C 
ATOM      4  C   UNL     1      62.231  32.553  60.258  1.00  0.00     0.020 C 
BRANCH   4   5
ATOM      5  C   UNL     1      61.202  31.518  60.435  1.00  0.00     0.064 C 
ATOM      6  O   UNL     1      60.488  31.179  59.455  1.00  0.00    -0.545 OA
ATOM      7  O   UNL     1      61.004  30.907  61.667  1.00  0.00    -0.545 OA
ENDBRANCH   4   5
ENDBRANCH   2   3
ENDBRANCH   1   2
BRANCH   1   8
ATOM      8  C   UNL     1      64.289  35.770  60.410  1.00  0.00     0.000 C 
BRANCH   8   9
ATOM      9  C   UNL     1      63.053  36.458  61.007  1.00  0.00    -0.000 C 
BRANCH   9  10
ATOM     10  C   UNL     1      61.991  36.790  59.946  1.00  0.00    -0.003 C 
ATOM     11  C   UNL     1      60.820  35.807  59.953  1.00  0.00     0.004 C 
ENDBRANCH   9  10
ENDBRANCH   8   9
ENDBRANCH   1   8
TORSDOF 6
ENDMDL
