MODEL 1
REMARK VINA RESULT:    -2.812      0.000      0.000
REMARK INTER + INTRA:          -2.812
REMARK INTER:                  -2.812
REMARK INTRA:                   0.000
REMARK UNBOUND:                 0.000
REMARK SMILES c1cc[nH]c1
REMARK SMILES IDX 1 1 5 2 4 3 3 4 2 5
REMARK H PARENT 4 6
REMARK Flexibility Score: inf
ROOT
ATOM      1  C   UNL     1       3.875  26.364  15.820  1.00  0.00     0.019 A 
ATOM      2  C   UNL     1       3.876  27.447  14.963  1.00  0.00     0.082 A 
ATOM      3  N   UNL     1       5.011  27.461  14.243  1.00  0.00    -0.368 N 
ATOM      4  C   UNL     1       5.740  26.398  14.631  1.00  0.00     0.082 A 
ATOM      5  C   UNL     1       5.064  25.696  15.608  1.00  0.00     0.019 A 
ATOM      6  H   UNL     1       5.278  28.164  13.519  1.00  0.00     0.165 HD
ENDROOT
TORSDOF 0
ENDMDL
MODEL 2
REMARK VINA RESULT:    -2.733     19.942     20.002
REMARK INTER + INTRA:          -2.733
REMARK INTER:                  -2.733
REMARK INTRA:                   0.000
REMARK UNBOUND:                 0.000
REMARK SMILES c1cc[nH]c1
REMARK SMILES IDX 1 1 5 2 4 3 3 4 2 5
REMARK H PARENT 4 6
REMARK Flexibility Score: inf
ROOT
ATOM      1  C   UNL     1      24.124  23.958  19.052  1.00  0.00     0.019 A 
ATOM      2  C   UNL     1      24.118  23.109  17.963  1.00  0.00     0.082 A 
ATOM      3  N   UNL     1      23.750  21.874  18.346  1.00  0.00    -0.368 N 
ATOM      4  C   UNL     1      23.522  21.921  19.671  1.00  0.00     0.082 A 
ATOM      5  C   UNL     1      23.744  23.199  20.142  1.00  0.00     0.019 A 
ATOM      6  H   UNL     1      23.660  21.034  17.731  1.00  0.00     0.165 HD
ENDROOT
TORSDOF 0
ENDMDL
MODEL 3
REMARK VINA RESULT:    -2.582      1.172      2.216
REMARK INTER + INTRA:          -2.582
REMARK INTER:                  -2.582
REMARK INTRA:                   0.000
REMARK UNBOUND:                 0.000
REMARK SMILES c1cc[nH]c1
REMARK SMILES IDX 1 1 5 2 4 3 3 4 2 5
REMARK H PARENT 4 6
REMARK Flexibility Score: inf
ROOT
ATOM      1  C   UNL     1       5.777  26.390  14.666  1.00  0.00     0.019 A 
ATOM      2  C   UNL     1       5.029  25.680  15.583  1.00  0.00     0.082 A 
ATOM      3  N   UNL     1       3.877  26.326  15.833  1.00  0.00    -0.368 N 
ATOM      4  C   UNL     1       3.879  27.445  15.087  1.00  0.00     0.082 A 
ATOM      5  C   UNL     1       5.044  27.516  14.350  1.00  0.00     0.019 A 
ATOM      6  H   UNL     1       3.121  26.017  16.485  1.00  0.00     0.165 HD
ENDROOT
TORSDOF 0
ENDMDL
MODEL 4
REMARK VINA RESULT:    -2.284     19.905     20.024
REMARK INTER + INTRA:          -2.284
REMARK INTER:                  -2.284
REMARK INTRA:                   0.000
REMARK UNBOUND:                 0.000
REMARK SMILES c1cc[nH]c1
REMARK SMILES IDX 1 1 5 2 4 3 3 4 2 5
REMARK H PARENT 4 6
REMARK Flexibility Score: inf
ROOT
ATOM      1  C   UNL     1      24.091  23.379  18.334  1.00  0.00     0.019 A 
ATOM      2  C   UNL     1      24.125  23.958  19.587  1.00  0.00     0.082 A 
ATOM      3  N   UNL     1      23.733  23.067  20.514  1.00  0.00    -0.368 N 
ATOM      4  C   UNL     1      23.446  21.922  19.868  1.00  0.00     0.082 A 
ATOM      5  C   UNL     1      23.658  22.080  18.514  1.00  0.00     0.019 A 
ATOM      6  H   UNL     1      23.663  23.232  21.543  1.00  0.00     0.165 HD
ENDROOT
TORSDOF 0
ENDMDL
MODEL 5
REMARK VINA RESULT:    -2.034      1.746      2.387
REMARK INTER + INTRA:          -2.034
REMARK INTER:                  -2.034
REMARK INTRA:                   0.000
REMARK UNBOUND:                 0.000
REMARK SMILES c1cc[nH]c1
REMARK SMILES IDX 1 1 5 2 4 3 3 4 2 5
REMARK H PARENT 4 6
REMARK Flexibility Score: inf
ROOT
ATOM      1  C   UNL     1       4.718  27.462  14.885  1.00  0.00     0.019 A 
ATOM      2  C   UNL     1       3.879  27.433  13.788  1.00  0.00     0.082 A 
ATOM      3  N   UNL     1       3.880  28.631  13.178  1.00  0.00    -0.368 N 
ATOM      4  C   UNL     1       4.711  29.429  13.872  1.00  0.00     0.082 A 
ATOM      5  C   UNL     1       5.248  28.736  14.938  1.00  0.00     0.019 A 
ATOM      6  H   UNL     1       3.338  28.893  12.325  1.00  0.00     0.165 HD
ENDROOT
TORSDOF 0
ENDMDL
MODEL 6
REMARK VINA RESULT:    -1.975      1.854      2.843
REMARK INTER + INTRA:          -1.975
REMARK INTER:                  -1.975
REMARK INTRA:                   0.000
REMARK UNBOUND:                 0.000
REMARK SMILES c1cc[nH]c1
REMARK SMILES IDX 1 1 5 2 4 3 3 4 2 5
REMARK H PARENT 4 6
REMARK Flexibility Score: inf
ROOT
ATOM      1  C   UNL     1       5.024  28.971  14.852  1.00  0.00     0.019 A 
ATOM      2  C   UNL     1       4.571  27.667  14.872  1.00  0.00     0.082 A 
ATOM      3  N   UNL     1       3.875  27.406  13.752  1.00  0.00    -0.368 N 
ATOM      4  C   UNL     1       3.875  28.531  13.014  1.00  0.00     0.082 A 
ATOM      5  C   UNL     1       4.580  29.522  13.666  1.00  0.00     0.019 A 
ATOM      6  H   UNL     1       3.418  26.500  13.501  1.00  0.00     0.165 HD
ENDROOT
TORSDOF 0
ENDMDL
MODEL 7
REMARK VINA RESULT:    -1.587      0.877      1.814
REMARK INTER + INTRA:          -1.587
REMARK INTER:                  -1.587
REMARK INTRA:                   0.000
REMARK UNBOUND:                 0.000
REMARK SMILES c1cc[nH]c1
REMARK SMILES IDX 1 1 5 2 4 3 3 4 2 5
REMARK H PARENT 4 6
REMARK Flexibility Score: inf
ROOT
ATOM      1  C   UNL     1       4.825  25.251  14.626  1.00  0.00     0.019 A 
ATOM      2  C   UNL     1       6.024  25.931  14.538  1.00  0.00     0.082 A 
ATOM      3  N   UNL     1       5.846  27.219  14.879  1.00  0.00    -0.368 N 
ATOM      4  C   UNL     1       4.545  27.373  15.183  1.00  0.00     0.082 A 
ATOM      5  C   UNL     1       3.882  26.172  15.037  1.00  0.00     0.019 A 
ATOM      6  H   UNL     1       6.581  27.961  14.903  1.00  0.00     0.165 HD
ENDROOT
TORSDOF 0
ENDMDL
