MODEL 1
REMARK VINA RESULT:    -4.115      0.000      0.000
REMARK INTER + INTRA:          -6.943
REMARK INTER:                  -6.280
REMARK INTRA:                  -0.662
REMARK UNBOUND:                -0.662
REMARK SMILES O=C([O-])CCCCCCCCC(=O)[O-]
REMARK SMILES IDX 7 1 6 2 5 3 4 4 2 5 1 6 3 7 8 8 9 9 10 10 11 11 12 12 13 13
REMARK SMILES IDX 14 14
REMARK H PARENT
REMARK Flexibility Score: inf
ROOT
ATOM      1  C   UNL     1     163.495 162.337 182.627  1.00  0.00     0.000 C 
ENDROOT
BRANCH   1   2
ATOM      2  C   UNL     1     163.668 160.842 182.935  1.00  0.00     0.000 C 
BRANCH   2   3
ATOM      3  C   UNL     1     165.150 160.439 182.884  1.00  0.00     0.006 C 
BRANCH   3   4
ATOM      4  C   UNL     1     166.083 161.629 183.143  1.00  0.00     0.053 C 
BRANCH   4   5
ATOM      5  C   UNL     1     167.011 161.368 184.290  1.00  0.00     0.041 C 
ATOM      6  O   UNL     1     167.548 162.328 184.903  1.00  0.00    -0.550 OA
ATOM      7  O   UNL     1     167.257 160.065 184.703  1.00  0.00    -0.550 OA
ENDBRANCH   4   5
ENDBRANCH   3   4
ENDBRANCH   2   3
ENDBRANCH   1   2
BRANCH   1   8
ATOM      8  C   UNL     1     162.224 162.928 183.257  1.00  0.00     0.000 C 
BRANCH   8   9
ATOM      9  C   UNL     1     161.130 161.873 183.484  1.00  0.00     0.000 C 
BRANCH   9  10
ATOM     10  C   UNL     1     160.165 161.821 182.292  1.00  0.00     0.006 C 
BRANCH  10  11
ATOM     11  C   UNL     1     160.181 160.439 181.633  1.00  0.00     0.053 C 
BRANCH  11  12
ATOM     12  C   UNL     1     160.674 160.535 180.224  1.00  0.00     0.041 C 
ATOM     13  O   UNL     1     159.940 161.031 179.328  1.00  0.00    -0.550 OA
ATOM     14  O   UNL     1     161.962 160.125 179.909  1.00  0.00    -0.550 OA
ENDBRANCH  11  12
ENDBRANCH  10  11
ENDBRANCH   9  10
ENDBRANCH   8   9
ENDBRANCH   1   8
TORSDOF 9
ENDMDL
MODEL 2
REMARK VINA RESULT:    -3.977      2.205      2.759
REMARK INTER + INTRA:          -6.731
REMARK INTER:                  -5.628
REMARK INTRA:                  -1.104
REMARK UNBOUND:                -0.662
REMARK SMILES O=C([O-])CCCCCCCCC(=O)[O-]
REMARK SMILES IDX 7 1 6 2 5 3 4 4 2 5 1 6 3 7 8 8 9 9 10 10 11 11 12 12 13 13
REMARK SMILES IDX 14 14
REMARK H PARENT
REMARK Flexibility Score: inf
ROOT
ATOM      1  C   UNL     1     161.046 163.525 182.532  1.00  0.00     0.000 C 
ENDROOT
BRANCH   1   2
ATOM      2  C   UNL     1     162.430 164.191 182.503  1.00  0.00     0.000 C 
BRANCH   2   3
ATOM      3  C   UNL     1     163.529 163.188 182.885  1.00  0.00     0.006 C 
BRANCH   3   4
ATOM      4  C   UNL     1     164.088 162.446 181.664  1.00  0.00     0.053 C 
BRANCH   4   5
ATOM      5  C   UNL     1     164.131 160.965 181.886  1.00  0.00     0.041 C 
ATOM      6  O   UNL     1     164.495 160.195 180.958  1.00  0.00    -0.550 OA
ATOM      7  O   UNL     1     163.800 160.438 183.127  1.00  0.00    -0.550 OA
ENDBRANCH   4   5
ENDBRANCH   3   4
ENDBRANCH   2   3
ENDBRANCH   1   2
BRANCH   1   8
ATOM      8  C   UNL     1     160.926 162.455 183.628  1.00  0.00     0.000 C 
BRANCH   8   9
ATOM      9  C   UNL     1     160.377 161.122 183.097  1.00  0.00     0.000 C 
BRANCH   9  10
ATOM     10  C   UNL     1     159.889 161.269 181.650  1.00  0.00     0.006 C 
BRANCH  10  11
ATOM     11  C   UNL     1     160.809 160.519 180.682  1.00  0.00     0.053 C 
BRANCH  11  12
ATOM     12  C   UNL     1     161.080 161.349 179.467  1.00  0.00     0.041 C 
ATOM     13  O   UNL     1     160.254 162.227 179.103  1.00  0.00    -0.550 OA
ATOM     14  O   UNL     1     162.267 161.187 178.765  1.00  0.00    -0.550 OA
ENDBRANCH  11  12
ENDBRANCH  10  11
ENDBRANCH   9  10
ENDBRANCH   8   9
ENDBRANCH   1   8
TORSDOF 9
ENDMDL
MODEL 3
REMARK VINA RESULT:    -3.913      0.957      6.164
REMARK INTER + INTRA:          -6.634
REMARK INTER:                  -6.063
REMARK INTRA:                  -0.571
REMARK UNBOUND:                -0.662
REMARK SMILES O=C([O-])CCCCCCCCC(=O)[O-]
REMARK SMILES IDX 7 1 6 2 5 3 4 4 2 5 1 6 3 7 8 8 9 9 10 10 11 11 12 12 13 13
REMARK SMILES IDX 14 14
REMARK H PARENT
REMARK Flexibility Score: inf
ROOT
ATOM      1  C   UNL     1     161.478 162.716 183.254  1.00  0.00     0.000 C 
ENDROOT
BRANCH   1   2
ATOM      2  C   UNL     1     160.913 161.337 183.630  1.00  0.00     0.000 C 
BRANCH   2   3
ATOM      3  C   UNL     1     160.247 160.669 182.418  1.00  0.00     0.006 C 
BRANCH   3   4
ATOM      4  C   UNL     1     160.139 161.618 181.218  1.00  0.00     0.053 C 
BRANCH   4   5
ATOM      5  C   UNL     1     160.573 160.958 179.945  1.00  0.00     0.041 C 
ATOM      6  O   UNL     1     159.875 161.066 178.903  1.00  0.00    -0.550 OA
ATOM      7  O   UNL     1     161.767 160.249 179.903  1.00  0.00    -0.550 OA
ENDBRANCH   4   5
ENDBRANCH   3   4
ENDBRANCH   2   3
ENDBRANCH   1   2
BRANCH   1   8
ATOM      8  C   UNL     1     163.013 162.763 183.310  1.00  0.00     0.000 C 
BRANCH   8   9
ATOM      9  C   UNL     1     163.671 161.805 182.304  1.00  0.00     0.000 C 
BRANCH   9  10
ATOM     10  C   UNL     1     164.663 160.870 183.006  1.00  0.00     0.006 C 
BRANCH  10  11
ATOM     11  C   UNL     1     166.073 161.469 183.012  1.00  0.00     0.053 C 
BRANCH  11  12
ATOM     12  C   UNL     1     167.073 160.453 183.463  1.00  0.00     0.041 C 
ATOM     13  O   UNL     1     167.999 160.089 182.690  1.00  0.00    -0.550 OA
ATOM     14  O   UNL     1     167.013 159.943 184.753  1.00  0.00    -0.550 OA
ENDBRANCH  11  12
ENDBRANCH  10  11
ENDBRANCH   9  10
ENDBRANCH   8   9
ENDBRANCH   1   8
TORSDOF 9
ENDMDL
MODEL 4
REMARK VINA RESULT:    -3.881      1.247      1.812
REMARK INTER + INTRA:          -6.586
REMARK INTER:                  -5.957
REMARK INTRA:                  -0.629
REMARK UNBOUND:                -0.662
REMARK SMILES O=C([O-])CCCCCCCCC(=O)[O-]
REMARK SMILES IDX 7 1 6 2 5 3 4 4 2 5 1 6 3 7 8 8 9 9 10 10 11 11 12 12 13 13
REMARK SMILES IDX 14 14
REMARK H PARENT
REMARK Flexibility Score: inf
ROOT
ATOM      1  C   UNL     1     163.964 160.894 182.408  1.00  0.00     0.000 C 
ENDROOT
BRANCH   1   2
ATOM      2  C   UNL     1     165.101 160.282 183.240  1.00  0.00     0.000 C 
BRANCH   2   3
ATOM      3  C   UNL     1     166.419 161.039 183.010  1.00  0.00     0.006 C 
BRANCH   3   4
ATOM      4  C   UNL     1     167.097 161.437 184.327  1.00  0.00     0.053 C 
BRANCH   4   5
ATOM      5  C   UNL     1     167.172 162.925 184.486  1.00  0.00     0.041 C 
ATOM      6  O   UNL     1     166.175 163.570 184.903  1.00  0.00    -0.550 OA
ATOM      7  O   UNL     1     168.356 163.595 184.203  1.00  0.00    -0.550 OA
ENDBRANCH   4   5
ENDBRANCH   3   4
ENDBRANCH   2   3
ENDBRANCH   1   2
BRANCH   1   8
ATOM      8  C   UNL     1     163.466 162.232 182.978  1.00  0.00     0.000 C 
BRANCH   8   9
ATOM      9  C   UNL     1     161.963 162.216 183.297  1.00  0.00     0.000 C 
BRANCH   9  10
ATOM     10  C   UNL     1     161.315 160.913 182.812  1.00  0.00     0.006 C 
BRANCH  10  11
ATOM     11  C   UNL     1     160.156 161.201 181.852  1.00  0.00     0.053 C 
BRANCH  11  12
ATOM     12  C   UNL     1     160.619 161.114 180.432  1.00  0.00     0.041 C 
ATOM     13  O   UNL     1     161.408 160.200 180.077  1.00  0.00    -0.550 OA
ATOM     14  O   UNL     1     160.139 162.013 179.488  1.00  0.00    -0.550 OA
ENDBRANCH  11  12
ENDBRANCH  10  11
ENDBRANCH   9  10
ENDBRANCH   8   9
ENDBRANCH   1   8
TORSDOF 9
ENDMDL
MODEL 5
REMARK VINA RESULT:    -3.868      1.414      6.581
REMARK INTER + INTRA:          -6.565
REMARK INTER:                  -5.954
REMARK INTRA:                  -0.611
REMARK UNBOUND:                -0.662
REMARK SMILES O=C([O-])CCCCCCCCC(=O)[O-]
REMARK SMILES IDX 7 1 6 2 5 3 4 4 2 5 1 6 3 7 8 8 9 9 10 10 11 11 12 12 13 13
REMARK SMILES IDX 14 14
REMARK H PARENT
REMARK Flexibility Score: inf
ROOT
ATOM      1  C   UNL     1     163.979 162.140 182.549  1.00  0.00     0.000 C 
ENDROOT
BRANCH   1   2
ATOM      2  C   UNL     1     162.566 162.518 183.018  1.00  0.00     0.000 C 
BRANCH   2   3
ATOM      3  C   UNL     1     161.703 161.264 183.224  1.00  0.00     0.006 C 
BRANCH   3   4
ATOM      4  C   UNL     1     160.284 161.439 182.668  1.00  0.00     0.053 C 
BRANCH   4   5
ATOM      5  C   UNL     1     160.231 161.194 181.191  1.00  0.00     0.041 C 
ATOM      6  O   UNL     1     160.206 160.018 180.743  1.00  0.00    -0.550 OA
ATOM      7  O   UNL     1     160.178 162.267 180.311  1.00  0.00    -0.550 OA
ENDBRANCH   4   5
ENDBRANCH   3   4
ENDBRANCH   2   3
ENDBRANCH   1   2
BRANCH   1   8
ATOM      8  C   UNL     1     164.177 160.620 182.428  1.00  0.00     0.000 C 
BRANCH   8   9
ATOM      9  C   UNL     1     165.353 160.108 183.273  1.00  0.00     0.000 C 
BRANCH   9  10
ATOM     10  C   UNL     1     166.592 160.992 183.080  1.00  0.00     0.006 C 
BRANCH  10  11
ATOM     11  C   UNL     1     167.183 161.411 184.429  1.00  0.00     0.053 C 
BRANCH  11  12
ATOM     12  C   UNL     1     167.258 162.902 184.529  1.00  0.00     0.041 C 
ATOM     13  O   UNL     1     166.280 163.556 184.978  1.00  0.00    -0.550 OA
ATOM     14  O   UNL     1     168.425 163.565 184.172  1.00  0.00    -0.550 OA
ENDBRANCH  11  12
ENDBRANCH  10  11
ENDBRANCH   9  10
ENDBRANCH   8   9
ENDBRANCH   1   8
TORSDOF 9
ENDMDL
MODEL 6
REMARK VINA RESULT:    -3.821      3.116      4.992
REMARK INTER + INTRA:          -6.494
REMARK INTER:                  -5.603
REMARK INTRA:                  -0.891
REMARK UNBOUND:                -0.662
REMARK SMILES O=C([O-])CCCCCCCCC(=O)[O-]
REMARK SMILES IDX 7 1 6 2 5 3 4 4 2 5 1 6 3 7 8 8 9 9 10 10 11 11 12 12 13 13
REMARK SMILES IDX 14 14
REMARK H PARENT
REMARK Flexibility Score: inf
ROOT
ATOM      1  C   UNL     1     160.731 161.164 183.059  1.00  0.00     0.000 C 
ENDROOT
BRANCH   1   2
ATOM      2  C   UNL     1     159.977 161.247 181.723  1.00  0.00     0.000 C 
BRANCH   2   3
ATOM      3  C   UNL     1     160.617 160.326 180.673  1.00  0.00     0.006 C 
BRANCH   3   4
ATOM      4  C   UNL     1     161.597 161.077 179.762  1.00  0.00     0.053 C 
BRANCH   4   5
ATOM      5  C   UNL     1     162.978 160.501 179.837  1.00  0.00     0.041 C 
ATOM      6  O   UNL     1     163.583 160.164 178.786  1.00  0.00    -0.550 OA
ATOM      7  O   UNL     1     163.609 160.366 181.067  1.00  0.00    -0.550 OA
ENDBRANCH   4   5
ENDBRANCH   3   4
ENDBRANCH   2   3
ENDBRANCH   1   2
BRANCH   1   8
ATOM      8  C   UNL     1     161.196 162.539 183.564  1.00  0.00     0.000 C 
BRANCH   8   9
ATOM      9  C   UNL     1     162.640 162.863 183.154  1.00  0.00     0.000 C 
BRANCH   9  10
ATOM     10  C   UNL     1     162.739 164.277 182.568  1.00  0.00     0.006 C 
BRANCH  10  11
ATOM     11  C   UNL     1     161.709 164.482 181.452  1.00  0.00     0.053 C 
BRANCH  11  12
ATOM     12  C   UNL     1     161.031 165.807 181.602  1.00  0.00     0.041 C 
ATOM     13  O   UNL     1     159.876 165.876 182.099  1.00  0.00    -0.550 OA
ATOM     14  O   UNL     1     161.694 166.972 181.239  1.00  0.00    -0.550 OA
ENDBRANCH  11  12
ENDBRANCH  10  11
ENDBRANCH   9  10
ENDBRANCH   8   9
ENDBRANCH   1   8
TORSDOF 9
ENDMDL
MODEL 7
REMARK VINA RESULT:    -3.818      2.079      5.723
REMARK INTER + INTRA:          -6.489
REMARK INTER:                  -5.507
REMARK INTRA:                  -0.982
REMARK UNBOUND:                -0.662
REMARK SMILES O=C([O-])CCCCCCCCC(=O)[O-]
REMARK SMILES IDX 7 1 6 2 5 3 4 4 2 5 1 6 3 7 8 8 9 9 10 10 11 11 12 12 13 13
REMARK SMILES IDX 14 14
REMARK H PARENT
REMARK Flexibility Score: inf
ROOT
ATOM      1  C   UNL     1     160.004 163.807 182.278  1.00  0.00     0.000 C 
ENDROOT
BRANCH   1   2
ATOM      2  C   UNL     1     161.042 164.525 181.402  1.00  0.00     0.000 C 
BRANCH   2   3
ATOM      3  C   UNL     1     160.876 164.137 179.925  1.00  0.00     0.006 C 
BRANCH   3   4
ATOM      4  C   UNL     1     161.432 162.739 179.626  1.00  0.00     0.053 C 
BRANCH   4   5
ATOM      5  C   UNL     1     160.432 161.885 178.908  1.00  0.00     0.041 C 
ATOM      6  O   UNL     1     159.897 160.907 179.493  1.00  0.00    -0.550 OA
ATOM      7  O   UNL     1     160.069 162.189 177.603  1.00  0.00    -0.550 OA
ENDBRANCH   4   5
ENDBRANCH   3   4
ENDBRANCH   2   3
ENDBRANCH   1   2
BRANCH   1   8
ATOM      8  C   UNL     1     160.648 162.867 183.310  1.00  0.00     0.000 C 
BRANCH   8   9
ATOM      9  C   UNL     1     160.318 161.389 183.050  1.00  0.00     0.000 C 
BRANCH   9  10
ATOM     10  C   UNL     1     161.578 160.607 182.656  1.00  0.00     0.006 C 
BRANCH  10  11
ATOM     11  C   UNL     1     162.838 161.447 182.883  1.00  0.00     0.053 C 
BRANCH  11  12
ATOM     12  C   UNL     1     164.022 160.802 182.235  1.00  0.00     0.041 C 
ATOM     13  O   UNL     1     165.063 160.569 182.906  1.00  0.00    -0.550 OA
ATOM     14  O   UNL     1     163.960 160.414 180.904  1.00  0.00    -0.550 OA
ENDBRANCH  11  12
ENDBRANCH  10  11
ENDBRANCH   9  10
ENDBRANCH   8   9
ENDBRANCH   1   8
TORSDOF 9
ENDMDL
MODEL 8
REMARK VINA RESULT:    -3.713      2.303      2.831
REMARK INTER + INTRA:          -6.329
REMARK INTER:                  -5.814
REMARK INTRA:                  -0.516
REMARK UNBOUND:                -0.662
REMARK SMILES O=C([O-])CCCCCCCCC(=O)[O-]
REMARK SMILES IDX 7 1 6 2 5 3 4 4 2 5 1 6 3 7 8 8 9 9 10 10 11 11 12 12 13 13
REMARK SMILES IDX 14 14
REMARK H PARENT
REMARK Flexibility Score: inf
ROOT
ATOM      1  C   UNL     1     163.753 162.115 182.872  1.00  0.00     0.000 C 
ENDROOT
BRANCH   1   2
ATOM      2  C   UNL     1     163.756 160.580 182.823  1.00  0.00     0.000 C 
BRANCH   2   3
ATOM      3  C   UNL     1     165.166 160.025 183.078  1.00  0.00     0.006 C 
BRANCH   3   4
ATOM      4  C   UNL     1     166.253 160.872 182.403  1.00  0.00     0.053 C 
BRANCH   4   5
ATOM      5  C   UNL     1     166.757 160.231 181.146  1.00  0.00     0.041 C 
ATOM      6  O   UNL     1     165.949 159.875 180.248  1.00  0.00    -0.550 OA
ATOM      7  O   UNL     1     168.121 160.055 180.953  1.00  0.00    -0.550 OA
ENDBRANCH   4   5
ENDBRANCH   3   4
ENDBRANCH   2   3
ENDBRANCH   1   2
BRANCH   1   8
ATOM      8  C   UNL     1     162.410 162.690 183.348  1.00  0.00     0.000 C 
BRANCH   8   9
ATOM      9  C   UNL     1     161.257 161.683 183.219  1.00  0.00     0.000 C 
BRANCH   9  10
ATOM     10  C   UNL     1     160.207 162.178 182.216  1.00  0.00     0.006 C 
BRANCH  10  11
ATOM     11  C   UNL     1     160.329 163.688 181.994  1.00  0.00     0.053 C 
BRANCH  11  12
ATOM     12  C   UNL     1     160.570 163.988 180.548  1.00  0.00     0.041 C 
ATOM     13  O   UNL     1     160.210 163.168 179.662  1.00  0.00    -0.550 OA
ATOM     14  O   UNL     1     161.148 165.194 180.175  1.00  0.00    -0.550 OA
ENDBRANCH  11  12
ENDBRANCH  10  11
ENDBRANCH   9  10
ENDBRANCH   8   9
ENDBRANCH   1   8
TORSDOF 9
ENDMDL
