MODEL 1
REMARK VINA RESULT:    -5.480      0.000      0.000
REMARK INTER + INTRA:          -6.229
REMARK INTER:                  -6.121
REMARK INTRA:                  -0.108
REMARK UNBOUND:                -0.108
REMARK SMILES O=C([O-])c1ccccc1C(=O)[O-]
REMARK SMILES IDX 4 1 9 2 5 3 8 4 6 5 7 6 2 7 1 8 3 9 10 10 11 11 12 12
REMARK H PARENT
REMARK Flexibility Score: inf
ROOT
ATOM      1  C   UNL     1      34.854  -1.346 -20.048  1.00  0.00     0.006 A 
ATOM      2  C   UNL     1      35.616  -1.836 -18.950  1.00  0.00     0.006 A 
ATOM      3  C   UNL     1      35.526  -0.776 -21.145  1.00  0.00     0.010 A 
ATOM      4  C   UNL     1      37.014  -1.679 -18.962  1.00  0.00     0.010 A 
ATOM      5  C   UNL     1      36.916  -0.649 -21.145  1.00  0.00     0.001 A 
ATOM      6  C   UNL     1      37.657  -1.090 -20.051  1.00  0.00     0.001 A 
ENDROOT
BRANCH   1   7
ATOM      7  C   UNL     1      33.373  -1.342 -20.064  1.00  0.00     0.072 C 
ATOM      8  O   UNL     1      32.723  -0.467 -19.433  1.00  0.00    -0.545 OA
ATOM      9  O   UNL     1      32.682  -2.271 -20.833  1.00  0.00    -0.545 OA
ENDBRANCH   1   7
BRANCH   2  10
ATOM     10  C   UNL     1      35.005  -2.574 -17.819  1.00  0.00     0.072 C 
ATOM     11  O   UNL     1      35.175  -2.174 -16.637  1.00  0.00    -0.545 OA
ATOM     12  O   UNL     1      34.297  -3.749 -18.040  1.00  0.00    -0.545 OA
ENDBRANCH   2  10
TORSDOF 2
ENDMDL
MODEL 2
REMARK VINA RESULT:    -5.443      0.131      2.876
REMARK INTER + INTRA:          -6.187
REMARK INTER:                  -6.130
REMARK INTRA:                  -0.057
REMARK UNBOUND:                -0.108
REMARK SMILES O=C([O-])c1ccccc1C(=O)[O-]
REMARK SMILES IDX 4 1 9 2 5 3 8 4 6 5 7 6 2 7 1 8 3 9 10 10 11 11 12 12
REMARK H PARENT
REMARK Flexibility Score: inf
ROOT
ATOM      1  C   UNL     1      35.713  -1.796 -19.034  1.00  0.00     0.006 A 
ATOM      2  C   UNL     1      34.954  -1.302 -20.132  1.00  0.00     0.006 A 
ATOM      3  C   UNL     1      37.112  -1.645 -19.048  1.00  0.00     0.010 A 
ATOM      4  C   UNL     1      35.627  -0.735 -21.230  1.00  0.00     0.010 A 
ATOM      5  C   UNL     1      37.757  -1.061 -20.138  1.00  0.00     0.001 A 
ATOM      6  C   UNL     1      37.017  -0.617 -21.231  1.00  0.00     0.001 A 
ENDROOT
BRANCH   1   7
ATOM      7  C   UNL     1      35.106  -2.530 -17.899  1.00  0.00     0.072 C 
ATOM      8  O   UNL     1      35.250  -2.121 -16.717  1.00  0.00    -0.545 OA
ATOM      9  O   UNL     1      34.313  -3.647 -18.136  1.00  0.00    -0.545 OA
ENDBRANCH   1   7
BRANCH   2  10
ATOM     10  C   UNL     1      33.472  -1.293 -20.140  1.00  0.00     0.072 C 
ATOM     11  O   UNL     1      32.841  -0.465 -19.430  1.00  0.00    -0.545 OA
ATOM     12  O   UNL     1      32.761  -2.235 -20.873  1.00  0.00    -0.545 OA
ENDBRANCH   2  10
TORSDOF 2
ENDMDL
MODEL 3
REMARK VINA RESULT:    -5.134      1.186      1.335
REMARK INTER + INTRA:          -5.842
REMARK INTER:                  -5.651
REMARK INTRA:                  -0.190
REMARK UNBOUND:                -0.108
REMARK SMILES O=C([O-])c1ccccc1C(=O)[O-]
REMARK SMILES IDX 4 1 9 2 5 3 8 4 6 5 7 6 2 7 1 8 3 9 10 10 11 11 12 12
REMARK H PARENT
REMARK Flexibility Score: inf
ROOT
ATOM      1  C   UNL     1      34.515  -1.863 -19.344  1.00  0.00     0.006 A 
ATOM      2  C   UNL     1      35.733  -1.886 -18.607  1.00  0.00     0.006 A 
ATOM      3  C   UNL     1      34.522  -1.361 -20.658  1.00  0.00     0.010 A 
ATOM      4  C   UNL     1      36.895  -1.347 -19.189  1.00  0.00     0.010 A 
ATOM      5  C   UNL     1      35.691  -0.851 -21.223  1.00  0.00     0.001 A 
ATOM      6  C   UNL     1      36.872  -0.834 -20.486  1.00  0.00     0.001 A 
ENDROOT
BRANCH   1   7
ATOM      7  C   UNL     1      33.216  -2.280 -18.767  1.00  0.00     0.072 C 
ATOM      8  O   UNL     1      32.395  -1.424 -18.342  1.00  0.00    -0.545 OA
ATOM      9  O   UNL     1      32.860  -3.623 -18.749  1.00  0.00    -0.545 OA
ENDBRANCH   1   7
BRANCH   2  10
ATOM     10  C   UNL     1      35.849  -2.521 -17.274  1.00  0.00     0.072 C 
ATOM     11  O   UNL     1      36.039  -1.812 -16.250  1.00  0.00    -0.545 OA
ATOM     12  O   UNL     1      35.818  -3.904 -17.142  1.00  0.00    -0.545 OA
ENDBRANCH   2  10
TORSDOF 2
ENDMDL
MODEL 4
REMARK VINA RESULT:    -4.809      1.906      3.446
REMARK INTER + INTRA:          -5.479
REMARK INTER:                  -5.572
REMARK INTRA:                   0.093
REMARK UNBOUND:                -0.108
REMARK SMILES O=C([O-])c1ccccc1C(=O)[O-]
REMARK SMILES IDX 4 1 9 2 5 3 8 4 6 5 7 6 2 7 1 8 3 9 10 10 11 11 12 12
REMARK H PARENT
REMARK Flexibility Score: inf
ROOT
ATOM      1  C   UNL     1      36.258  -1.712 -18.713  1.00  0.00     0.006 A 
ATOM      2  C   UNL     1      34.909  -2.130 -18.538  1.00  0.00     0.006 A 
ATOM      3  C   UNL     1      36.557  -0.770 -19.714  1.00  0.00     0.010 A 
ATOM      4  C   UNL     1      33.922  -1.640 -19.412  1.00  0.00     0.010 A 
ATOM      5  C   UNL     1      35.559  -0.281 -20.557  1.00  0.00     0.001 A 
ATOM      6  C   UNL     1      34.246  -0.724 -20.413  1.00  0.00     0.001 A 
ENDROOT
BRANCH   1   7
ATOM      7  C   UNL     1      37.385  -2.276 -17.933  1.00  0.00     0.072 C 
ATOM      8  O   UNL     1      38.453  -2.623 -18.502  1.00  0.00    -0.545 OA
ATOM      9  O   UNL     1      37.298  -2.366 -16.549  1.00  0.00    -0.545 OA
ENDBRANCH   1   7
BRANCH   2  10
ATOM     10  C   UNL     1      34.482  -3.009 -17.424  1.00  0.00     0.072 C 
ATOM     11  O   UNL     1      34.503  -4.261 -17.562  1.00  0.00    -0.545 OA
ATOM     12  O   UNL     1      33.992  -2.468 -16.242  1.00  0.00    -0.545 OA
ENDBRANCH   2  10
TORSDOF 2
ENDMDL
MODEL 5
REMARK VINA RESULT:    -4.764      1.085      3.206
REMARK INTER + INTRA:          -5.429
REMARK INTER:                  -5.205
REMARK INTRA:                  -0.224
REMARK UNBOUND:                -0.108
REMARK SMILES O=C([O-])c1ccccc1C(=O)[O-]
REMARK SMILES IDX 4 1 9 2 5 3 8 4 6 5 7 6 2 7 1 8 3 9 10 10 11 11 12 12
REMARK H PARENT
REMARK Flexibility Score: inf
ROOT
ATOM      1  C   UNL     1      34.751  -2.473 -18.141  1.00  0.00     0.006 A 
ATOM      2  C   UNL     1      34.507  -1.779 -19.359  1.00  0.00     0.006 A 
ATOM      3  C   UNL     1      36.068  -2.558 -17.654  1.00  0.00     0.010 A 
ATOM      4  C   UNL     1      35.597  -1.253 -20.077  1.00  0.00     0.010 A 
ATOM      5  C   UNL     1      37.132  -2.011 -18.372  1.00  0.00     0.001 A 
ATOM      6  C   UNL     1      36.898  -1.370 -19.586  1.00  0.00     0.001 A 
ENDROOT
BRANCH   1   7
ATOM      7  C   UNL     1      33.687  -3.177 -17.387  1.00  0.00     0.072 C 
ATOM      8  O   UNL     1      33.133  -2.635 -16.395  1.00  0.00    -0.545 OA
ATOM      9  O   UNL     1      33.241  -4.424 -17.811  1.00  0.00    -0.545 OA
ENDBRANCH   1   7
BRANCH   2  10
ATOM     10  C   UNL     1      33.142  -1.521 -19.873  1.00  0.00     0.072 C 
ATOM     11  O   UNL     1      32.684  -2.207 -20.825  1.00  0.00    -0.545 OA
ATOM     12  O   UNL     1      32.377  -0.479 -19.361  1.00  0.00    -0.545 OA
ENDBRANCH   2  10
TORSDOF 2
ENDMDL
MODEL 6
REMARK VINA RESULT:    -4.561      1.842      3.269
REMARK INTER + INTRA:          -5.202
REMARK INTER:                  -5.390
REMARK INTRA:                   0.188
REMARK UNBOUND:                -0.108
REMARK SMILES O=C([O-])c1ccccc1C(=O)[O-]
REMARK SMILES IDX 4 1 9 2 5 3 8 4 6 5 7 6 2 7 1 8 3 9 10 10 11 11 12 12
REMARK H PARENT
REMARK Flexibility Score: inf
ROOT
ATOM      1  C   UNL     1      34.623  -2.055 -19.016  1.00  0.00     0.006 A 
ATOM      2  C   UNL     1      35.900  -1.540 -19.378  1.00  0.00     0.006 A 
ATOM      3  C   UNL     1      34.483  -2.737 -17.794  1.00  0.00     0.010 A 
ATOM      4  C   UNL     1      37.000  -1.784 -18.535  1.00  0.00     0.010 A 
ATOM      5  C   UNL     1      35.583  -2.949 -16.963  1.00  0.00     0.001 A 
ATOM      6  C   UNL     1      36.841  -2.483 -17.338  1.00  0.00     0.001 A 
ENDROOT
BRANCH   1   7
ATOM      7  C   UNL     1      33.438  -1.969 -19.902  1.00  0.00     0.072 C 
ATOM      8  O   UNL     1      33.312  -2.744 -20.886  1.00  0.00    -0.545 OA
ATOM      9  O   UNL     1      32.418  -1.070 -19.614  1.00  0.00    -0.545 OA
ENDBRANCH   1   7
BRANCH   2  10
ATOM     10  C   UNL     1      36.111  -0.692 -20.574  1.00  0.00     0.072 C 
ATOM     11  O   UNL     1      35.222   0.125 -20.935  1.00  0.00    -0.545 OA
ATOM     12  O   UNL     1      37.255  -0.833 -21.351  1.00  0.00    -0.545 OA
ENDBRANCH   2  10
TORSDOF 2
ENDMDL
MODEL 7
REMARK VINA RESULT:    -4.544      1.818      3.679
REMARK INTER + INTRA:          -5.183
REMARK INTER:                  -4.997
REMARK INTRA:                  -0.186
REMARK UNBOUND:                -0.108
REMARK SMILES O=C([O-])c1ccccc1C(=O)[O-]
REMARK SMILES IDX 4 1 9 2 5 3 8 4 6 5 7 6 2 7 1 8 3 9 10 10 11 11 12 12
REMARK H PARENT
REMARK Flexibility Score: inf
ROOT
ATOM      1  C   UNL     1      35.703  -2.754 -17.461  1.00  0.00     0.006 A 
ATOM      2  C   UNL     1      34.489  -2.483 -18.154  1.00  0.00     0.006 A 
ATOM      3  C   UNL     1      36.911  -2.255 -17.981  1.00  0.00     0.010 A 
ATOM      4  C   UNL     1      34.538  -1.782 -19.373  1.00  0.00     0.010 A 
ATOM      5  C   UNL     1      36.934  -1.543 -19.180  1.00  0.00     0.001 A 
ATOM      6  C   UNL     1      35.752  -1.317 -19.881  1.00  0.00     0.001 A 
ENDROOT
BRANCH   1   7
ATOM      7  C   UNL     1      35.766  -3.599 -16.246  1.00  0.00     0.072 C 
ATOM      8  O   UNL     1      35.610  -4.847 -16.321  1.00  0.00    -0.545 OA
ATOM      9  O   UNL     1      36.066  -3.029 -15.015  1.00  0.00    -0.545 OA
ENDBRANCH   1   7
BRANCH   2  10
ATOM     10  C   UNL     1      33.160  -2.847 -17.610  1.00  0.00     0.072 C 
ATOM     11  O   UNL     1      32.563  -2.066 -16.823  1.00  0.00    -0.545 OA
ATOM     12  O   UNL     1      32.586  -4.078 -17.906  1.00  0.00    -0.545 OA
ENDBRANCH   2  10
TORSDOF 2
ENDMDL
MODEL 8
REMARK VINA RESULT:    -4.521      2.948      5.236
REMARK INTER + INTRA:          -5.157
REMARK INTER:                  -4.960
REMARK INTRA:                  -0.198
REMARK UNBOUND:                -0.108
REMARK SMILES O=C([O-])c1ccccc1C(=O)[O-]
REMARK SMILES IDX 4 1 9 2 5 3 8 4 6 5 7 6 2 7 1 8 3 9 10 10 11 11 12 12
REMARK H PARENT
REMARK Flexibility Score: inf
ROOT
ATOM      1  C   UNL     1      34.870  -3.967 -15.775  1.00  0.00     0.006 A 
ATOM      2  C   UNL     1      35.581  -2.766 -16.053  1.00  0.00     0.006 A 
ATOM      3  C   UNL     1      34.442  -4.219 -14.458  1.00  0.00     0.010 A 
ATOM      4  C   UNL     1      35.893  -1.895 -14.993  1.00  0.00     0.010 A 
ATOM      5  C   UNL     1      34.744  -3.330 -13.426  1.00  0.00     0.001 A 
ATOM      6  C   UNL     1      35.478  -2.177 -13.691  1.00  0.00     0.001 A 
ENDROOT
BRANCH   1   7
ATOM      7  C   UNL     1      34.615  -5.009 -16.797  1.00  0.00     0.072 C 
ATOM      8  O   UNL     1      35.490  -5.873 -17.069  1.00  0.00    -0.545 OA
ATOM      9  O   UNL     1      33.377  -5.083 -17.423  1.00  0.00    -0.545 OA
ENDBRANCH   1   7
BRANCH   2  10
ATOM     10  C   UNL     1      35.948  -2.354 -17.428  1.00  0.00     0.072 C 
ATOM     11  O   UNL     1      35.070  -1.895 -18.206  1.00  0.00    -0.545 OA
ATOM     12  O   UNL     1      37.243  -2.530 -17.899  1.00  0.00    -0.545 OA
ENDBRANCH   2  10
TORSDOF 2
ENDMDL
