MODEL 1
REMARK VINA RESULT:    -2.525      0.000      0.000
REMARK INTER + INTRA:          -3.303
REMARK INTER:                  -3.706
REMARK INTRA:                   0.404
REMARK UNBOUND:                 0.404
REMARK SMILES C=C1C=C[C@@H](C(C)C)CCC(C)=CCC1
REMARK SMILES IDX 3 1 4 2 5 3 9 4 10 5 11 6 12 7 13 8 6 10 7 11 8 12 2 13 1 14
REMARK SMILES IDX 15 15 14 16
REMARK H PARENT
REMARK Flexibility Score: 70.00
ROOT
ATOM      1  C   UNL     1       6.014   7.910  14.630  1.00  0.00    -0.001 C 
ATOM      2  C   UNL     1       5.392   8.946  14.062  1.00  0.00    -0.023 C 
ENDROOT
BRANCH   2   3
ATOM      3  C   UNL     1       3.890   9.018  13.994  1.00  0.00     0.014 C 
BRANCH   3   4
ATOM      4  C   UNL     1       3.341   7.829  13.168  1.00  0.00     0.012 C 
BRANCH   4   5
ATOM      5  C   UNL     1       4.342   7.296  12.109  1.00  0.00     0.031 C 
BRANCH   5   6
ATOM      6  C   UNL     1       4.639   5.810  12.295  1.00  0.00    -0.077 C 
ATOM      7  C   UNL     1       3.459   4.875  12.406  1.00  0.00     0.039 C 
ATOM      8  C   UNL     1       5.878   5.258  12.375  1.00  0.00    -0.028 CG0
ATOM      9  G   UNL     1       7.214   5.966  12.323  1.00  0.00     0.000 G0
ENDBRANCH   5   6
ENDBRANCH   4   5
ENDBRANCH   3   4
BRANCH   3  10
ATOM     10  C   UNL     1       3.385  10.394  13.468  1.00  0.00    -0.010 C 
ATOM     11  C   UNL     1       1.855  10.559  13.525  1.00  0.00     0.008 C 
ATOM     12  C   UNL     1       3.881  10.646  12.035  1.00  0.00     0.008 C 
ENDBRANCH   3  10
ENDBRANCH   2   3
BRANCH   1  13
ATOM     13  C   UNL     1       7.417   7.581  14.308  1.00  0.00    -0.055 C 
ATOM     14  C   UNL     1       8.376   8.464  14.604  1.00  0.00     0.012 C 
BRANCH  13  15
ATOM     15  C   UNL     1       7.773   6.211  13.767  1.00  0.00     0.039 C 
BRANCH  15  16
ATOM     16  C   UNL     1       7.203   5.985  12.344  1.00  0.00     0.032 CG0
ATOM     17  G   UNL     1       5.879   5.254  12.380  1.00  0.00     0.000 G0
ENDBRANCH  15  16
ENDBRANCH  13  15
ENDBRANCH   1  13
TORSDOF 1
ENDMDL
MODEL 2
REMARK VINA RESULT:    -1.833      0.994      3.243
REMARK INTER + INTRA:          -2.286
REMARK INTER:                  -2.457
REMARK INTRA:                   0.171
REMARK UNBOUND:                 0.404
REMARK SMILES C=C1C=C[C@@H](C(C)C)CCC(C)=CCC1
REMARK SMILES IDX 3 1 4 2 5 3 9 4 10 5 11 6 12 7 13 8 6 10 7 11 8 12 2 13 1 14
REMARK SMILES IDX 15 15 14 16
REMARK H PARENT
REMARK Flexibility Score: 70.00
ROOT
ATOM      1  C   UNL     1       4.776   7.047  12.188  1.00  0.00    -0.001 C 
ATOM      2  C   UNL     1       4.146   7.846  13.052  1.00  0.00    -0.023 C 
ENDROOT
BRANCH   2   3
ATOM      3  C   UNL     1       4.503   9.303  13.177  1.00  0.00     0.014 C 
BRANCH   3   4
ATOM      4  C   UNL     1       5.277   9.547  14.496  1.00  0.00     0.012 C 
BRANCH   4   5
ATOM      5  C   UNL     1       5.771   8.241  15.174  1.00  0.00     0.031 C 
BRANCH   5   6
ATOM      6  C   UNL     1       7.114   7.777  14.617  1.00  0.00    -0.077 C 
ATOM      7  C   UNL     1       8.210   8.808  14.496  1.00  0.00     0.039 C 
ATOM      8  C   UNL     1       7.406   6.512  14.214  1.00  0.00    -0.028 CG0
ATOM      9  G   UNL     1       6.489   5.308  14.204  1.00  0.00     0.000 G0
ENDBRANCH   5   6
ENDBRANCH   4   5
ENDBRANCH   3   4
BRANCH   3  10
ATOM     10  C   UNL     1       3.262  10.232  13.033  1.00  0.00    -0.010 C 
ATOM     11  C   UNL     1       1.969   9.640  13.624  1.00  0.00     0.008 C 
ATOM     12  C   UNL     1       3.033  10.614  11.562  1.00  0.00     0.008 C 
ENDBRANCH   3  10
ENDBRANCH   2   3
BRANCH   1  13
ATOM     13  C   UNL     1       4.791   5.581  12.361  1.00  0.00    -0.055 C 
ATOM     14  C   UNL     1       3.702   4.877  12.037  1.00  0.00     0.012 C 
BRANCH  13  15
ATOM     15  C   UNL     1       6.066   4.877  12.781  1.00  0.00     0.039 C 
BRANCH  15  16
ATOM     16  C   UNL     1       6.507   5.282  14.210  1.00  0.00     0.032 CG0
ATOM     17  G   UNL     1       7.383   6.516  14.196  1.00  0.00     0.000 G0
ENDBRANCH  15  16
ENDBRANCH  13  15
ENDBRANCH   1  13
TORSDOF 1
ENDMDL
MODEL 3
REMARK VINA RESULT:    -0.267      2.436      5.344
REMARK INTER + INTRA:           0.012
REMARK INTER:                  -3.409
REMARK INTRA:                   3.421
REMARK UNBOUND:                 0.404
REMARK SMILES C=C1C=C[C@@H](C(C)C)CCC(C)=CCC1
REMARK SMILES IDX 3 1 4 2 5 3 9 4 10 5 11 6 12 7 13 8 6 10 7 11 8 12 2 13 1 14
REMARK SMILES IDX 15 15 14 16
REMARK H PARENT
REMARK Flexibility Score: 70.00
ROOT
ATOM      1  C   UNL     1       3.979   8.953  11.074  1.00  0.00    -0.001 C 
ATOM      2  C   UNL     1       4.886   8.576  11.980  1.00  0.00    -0.023 C 
ENDROOT
BRANCH   2   3
ATOM      3  C   UNL     1       5.155   7.121  12.261  1.00  0.00     0.014 C 
BRANCH   3   4
ATOM      4  C   UNL     1       4.250   6.630  13.416  1.00  0.00     0.012 C 
BRANCH   4   5
ATOM      5  C   UNL     1       2.947   7.457  13.577  1.00  0.00     0.031 C 
BRANCH   5   6
ATOM      6  C   UNL     1       3.220   8.868  14.090  1.00  0.00    -0.077 C 
ATOM      7  C   UNL     1       4.309   9.032  15.123  1.00  0.00     0.039 C 
ATOM      8  C   UNL     1       2.562   9.990  13.700  1.00  0.00    -0.028 CG0
ATOM      9  G   UNL     1       1.422  10.100  12.711  1.00  0.00     0.000 G0
ENDBRANCH   5   6
ENDBRANCH   4   5
ENDBRANCH   3   4
BRANCH   3  10
ATOM     10  C   UNL     1       6.664   6.838  12.523  1.00  0.00    -0.010 C 
ATOM     11  C   UNL     1       7.040   5.347  12.446  1.00  0.00     0.008 C 
ATOM     12  C   UNL     1       7.101   7.414  13.879  1.00  0.00     0.008 C 
ENDBRANCH   3  10
ENDBRANCH   2   3
BRANCH   1  13
ATOM     13  C   UNL     1       3.368  10.296  11.108  1.00  0.00    -0.055 C 
ATOM     14  C   UNL     1       4.136  11.366  10.876  1.00  0.00     0.012 C 
BRANCH  13  15
ATOM     15  C   UNL     1       1.869  10.447  11.276  1.00  0.00     0.039 C 
BRANCH  15  16
ATOM     16  C   UNL     1       1.410  10.083  12.711  1.00  0.00     0.032 CG0
ATOM     17  G   UNL     1       2.580   9.985  13.665  1.00  0.00     0.000 G0
ENDBRANCH  15  16
ENDBRANCH  13  15
ENDBRANCH   1  13
TORSDOF 1
ENDMDL
