MODEL 1
REMARK VINA RESULT:    77.536      0.000      0.000
REMARK INTER + INTRA:         109.587
REMARK INTER:                 106.998
REMARK INTRA:                   2.589
REMARK UNBOUND:                 2.589
REMARK SMILES O=c1cc(-c2ccc(O)c(O)c2)oc2cc(O)c([C@@H]3O[C@@H](CO)[C@@H](O)[C@@H](O)[C@H]3O)c(O)c12
REMARK SMILES IDX 4 1 3 2 2 3 1 4 32 5 14 6 13 7 15 8 16 9 18 10 30 11 5 12
REMARK SMILES IDX 6 13 7 14 8 15 12 16 10 17 9 18 11 20 31 22 17 24 19 26
REMARK SMILES IDX 28 27 20 28 26 29 21 30 24 31 29 32 27 34 22 36 23 37 25 39
REMARK H PARENT 9 19 11 21 31 23 17 25 29 33 27 35 23 38 25 40
REMARK Flexibility Score: inf
ROOT
ATOM      1  C   UNL     1      -6.916   1.218  20.752  1.00  0.00     0.138 A 
ATOM      2  C   UNL     1      -7.009   0.929  22.114  1.00  0.00     0.100 A 
ATOM      3  C   UNL     1      -6.775  -0.395  22.563  1.00  0.00     0.197 A 
ATOM      4  O   UNL     1      -6.866  -0.649  23.791  1.00  0.00    -0.289 OA
ATOM      5  C   UNL     1      -6.488  -1.420  21.625  1.00  0.00     0.107 A 
ATOM      6  C   UNL     1      -6.252  -0.979  20.282  1.00  0.00     0.146 A 
ATOM      7  O   UNL     1      -6.492   0.281  19.894  1.00  0.00    -0.456 OA
ATOM      8  C   UNL     1      -5.891  -1.955  19.356  1.00  0.00     0.094 A 
ATOM      9  C   UNL     1      -6.674  -3.177  19.488  1.00  0.00     0.128 A 
ATOM     10  C   UNL     1      -6.490  -3.789  20.776  1.00  0.00     0.068 A 
ATOM     11  C   UNL     1      -6.466  -2.845  21.894  1.00  0.00     0.140 A 
ENDROOT
BRANCH   1  12
ATOM     12  C   UNL     1      -7.393   2.498  20.265  1.00  0.00     0.021 A 
ATOM     13  C   UNL     1      -8.630   3.031  20.685  1.00  0.00     0.016 A 
ATOM     14  C   UNL     1      -9.125   4.186  20.066  1.00  0.00     0.051 A 
ATOM     15  C   UNL     1      -8.414   4.822  19.017  1.00  0.00     0.157 A 
ATOM     16  C   UNL     1      -6.641   3.172  19.278  1.00  0.00     0.062 A 
ATOM     17  C   UNL     1      -7.165   4.321  18.625  1.00  0.00     0.158 A 
BRANCH  15  18
ATOM     18  O   UNL     1      -8.991   5.972  18.430  1.00  0.00    -0.504 OA
ATOM     19  H   UNL     1      -9.210   6.855  18.930  1.00  0.00     0.293 HD
ENDBRANCH  15  18
BRANCH  17  20
ATOM     20  O   UNL     1      -6.420   5.036  17.672  1.00  0.00    -0.504 OA
ATOM     21  H   UNL     1      -6.805   5.290  16.757  1.00  0.00     0.293 HD
ENDBRANCH  17  20
ENDBRANCH   1  12
BRANCH  11  22
ATOM     22  O   UNL     1      -6.534  -3.337  23.211  1.00  0.00    -0.506 OA
ATOM     23  H   UNL     1      -6.803  -2.764  23.997  1.00  0.00     0.293 HD
ENDBRANCH  11  22
BRANCH   9  24
ATOM     24  O   UNL     1      -8.004  -3.631  18.607  1.00  0.00    -0.507 OA
ATOM     25  H   UNL     1      -8.985  -3.151  18.710  1.00  0.00     0.293 HD
ENDBRANCH   9  24
BRANCH  10  26
ATOM     26  C   UNL     1      -6.727  -5.295  20.956  1.00  0.00     0.188 C 
ATOM     27  C   UNL     1      -8.236  -5.790  21.087  1.00  0.00     0.179 C 
ATOM     28  O   UNL     1      -5.922  -6.069  20.119  1.00  0.00    -0.362 OA
ATOM     29  C   UNL     1      -8.893  -6.120  19.726  1.00  0.00     0.177 C 
ATOM     30  C   UNL     1      -6.517  -6.489  18.875  1.00  0.00     0.176 C 
ATOM     31  C   UNL     1      -7.941  -5.528  18.477  1.00  0.00     0.177 C 
BRANCH  27  32
ATOM     32  O   UNL     1      -8.281  -6.898  21.950  1.00  0.00    -0.387 OA
ATOM     33  H   UNL     1      -8.057  -6.565  22.871  1.00  0.00     0.211 HD
ENDBRANCH  27  32
BRANCH  29  34
ATOM     34  O   UNL     1      -9.125  -7.475  19.534  1.00  0.00    -0.387 OA
ATOM     35  H   UNL     1      -9.024  -7.662  18.562  1.00  0.00     0.211 HD
ENDBRANCH  29  34
BRANCH  30  36
ATOM     36  C   UNL     1      -6.628  -8.080  18.993  1.00  0.00     0.191 C 
BRANCH  36  37
ATOM     37  O   UNL     1      -6.638  -8.710  17.713  1.00  0.00    -0.394 OA
ATOM     38  H   UNL     1      -7.304  -8.237  17.132  1.00  0.00     0.210 HD
ENDBRANCH  36  37
ENDBRANCH  30  36
BRANCH  31  39
ATOM     39  O   UNL     1      -8.521  -6.091  17.240  1.00  0.00    -0.388 OA
ATOM     40  H   UNL     1      -8.667  -5.284  16.665  1.00  0.00     0.211 HD
ENDBRANCH  31  39
ENDBRANCH  10  26
TORSDOF 11
ENDMDL
