MODEL 1
REMARK VINA RESULT:    -4.148      0.000      0.000
REMARK INTER + INTRA:          -6.261
REMARK INTER:                  -6.331
REMARK INTRA:                   0.070
REMARK UNBOUND:                 0.070
REMARK SMILES CC1=CCC[C@@H](C)C(=O)C[C@@H](C(C)C)C(=O)C1
REMARK SMILES IDX 8 1 9 2 6 3 7 4 5 5 4 6 3 7 2 8 1 9 10 11 11 12 15 13 16 14
REMARK SMILES IDX 17 15 12 17 13 18 14 19
REMARK H PARENT
REMARK Flexibility Score: 70.00
ROOT
ATOM      1  C   UNL     1     -11.714 -18.030  30.720  1.00  0.00     0.136 C 
ATOM      2  O   UNL     1     -10.625 -18.449  30.355  1.00  0.00    -0.299 OA
ENDROOT
BRANCH   1   3
ATOM      3  C   UNL     1     -12.875 -18.985  30.892  1.00  0.00     0.053 C 
ATOM      4  C   UNL     1     -12.531 -20.014  31.974  1.00  0.00     0.016 C 
BRANCH   3   5
ATOM      5  C   UNL     1     -13.261 -19.699  29.576  1.00  0.00     0.015 C 
BRANCH   5   6
ATOM      6  C   UNL     1     -13.918 -18.765  28.541  1.00  0.00     0.028 C 
BRANCH   6   7
ATOM      7  C   UNL     1     -12.905 -18.241  27.548  1.00  0.00    -0.028 C 
ATOM      8  C   UNL     1     -12.732 -16.948  27.185  1.00  0.00    -0.070 CG0
ATOM      9  C   UNL     1     -11.675 -16.638  26.156  1.00  0.00     0.039 C 
ATOM     10  G   UNL     1     -13.497 -15.794  27.802  1.00  0.00     0.000 G0
ENDBRANCH   6   7
ENDBRANCH   5   6
ENDBRANCH   3   5
ENDBRANCH   1   3
BRANCH   1  11
ATOM     11  C   UNL     1     -11.879 -16.562  31.035  1.00  0.00     0.087 C 
BRANCH  11  12
ATOM     12  C   UNL     1     -13.153 -15.958  30.397  1.00  0.00     0.066 C 
BRANCH  12  13
ATOM     13  C   UNL     1     -12.806 -15.336  29.057  1.00  0.00     0.140 C 
ATOM     14  O   UNL     1     -11.972 -14.442  29.005  1.00  0.00    -0.299 OA
BRANCH  13  15
ATOM     15  C   UNL     1     -13.480 -15.780  27.787  1.00  0.00     0.106 CG0
ATOM     16  G   UNL     1     -12.732 -16.948  27.178  1.00  0.00     0.000 G0
ENDBRANCH  13  15
ENDBRANCH  12  13
BRANCH  12  17
ATOM     17  C   UNL     1     -13.836 -14.901  31.322  1.00  0.00    -0.006 C 
ATOM     18  C   UNL     1     -14.665 -15.555  32.444  1.00  0.00     0.008 C 
ATOM     19  C   UNL     1     -14.751 -13.963  30.512  1.00  0.00     0.008 C 
ENDBRANCH  12  17
ENDBRANCH  11  12
ENDBRANCH   1  11
TORSDOF 1
ENDMDL
MODEL 2
REMARK VINA RESULT:    -4.029      1.861      4.505
REMARK INTER + INTRA:          -6.079
REMARK INTER:                  -6.180
REMARK INTRA:                   0.101
REMARK UNBOUND:                 0.070
REMARK SMILES CC1=CCC[C@@H](C)C(=O)C[C@@H](C(C)C)C(=O)C1
REMARK SMILES IDX 8 1 9 2 6 3 7 4 5 5 4 6 3 7 2 8 1 9 10 11 11 12 15 13 16 14
REMARK SMILES IDX 17 15 12 17 13 18 14 19
REMARK H PARENT
REMARK Flexibility Score: 70.00
ROOT
ATOM      1  C   UNL     1     -11.363 -17.107  28.561  1.00  0.00     0.136 C 
ATOM      2  O   UNL     1     -10.288 -16.533  28.457  1.00  0.00    -0.299 OA
ENDROOT
BRANCH   1   3
ATOM      3  C   UNL     1     -12.389 -17.001  27.452  1.00  0.00     0.053 C 
ATOM      4  C   UNL     1     -11.672 -16.976  26.098  1.00  0.00     0.016 C 
BRANCH   3   5
ATOM      5  C   UNL     1     -13.301 -15.762  27.599  1.00  0.00     0.015 C 
BRANCH   5   6
ATOM      6  C   UNL     1     -12.778 -14.731  28.618  1.00  0.00     0.028 C 
BRANCH   6   7
ATOM      7  C   UNL     1     -13.841 -14.360  29.627  1.00  0.00    -0.028 C 
ATOM      8  C   UNL     1     -13.987 -14.883  30.867  1.00  0.00    -0.070 CG0
ATOM      9  C   UNL     1     -15.133 -14.389  31.712  1.00  0.00     0.039 C 
ATOM     10  G   UNL     1     -13.027 -15.888  31.472  1.00  0.00     0.000 G0
ENDBRANCH   6   7
ENDBRANCH   5   6
ENDBRANCH   3   5
ENDBRANCH   1   3
BRANCH   1  11
ATOM     11  C   UNL     1     -11.642 -17.950  29.782  1.00  0.00     0.087 C 
BRANCH  11  12
ATOM     12  C   UNL     1     -13.157 -18.111  30.059  1.00  0.00     0.066 C 
BRANCH  12  13
ATOM     13  C   UNL     1     -13.541 -17.293  31.278  1.00  0.00     0.140 C 
ATOM     14  O   UNL     1     -14.298 -17.772  32.111  1.00  0.00    -0.299 OA
BRANCH  13  15
ATOM     15  C   UNL     1     -13.028 -15.892  31.477  1.00  0.00     0.106 CG0
ATOM     16  G   UNL     1     -13.983 -14.891  30.861  1.00  0.00     0.000 G0
ENDBRANCH  13  15
ENDBRANCH  12  13
BRANCH  12  17
ATOM     17  C   UNL     1     -13.568 -19.604  30.258  1.00  0.00    -0.006 C 
ATOM     18  C   UNL     1     -12.559 -20.377  31.128  1.00  0.00     0.008 C 
ATOM     19  C   UNL     1     -13.711 -20.326  28.905  1.00  0.00     0.008 C 
ENDBRANCH  12  17
ENDBRANCH  11  12
ENDBRANCH   1  11
TORSDOF 1
ENDMDL
MODEL 3
REMARK VINA RESULT:    -3.700      1.976      3.891
REMARK INTER + INTRA:          -5.577
REMARK INTER:                  -6.074
REMARK INTRA:                   0.497
REMARK UNBOUND:                 0.070
REMARK SMILES CC1=CCC[C@@H](C)C(=O)C[C@@H](C(C)C)C(=O)C1
REMARK SMILES IDX 8 1 9 2 6 3 7 4 5 5 4 6 3 7 2 8 1 9 10 11 11 12 15 13 16 14
REMARK SMILES IDX 17 15 12 17 13 18 14 19
REMARK H PARENT
REMARK Flexibility Score: 70.00
ROOT
ATOM      1  C   UNL     1     -11.546 -15.500  29.087  1.00  0.00     0.136 C 
ATOM      2  O   UNL     1     -10.881 -14.709  29.739  1.00  0.00    -0.299 OA
ENDROOT
BRANCH   1   3
ATOM      3  C   UNL     1     -10.878 -16.379  28.051  1.00  0.00     0.053 C 
ATOM      4  C   UNL     1     -11.871 -16.680  26.923  1.00  0.00     0.016 C 
BRANCH   3   5
ATOM      5  C   UNL     1     -10.329 -17.694  28.648  1.00  0.00     0.015 C 
BRANCH   5   6
ATOM      6  C   UNL     1     -10.176 -17.656  30.181  1.00  0.00     0.028 C 
BRANCH   6   7
ATOM      7  C   UNL     1     -10.791 -18.877  30.829  1.00  0.00    -0.028 C 
ATOM      8  C   UNL     1     -12.112 -19.163  30.910  1.00  0.00    -0.070 CG0
ATOM      9  C   UNL     1     -12.518 -20.428  31.621  1.00  0.00     0.039 C 
ATOM     10  G   UNL     1     -13.194 -18.316  30.272  1.00  0.00     0.000 G0
ENDBRANCH   6   7
ENDBRANCH   5   6
ENDBRANCH   3   5
ENDBRANCH   1   3
BRANCH   1  11
ATOM     11  C   UNL     1     -13.028 -15.621  29.351  1.00  0.00     0.087 C 
BRANCH  11  12
ATOM     12  C   UNL     1     -13.353 -15.756  30.858  1.00  0.00     0.066 C 
BRANCH  12  13
ATOM     13  C   UNL     1     -13.632 -17.210  31.192  1.00  0.00     0.140 C 
ATOM     14  O   UNL     1     -14.198 -17.490  32.239  1.00  0.00    -0.299 OA
BRANCH  13  15
ATOM     15  C   UNL     1     -13.210 -18.321  30.270  1.00  0.00     0.106 CG0
ATOM     16  G   UNL     1     -12.129 -19.161  30.921  1.00  0.00     0.000 G0
ENDBRANCH  13  15
ENDBRANCH  12  13
BRANCH  12  17
ATOM     17  C   UNL     1     -14.560 -14.862  31.287  1.00  0.00    -0.006 C 
ATOM     18  C   UNL     1     -14.732 -13.635  30.373  1.00  0.00     0.008 C 
ATOM     19  C   UNL     1     -14.405 -14.380  32.742  1.00  0.00     0.008 C 
ENDBRANCH  12  17
ENDBRANCH  11  12
ENDBRANCH   1  11
TORSDOF 1
ENDMDL
MODEL 4
REMARK VINA RESULT:    -3.131      2.088      3.619
REMARK INTER + INTRA:          -4.708
REMARK INTER:                  -5.748
REMARK INTRA:                   1.041
REMARK UNBOUND:                 0.070
REMARK SMILES CC1=CCC[C@@H](C)C(=O)C[C@@H](C(C)C)C(=O)C1
REMARK SMILES IDX 8 1 9 2 6 3 7 4 5 5 4 6 3 7 2 8 1 9 10 11 11 12 15 13 16 14
REMARK SMILES IDX 17 15 12 17 13 18 14 19
REMARK H PARENT
REMARK Flexibility Score: 70.00
ROOT
ATOM      1  C   UNL     1     -13.253 -17.876  27.948  1.00  0.00     0.136 C 
ATOM      2  O   UNL     1     -14.359 -17.481  27.610  1.00  0.00    -0.299 OA
ENDROOT
BRANCH   1   3
ATOM      3  C   UNL     1     -13.112 -19.191  28.685  1.00  0.00     0.053 C 
ATOM      4  C   UNL     1     -14.353 -20.053  28.430  1.00  0.00     0.016 C 
BRANCH   3   5
ATOM      5  C   UNL     1     -12.892 -19.004  30.204  1.00  0.00     0.015 C 
BRANCH   5   6
ATOM      6  C   UNL     1     -11.431 -19.219  30.644  1.00  0.00     0.028 C 
BRANCH   6   7
ATOM      7  C   UNL     1     -10.936 -18.072  31.496  1.00  0.00    -0.028 C 
ATOM      8  C   UNL     1     -10.310 -16.956  31.053  1.00  0.00    -0.070 CG0
ATOM      9  C   UNL     1      -9.875 -15.937  32.076  1.00  0.00     0.039 C 
ATOM     10  G   UNL     1     -10.082 -16.647  29.588  1.00  0.00     0.000 G0
ENDBRANCH   6   7
ENDBRANCH   5   6
ENDBRANCH   3   5
ENDBRANCH   1   3
BRANCH   1  11
ATOM     11  C   UNL     1     -12.030 -17.065  27.592  1.00  0.00     0.087 C 
BRANCH  11  12
ATOM     12  C   UNL     1     -12.055 -15.649  28.217  1.00  0.00     0.066 C 
BRANCH  12  13
ATOM     13  C   UNL     1     -10.863 -15.478  29.140  1.00  0.00     0.140 C 
ATOM     14  O   UNL     1     -10.545 -14.358  29.514  1.00  0.00    -0.299 OA
BRANCH  13  15
ATOM     15  C   UNL     1     -10.046 -16.659  29.593  1.00  0.00     0.106 CG0
ATOM     16  G   UNL     1     -10.304 -16.942  31.059  1.00  0.00     0.000 G0
ENDBRANCH  13  15
ENDBRANCH  12  13
BRANCH  12  17
ATOM     17  C   UNL     1     -13.382 -15.364  28.989  1.00  0.00    -0.006 C 
ATOM     18  C   UNL     1     -13.997 -14.004  28.613  1.00  0.00     0.008 C 
ATOM     19  C   UNL     1     -13.156 -15.401  30.513  1.00  0.00     0.008 C 
ENDBRANCH  12  17
ENDBRANCH  11  12
ENDBRANCH   1  11
TORSDOF 1
ENDMDL
MODEL 5
REMARK VINA RESULT:    -3.105      1.341      2.040
REMARK INTER + INTRA:          -4.670
REMARK INTER:                  -5.552
REMARK INTRA:                   0.882
REMARK UNBOUND:                 0.070
REMARK SMILES CC1=CCC[C@@H](C)C(=O)C[C@@H](C(C)C)C(=O)C1
REMARK SMILES IDX 8 1 9 2 6 3 7 4 5 5 4 6 3 7 2 8 1 9 10 11 11 12 15 13 16 14
REMARK SMILES IDX 17 15 12 17 13 18 14 19
REMARK H PARENT
REMARK Flexibility Score: 70.00
ROOT
ATOM      1  C   UNL     1     -13.232 -18.536  30.824  1.00  0.00     0.136 C 
ATOM      2  O   UNL     1     -12.960 -19.599  31.362  1.00  0.00    -0.299 OA
ENDROOT
BRANCH   1   3
ATOM      3  C   UNL     1     -13.333 -18.453  29.316  1.00  0.00     0.053 C 
ATOM      4  C   UNL     1     -14.389 -19.448  28.822  1.00  0.00     0.016 C 
BRANCH   3   5
ATOM      5  C   UNL     1     -11.982 -18.712  28.612  1.00  0.00     0.015 C 
BRANCH   5   6
ATOM      6  C   UNL     1     -11.545 -17.564  27.681  1.00  0.00     0.028 C 
BRANCH   6   7
ATOM      7  C   UNL     1     -12.710 -16.670  27.319  1.00  0.00    -0.028 C 
ATOM      8  C   UNL     1     -13.026 -15.489  27.901  1.00  0.00    -0.070 CG0
ATOM      9  C   UNL     1     -14.248 -14.761  27.403  1.00  0.00     0.039 C 
ATOM     10  G   UNL     1     -12.185 -14.833  28.977  1.00  0.00     0.000 G0
ENDBRANCH   6   7
ENDBRANCH   5   6
ENDBRANCH   3   5
ENDBRANCH   1   3
BRANCH   1  11
ATOM     11  C   UNL     1     -13.505 -17.319  31.676  1.00  0.00     0.087 C 
BRANCH  11  12
ATOM     12  C   UNL     1     -13.654 -16.027  30.835  1.00  0.00     0.066 C 
BRANCH  12  13
ATOM     13  C   UNL     1     -12.303 -15.631  30.266  1.00  0.00     0.140 C 
ATOM     14  O   UNL     1     -11.283 -15.941  30.865  1.00  0.00    -0.299 OA
BRANCH  13  15
ATOM     15  C   UNL     1     -12.190 -14.846  28.987  1.00  0.00     0.106 CG0
ATOM     16  G   UNL     1     -13.028 -15.490  27.901  1.00  0.00     0.000 G0
ENDBRANCH  13  15
ENDBRANCH  12  13
BRANCH  12  17
ATOM     17  C   UNL     1     -14.259 -14.848  31.660  1.00  0.00    -0.006 C 
ATOM     18  C   UNL     1     -15.151 -15.341  32.815  1.00  0.00     0.008 C 
ATOM     19  C   UNL     1     -15.086 -13.908  30.762  1.00  0.00     0.008 C 
ENDBRANCH  12  17
ENDBRANCH  11  12
ENDBRANCH   1  11
TORSDOF 1
ENDMDL
MODEL 6
REMARK VINA RESULT:    -2.978      1.801      3.561
REMARK INTER + INTRA:          -4.476
REMARK INTER:                  -6.027
REMARK INTRA:                   1.552
REMARK UNBOUND:                 0.070
REMARK SMILES CC1=CCC[C@@H](C)C(=O)C[C@@H](C(C)C)C(=O)C1
REMARK SMILES IDX 8 1 9 2 6 3 7 4 5 5 4 6 3 7 2 8 1 9 10 11 11 12 15 13 16 14
REMARK SMILES IDX 17 15 12 17 13 18 14 19
REMARK H PARENT
REMARK Flexibility Score: 70.00
ROOT
ATOM      1  C   UNL     1     -10.045 -17.295  30.736  1.00  0.00     0.136 C 
ATOM      2  O   UNL     1      -9.922 -17.869  31.808  1.00  0.00    -0.299 OA
ENDROOT
BRANCH   1   3
ATOM      3  C   UNL     1      -9.875 -15.793  30.655  1.00  0.00     0.053 C 
ATOM      4  C   UNL     1     -10.044 -15.187  32.053  1.00  0.00     0.016 C 
BRANCH   3   5
ATOM      5  C   UNL     1     -10.859 -15.133  29.663  1.00  0.00     0.015 C 
BRANCH   5   6
ATOM      6  C   UNL     1     -12.333 -15.237  30.098  1.00  0.00     0.028 C 
BRANCH   6   7
ATOM      7  C   UNL     1     -13.266 -15.189  28.909  1.00  0.00    -0.028 C 
ATOM      8  C   UNL     1     -13.218 -15.992  27.820  1.00  0.00    -0.070 CG0
ATOM      9  C   UNL     1     -14.233 -15.764  26.729  1.00  0.00     0.039 C 
ATOM     10  G   UNL     1     -12.243 -17.142  27.667  1.00  0.00     0.000 G0
ENDBRANCH   6   7
ENDBRANCH   5   6
ENDBRANCH   3   5
ENDBRANCH   1   3
BRANCH   1  11
ATOM     11  C   UNL     1     -10.328 -18.100  29.489  1.00  0.00     0.087 C 
BRANCH  11  12
ATOM     12  C   UNL     1     -11.673 -18.862  29.567  1.00  0.00     0.066 C 
BRANCH  12  13
ATOM     13  C   UNL     1     -12.629 -18.317  28.522  1.00  0.00     0.140 C 
ATOM     14  O   UNL     1     -13.724 -18.841  28.375  1.00  0.00    -0.299 OA
BRANCH  13  15
ATOM     15  C   UNL     1     -12.252 -17.155  27.644  1.00  0.00     0.106 CG0
ATOM     16  G   UNL     1     -13.228 -16.012  27.838  1.00  0.00     0.000 G0
ENDBRANCH  13  15
ENDBRANCH  12  13
BRANCH  12  17
ATOM     17  C   UNL     1     -12.320 -18.780  30.986  1.00  0.00    -0.006 C 
ATOM     18  C   UNL     1     -12.480 -20.167  31.637  1.00  0.00     0.008 C 
ATOM     19  C   UNL     1     -13.700 -18.097  30.928  1.00  0.00     0.008 C 
ENDBRANCH  12  17
ENDBRANCH  11  12
ENDBRANCH   1  11
TORSDOF 1
ENDMDL
MODEL 7
REMARK VINA RESULT:    -2.898      1.974      4.255
REMARK INTER + INTRA:          -4.353
REMARK INTER:                  -5.195
REMARK INTRA:                   0.842
REMARK UNBOUND:                 0.070
REMARK SMILES CC1=CCC[C@@H](C)C(=O)C[C@@H](C(C)C)C(=O)C1
REMARK SMILES IDX 8 1 9 2 6 3 7 4 5 5 4 6 3 7 2 8 1 9 10 11 11 12 15 13 16 14
REMARK SMILES IDX 17 15 12 17 13 18 14 19
REMARK H PARENT
REMARK Flexibility Score: 70.00
ROOT
ATOM      1  C   UNL     1     -13.048 -15.422  28.468  1.00  0.00     0.136 C 
ATOM      2  O   UNL     1     -13.913 -14.577  28.286  1.00  0.00    -0.299 OA
ENDROOT
BRANCH   1   3
ATOM      3  C   UNL     1     -12.605 -16.310  27.324  1.00  0.00     0.053 C 
ATOM      4  C   UNL     1     -13.507 -16.063  26.110  1.00  0.00     0.016 C 
BRANCH   3   5
ATOM      5  C   UNL     1     -12.606 -17.809  27.697  1.00  0.00     0.015 C 
BRANCH   5   6
ATOM      6  C   UNL     1     -13.841 -18.239  28.511  1.00  0.00     0.028 C 
BRANCH   6   7
ATOM      7  C   UNL     1     -13.518 -19.384  29.445  1.00  0.00    -0.028 C 
ATOM      8  C   UNL     1     -12.821 -19.302  30.603  1.00  0.00    -0.070 CG0
ATOM      9  C   UNL     1     -12.589 -20.574  31.379  1.00  0.00     0.039 C 
ATOM     10  G   UNL     1     -12.318 -17.999  31.189  1.00  0.00     0.000 G0
ENDBRANCH   6   7
ENDBRANCH   5   6
ENDBRANCH   3   5
ENDBRANCH   1   3
BRANCH   1  11
ATOM     11  C   UNL     1     -12.401 -15.546  29.826  1.00  0.00     0.087 C 
BRANCH  11  12
ATOM     12  C   UNL     1     -11.015 -16.233  29.762  1.00  0.00     0.066 C 
BRANCH  12  13
ATOM     13  C   UNL     1     -11.062 -17.547  30.521  1.00  0.00     0.140 C 
ATOM     14  O   UNL     1     -10.068 -18.258  30.558  1.00  0.00    -0.299 OA
BRANCH  13  15
ATOM     15  C   UNL     1     -12.315 -18.006  31.217  1.00  0.00     0.106 CG0
ATOM     16  G   UNL     1     -12.811 -19.300  30.605  1.00  0.00     0.000 G0
ENDBRANCH  13  15
ENDBRANCH  12  13
BRANCH  12  17
ATOM     17  C   UNL     1      -9.876 -15.325  30.324  1.00  0.00    -0.006 C 
ATOM     18  C   UNL     1      -9.989 -15.121  31.847  1.00  0.00     0.008 C 
ATOM     19  C   UNL     1      -9.875 -13.946  29.637  1.00  0.00     0.008 C 
ENDBRANCH  12  17
ENDBRANCH  11  12
ENDBRANCH   1  11
TORSDOF 1
ENDMDL
MODEL 8
REMARK VINA RESULT:    -2.850      1.972      4.535
REMARK INTER + INTRA:          -4.279
REMARK INTER:                  -5.429
REMARK INTRA:                   1.149
REMARK UNBOUND:                 0.070
REMARK SMILES CC1=CCC[C@@H](C)C(=O)C[C@@H](C(C)C)C(=O)C1
REMARK SMILES IDX 8 1 9 2 6 3 7 4 5 5 4 6 3 7 2 8 1 9 10 11 11 12 15 13 16 14
REMARK SMILES IDX 17 15 12 17 13 18 14 19
REMARK H PARENT
REMARK Flexibility Score: 70.00
ROOT
ATOM      1  C   UNL     1     -12.323 -15.126  29.593  1.00  0.00     0.136 C 
ATOM      2  O   UNL     1     -12.794 -14.105  29.113  1.00  0.00    -0.299 OA
ENDROOT
BRANCH   1   3
ATOM      3  C   UNL     1     -10.850 -15.191  29.938  1.00  0.00     0.053 C 
ATOM      4  C   UNL     1     -10.078 -15.793  28.760  1.00  0.00     0.016 C 
BRANCH   3   5
ATOM      5  C   UNL     1     -10.574 -15.997  31.228  1.00  0.00     0.015 C 
BRANCH   5   6
ATOM      6  C   UNL     1      -9.893 -17.355  30.970  1.00  0.00     0.028 C 
BRANCH   6   7
ATOM      7  C   UNL     1     -10.804 -18.507  31.327  1.00  0.00    -0.028 C 
ATOM      8  C   UNL     1     -11.668 -19.135  30.494  1.00  0.00    -0.070 CG0
ATOM      9  C   UNL     1     -12.506 -20.254  31.058  1.00  0.00     0.039 C 
ATOM     10  G   UNL     1     -11.792 -18.815  29.018  1.00  0.00     0.000 G0
ENDBRANCH   6   7
ENDBRANCH   5   6
ENDBRANCH   3   5
ENDBRANCH   1   3
BRANCH   1  11
ATOM     11  C   UNL     1     -13.226 -16.302  29.874  1.00  0.00     0.087 C 
BRANCH  11  12
ATOM     12  C   UNL     1     -13.663 -17.037  28.582  1.00  0.00     0.066 C 
BRANCH  12  13
ATOM     13  C   UNL     1     -13.199 -18.481  28.636  1.00  0.00     0.140 C 
ATOM     14  O   UNL     1     -13.992 -19.378  28.388  1.00  0.00    -0.299 OA
BRANCH  13  15
ATOM     15  C   UNL     1     -11.785 -18.837  29.007  1.00  0.00     0.106 CG0
ATOM     16  G   UNL     1     -11.694 -19.147  30.488  1.00  0.00     0.000 G0
ENDBRANCH  13  15
ENDBRANCH  12  13
BRANCH  12  17
ATOM     17  C   UNL     1     -13.121 -16.342  27.293  1.00  0.00    -0.006 C 
ATOM     18  C   UNL     1     -14.253 -15.900  26.348  1.00  0.00     0.008 C 
ATOM     19  C   UNL     1     -12.165 -17.273  26.522  1.00  0.00     0.008 C 
ENDBRANCH  12  17
ENDBRANCH  11  12
ENDBRANCH   1  11
TORSDOF 1
ENDMDL
MODEL 9
REMARK VINA RESULT:    -2.659      1.828      3.879
REMARK INTER + INTRA:          -3.989
REMARK INTER:                  -4.084
REMARK INTRA:                   0.095
REMARK UNBOUND:                 0.070
REMARK SMILES CC1=CCC[C@@H](C)C(=O)C[C@@H](C(C)C)C(=O)C1
REMARK SMILES IDX 8 1 9 2 6 3 7 4 5 5 4 6 3 7 2 8 1 9 10 11 11 12 15 13 16 14
REMARK SMILES IDX 17 15 12 17 13 18 14 19
REMARK H PARENT
REMARK Flexibility Score: 70.00
ROOT
ATOM      1  C   UNL     1     -14.004 -16.547  31.727  1.00  0.00     0.136 C 
ATOM      2  O   UNL     1     -14.744 -16.242  32.651  1.00  0.00    -0.299 OA
ENDROOT
BRANCH   1   3
ATOM      3  C   UNL     1     -13.069 -15.515  31.134  1.00  0.00     0.053 C 
ATOM      4  C   UNL     1     -12.160 -14.959  32.235  1.00  0.00     0.016 C 
BRANCH   3   5
ATOM      5  C   UNL     1     -13.820 -14.364  30.428  1.00  0.00     0.015 C 
BRANCH   5   6
ATOM      6  C   UNL     1     -13.903 -14.532  28.898  1.00  0.00     0.028 C 
BRANCH   6   7
ATOM      7  C   UNL     1     -12.649 -15.167  28.342  1.00  0.00    -0.028 C 
ATOM      8  C   UNL     1     -12.532 -16.429  27.867  1.00  0.00    -0.070 CG0
ATOM      9  C   UNL     1     -11.179 -16.876  27.375  1.00  0.00     0.039 C 
ATOM     10  G   UNL     1     -13.696 -17.391  27.746  1.00  0.00     0.000 G0
ENDBRANCH   6   7
ENDBRANCH   5   6
ENDBRANCH   3   5
ENDBRANCH   1   3
BRANCH   1  11
ATOM     11  C   UNL     1     -14.001 -17.966  31.212  1.00  0.00     0.087 C 
BRANCH  11  12
ATOM     12  C   UNL     1     -12.918 -18.203  30.131  1.00  0.00     0.066 C 
BRANCH  12  13
ATOM     13  C   UNL     1     -13.584 -18.472  28.793  1.00  0.00     0.140 C 
ATOM     14  O   UNL     1     -14.037 -19.583  28.559  1.00  0.00    -0.299 OA
BRANCH  13  15
ATOM     15  C   UNL     1     -13.681 -17.405  27.737  1.00  0.00     0.106 CG0
ATOM     16  G   UNL     1     -12.527 -16.432  27.866  1.00  0.00     0.000 G0
ENDBRANCH  13  15
ENDBRANCH  12  13
BRANCH  12  17
ATOM     17  C   UNL     1     -11.956 -19.375  30.501  1.00  0.00    -0.006 C 
ATOM     18  C   UNL     1     -12.493 -20.226  31.667  1.00  0.00     0.008 C 
ATOM     19  C   UNL     1     -10.557 -18.849  30.875  1.00  0.00     0.008 C 
ENDBRANCH  12  17
ENDBRANCH  11  12
ENDBRANCH   1  11
TORSDOF 1
ENDMDL
