MODEL 1
REMARK VINA RESULT:    -9.802      0.000      0.000
REMARK INTER + INTRA:         -13.163
REMARK INTER:                 -12.954
REMARK INTRA:                  -0.209
REMARK UNBOUND:                -0.209
REMARK SMILES O=C([O-])[C@H]1O[C@H](Oc2cc3oc(-c4ccccc4)cc(=O)c3c(O)c2O)[C@@H](O)[C@H](O)[C@H]1O
REMARK SMILES IDX 7 1 6 2 4 3 31 4 5 5 29 6 27 7 2 8 1 9 3 10 32 11 30 13
REMARK SMILES IDX 28 15 8 17 25 18 9 19 23 20 10 21 22 22 11 23 20 24 12 25
REMARK SMILES IDX 19 26 21 27 26 28 24 30 13 32 14 33 18 34 15 35 17 36 16 37
REMARK H PARENT 32 12 30 14 28 16 26 29 24 31
REMARK Flexibility Score: inf
ROOT
ATOM      1  O   UNL     1     -67.033 -39.373 -37.678  1.00  0.00    -0.458 OA
ENDROOT
BRANCH   1   2
ATOM      2  C   UNL     1     -68.058 -40.070 -38.537  1.00  0.00     0.339 C 
ATOM      3  C   UNL     1     -67.282 -41.782 -40.498  1.00  0.00     0.199 C 
ATOM      4  C   UNL     1     -67.288 -43.067 -39.283  1.00  0.00     0.180 C 
ATOM      5  O   UNL     1     -67.570 -40.376 -39.959  1.00  0.00    -0.328 OA
ATOM      6  C   UNL     1     -67.777 -42.627 -37.797  1.00  0.00     0.181 C 
ATOM      7  C   UNL     1     -68.745 -41.284 -37.757  1.00  0.00     0.214 C 
BRANCH   3   8
ATOM      8  C   UNL     1     -67.325 -41.696 -42.351  1.00  0.00     0.073 C 
ATOM      9  O   UNL     1     -66.789 -41.148 -41.327  1.00  0.00    -0.547 OA
ATOM     10  O   UNL     1     -66.355 -42.355 -43.252  1.00  0.00    -0.547 OA
ENDBRANCH   3   8
BRANCH   4  11
ATOM     11  O   UNL     1     -67.729 -44.488 -39.518  1.00  0.00    -0.387 OA
ATOM     12  H   UNL     1     -68.738 -44.596 -39.455  1.00  0.00     0.211 HD
ENDBRANCH   4  11
BRANCH   6  13
ATOM     13  O   UNL     1     -66.521 -42.369 -37.073  1.00  0.00    -0.387 OA
ATOM     14  H   UNL     1     -66.576 -42.044 -36.102  1.00  0.00     0.211 HD
ENDBRANCH   6  13
BRANCH   7  15
ATOM     15  O   UNL     1     -70.069 -41.330 -38.322  1.00  0.00    -0.384 OA
ATOM     16  H   UNL     1     -70.700 -41.443 -37.543  1.00  0.00     0.211 HD
ENDBRANCH   7  15
ENDBRANCH   1   2
BRANCH   1  17
ATOM     17  C   UNL     1     -67.311 -39.134 -36.355  1.00  0.00     0.172 A 
ATOM     18  C   UNL     1     -68.171 -37.991 -36.144  1.00  0.00     0.201 A 
ATOM     19  C   UNL     1     -66.557 -39.556 -35.261  1.00  0.00     0.098 A 
ATOM     20  C   UNL     1     -67.761 -36.979 -35.157  1.00  0.00     0.176 A 
ATOM     21  C   UNL     1     -66.298 -38.535 -34.224  1.00  0.00     0.146 A 
ATOM     22  C   UNL     1     -66.557 -37.270 -34.463  1.00  0.00     0.111 A 
ATOM     23  O   UNL     1     -65.846 -38.683 -33.000  1.00  0.00    -0.456 OA
ATOM     24  C   UNL     1     -65.660 -36.293 -33.871  1.00  0.00     0.197 A 
ATOM     25  C   UNL     1     -65.582 -37.693 -32.045  1.00  0.00     0.138 A 
ATOM     26  C   UNL     1     -65.674 -36.343 -32.408  1.00  0.00     0.100 A 
ATOM     27  O   UNL     1     -64.526 -36.275 -34.390  1.00  0.00    -0.289 OA
BRANCH  18  28
ATOM     28  O   UNL     1     -69.452 -37.918 -36.842  1.00  0.00    -0.502 OA
ATOM     29  H   UNL     1     -70.231 -38.227 -36.541  1.00  0.00     0.293 HD
ENDBRANCH  18  28
BRANCH  20  30
ATOM     30  O   UNL     1     -68.702 -36.092 -34.583  1.00  0.00    -0.504 OA
ATOM     31  H   UNL     1     -68.328 -35.239 -34.185  1.00  0.00     0.293 HD
ENDBRANCH  20  30
BRANCH  25  32
ATOM     32  C   UNL     1     -65.164 -37.879 -30.596  1.00  0.00     0.017 A 
ATOM     33  C   UNL     1     -66.045 -37.743 -29.548  1.00  0.00     0.012 A 
ATOM     34  C   UNL     1     -64.412 -39.073 -30.312  1.00  0.00     0.012 A 
ATOM     35  C   UNL     1     -65.739 -38.173 -28.217  1.00  0.00     0.001 A 
ATOM     36  C   UNL     1     -64.065 -39.660 -29.028  1.00  0.00     0.001 A 
ATOM     37  C   UNL     1     -64.456 -38.776 -27.985  1.00  0.00     0.000 A 
ENDBRANCH  25  32
ENDBRANCH   1  17
TORSDOF 9
ENDMDL
MODEL 2
REMARK VINA RESULT:    -9.776      4.059      6.218
REMARK INTER + INTRA:         -13.129
REMARK INTER:                 -12.602
REMARK INTRA:                  -0.527
REMARK UNBOUND:                -0.209
REMARK SMILES O=C([O-])[C@H]1O[C@H](Oc2cc3oc(-c4ccccc4)cc(=O)c3c(O)c2O)[C@@H](O)[C@H](O)[C@H]1O
REMARK SMILES IDX 7 1 6 2 4 3 31 4 5 5 29 6 27 7 2 8 1 9 3 10 32 11 30 13
REMARK SMILES IDX 28 15 8 17 25 18 9 19 23 20 10 21 22 22 11 23 20 24 12 25
REMARK SMILES IDX 19 26 21 27 26 28 24 30 13 32 14 33 18 34 15 35 17 36 16 37
REMARK H PARENT 32 12 30 14 28 16 26 29 24 31
REMARK Flexibility Score: inf
ROOT
ATOM      1  O   UNL     1     -66.740 -42.957 -38.623  1.00  0.00    -0.458 OA
ENDROOT
BRANCH   1   2
ATOM      2  C   UNL     1     -66.365 -43.419 -40.008  1.00  0.00     0.339 C 
ATOM      3  C   UNL     1     -65.013 -45.747 -40.369  1.00  0.00     0.199 C 
ATOM      4  C   UNL     1     -66.578 -46.569 -40.416  1.00  0.00     0.180 C 
ATOM      5  O   UNL     1     -65.075 -44.248 -40.058  1.00  0.00    -0.328 OA
ATOM      6  C   UNL     1     -67.882 -45.605 -40.310  1.00  0.00     0.181 C 
ATOM      7  C   UNL     1     -67.622 -44.038 -40.779  1.00  0.00     0.214 C 
BRANCH   3   8
ATOM      8  C   UNL     1     -63.281 -46.142 -40.906  1.00  0.00     0.073 C 
ATOM      9  O   UNL     1     -63.984 -45.224 -40.358  1.00  0.00    -0.547 OA
ATOM     10  O   UNL     1     -62.225 -46.691 -40.027  1.00  0.00    -0.547 OA
ENDBRANCH   3   8
BRANCH   4  11
ATOM     11  O   UNL     1     -66.927 -47.730 -41.310  1.00  0.00    -0.387 OA
ATOM     12  H   UNL     1     -67.600 -47.477 -42.029  1.00  0.00     0.211 HD
ENDBRANCH   4  11
BRANCH   6  13
ATOM     13  O   UNL     1     -68.243 -45.655 -38.884  1.00  0.00    -0.387 OA
ATOM     14  H   UNL     1     -67.665 -46.223 -38.254  1.00  0.00     0.211 HD
ENDBRANCH   6  13
BRANCH   7  15
ATOM     15  O   UNL     1     -67.345 -43.732 -42.158  1.00  0.00    -0.384 OA
ATOM     16  H   UNL     1     -67.515 -44.583 -42.672  1.00  0.00     0.211 HD
ENDBRANCH   7  15
ENDBRANCH   1   2
BRANCH   1  17
ATOM     17  C   UNL     1     -66.427 -41.679 -38.231  1.00  0.00     0.172 A 
ATOM     18  C   UNL     1     -66.261 -41.540 -36.802  1.00  0.00     0.201 A 
ATOM     19  C   UNL     1     -66.677 -40.509 -38.945  1.00  0.00     0.098 A 
ATOM     20  C   UNL     1     -66.978 -40.452 -36.116  1.00  0.00     0.176 A 
ATOM     21  C   UNL     1     -67.265 -39.394 -38.173  1.00  0.00     0.146 A 
ATOM     22  C   UNL     1     -67.737 -39.604 -36.966  1.00  0.00     0.111 A 
ATOM     23  O   UNL     1     -67.382 -38.126 -38.493  1.00  0.00    -0.456 OA
ATOM     24  C   UNL     1     -68.907 -38.837 -36.575  1.00  0.00     0.197 A 
ATOM     25  C   UNL     1     -67.970 -37.094 -37.752  1.00  0.00     0.138 A 
ATOM     26  C   UNL     1     -68.646 -37.397 -36.562  1.00  0.00     0.100 A 
ATOM     27  O   UNL     1     -69.950 -39.181 -37.165  1.00  0.00    -0.289 OA
BRANCH  18  28
ATOM     28  O   UNL     1     -65.326 -42.414 -36.098  1.00  0.00    -0.502 OA
ATOM     29  H   UNL     1     -64.439 -42.409 -36.182  1.00  0.00     0.293 HD
ENDBRANCH  18  28
BRANCH  20  30
ATOM     30  O   UNL     1     -66.556 -39.979 -34.851  1.00  0.00    -0.504 OA
ATOM     31  H   UNL     1     -67.155 -39.293 -34.407  1.00  0.00     0.293 HD
ENDBRANCH  20  30
BRANCH  25  32
ATOM     32  C   UNL     1     -68.005 -35.610 -38.080  1.00  0.00     0.017 A 
ATOM     33  C   UNL     1     -69.176 -34.887 -38.115  1.00  0.00     0.012 A 
ATOM     34  C   UNL     1     -67.070 -34.789 -37.358  1.00  0.00     0.012 A 
ATOM     35  C   UNL     1     -69.203 -33.456 -38.154  1.00  0.00     0.001 A 
ATOM     36  C   UNL     1     -66.999 -33.340 -37.260  1.00  0.00     0.001 A 
ATOM     37  C   UNL     1     -67.946 -32.761 -38.149  1.00  0.00     0.000 A 
ENDBRANCH  25  32
ENDBRANCH   1  17
TORSDOF 9
ENDMDL
MODEL 3
REMARK VINA RESULT:    -9.463      2.006      8.992
REMARK INTER + INTRA:         -12.714
REMARK INTER:                 -12.609
REMARK INTRA:                  -0.106
REMARK UNBOUND:                -0.209
REMARK SMILES O=C([O-])[C@H]1O[C@H](Oc2cc3oc(-c4ccccc4)cc(=O)c3c(O)c2O)[C@@H](O)[C@H](O)[C@H]1O
REMARK SMILES IDX 7 1 6 2 4 3 31 4 5 5 29 6 27 7 2 8 1 9 3 10 32 11 30 13
REMARK SMILES IDX 28 15 8 17 25 18 9 19 23 20 10 21 22 22 11 23 20 24 12 25
REMARK SMILES IDX 19 26 21 27 26 28 24 30 13 32 14 33 18 34 15 35 17 36 16 37
REMARK H PARENT 32 12 30 14 28 16 26 29 24 31
REMARK Flexibility Score: inf
ROOT
ATOM      1  O   UNL     1     -66.403 -37.496 -36.498  1.00  0.00    -0.458 OA
ENDROOT
BRANCH   1   2
ATOM      2  C   UNL     1     -67.137 -37.173 -35.221  1.00  0.00     0.339 C 
ATOM      3  C   UNL     1     -65.767 -36.690 -32.925  1.00  0.00     0.199 C 
ATOM      4  C   UNL     1     -65.679 -34.994 -33.416  1.00  0.00     0.180 C 
ATOM      5  O   UNL     1     -66.406 -37.632 -33.953  1.00  0.00    -0.328 OA
ATOM      6  C   UNL     1     -66.448 -34.620 -34.798  1.00  0.00     0.181 C 
ATOM      7  C   UNL     1     -67.664 -35.664 -35.215  1.00  0.00     0.214 C 
BRANCH   3   8
ATOM      8  C   UNL     1     -65.571 -37.634 -31.339  1.00  0.00     0.073 C 
ATOM      9  O   UNL     1     -66.001 -37.753 -32.539  1.00  0.00    -0.547 OA
ATOM     10  O   UNL     1     -64.437 -38.529 -31.021  1.00  0.00    -0.547 OA
ENDBRANCH   3   8
BRANCH   4  11
ATOM     11  O   UNL     1     -65.786 -33.811 -32.488  1.00  0.00    -0.387 OA
ATOM     12  H   UNL     1     -66.574 -33.211 -32.715  1.00  0.00     0.211 HD
ENDBRANCH   4  11
BRANCH   6  13
ATOM     13  O   UNL     1     -65.382 -34.651 -35.814  1.00  0.00    -0.387 OA
ATOM     14  H   UNL     1     -64.623 -35.333 -35.704  1.00  0.00     0.211 HD
ENDBRANCH   6  13
BRANCH   7  15
ATOM     15  O   UNL     1     -68.860 -35.737 -34.418  1.00  0.00    -0.384 OA
ATOM     16  H   UNL     1     -69.542 -35.157 -34.884  1.00  0.00     0.211 HD
ENDBRANCH   7  15
ENDBRANCH   1   2
BRANCH   1  17
ATOM     17  C   UNL     1     -66.944 -38.403 -37.375  1.00  0.00     0.172 A 
ATOM     18  C   UNL     1     -68.337 -38.692 -37.118  1.00  0.00     0.201 A 
ATOM     19  C   UNL     1     -66.245 -39.338 -38.137  1.00  0.00     0.098 A 
ATOM     20  C   UNL     1     -68.756 -40.102 -37.038  1.00  0.00     0.176 A 
ATOM     21  C   UNL     1     -66.794 -40.710 -38.139  1.00  0.00     0.146 A 
ATOM     22  C   UNL     1     -67.726 -41.049 -37.279  1.00  0.00     0.111 A 
ATOM     23  O   UNL     1     -66.514 -41.721 -38.928  1.00  0.00    -0.456 OA
ATOM     24  C   UNL     1     -67.688 -42.409 -36.771  1.00  0.00     0.197 A 
ATOM     25  C   UNL     1     -67.031 -43.022 -38.890  1.00  0.00     0.138 A 
ATOM     26  C   UNL     1     -67.866 -43.402 -37.831  1.00  0.00     0.100 A 
ATOM     27  O   UNL     1     -66.736 -42.628 -35.996  1.00  0.00    -0.289 OA
BRANCH  18  28
ATOM     28  O   UNL     1     -69.296 -37.594 -37.037  1.00  0.00    -0.502 OA
ATOM     29  H   UNL     1     -69.932 -37.497 -36.421  1.00  0.00     0.293 HD
ENDBRANCH  18  28
BRANCH  20  30
ATOM     30  O   UNL     1     -70.108 -40.475 -37.223  1.00  0.00    -0.504 OA
ATOM     31  H   UNL     1     -70.580 -40.067 -38.022  1.00  0.00     0.293 HD
ENDBRANCH  20  30
BRANCH  25  32
ATOM     32  C   UNL     1     -66.785 -44.155 -39.873  1.00  0.00     0.017 A 
ATOM     33  C   UNL     1     -67.471 -45.346 -39.817  1.00  0.00     0.012 A 
ATOM     34  C   UNL     1     -66.774 -43.784 -41.263  1.00  0.00     0.012 A 
ATOM     35  C   UNL     1     -67.449 -46.306 -40.880  1.00  0.00     0.001 A 
ATOM     36  C   UNL     1     -66.798 -44.632 -42.444  1.00  0.00     0.001 A 
ATOM     37  C   UNL     1     -66.676 -45.993 -42.049  1.00  0.00     0.000 A 
ENDBRANCH  25  32
ENDBRANCH   1  17
TORSDOF 9
ENDMDL
MODEL 4
REMARK VINA RESULT:    -9.062      1.574      2.049
REMARK INTER + INTRA:         -12.185
REMARK INTER:                 -12.197
REMARK INTRA:                   0.012
REMARK UNBOUND:                -0.209
REMARK SMILES O=C([O-])[C@H]1O[C@H](Oc2cc3oc(-c4ccccc4)cc(=O)c3c(O)c2O)[C@@H](O)[C@H](O)[C@H]1O
REMARK SMILES IDX 7 1 6 2 4 3 31 4 5 5 29 6 27 7 2 8 1 9 3 10 32 11 30 13
REMARK SMILES IDX 28 15 8 17 25 18 9 19 23 20 10 21 22 22 11 23 20 24 12 25
REMARK SMILES IDX 19 26 21 27 26 28 24 30 13 32 14 33 18 34 15 35 17 36 16 37
REMARK H PARENT 32 12 30 14 28 16 26 29 24 31
REMARK Flexibility Score: inf
ROOT
ATOM      1  O   UNL     1     -67.751 -38.133 -37.911  1.00  0.00    -0.458 OA
ENDROOT
BRANCH   1   2
ATOM      2  C   UNL     1     -68.223 -39.550 -38.119  1.00  0.00     0.339 C 
ATOM      3  C   UNL     1     -67.123 -41.102 -40.058  1.00  0.00     0.199 C 
ATOM      4  C   UNL     1     -65.895 -41.583 -38.880  1.00  0.00     0.180 C 
ATOM      5  O   UNL     1     -68.110 -40.035 -39.569  1.00  0.00    -0.328 OA
ATOM      6  C   UNL     1     -66.081 -40.978 -37.383  1.00  0.00     0.181 C 
ATOM      7  C   UNL     1     -67.630 -40.533 -37.006  1.00  0.00     0.214 C 
BRANCH   3   8
ATOM      8  C   UNL     1     -67.761 -41.767 -41.669  1.00  0.00     0.073 C 
ATOM      9  O   UNL     1     -67.725 -40.703 -40.959  1.00  0.00    -0.547 OA
ATOM     10  O   UNL     1     -67.070 -41.639 -42.971  1.00  0.00    -0.547 OA
ENDBRANCH   3   8
BRANCH   4  11
ATOM     11  O   UNL     1     -65.298 -42.961 -38.756  1.00  0.00    -0.387 OA
ATOM     12  H   UNL     1     -65.378 -43.334 -37.814  1.00  0.00     0.211 HD
ENDBRANCH   4  11
BRANCH   6  13
ATOM     13  O   UNL     1     -65.196 -39.801 -37.367  1.00  0.00    -0.387 OA
ATOM     14  H   UNL     1     -64.283 -39.870 -37.830  1.00  0.00     0.211 HD
ENDBRANCH   6  13
BRANCH   7  15
ATOM     15  O   UNL     1     -68.657 -41.532 -36.869  1.00  0.00    -0.384 OA
ATOM     16  H   UNL     1     -68.178 -42.402 -36.693  1.00  0.00     0.211 HD
ENDBRANCH   7  15
ENDBRANCH   1   2
BRANCH   1  17
ATOM     17  C   UNL     1     -67.555 -37.667 -36.635  1.00  0.00     0.172 A 
ATOM     18  C   UNL     1     -66.547 -36.635 -36.547  1.00  0.00     0.201 A 
ATOM     19  C   UNL     1     -67.865 -38.337 -35.452  1.00  0.00     0.098 A 
ATOM     20  C   UNL     1     -65.487 -36.776 -35.535  1.00  0.00     0.176 A 
ATOM     21  C   UNL     1     -66.817 -38.323 -34.409  1.00  0.00     0.146 A 
ATOM     22  C   UNL     1     -65.603 -37.917 -34.699  1.00  0.00     0.111 A 
ATOM     23  O   UNL     1     -66.899 -38.642 -33.138  1.00  0.00    -0.456 OA
ATOM     24  C   UNL     1     -64.507 -38.588 -34.021  1.00  0.00     0.197 A 
ATOM     25  C   UNL     1     -65.882 -38.646 -32.176  1.00  0.00     0.138 A 
ATOM     26  C   UNL     1     -64.558 -38.407 -32.570  1.00  0.00     0.100 A 
ATOM     27  O   UNL     1     -64.327 -39.762 -34.402  1.00  0.00    -0.289 OA
BRANCH  18  28
ATOM     28  O   UNL     1     -66.658 -35.449 -37.392  1.00  0.00    -0.502 OA
ATOM     29  H   UNL     1     -66.018 -34.847 -37.537  1.00  0.00     0.293 HD
ENDBRANCH  18  28
BRANCH  20  30
ATOM     30  O   UNL     1     -64.744 -35.656 -35.092  1.00  0.00    -0.504 OA
ATOM     31  H   UNL     1     -63.736 -35.763 -35.082  1.00  0.00     0.293 HD
ENDBRANCH  20  30
BRANCH  25  32
ATOM     32  C   UNL     1     -66.007 -38.910 -30.684  1.00  0.00     0.017 A 
ATOM     33  C   UNL     1     -66.029 -40.181 -30.157  1.00  0.00     0.012 A 
ATOM     34  C   UNL     1     -65.113 -38.162 -29.842  1.00  0.00     0.012 A 
ATOM     35  C   UNL     1     -65.875 -40.443 -28.758  1.00  0.00     0.001 A 
ATOM     36  C   UNL     1     -64.815 -38.337 -28.429  1.00  0.00     0.001 A 
ATOM     37  C   UNL     1     -65.684 -39.321 -27.882  1.00  0.00     0.000 A 
ENDBRANCH  25  32
ENDBRANCH   1  17
TORSDOF 9
ENDMDL
MODEL 5
REMARK VINA RESULT:    -8.980      1.544      2.841
REMARK INTER + INTRA:         -12.077
REMARK INTER:                 -12.068
REMARK INTRA:                  -0.009
REMARK UNBOUND:                -0.209
REMARK SMILES O=C([O-])[C@H]1O[C@H](Oc2cc3oc(-c4ccccc4)cc(=O)c3c(O)c2O)[C@@H](O)[C@H](O)[C@H]1O
REMARK SMILES IDX 7 1 6 2 4 3 31 4 5 5 29 6 27 7 2 8 1 9 3 10 32 11 30 13
REMARK SMILES IDX 28 15 8 17 25 18 9 19 23 20 10 21 22 22 11 23 20 24 12 25
REMARK SMILES IDX 19 26 21 27 26 28 24 30 13 32 14 33 18 34 15 35 17 36 16 37
REMARK H PARENT 32 12 30 14 28 16 26 29 24 31
REMARK Flexibility Score: inf
ROOT
ATOM      1  O   UNL     1     -68.251 -38.107 -38.129  1.00  0.00    -0.458 OA
ENDROOT
BRANCH   1   2
ATOM      2  C   UNL     1     -67.144 -39.004 -38.623  1.00  0.00     0.339 C 
ATOM      3  C   UNL     1     -66.406 -41.197 -37.199  1.00  0.00     0.199 C 
ATOM      4  C   UNL     1     -67.652 -42.097 -38.073  1.00  0.00     0.180 C 
ATOM      5  O   UNL     1     -66.359 -39.694 -37.500  1.00  0.00    -0.328 OA
ATOM      6  C   UNL     1     -68.457 -41.261 -39.210  1.00  0.00     0.181 C 
ATOM      7  C   UNL     1     -67.642 -39.950 -39.810  1.00  0.00     0.214 C 
BRANCH   3   8
ATOM      8  C   UNL     1     -64.891 -41.624 -36.216  1.00  0.00     0.073 C 
ATOM      9  O   UNL     1     -65.275 -40.972 -37.248  1.00  0.00    -0.547 OA
ATOM     10  O   UNL     1     -64.299 -40.775 -35.159  1.00  0.00    -0.547 OA
ENDBRANCH   3   8
BRANCH   4  11
ATOM     11  O   UNL     1     -67.530 -43.524 -38.541  1.00  0.00    -0.387 OA
ATOM     12  H   UNL     1     -68.042 -44.172 -37.947  1.00  0.00     0.211 HD
ENDBRANCH   4  11
BRANCH   6  13
ATOM     13  O   UNL     1     -69.685 -40.825 -38.525  1.00  0.00    -0.387 OA
ATOM     14  H   UNL     1     -70.505 -40.591 -39.095  1.00  0.00     0.211 HD
ENDBRANCH   6  13
BRANCH   7  15
ATOM     15  O   UNL     1     -66.455 -40.137 -40.602  1.00  0.00    -0.384 OA
ATOM     16  H   UNL     1     -66.714 -40.765 -41.348  1.00  0.00     0.211 HD
ENDBRANCH   7  15
ENDBRANCH   1   2
BRANCH   1  17
ATOM     17  C   UNL     1     -68.299 -37.762 -36.801  1.00  0.00     0.172 A 
ATOM     18  C   UNL     1     -68.071 -36.355 -36.562  1.00  0.00     0.201 A 
ATOM     19  C   UNL     1     -68.106 -38.617 -35.717  1.00  0.00     0.098 A 
ATOM     20  C   UNL     1     -67.077 -35.969 -35.547  1.00  0.00     0.176 A 
ATOM     21  C   UNL     1     -67.211 -38.117 -34.652  1.00  0.00     0.146 A 
ATOM     22  C   UNL     1     -66.471 -37.052 -34.858  1.00  0.00     0.111 A 
ATOM     23  O   UNL     1     -67.031 -38.566 -33.431  1.00  0.00    -0.456 OA
ATOM     24  C   UNL     1     -65.157 -37.035 -34.237  1.00  0.00     0.197 A 
ATOM     25  C   UNL     1     -66.154 -38.089 -32.450  1.00  0.00     0.138 A 
ATOM     26  C   UNL     1     -65.233 -37.084 -32.777  1.00  0.00     0.100 A 
ATOM     27  O   UNL     1     -64.350 -37.834 -34.753  1.00  0.00    -0.289 OA
BRANCH  18  28
ATOM     28  O   UNL     1     -68.889 -35.366 -37.261  1.00  0.00    -0.502 OA
ATOM     29  H   UNL     1     -68.866 -34.485 -37.136  1.00  0.00     0.293 HD
ENDBRANCH  18  28
BRANCH  20  30
ATOM     30  O   UNL     1     -67.099 -34.685 -34.952  1.00  0.00    -0.504 OA
ATOM     31  H   UNL     1     -67.981 -34.397 -34.543  1.00  0.00     0.293 HD
ENDBRANCH  20  30
BRANCH  25  32
ATOM     32  C   UNL     1     -66.030 -38.544 -31.005  1.00  0.00     0.017 A 
ATOM     33  C   UNL     1     -66.073 -39.870 -30.640  1.00  0.00     0.012 A 
ATOM     34  C   UNL     1     -64.935 -37.978 -30.265  1.00  0.00     0.012 A 
ATOM     35  C   UNL     1     -65.693 -40.329 -29.338  1.00  0.00     0.001 A 
ATOM     36  C   UNL     1     -64.403 -38.362 -28.967  1.00  0.00     0.001 A 
ATOM     37  C   UNL     1     -65.244 -39.351 -28.387  1.00  0.00     0.000 A 
ENDBRANCH  25  32
ENDBRANCH   1  17
TORSDOF 9
ENDMDL
MODEL 6
REMARK VINA RESULT:    -8.976      2.050      3.785
REMARK INTER + INTRA:         -12.072
REMARK INTER:                 -11.396
REMARK INTRA:                  -0.676
REMARK UNBOUND:                -0.209
REMARK SMILES O=C([O-])[C@H]1O[C@H](Oc2cc3oc(-c4ccccc4)cc(=O)c3c(O)c2O)[C@@H](O)[C@H](O)[C@H]1O
REMARK SMILES IDX 7 1 6 2 4 3 31 4 5 5 29 6 27 7 2 8 1 9 3 10 32 11 30 13
REMARK SMILES IDX 28 15 8 17 25 18 9 19 23 20 10 21 22 22 11 23 20 24 12 25
REMARK SMILES IDX 19 26 21 27 26 28 24 30 13 32 14 33 18 34 15 35 17 36 16 37
REMARK H PARENT 32 12 30 14 28 16 26 29 24 31
REMARK Flexibility Score: inf
ROOT
ATOM      1  O   UNL     1     -67.880 -43.155 -38.613  1.00  0.00    -0.458 OA
ENDROOT
BRANCH   1   2
ATOM      2  C   UNL     1     -66.853 -42.834 -39.670  1.00  0.00     0.339 C 
ATOM      3  C   UNL     1     -65.459 -44.822 -40.889  1.00  0.00     0.199 C 
ATOM      4  C   UNL     1     -66.775 -44.928 -42.066  1.00  0.00     0.180 C 
ATOM      5  O   UNL     1     -65.697 -43.840 -39.735  1.00  0.00    -0.328 OA
ATOM      6  C   UNL     1     -67.973 -43.846 -41.880  1.00  0.00     0.181 C 
ATOM      7  C   UNL     1     -67.543 -42.471 -41.065  1.00  0.00     0.214 C 
BRANCH   3   8
ATOM      8  C   UNL     1     -63.684 -45.358 -40.818  1.00  0.00     0.073 C 
ATOM      9  O   UNL     1     -64.555 -44.661 -40.190  1.00  0.00    -0.547 OA
ATOM     10  O   UNL     1     -63.179 -46.517 -40.049  1.00  0.00    -0.547 OA
ENDBRANCH   3   8
BRANCH   4  11
ATOM     11  O   UNL     1     -66.607 -45.190 -43.540  1.00  0.00    -0.387 OA
ATOM     12  H   UNL     1     -67.454 -44.996 -44.067  1.00  0.00     0.211 HD
ENDBRANCH   4  11
BRANCH   6  13
ATOM     13  O   UNL     1     -69.000 -44.584 -41.125  1.00  0.00    -0.387 OA
ATOM     14  H   UNL     1     -69.946 -44.189 -41.074  1.00  0.00     0.211 HD
ENDBRANCH   6  13
BRANCH   7  15
ATOM     15  O   UNL     1     -66.618 -41.539 -41.656  1.00  0.00    -0.384 OA
ATOM     16  H   UNL     1     -66.134 -41.101 -40.887  1.00  0.00     0.211 HD
ENDBRANCH   7  15
ENDBRANCH   1   2
BRANCH   1  17
ATOM     17  C   UNL     1     -68.070 -42.282 -37.570  1.00  0.00     0.172 A 
ATOM     18  C   UNL     1     -68.820 -41.102 -37.936  1.00  0.00     0.201 A 
ATOM     19  C   UNL     1     -67.298 -42.195 -36.413  1.00  0.00     0.098 A 
ATOM     20  C   UNL     1     -68.278 -39.784 -37.565  1.00  0.00     0.176 A 
ATOM     21  C   UNL     1     -66.903 -40.831 -36.002  1.00  0.00     0.146 A 
ATOM     22  C   UNL     1     -67.068 -39.821 -36.823  1.00  0.00     0.111 A 
ATOM     23  O   UNL     1     -66.402 -40.414 -34.861  1.00  0.00    -0.456 OA
ATOM     24  C   UNL     1     -66.065 -38.771 -36.783  1.00  0.00     0.197 A 
ATOM     25  C   UNL     1     -66.009 -39.118 -34.508  1.00  0.00     0.138 A 
ATOM     26  C   UNL     1     -66.007 -38.108 -35.480  1.00  0.00     0.100 A 
ATOM     27  O   UNL     1     -64.961 -39.115 -37.251  1.00  0.00    -0.289 OA
BRANCH  18  28
ATOM     28  O   UNL     1     -70.125 -41.250 -38.576  1.00  0.00    -0.502 OA
ATOM     29  H   UNL     1     -70.280 -41.267 -39.453  1.00  0.00     0.293 HD
ENDBRANCH  18  28
BRANCH  20  30
ATOM     30  O   UNL     1     -69.112 -38.644 -37.489  1.00  0.00    -0.504 OA
ATOM     31  H   UNL     1     -68.737 -37.789 -37.883  1.00  0.00     0.293 HD
ENDBRANCH  20  30
BRANCH  25  32
ATOM     32  C   UNL     1     -65.534 -38.621 -33.152  1.00  0.00     0.017 A 
ATOM     33  C   UNL     1     -65.642 -37.305 -32.766  1.00  0.00     0.012 A 
ATOM     34  C   UNL     1     -65.972 -39.391 -32.018  1.00  0.00     0.012 A 
ATOM     35  C   UNL     1     -65.452 -36.876 -31.413  1.00  0.00     0.001 A 
ATOM     36  C   UNL     1     -65.895 -39.070 -30.602  1.00  0.00     0.001 A 
ATOM     37  C   UNL     1     -65.143 -37.875 -30.429  1.00  0.00     0.000 A 
ENDBRANCH  25  32
ENDBRANCH   1  17
TORSDOF 9
ENDMDL
MODEL 7
REMARK VINA RESULT:    -8.944      2.858      8.923
REMARK INTER + INTRA:         -12.029
REMARK INTER:                 -11.381
REMARK INTRA:                  -0.648
REMARK UNBOUND:                -0.209
REMARK SMILES O=C([O-])[C@H]1O[C@H](Oc2cc3oc(-c4ccccc4)cc(=O)c3c(O)c2O)[C@@H](O)[C@H](O)[C@H]1O
REMARK SMILES IDX 7 1 6 2 4 3 31 4 5 5 29 6 27 7 2 8 1 9 3 10 32 11 30 13
REMARK SMILES IDX 28 15 8 17 25 18 9 19 23 20 10 21 22 22 11 23 20 24 12 25
REMARK SMILES IDX 19 26 21 27 26 28 24 30 13 32 14 33 18 34 15 35 17 36 16 37
REMARK H PARENT 32 12 30 14 28 16 26 29 24 31
REMARK Flexibility Score: inf
ROOT
ATOM      1  O   UNL     1     -67.578 -37.693 -35.195  1.00  0.00    -0.458 OA
ENDROOT
BRANCH   1   2
ATOM      2  C   UNL     1     -66.336 -36.881 -35.463  1.00  0.00     0.339 C 
ATOM      3  C   UNL     1     -66.474 -34.177 -35.675  1.00  0.00     0.199 C 
ATOM      4  C   UNL     1     -66.260 -34.098 -33.921  1.00  0.00     0.180 C 
ATOM      5  O   UNL     1     -66.597 -35.591 -36.252  1.00  0.00    -0.328 OA
ATOM      6  C   UNL     1     -66.036 -35.524 -33.175  1.00  0.00     0.181 C 
ATOM      7  C   UNL     1     -65.442 -36.726 -34.147  1.00  0.00     0.214 C 
BRANCH   3   8
ATOM      8  C   UNL     1     -66.281 -33.001 -37.098  1.00  0.00     0.073 C 
ATOM      9  O   UNL     1     -66.190 -34.240 -36.792  1.00  0.00    -0.547 OA
ATOM     10  O   UNL     1     -67.326 -32.709 -38.103  1.00  0.00    -0.547 OA
ENDBRANCH   3   8
BRANCH   4  11
ATOM     11  O   UNL     1     -65.457 -33.056 -33.186  1.00  0.00    -0.387 OA
ATOM     12  H   UNL     1     -65.072 -32.352 -33.810  1.00  0.00     0.211 HD
ENDBRANCH   4  11
BRANCH   6  13
ATOM     13  O   UNL     1     -67.378 -35.882 -32.688  1.00  0.00    -0.387 OA
ATOM     14  H   UNL     1     -67.606 -36.876 -32.571  1.00  0.00     0.211 HD
ENDBRANCH   6  13
BRANCH   7  15
ATOM     15  O   UNL     1     -64.103 -36.640 -34.668  1.00  0.00    -0.384 OA
ATOM     16  H   UNL     1     -64.191 -36.284 -35.607  1.00  0.00     0.211 HD
ENDBRANCH   7  15
ENDBRANCH   1   2
BRANCH   1  17
ATOM     17  C   UNL     1     -67.668 -38.971 -35.689  1.00  0.00     0.172 A 
ATOM     18  C   UNL     1     -66.712 -39.884 -35.104  1.00  0.00     0.201 A 
ATOM     19  C   UNL     1     -68.221 -39.349 -36.912  1.00  0.00     0.098 A 
ATOM     20  C   UNL     1     -65.896 -40.715 -36.005  1.00  0.00     0.176 A 
ATOM     21  C   UNL     1     -67.426 -40.303 -37.713  1.00  0.00     0.146 A 
ATOM     22  C   UNL     1     -66.181 -40.561 -37.387  1.00  0.00     0.111 A 
ATOM     23  O   UNL     1     -67.780 -41.014 -38.759  1.00  0.00    -0.456 OA
ATOM     24  C   UNL     1     -65.253 -40.805 -38.478  1.00  0.00     0.197 A 
ATOM     25  C   UNL     1     -66.996 -41.891 -39.518  1.00  0.00     0.138 A 
ATOM     26  C   UNL     1     -65.620 -41.982 -39.266  1.00  0.00     0.100 A 
ATOM     27  O   UNL     1     -64.985 -39.785 -39.144  1.00  0.00    -0.289 OA
BRANCH  18  28
ATOM     28  O   UNL     1     -66.646 -40.021 -33.652  1.00  0.00    -0.502 OA
ATOM     29  H   UNL     1     -66.849 -40.752 -33.185  1.00  0.00     0.293 HD
ENDBRANCH  18  28
BRANCH  20  30
ATOM     30  O   UNL     1     -65.276 -41.901 -35.545  1.00  0.00    -0.504 OA
ATOM     31  H   UNL     1     -65.485 -42.746 -36.067  1.00  0.00     0.293 HD
ENDBRANCH  20  30
BRANCH  25  32
ATOM     32  C   UNL     1     -67.440 -42.794 -40.658  1.00  0.00     0.017 A 
ATOM     33  C   UNL     1     -67.132 -42.531 -41.973  1.00  0.00     0.012 A 
ATOM     34  C   UNL     1     -67.184 -44.198 -40.478  1.00  0.00     0.012 A 
ATOM     35  C   UNL     1     -67.305 -43.495 -43.018  1.00  0.00     0.001 A 
ATOM     36  C   UNL     1     -67.267 -45.281 -41.443  1.00  0.00     0.001 A 
ATOM     37  C   UNL     1     -67.817 -44.788 -42.659  1.00  0.00     0.000 A 
ENDBRANCH  25  32
ENDBRANCH   1  17
TORSDOF 9
ENDMDL
MODEL 8
REMARK VINA RESULT:    -8.847      2.053      8.925
REMARK INTER + INTRA:         -11.900
REMARK INTER:                 -10.861
REMARK INTRA:                  -1.040
REMARK UNBOUND:                -0.209
REMARK SMILES O=C([O-])[C@H]1O[C@H](Oc2cc3oc(-c4ccccc4)cc(=O)c3c(O)c2O)[C@@H](O)[C@H](O)[C@H]1O
REMARK SMILES IDX 7 1 6 2 4 3 31 4 5 5 29 6 27 7 2 8 1 9 3 10 32 11 30 13
REMARK SMILES IDX 28 15 8 17 25 18 9 19 23 20 10 21 22 22 11 23 20 24 12 25
REMARK SMILES IDX 19 26 21 27 26 28 24 30 13 32 14 33 18 34 15 35 17 36 16 37
REMARK H PARENT 32 12 30 14 28 16 26 29 24 31
REMARK Flexibility Score: inf
ROOT
ATOM      1  O   UNL     1     -68.186 -38.004 -36.697  1.00  0.00    -0.458 OA
ENDROOT
BRANCH   1   2
ATOM      2  C   UNL     1     -68.319 -37.547 -35.266  1.00  0.00     0.339 C 
ATOM      3  C   UNL     1     -66.176 -37.598 -33.596  1.00  0.00     0.199 C 
ATOM      4  C   UNL     1     -65.775 -35.976 -34.175  1.00  0.00     0.180 C 
ATOM      5  O   UNL     1     -67.367 -38.261 -34.297  1.00  0.00    -0.328 OA
ATOM      6  C   UNL     1     -66.823 -35.327 -35.234  1.00  0.00     0.181 C 
ATOM      7  C   UNL     1     -68.355 -35.953 -35.161  1.00  0.00     0.214 C 
BRANCH   3   8
ATOM      8  C   UNL     1     -65.736 -38.637 -32.123  1.00  0.00     0.073 C 
ATOM      9  O   UNL     1     -65.965 -38.711 -33.380  1.00  0.00    -0.547 OA
ATOM     10  O   UNL     1     -64.361 -39.027 -31.742  1.00  0.00    -0.547 OA
ENDBRANCH   3   8
BRANCH   4  11
ATOM     11  O   UNL     1     -65.216 -34.861 -33.329  1.00  0.00    -0.387 OA
ATOM     12  H   UNL     1     -65.477 -34.949 -32.351  1.00  0.00     0.211 HD
ENDBRANCH   4  11
BRANCH   6  13
ATOM     13  O   UNL     1     -66.221 -35.612 -36.547  1.00  0.00    -0.387 OA
ATOM     14  H   UNL     1     -66.706 -36.262 -37.175  1.00  0.00     0.211 HD
ENDBRANCH   6  13
BRANCH   7  15
ATOM     15  O   UNL     1     -69.178 -35.718 -34.003  1.00  0.00    -0.384 OA
ATOM     16  H   UNL     1     -69.148 -34.724 -33.837  1.00  0.00     0.211 HD
ENDBRANCH   7  15
ENDBRANCH   1   2
BRANCH   1  17
ATOM     17  C   UNL     1     -67.586 -39.209 -36.968  1.00  0.00     0.172 A 
ATOM     18  C   UNL     1     -66.222 -39.082 -37.427  1.00  0.00     0.201 A 
ATOM     19  C   UNL     1     -68.233 -40.408 -37.261  1.00  0.00     0.098 A 
ATOM     20  C   UNL     1     -65.824 -39.799 -38.650  1.00  0.00     0.176 A 
ATOM     21  C   UNL     1     -67.698 -41.164 -38.413  1.00  0.00     0.146 A 
ATOM     22  C   UNL     1     -66.841 -40.600 -39.232  1.00  0.00     0.111 A 
ATOM     23  O   UNL     1     -67.925 -42.406 -38.776  1.00  0.00    -0.456 OA
ATOM     24  C   UNL     1     -66.934 -40.968 -40.635  1.00  0.00     0.197 A 
ATOM     25  C   UNL     1     -67.426 -43.090 -39.891  1.00  0.00     0.138 A 
ATOM     26  C   UNL     1     -66.682 -42.393 -40.853  1.00  0.00     0.100 A 
ATOM     27  O   UNL     1     -67.946 -40.516 -41.205  1.00  0.00    -0.289 OA
BRANCH  18  28
ATOM     28  O   UNL     1     -65.261 -38.328 -36.625  1.00  0.00    -0.502 OA
ATOM     29  H   UNL     1     -65.325 -38.158 -35.753  1.00  0.00     0.293 HD
ENDBRANCH  18  28
BRANCH  20  30
ATOM     30  O   UNL     1     -64.466 -40.084 -38.923  1.00  0.00    -0.504 OA
ATOM     31  H   UNL     1     -63.839 -39.288 -38.951  1.00  0.00     0.293 HD
ENDBRANCH  20  30
BRANCH  25  32
ATOM     32  C   UNL     1     -67.605 -44.557 -40.245  1.00  0.00     0.017 A 
ATOM     33  C   UNL     1     -66.754 -45.222 -41.098  1.00  0.00     0.012 A 
ATOM     34  C   UNL     1     -67.805 -45.447 -39.133  1.00  0.00     0.012 A 
ATOM     35  C   UNL     1     -66.745 -46.648 -41.229  1.00  0.00     0.001 A 
ATOM     36  C   UNL     1     -67.778 -46.900 -39.098  1.00  0.00     0.001 A 
ATOM     37  C   UNL     1     -67.666 -47.401 -40.425  1.00  0.00     0.000 A 
ENDBRANCH  25  32
ENDBRANCH   1  17
TORSDOF 9
ENDMDL
MODEL 9
REMARK VINA RESULT:    -8.793      3.388      5.774
REMARK INTER + INTRA:         -11.830
REMARK INTER:                 -10.773
REMARK INTRA:                  -1.057
REMARK UNBOUND:                -0.209
REMARK SMILES O=C([O-])[C@H]1O[C@H](Oc2cc3oc(-c4ccccc4)cc(=O)c3c(O)c2O)[C@@H](O)[C@H](O)[C@H]1O
REMARK SMILES IDX 7 1 6 2 4 3 31 4 5 5 29 6 27 7 2 8 1 9 3 10 32 11 30 13
REMARK SMILES IDX 28 15 8 17 25 18 9 19 23 20 10 21 22 22 11 23 20 24 12 25
REMARK SMILES IDX 19 26 21 27 26 28 24 30 13 32 14 33 18 34 15 35 17 36 16 37
REMARK H PARENT 32 12 30 14 28 16 26 29 24 31
REMARK Flexibility Score: inf
ROOT
ATOM      1  O   UNL     1     -67.595 -42.628 -40.869  1.00  0.00    -0.458 OA
ENDROOT
BRANCH   1   2
ATOM      2  C   UNL     1     -66.678 -43.426 -41.761  1.00  0.00     0.339 C 
ATOM      3  C   UNL     1     -65.045 -45.328 -40.716  1.00  0.00     0.199 C 
ATOM      4  C   UNL     1     -66.377 -46.476 -40.901  1.00  0.00     0.180 C 
ATOM      5  O   UNL     1     -65.382 -43.876 -41.075  1.00  0.00    -0.328 OA
ATOM      6  C   UNL     1     -67.721 -45.886 -41.599  1.00  0.00     0.181 C 
ATOM      7  C   UNL     1     -67.476 -44.558 -42.558  1.00  0.00     0.214 C 
BRANCH   3   8
ATOM      8  C   UNL     1     -63.206 -45.442 -40.492  1.00  0.00     0.073 C 
ATOM      9  O   UNL     1     -64.237 -44.810 -40.074  1.00  0.00    -0.547 OA
ATOM     10  O   UNL     1     -62.528 -46.236 -39.444  1.00  0.00    -0.547 OA
ENDBRANCH   3   8
BRANCH   4  11
ATOM     11  O   UNL     1     -66.235 -47.919 -41.309  1.00  0.00    -0.387 OA
ATOM     12  H   UNL     1     -66.656 -48.110 -42.214  1.00  0.00     0.211 HD
ENDBRANCH   4  11
BRANCH   6  13
ATOM     13  O   UNL     1     -68.586 -45.536 -40.459  1.00  0.00    -0.387 OA
ATOM     14  H   UNL     1     -69.600 -45.505 -40.608  1.00  0.00     0.211 HD
ENDBRANCH   6  13
BRANCH   7  15
ATOM     15  O   UNL     1     -66.736 -44.680 -43.786  1.00  0.00    -0.384 OA
ATOM     16  H   UNL     1     -66.263 -45.570 -43.740  1.00  0.00     0.211 HD
ENDBRANCH   7  15
ENDBRANCH   1   2
BRANCH   1  17
ATOM     17  C   UNL     1     -67.079 -41.997 -39.764  1.00  0.00     0.172 A 
ATOM     18  C   UNL     1     -67.381 -42.671 -38.522  1.00  0.00     0.201 A 
ATOM     19  C   UNL     1     -66.718 -40.653 -39.671  1.00  0.00     0.098 A 
ATOM     20  C   UNL     1     -67.942 -41.880 -37.414  1.00  0.00     0.176 A 
ATOM     21  C   UNL     1     -67.185 -39.942 -38.462  1.00  0.00     0.146 A 
ATOM     22  C   UNL     1     -68.082 -40.492 -37.678  1.00  0.00     0.111 A 
ATOM     23  O   UNL     1     -66.813 -38.778 -37.981  1.00  0.00    -0.456 OA
ATOM     24  C   UNL     1     -69.039 -39.600 -37.046  1.00  0.00     0.197 A 
ATOM     25  C   UNL     1     -67.293 -38.113 -36.847  1.00  0.00     0.138 A 
ATOM     26  C   UNL     1     -68.394 -38.636 -36.154  1.00  0.00     0.100 A 
ATOM     27  O   UNL     1     -69.869 -39.114 -37.840  1.00  0.00    -0.289 OA
BRANCH  18  28
ATOM     28  O   UNL     1     -67.041 -44.083 -38.370  1.00  0.00    -0.502 OA
ATOM     29  H   UNL     1     -67.491 -44.771 -38.713  1.00  0.00     0.293 HD
ENDBRANCH  18  28
BRANCH  20  30
ATOM     30  O   UNL     1     -67.862 -42.334 -36.076  1.00  0.00    -0.504 OA
ATOM     31  H   UNL     1     -68.471 -43.106 -35.828  1.00  0.00     0.293 HD
ENDBRANCH  20  30
BRANCH  25  32
ATOM     32  C   UNL     1     -66.782 -36.818 -36.235  1.00  0.00     0.017 A 
ATOM     33  C   UNL     1     -66.974 -35.592 -36.829  1.00  0.00     0.012 A 
ATOM     34  C   UNL     1     -67.089 -36.623 -34.843  1.00  0.00     0.012 A 
ATOM     35  C   UNL     1     -66.743 -34.355 -36.146  1.00  0.00     0.001 A 
ATOM     36  C   UNL     1     -66.956 -35.425 -34.030  1.00  0.00     0.001 A 
ATOM     37  C   UNL     1     -66.296 -34.415 -34.783  1.00  0.00     0.000 A 
ENDBRANCH  25  32
ENDBRANCH   1  17
TORSDOF 9
ENDMDL
