MODEL 1
REMARK VINA RESULT:    -4.288      0.000      0.000
REMARK INTER + INTRA:          -4.288
REMARK INTER:                  -4.288
REMARK INTRA:                   0.000
REMARK UNBOUND:                 0.000
REMARK SMILES CC(C)=C1CC[C@@H](C)CC1=O
REMARK SMILES IDX 8 1 7 2 6 3 5 4 4 5 2 6 1 7 3 8 10 9 11 10 9 11
REMARK H PARENT
REMARK Flexibility Score: inf
ROOT
ATOM      1  C   UNL     1     138.392 135.574 123.589  1.00  0.00     0.008 C 
ATOM      2  C   UNL     1     138.725 134.506 122.534  1.00  0.00    -0.006 C 
ATOM      3  C   UNL     1     139.511 133.324 123.128  1.00  0.00     0.008 C 
ATOM      4  C   UNL     1     140.923 133.713 123.594  1.00  0.00     0.039 C 
ATOM      5  C   UNL     1     141.700 134.497 122.543  1.00  0.00    -0.006 C 
ATOM      6  C   UNL     1     143.061 134.420 122.470  1.00  0.00    -0.070 C 
ATOM      7  C   UNL     1     143.852 133.570 123.438  1.00  0.00     0.039 C 
ATOM      8  C   UNL     1     143.843 135.146 121.400  1.00  0.00     0.039 C 
ATOM      9  C   UNL     1     140.905 135.431 121.693  1.00  0.00     0.159 C 
ATOM     10  O   UNL     1     141.399 136.510 121.269  1.00  0.00    -0.295 OA
ATOM     11  C   UNL     1     139.485 135.102 121.339  1.00  0.00     0.084 C 
ENDROOT
TORSDOF 0
ENDMDL
MODEL 2
REMARK VINA RESULT:    -4.222     13.130     15.000
REMARK INTER + INTRA:          -4.222
REMARK INTER:                  -4.222
REMARK INTRA:                   0.000
REMARK UNBOUND:                 0.000
REMARK SMILES CC(C)=C1CC[C@@H](C)CC1=O
REMARK SMILES IDX 8 1 7 2 6 3 5 4 4 5 2 6 1 7 3 8 10 9 11 10 9 11
REMARK H PARENT
REMARK Flexibility Score: inf
ROOT
ATOM      1  C   UNL     1     128.440 143.657 116.603  1.00  0.00     0.008 C 
ATOM      2  C   UNL     1     128.769 143.354 115.132  1.00  0.00    -0.006 C 
ATOM      3  C   UNL     1     127.995 142.135 114.601  1.00  0.00     0.008 C 
ATOM      4  C   UNL     1     128.419 140.815 115.266  1.00  0.00     0.039 C 
ATOM      5  C   UNL     1     129.930 140.619 115.285  1.00  0.00    -0.006 C 
ATOM      6  C   UNL     1     130.479 139.369 115.250  1.00  0.00    -0.070 C 
ATOM      7  C   UNL     1     129.611 138.132 115.209  1.00  0.00     0.039 C 
ATOM      8  C   UNL     1     131.975 139.157 115.212  1.00  0.00     0.039 C 
ATOM      9  C   UNL     1     130.755 141.850 115.464  1.00  0.00     0.159 C 
ATOM     10  O   UNL     1     131.852 141.816 116.084  1.00  0.00    -0.295 OA
ATOM     11  C   UNL     1     130.278 143.161 114.915  1.00  0.00     0.084 C 
ENDROOT
TORSDOF 0
ENDMDL
MODEL 3
REMARK VINA RESULT:    -4.215     12.914     14.687
REMARK INTER + INTRA:          -4.215
REMARK INTER:                  -4.215
REMARK INTRA:                   0.000
REMARK UNBOUND:                 0.000
REMARK SMILES CC(C)=C1CC[C@@H](C)CC1=O
REMARK SMILES IDX 8 1 7 2 6 3 5 4 4 5 2 6 1 7 3 8 10 9 11 10 9 11
REMARK H PARENT
REMARK Flexibility Score: inf
ROOT
ATOM      1  C   UNL     1     126.954 136.717 115.569  1.00  0.00     0.008 C 
ATOM      2  C   UNL     1     127.459 137.269 114.226  1.00  0.00    -0.006 C 
ATOM      3  C   UNL     1     128.881 136.782 113.894  1.00  0.00     0.008 C 
ATOM      4  C   UNL     1     129.947 137.341 114.851  1.00  0.00     0.039 C 
ATOM      5  C   UNL     1     129.845 138.849 115.038  1.00  0.00    -0.006 C 
ATOM      6  C   UNL     1     130.952 139.603 115.308  1.00  0.00    -0.070 C 
ATOM      7  C   UNL     1     132.317 138.968 115.450  1.00  0.00     0.039 C 
ATOM      8  C   UNL     1     130.879 141.106 115.441  1.00  0.00     0.039 C 
ATOM      9  C   UNL     1     128.469 139.426 115.028  1.00  0.00     0.159 C 
ATOM     10  O   UNL     1     128.176 140.430 115.731  1.00  0.00    -0.295 OA
ATOM     11  C   UNL     1     127.399 138.803 114.181  1.00  0.00     0.084 C 
ENDROOT
TORSDOF 0
ENDMDL
MODEL 4
REMARK VINA RESULT:    -4.160      1.281      3.876
REMARK INTER + INTRA:          -4.160
REMARK INTER:                  -4.160
REMARK INTRA:                   0.000
REMARK UNBOUND:                 0.000
REMARK SMILES CC(C)=C1CC[C@@H](C)CC1=O
REMARK SMILES IDX 8 1 7 2 6 3 5 4 4 5 2 6 1 7 3 8 10 9 11 10 9 11
REMARK H PARENT
REMARK Flexibility Score: inf
ROOT
ATOM      1  C   UNL     1     144.784 133.691 123.078  1.00  0.00     0.008 C 
ATOM      2  C   UNL     1     143.952 134.695 123.894  1.00  0.00    -0.006 C 
ATOM      3  C   UNL     1     142.875 134.002 124.747  1.00  0.00     0.008 C 
ATOM      4  C   UNL     1     141.774 133.337 123.904  1.00  0.00     0.039 C 
ATOM      5  C   UNL     1     141.205 134.262 122.835  1.00  0.00    -0.006 C 
ATOM      6  C   UNL     1     139.912 134.142 122.414  1.00  0.00    -0.070 C 
ATOM      7  C   UNL     1     139.000 133.076 122.978  1.00  0.00     0.039 C 
ATOM      8  C   UNL     1     139.314 135.086 121.396  1.00  0.00     0.039 C 
ATOM      9  C   UNL     1     142.167 135.211 122.201  1.00  0.00     0.159 C 
ATOM     10  O   UNL     1     142.047 135.555 120.995  1.00  0.00    -0.295 OA
ATOM     11  C   UNL     1     143.311 135.766 122.997  1.00  0.00     0.084 C 
ENDROOT
TORSDOF 0
ENDMDL
MODEL 5
REMARK VINA RESULT:    -4.159      1.625      4.255
REMARK INTER + INTRA:          -4.159
REMARK INTER:                  -4.159
REMARK INTRA:                   0.000
REMARK UNBOUND:                 0.000
REMARK SMILES CC(C)=C1CC[C@@H](C)CC1=O
REMARK SMILES IDX 8 1 7 2 6 3 5 4 4 5 2 6 1 7 3 8 10 9 11 10 9 11
REMARK H PARENT
REMARK Flexibility Score: inf
ROOT
ATOM      1  C   UNL     1     143.243 136.851 122.689  1.00  0.00     0.008 C 
ATOM      2  C   UNL     1     143.063 135.845 121.540  1.00  0.00    -0.006 C 
ATOM      3  C   UNL     1     141.869 136.201 120.636  1.00  0.00     0.008 C 
ATOM      4  C   UNL     1     140.513 136.066 121.348  1.00  0.00     0.039 C 
ATOM      5  C   UNL     1     140.354 134.737 122.076  1.00  0.00    -0.006 C 
ATOM      6  C   UNL     1     139.125 134.165 122.238  1.00  0.00    -0.070 C 
ATOM      7  C   UNL     1     137.874 134.835 121.718  1.00  0.00     0.039 C 
ATOM      8  C   UNL     1     138.955 132.821 122.908  1.00  0.00     0.039 C 
ATOM      9  C   UNL     1     141.588 134.171 122.696  1.00  0.00     0.159 C 
ATOM     10  O   UNL     1     141.535 133.500 123.762  1.00  0.00    -0.295 OA
ATOM     11  C   UNL     1     142.926 134.406 122.059  1.00  0.00     0.084 C 
ENDROOT
TORSDOF 0
ENDMDL
MODEL 6
REMARK VINA RESULT:    -4.093      2.069      3.473
REMARK INTER + INTRA:          -4.093
REMARK INTER:                  -4.093
REMARK INTRA:                   0.000
REMARK UNBOUND:                 0.000
REMARK SMILES CC(C)=C1CC[C@@H](C)CC1=O
REMARK SMILES IDX 8 1 7 2 6 3 5 4 4 5 2 6 1 7 3 8 10 9 11 10 9 11
REMARK H PARENT
REMARK Flexibility Score: inf
ROOT
ATOM      1  C   UNL     1     136.878 137.931 120.784  1.00  0.00     0.008 C 
ATOM      2  C   UNL     1     137.413 136.889 119.788  1.00  0.00    -0.006 C 
ATOM      3  C   UNL     1     136.897 135.472 120.094  1.00  0.00     0.008 C 
ATOM      4  C   UNL     1     137.439 134.906 121.417  1.00  0.00     0.039 C 
ATOM      5  C   UNL     1     138.950 135.048 121.548  1.00  0.00    -0.006 C 
ATOM      6  C   UNL     1     139.683 134.148 122.268  1.00  0.00    -0.070 C 
ATOM      7  C   UNL     1     139.022 132.988 122.977  1.00  0.00     0.039 C 
ATOM      8  C   UNL     1     141.188 134.241 122.363  1.00  0.00     0.039 C 
ATOM      9  C   UNL     1     139.554 136.276 120.953  1.00  0.00     0.159 C 
ATOM     10  O   UNL     1     140.566 136.822 121.467  1.00  0.00    -0.295 OA
ATOM     11  C   UNL     1     138.948 136.894 119.727  1.00  0.00     0.084 C 
ENDROOT
TORSDOF 0
ENDMDL
MODEL 7
REMARK VINA RESULT:    -4.074      1.735      3.816
REMARK INTER + INTRA:          -4.074
REMARK INTER:                  -4.074
REMARK INTRA:                   0.000
REMARK UNBOUND:                 0.000
REMARK SMILES CC(C)=C1CC[C@@H](C)CC1=O
REMARK SMILES IDX 8 1 7 2 6 3 5 4 4 5 2 6 1 7 3 8 10 9 11 10 9 11
REMARK H PARENT
REMARK Flexibility Score: inf
ROOT
ATOM      1  C   UNL     1     141.900 134.767 124.790  1.00  0.00     0.008 C 
ATOM      2  C   UNL     1     141.650 133.749 123.665  1.00  0.00    -0.006 C 
ATOM      3  C   UNL     1     142.359 134.142 122.356  1.00  0.00     0.008 C 
ATOM      4  C   UNL     1     141.784 135.418 121.720  1.00  0.00     0.039 C 
ATOM      5  C   UNL     1     140.265 135.393 121.608  1.00  0.00    -0.006 C 
ATOM      6  C   UNL     1     139.620 136.058 120.605  1.00  0.00    -0.070 C 
ATOM      7  C   UNL     1     140.387 136.860 119.577  1.00  0.00     0.039 C 
ATOM      8  C   UNL     1     138.118 135.999 120.446  1.00  0.00     0.039 C 
ATOM      9  C   UNL     1     139.531 134.709 122.713  1.00  0.00     0.159 C 
ATOM     10  O   UNL     1     138.394 135.105 123.087  1.00  0.00    -0.295 OA
ATOM     11  C   UNL     1     140.150 133.535 123.413  1.00  0.00     0.084 C 
ENDROOT
TORSDOF 0
ENDMDL
MODEL 8
REMARK VINA RESULT:    -4.068     13.552     15.311
REMARK INTER + INTRA:          -4.068
REMARK INTER:                  -4.068
REMARK INTRA:                   0.000
REMARK UNBOUND:                 0.000
REMARK SMILES CC(C)=C1CC[C@@H](C)CC1=O
REMARK SMILES IDX 8 1 7 2 6 3 5 4 4 5 2 6 1 7 3 8 10 9 11 10 9 11
REMARK H PARENT
REMARK Flexibility Score: inf
ROOT
ATOM      1  C   UNL     1     127.128 143.818 116.728  1.00  0.00     0.008 C 
ATOM      2  C   UNL     1     128.112 144.278 115.640  1.00  0.00    -0.006 C 
ATOM      3  C   UNL     1     128.421 143.164 114.624  1.00  0.00     0.008 C 
ATOM      4  C   UNL     1     129.202 141.990 115.237  1.00  0.00     0.039 C 
ATOM      5  C   UNL     1     130.417 142.440 116.039  1.00  0.00    -0.006 C 
ATOM      6  C   UNL     1     131.525 141.649 116.144  1.00  0.00    -0.070 C 
ATOM      7  C   UNL     1     131.583 140.289 115.485  1.00  0.00     0.039 C 
ATOM      8  C   UNL     1     132.760 142.102 116.888  1.00  0.00     0.039 C 
ATOM      9  C   UNL     1     130.277 143.722 116.790  1.00  0.00     0.159 C 
ATOM     10  O   UNL     1     130.862 143.902 117.891  1.00  0.00    -0.295 OA
ATOM     11  C   UNL     1     129.416 144.823 116.243  1.00  0.00     0.084 C 
ENDROOT
TORSDOF 0
ENDMDL
MODEL 9
REMARK VINA RESULT:    -3.997     13.369     14.842
REMARK INTER + INTRA:          -3.997
REMARK INTER:                  -3.997
REMARK INTRA:                   0.000
REMARK UNBOUND:                 0.000
REMARK SMILES CC(C)=C1CC[C@@H](C)CC1=O
REMARK SMILES IDX 8 1 7 2 6 3 5 4 4 5 2 6 1 7 3 8 10 9 11 10 9 11
REMARK H PARENT
REMARK Flexibility Score: inf
ROOT
ATOM      1  C   UNL     1     128.644 136.719 113.806  1.00  0.00     0.008 C 
ATOM      2  C   UNL     1     128.594 137.111 115.292  1.00  0.00    -0.006 C 
ATOM      3  C   UNL     1     127.552 138.209 115.570  1.00  0.00     0.008 C 
ATOM      4  C   UNL     1     127.915 139.560 114.931  1.00  0.00     0.039 C 
ATOM      5  C   UNL     1     129.348 139.988 115.223  1.00  0.00    -0.006 C 
ATOM      6  C   UNL     1     129.687 141.308 115.299  1.00  0.00    -0.070 C 
ATOM      7  C   UNL     1     128.660 142.396 115.077  1.00  0.00     0.039 C 
ATOM      8  C   UNL     1     131.091 141.752 115.642  1.00  0.00     0.039 C 
ATOM      9  C   UNL     1     130.363 138.897 115.300  1.00  0.00     0.159 C 
ATOM     10  O   UNL     1     131.552 139.083 114.928  1.00  0.00    -0.295 OA
ATOM     11  C   UNL     1     129.973 137.542 115.814  1.00  0.00     0.084 C 
ENDROOT
TORSDOF 0
ENDMDL
