MODEL 1
REMARK VINA RESULT:    -3.709      0.000      0.000
REMARK INTER + INTRA:          -6.931
REMARK INTER:                  -6.311
REMARK INTRA:                  -0.620
REMARK UNBOUND:                -0.620
REMARK SMILES CCCCCCCCCCCCCC(=O)[O-]
REMARK SMILES IDX 8 1 9 2 10 3 11 4 12 5 13 6 14 7 15 8 16 9 7 10 6 11 5 12
REMARK SMILES IDX 4 13 3 14 2 15 1 16
REMARK H PARENT
REMARK Flexibility Score: inf
ROOT
ATOM      1  C   UNL     1       3.745 -37.529  19.602  1.00  0.00     0.000 C 
ENDROOT
BRANCH   1   2
ATOM      2  C   UNL     1       5.211 -37.916  19.873  1.00  0.00     0.000 C 
BRANCH   2   3
ATOM      3  C   UNL     1       5.704 -37.443  21.249  1.00  0.00     0.000 C 
BRANCH   3   4
ATOM      4  C   UNL     1       5.855 -35.914  21.328  1.00  0.00     0.000 C 
BRANCH   4   5
ATOM      5  C   UNL     1       5.092 -35.307  22.516  1.00  0.00     0.006 C 
BRANCH   5   6
ATOM      6  C   UNL     1       6.014 -34.936  23.685  1.00  0.00     0.053 C 
BRANCH   6   7
ATOM      7  C   UNL     1       5.956 -35.986  24.750  1.00  0.00     0.041 C 
ATOM      8  O   UNL     1       6.125 -35.674  25.957  1.00  0.00    -0.550 OA
ATOM      9  O   UNL     1       5.766 -37.318  24.403  1.00  0.00    -0.550 OA
ENDBRANCH   6   7
ENDBRANCH   5   6
ENDBRANCH   4   5
ENDBRANCH   3   4
ENDBRANCH   2   3
ENDBRANCH   1   2
BRANCH   1  10
ATOM     10  C   UNL     1       3.507 -37.097  18.147  1.00  0.00     0.000 C 
BRANCH  10  11
ATOM     11  C   UNL     1       2.341 -37.851  17.490  1.00  0.00    -0.000 C 
BRANCH  11  12
ATOM     12  C   UNL     1       1.731 -37.029  16.348  1.00  0.00    -0.000 C 
BRANCH  12  13
ATOM     13  C   UNL     1       2.808 -36.222  15.613  1.00  0.00    -0.000 C 
BRANCH  13  14
ATOM     14  C   UNL     1       2.966 -36.708  14.164  1.00  0.00    -0.000 C 
BRANCH  14  15
ATOM     15  C   UNL     1       4.295 -37.442  13.929  1.00  0.00    -0.003 C 
ATOM     16  C   UNL     1       4.249 -38.904  14.373  1.00  0.00     0.004 C 
ENDBRANCH  14  15
ENDBRANCH  13  14
ENDBRANCH  12  13
ENDBRANCH  11  12
ENDBRANCH  10  11
ENDBRANCH   1  10
TORSDOF 12
ENDMDL
MODEL 2
REMARK VINA RESULT:    -3.455      3.944      8.132
REMARK INTER + INTRA:          -6.499
REMARK INTER:                  -5.728
REMARK INTRA:                  -0.771
REMARK UNBOUND:                -0.620
REMARK SMILES CCCCCCCCCCCCCC(=O)[O-]
REMARK SMILES IDX 8 1 9 2 10 3 11 4 12 5 13 6 14 7 15 8 16 9 7 10 6 11 5 12
REMARK SMILES IDX 4 13 3 14 2 15 1 16
REMARK H PARENT
REMARK Flexibility Score: inf
ROOT
ATOM      1  C   UNL     1       5.357 -37.528  21.300  1.00  0.00     0.000 C 
ENDROOT
BRANCH   1   2
ATOM      2  C   UNL     1       5.138 -38.192  19.928  1.00  0.00     0.000 C 
BRANCH   2   3
ATOM      3  C   UNL     1       4.284 -37.332  18.983  1.00  0.00     0.000 C 
BRANCH   3   4
ATOM      4  C   UNL     1       2.838 -37.842  18.865  1.00  0.00     0.000 C 
BRANCH   4   5
ATOM      5  C   UNL     1       2.229 -37.575  17.480  1.00  0.00     0.006 C 
BRANCH   5   6
ATOM      6  C   UNL     1       3.124 -36.691  16.601  1.00  0.00     0.053 C 
BRANCH   6   7
ATOM      7  C   UNL     1       3.079 -37.155  15.178  1.00  0.00     0.041 C 
ATOM      8  O   UNL     1       3.895 -38.021  14.768  1.00  0.00    -0.550 OA
ATOM      9  O   UNL     1       2.168 -36.593  14.292  1.00  0.00    -0.550 OA
ENDBRANCH   6   7
ENDBRANCH   5   6
ENDBRANCH   4   5
ENDBRANCH   3   4
ENDBRANCH   2   3
ENDBRANCH   1   2
BRANCH   1  10
ATOM     10  C   UNL     1       5.653 -36.025  21.188  1.00  0.00     0.000 C 
BRANCH  10  11
ATOM     11  C   UNL     1       4.474 -35.154  21.650  1.00  0.00    -0.000 C 
BRANCH  11  12
ATOM     12  C   UNL     1       4.792 -34.464  22.982  1.00  0.00    -0.000 C 
BRANCH  12  13
ATOM     13  C   UNL     1       6.112 -34.979  23.569  1.00  0.00    -0.000 C 
BRANCH  13  14
ATOM     14  C   UNL     1       5.943 -35.368  25.045  1.00  0.00    -0.000 C 
BRANCH  14  15
ATOM     15  C   UNL     1       6.056 -36.884  25.273  1.00  0.00    -0.003 C 
ATOM     16  C   UNL     1       4.758 -37.504  25.788  1.00  0.00     0.004 C 
ENDBRANCH  14  15
ENDBRANCH  13  14
ENDBRANCH  12  13
ENDBRANCH  11  12
ENDBRANCH  10  11
ENDBRANCH   1  10
TORSDOF 12
ENDMDL
MODEL 3
REMARK VINA RESULT:    -3.414      3.877      7.774
REMARK INTER + INTRA:          -6.428
REMARK INTER:                  -5.337
REMARK INTRA:                  -1.091
REMARK UNBOUND:                -0.620
REMARK SMILES CCCCCCCCCCCCCC(=O)[O-]
REMARK SMILES IDX 8 1 9 2 10 3 11 4 12 5 13 6 14 7 15 8 16 9 7 10 6 11 5 12
REMARK SMILES IDX 4 13 3 14 2 15 1 16
REMARK H PARENT
REMARK Flexibility Score: inf
ROOT
ATOM      1  C   UNL     1       4.442 -35.366  21.600  1.00  0.00     0.000 C 
ENDROOT
BRANCH   1   2
ATOM      2  C   UNL     1       5.690 -36.036  20.995  1.00  0.00     0.000 C 
BRANCH   2   3
ATOM      3  C   UNL     1       5.360 -37.337  20.246  1.00  0.00     0.000 C 
BRANCH   3   4
ATOM      4  C   UNL     1       3.916 -37.362  19.716  1.00  0.00     0.000 C 
BRANCH   4   5
ATOM      5  C   UNL     1       3.829 -37.004  18.224  1.00  0.00     0.006 C 
BRANCH   5   6
ATOM      6  C   UNL     1       2.556 -37.543  17.559  1.00  0.00     0.053 C 
BRANCH   6   7
ATOM      7  C   UNL     1       2.580 -37.270  16.088  1.00  0.00     0.041 C 
ATOM      8  O   UNL     1       1.741 -36.483  15.575  1.00  0.00    -0.550 OA
ATOM      9  O   UNL     1       3.497 -37.922  15.274  1.00  0.00    -0.550 OA
ENDBRANCH   6   7
ENDBRANCH   5   6
ENDBRANCH   4   5
ENDBRANCH   3   4
ENDBRANCH   2   3
ENDBRANCH   1   2
BRANCH   1  10
ATOM     10  C   UNL     1       4.723 -34.719  22.964  1.00  0.00     0.000 C 
BRANCH  10  11
ATOM     11  C   UNL     1       6.124 -35.052  23.499  1.00  0.00    -0.000 C 
BRANCH  11  12
ATOM     12  C   UNL     1       6.058 -35.524  24.956  1.00  0.00    -0.000 C 
BRANCH  12  13
ATOM     13  C   UNL     1       5.425 -36.918  25.055  1.00  0.00    -0.000 C 
BRANCH  13  14
ATOM     14  C   UNL     1       6.009 -37.863  23.994  1.00  0.00    -0.000 C 
BRANCH  14  15
ATOM     15  C   UNL     1       5.239 -39.189  23.897  1.00  0.00    -0.003 C 
ATOM     16  C   UNL     1       5.376 -39.854  22.527  1.00  0.00     0.004 C 
ENDBRANCH  14  15
ENDBRANCH  13  14
ENDBRANCH  12  13
ENDBRANCH  11  12
ENDBRANCH  10  11
ENDBRANCH   1  10
TORSDOF 12
ENDMDL
MODEL 4
REMARK VINA RESULT:    -3.376      3.860      7.699
REMARK INTER + INTRA:          -6.364
REMARK INTER:                  -5.409
REMARK INTRA:                  -0.955
REMARK UNBOUND:                -0.620
REMARK SMILES CCCCCCCCCCCCCC(=O)[O-]
REMARK SMILES IDX 8 1 9 2 10 3 11 4 12 5 13 6 14 7 15 8 16 9 7 10 6 11 5 12
REMARK SMILES IDX 4 13 3 14 2 15 1 16
REMARK H PARENT
REMARK Flexibility Score: inf
ROOT
ATOM      1  C   UNL     1       4.473 -35.692  21.181  1.00  0.00     0.000 C 
ENDROOT
BRANCH   1   2
ATOM      2  C   UNL     1       4.619 -36.080  19.699  1.00  0.00     0.000 C 
BRANCH   2   3
ATOM      3  C   UNL     1       4.290 -37.558  19.438  1.00  0.00     0.000 C 
BRANCH   3   4
ATOM      4  C   UNL     1       2.778 -37.842  19.482  1.00  0.00     0.000 C 
BRANCH   4   5
ATOM      5  C   UNL     1       2.115 -37.722  18.101  1.00  0.00     0.006 C 
BRANCH   5   6
ATOM      6  C   UNL     1       3.133 -37.713  16.954  1.00  0.00     0.053 C 
BRANCH   6   7
ATOM      7  C   UNL     1       2.693 -36.776  15.873  1.00  0.00     0.041 C 
ATOM      8  O   UNL     1       1.639 -36.101  16.009  1.00  0.00    -0.550 OA
ATOM      9  O   UNL     1       3.420 -36.685  14.692  1.00  0.00    -0.550 OA
ENDBRANCH   6   7
ENDBRANCH   5   6
ENDBRANCH   4   5
ENDBRANCH   3   4
ENDBRANCH   2   3
ENDBRANCH   1   2
BRANCH   1  10
ATOM     10  C   UNL     1       5.823 -35.630  21.911  1.00  0.00     0.000 C 
BRANCH  10  11
ATOM     11  C   UNL     1       5.736 -34.889  23.254  1.00  0.00    -0.000 C 
BRANCH  11  12
ATOM     12  C   UNL     1       5.642 -35.878  24.422  1.00  0.00    -0.000 C 
BRANCH  12  13
ATOM     13  C   UNL     1       6.125 -37.272  24.003  1.00  0.00    -0.000 C 
BRANCH  13  14
ATOM     14  C   UNL     1       5.045 -38.332  24.270  1.00  0.00    -0.000 C 
BRANCH  14  15
ATOM     15  C   UNL     1       5.382 -39.691  23.639  1.00  0.00    -0.003 C 
ATOM     16  C   UNL     1       5.564 -39.611  22.123  1.00  0.00     0.004 C 
ENDBRANCH  14  15
ENDBRANCH  13  14
ENDBRANCH  12  13
ENDBRANCH  11  12
ENDBRANCH  10  11
ENDBRANCH   1  10
TORSDOF 12
ENDMDL
MODEL 5
REMARK VINA RESULT:    -2.946      4.095      8.176
REMARK INTER + INTRA:          -5.633
REMARK INTER:                  -5.173
REMARK INTRA:                  -0.460
REMARK UNBOUND:                -0.620
REMARK SMILES CCCCCCCCCCCCCC(=O)[O-]
REMARK SMILES IDX 8 1 9 2 10 3 11 4 12 5 13 6 14 7 15 8 16 9 7 10 6 11 5 12
REMARK SMILES IDX 4 13 3 14 2 15 1 16
REMARK H PARENT
REMARK Flexibility Score: inf
ROOT
ATOM      1  C   UNL     1       2.765 -37.385  19.647  1.00  0.00     0.000 C 
ENDROOT
BRANCH   1   2
ATOM      2  C   UNL     1       2.389 -38.027  18.300  1.00  0.00     0.000 C 
BRANCH   2   3
ATOM      3  C   UNL     1       3.083 -37.352  17.106  1.00  0.00     0.000 C 
BRANCH   3   4
ATOM      4  C   UNL     1       2.129 -36.454  16.300  1.00  0.00     0.000 C 
BRANCH   4   5
ATOM      5  C   UNL     1       2.553 -36.315  14.829  1.00  0.00     0.006 C 
BRANCH   5   6
ATOM      6  C   UNL     1       2.713 -37.670  14.128  1.00  0.00     0.053 C 
BRANCH   6   7
ATOM      7  C   UNL     1       4.156 -38.066  14.080  1.00  0.00     0.041 C 
ATOM      8  O   UNL     1       4.491 -39.264  14.269  1.00  0.00    -0.550 OA
ATOM      9  O   UNL     1       5.135 -37.101  13.876  1.00  0.00    -0.550 OA
ENDBRANCH   6   7
ENDBRANCH   5   6
ENDBRANCH   4   5
ENDBRANCH   3   4
ENDBRANCH   2   3
ENDBRANCH   1   2
BRANCH   1  10
ATOM     10  C   UNL     1       4.244 -37.595  20.009  1.00  0.00     0.000 C 
BRANCH  10  11
ATOM     11  C   UNL     1       5.111 -36.369  19.687  1.00  0.00    -0.000 C 
BRANCH  11  12
ATOM     12  C   UNL     1       5.809 -35.845  20.948  1.00  0.00    -0.000 C 
BRANCH  12  13
ATOM     13  C   UNL     1       5.929 -36.945  22.009  1.00  0.00    -0.000 C 
BRANCH  13  14
ATOM     14  C   UNL     1       6.053 -36.341  23.417  1.00  0.00    -0.000 C 
BRANCH  14  15
ATOM     15  C   UNL     1       5.390 -34.959  23.526  1.00  0.00    -0.003 C 
ATOM     16  C   UNL     1       6.125 -34.025  24.486  1.00  0.00     0.004 C 
ENDBRANCH  14  15
ENDBRANCH  13  14
ENDBRANCH  12  13
ENDBRANCH  11  12
ENDBRANCH  10  11
ENDBRANCH   1  10
TORSDOF 12
ENDMDL
MODEL 6
REMARK VINA RESULT:    -2.842      3.612      7.627
REMARK INTER + INTRA:          -5.455
REMARK INTER:                  -4.407
REMARK INTRA:                  -1.049
REMARK UNBOUND:                -0.620
REMARK SMILES CCCCCCCCCCCCCC(=O)[O-]
REMARK SMILES IDX 8 1 9 2 10 3 11 4 12 5 13 6 14 7 15 8 16 9 7 10 6 11 5 12
REMARK SMILES IDX 4 13 3 14 2 15 1 16
REMARK H PARENT
REMARK Flexibility Score: inf
ROOT
ATOM      1  C   UNL     1       5.110 -35.328  22.603  1.00  0.00     0.000 C 
ENDROOT
BRANCH   1   2
ATOM      2  C   UNL     1       6.055 -35.647  21.430  1.00  0.00     0.000 C 
BRANCH   2   3
ATOM      3  C   UNL     1       5.595 -36.863  20.612  1.00  0.00     0.000 C 
BRANCH   3   4
ATOM      4  C   UNL     1       4.302 -36.590  19.825  1.00  0.00     0.000 C 
BRANCH   4   5
ATOM      5  C   UNL     1       3.905 -37.763  18.915  1.00  0.00     0.006 C 
BRANCH   5   6
ATOM      6  C   UNL     1       2.488 -37.617  18.344  1.00  0.00     0.053 C 
BRANCH   6   7
ATOM      7  C   UNL     1       2.543 -37.133  16.929  1.00  0.00     0.041 C 
ATOM      8  O   UNL     1       3.642 -36.792  16.418  1.00  0.00    -0.550 OA
ATOM      9  O   UNL     1       1.373 -37.009  16.191  1.00  0.00    -0.550 OA
ENDBRANCH   6   7
ENDBRANCH   5   6
ENDBRANCH   4   5
ENDBRANCH   3   4
ENDBRANCH   2   3
ENDBRANCH   1   2
BRANCH   1  10
ATOM     10  C   UNL     1       5.856 -34.782  23.830  1.00  0.00     0.000 C 
BRANCH  10  11
ATOM     11  C   UNL     1       6.125 -35.862  24.888  1.00  0.00    -0.000 C 
BRANCH  11  12
ATOM     12  C   UNL     1       4.818 -36.528  25.337  1.00  0.00    -0.000 C 
BRANCH  12  13
ATOM     13  C   UNL     1       4.932 -38.056  25.282  1.00  0.00    -0.000 C 
BRANCH  13  14
ATOM     14  C   UNL     1       5.743 -38.504  24.056  1.00  0.00    -0.000 C 
BRANCH  14  15
ATOM     15  C   UNL     1       5.129 -39.726  23.356  1.00  0.00    -0.003 C 
ATOM     16  C   UNL     1       5.749 -39.996  21.985  1.00  0.00     0.004 C 
ENDBRANCH  14  15
ENDBRANCH  13  14
ENDBRANCH  12  13
ENDBRANCH  11  12
ENDBRANCH  10  11
ENDBRANCH   1  10
TORSDOF 12
ENDMDL
MODEL 7
REMARK VINA RESULT:    -2.779      1.455      1.846
REMARK INTER + INTRA:          -5.348
REMARK INTER:                  -4.597
REMARK INTRA:                  -0.751
REMARK UNBOUND:                -0.620
REMARK SMILES CCCCCCCCCCCCCC(=O)[O-]
REMARK SMILES IDX 8 1 9 2 10 3 11 4 12 5 13 6 14 7 15 8 16 9 7 10 6 11 5 12
REMARK SMILES IDX 4 13 3 14 2 15 1 16
REMARK H PARENT
REMARK Flexibility Score: inf
ROOT
ATOM      1  C   UNL     1       4.050 -37.563  19.917  1.00  0.00     0.000 C 
ENDROOT
BRANCH   1   2
ATOM      2  C   UNL     1       5.335 -38.319  20.302  1.00  0.00     0.000 C 
BRANCH   2   3
ATOM      3  C   UNL     1       5.158 -39.188  21.557  1.00  0.00     0.000 C 
BRANCH   3   4
ATOM      4  C   UNL     1       5.620 -38.475  22.839  1.00  0.00     0.000 C 
BRANCH   4   5
ATOM      5  C   UNL     1       6.123 -37.048  22.571  1.00  0.00     0.006 C 
BRANCH   5   6
ATOM      6  C   UNL     1       6.125 -36.175  23.833  1.00  0.00     0.053 C 
BRANCH   6   7
ATOM      7  C   UNL     1       5.592 -34.810  23.525  1.00  0.00     0.041 C 
ATOM      8  O   UNL     1       6.044 -33.802  24.128  1.00  0.00    -0.550 OA
ATOM      9  O   UNL     1       4.562 -34.657  22.606  1.00  0.00    -0.550 OA
ENDBRANCH   6   7
ENDBRANCH   5   6
ENDBRANCH   4   5
ENDBRANCH   3   4
ENDBRANCH   2   3
ENDBRANCH   1   2
BRANCH   1  10
ATOM     10  C   UNL     1       4.336 -36.286  19.112  1.00  0.00     0.000 C 
BRANCH  10  11
ATOM     11  C   UNL     1       3.880 -36.395  17.650  1.00  0.00    -0.000 C 
BRANCH  11  12
ATOM     12  C   UNL     1       2.773 -37.445  17.497  1.00  0.00    -0.000 C 
BRANCH  12  13
ATOM     13  C   UNL     1       2.002 -37.246  16.186  1.00  0.00    -0.000 C 
BRANCH  13  14
ATOM     14  C   UNL     1       2.800 -36.373  15.205  1.00  0.00    -0.000 C 
BRANCH  14  15
ATOM     15  C   UNL     1       3.208 -37.135  13.935  1.00  0.00    -0.003 C 
ATOM     16  C   UNL     1       4.228 -38.239  14.208  1.00  0.00     0.004 C 
ENDBRANCH  14  15
ENDBRANCH  13  14
ENDBRANCH  12  13
ENDBRANCH  11  12
ENDBRANCH  10  11
ENDBRANCH   1  10
TORSDOF 12
ENDMDL
