MODEL 1
REMARK VINA RESULT:    -3.297      0.000      0.000
REMARK INTER + INTRA:         -13.706
REMARK INTER:                  -8.598
REMARK INTRA:                  -5.107
REMARK UNBOUND:                -5.107
REMARK SMILES CCCCCCCCCCCCCCCCCCCCCCCCCCCCCO
REMARK SMILES IDX 16 1 15 2 14 3 13 4 12 5 11 6 10 7 9 8 8 9 7 10 6 11 5 12
REMARK SMILES IDX 4 13 3 14 2 15 1 16 17 17 18 18 19 19 20 20 21 21 22 22
REMARK SMILES IDX 23 23 24 24 25 25 26 26 27 27 28 28 29 29 30 30
REMARK H PARENT 30 31
REMARK Flexibility Score: inf
ROOT
ATOM      1  C   UNL     1     167.452 169.974 168.974  1.00  0.00     0.000 C 
ENDROOT
BRANCH   1   2
ATOM      2  C   UNL     1     166.224 169.090 169.248  1.00  0.00     0.000 C 
BRANCH   2   3
ATOM      3  C   UNL     1     165.407 168.805 167.974  1.00  0.00     0.000 C 
BRANCH   3   4
ATOM      4  C   UNL     1     164.931 167.345 167.896  1.00  0.00     0.000 C 
BRANCH   4   5
ATOM      5  C   UNL     1     165.147 166.574 169.207  1.00  0.00     0.000 C 
BRANCH   5   6
ATOM      6  C   UNL     1     163.802 166.156 169.824  1.00  0.00     0.000 C 
BRANCH   6   7
ATOM      7  C   UNL     1     163.793 166.242 171.358  1.00  0.00     0.000 C 
BRANCH   7   8
ATOM      8  C   UNL     1     165.119 166.776 171.927  1.00  0.00    -0.000 C 
BRANCH   8   9
ATOM      9  C   UNL     1     165.467 166.150 173.288  1.00  0.00    -0.000 C 
BRANCH   9  10
ATOM     10  C   UNL     1     165.131 167.078 174.466  1.00  0.00    -0.000 C 
BRANCH  10  11
ATOM     11  C   UNL     1     164.585 168.423 173.970  1.00  0.00    -0.000 C 
BRANCH  11  12
ATOM     12  C   UNL     1     165.338 169.592 174.614  1.00  0.00    -0.000 C 
BRANCH  12  13
ATOM     13  C   UNL     1     166.787 169.656 174.112  1.00  0.00    -0.000 C 
BRANCH  13  14
ATOM     14  C   UNL     1     166.896 170.272 172.709  1.00  0.00    -0.000 C 
BRANCH  14  15
ATOM     15  C   UNL     1     166.589 171.777 172.701  1.00  0.00    -0.003 C 
ATOM     16  C   UNL     1     165.804 172.170 171.453  1.00  0.00     0.004 C 
ENDBRANCH  14  15
ENDBRANCH  13  14
ENDBRANCH  12  13
ENDBRANCH  11  12
ENDBRANCH  10  11
ENDBRANCH   9  10
ENDBRANCH   8   9
ENDBRANCH   7   8
ENDBRANCH   6   7
ENDBRANCH   5   6
ENDBRANCH   4   5
ENDBRANCH   3   4
ENDBRANCH   2   3
ENDBRANCH   1   2
BRANCH   1  17
ATOM     17  C   UNL     1     168.775 169.279 169.349  1.00  0.00     0.000 C 
BRANCH  17  18
ATOM     18  C   UNL     1     168.824 167.814 168.882  1.00  0.00     0.000 C 
BRANCH  18  19
ATOM     19  C   UNL     1     169.157 166.844 170.030  1.00  0.00     0.000 C 
BRANCH  19  20
ATOM     20  C   UNL     1     168.508 167.252 171.366  1.00  0.00     0.000 C 
BRANCH  20  21
ATOM     21  C   UNL     1     169.497 167.553 172.507  1.00  0.00     0.000 C 
BRANCH  21  22
ATOM     22  C   UNL     1     169.114 166.873 173.833  1.00  0.00     0.000 C 
BRANCH  22  23
ATOM     23  C   UNL     1     169.878 165.554 174.084  1.00  0.00     0.000 C 
BRANCH  23  24
ATOM     24  C   UNL     1     168.967 164.352 174.399  1.00  0.00     0.000 C 
BRANCH  24  25
ATOM     25  C   UNL     1     168.295 163.716 173.169  1.00  0.00     0.000 C 
BRANCH  25  26
ATOM     26  C   UNL     1     169.179 163.745 171.898  1.00  0.00     0.000 C 
BRANCH  26  27
ATOM     27  C   UNL     1     169.742 162.371 171.503  1.00  0.00     0.002 C 
BRANCH  27  28
ATOM     28  C   UNL     1     169.840 162.188 169.979  1.00  0.00     0.028 C 
BRANCH  28  29
ATOM     29  C   UNL     1     169.088 163.294 169.229  1.00  0.00     0.156 C 
BRANCH  29  30
ATOM     30  O   UNL     1     168.434 162.778 168.100  1.00  0.00    -0.396 OA
ATOM     31  H   UNL     1     169.137 162.575 167.428  1.00  0.00     0.210 HD
ENDBRANCH  29  30
ENDBRANCH  28  29
ENDBRANCH  27  28
ENDBRANCH  26  27
ENDBRANCH  25  26
ENDBRANCH  24  25
ENDBRANCH  23  24
ENDBRANCH  22  23
ENDBRANCH  21  22
ENDBRANCH  20  21
ENDBRANCH  19  20
ENDBRANCH  18  19
ENDBRANCH  17  18
ENDBRANCH   1  17
TORSDOF 28
ENDMDL
MODEL 2
REMARK VINA RESULT:    -3.284      2.133      4.471
REMARK INTER + INTRA:         -13.671
REMARK INTER:                  -9.007
REMARK INTRA:                  -4.664
REMARK UNBOUND:                -5.107
REMARK SMILES CCCCCCCCCCCCCCCCCCCCCCCCCCCCCO
REMARK SMILES IDX 16 1 15 2 14 3 13 4 12 5 11 6 10 7 9 8 8 9 7 10 6 11 5 12
REMARK SMILES IDX 4 13 3 14 2 15 1 16 17 17 18 18 19 19 20 20 21 21 22 22
REMARK SMILES IDX 23 23 24 24 25 25 26 26 27 27 28 28 29 29 30 30
REMARK H PARENT 30 31
REMARK Flexibility Score: inf
ROOT
ATOM      1  C   UNL     1     167.855 169.883 172.907  1.00  0.00     0.000 C 
ENDROOT
BRANCH   1   2
ATOM      2  C   UNL     1     167.408 169.089 171.668  1.00  0.00     0.000 C 
BRANCH   2   3
ATOM      3  C   UNL     1     166.901 170.000 170.535  1.00  0.00     0.000 C 
BRANCH   3   4
ATOM      4  C   UNL     1     167.723 169.844 169.244  1.00  0.00     0.000 C 
BRANCH   4   5
ATOM      5  C   UNL     1     169.060 169.122 169.469  1.00  0.00     0.000 C 
BRANCH   5   6
ATOM      6  C   UNL     1     169.489 168.358 168.206  1.00  0.00     0.000 C 
BRANCH   6   7
ATOM      7  C   UNL     1     168.989 166.905 168.186  1.00  0.00     0.000 C 
BRANCH   7   8
ATOM      8  C   UNL     1     168.827 166.316 169.598  1.00  0.00    -0.000 C 
BRANCH   8   9
ATOM      9  C   UNL     1     167.379 165.892 169.894  1.00  0.00    -0.000 C 
BRANCH   9  10
ATOM     10  C   UNL     1     166.408 166.290 168.771  1.00  0.00    -0.000 C 
BRANCH  10  11
ATOM     11  C   UNL     1     165.107 166.864 169.346  1.00  0.00    -0.000 C 
BRANCH  11  12
ATOM     12  C   UNL     1     165.021 166.621 170.857  1.00  0.00    -0.000 C 
BRANCH  12  13
ATOM     13  C   UNL     1     163.612 166.168 171.263  1.00  0.00    -0.000 C 
BRANCH  13  14
ATOM     14  C   UNL     1     163.439 166.080 172.787  1.00  0.00    -0.000 C 
BRANCH  14  15
ATOM     15  C   UNL     1     163.981 167.320 173.514  1.00  0.00    -0.003 C 
ATOM     16  C   UNL     1     162.912 167.945 174.405  1.00  0.00     0.004 C 
ENDBRANCH  14  15
ENDBRANCH  13  14
ENDBRANCH  12  13
ENDBRANCH  11  12
ENDBRANCH  10  11
ENDBRANCH   9  10
ENDBRANCH   8   9
ENDBRANCH   7   8
ENDBRANCH   6   7
ENDBRANCH   5   6
ENDBRANCH   4   5
ENDBRANCH   3   4
ENDBRANCH   2   3
ENDBRANCH   1   2
BRANCH   1  17
ATOM     17  C   UNL     1     169.252 169.465 173.403  1.00  0.00     0.000 C 
BRANCH  17  18
ATOM     18  C   UNL     1     169.691 168.099 172.847  1.00  0.00     0.000 C 
BRANCH  18  19
ATOM     19  C   UNL     1     169.956 167.071 173.961  1.00  0.00     0.000 C 
BRANCH  19  20
ATOM     20  C   UNL     1     168.663 166.479 174.551  1.00  0.00     0.000 C 
BRANCH  20  21
ATOM     21  C   UNL     1     167.628 166.006 173.513  1.00  0.00     0.000 C 
BRANCH  21  22
ATOM     22  C   UNL     1     166.967 164.668 173.886  1.00  0.00     0.000 C 
BRANCH  22  23
ATOM     23  C   UNL     1     167.983 163.518 174.068  1.00  0.00     0.000 C 
BRANCH  23  24
ATOM     24  C   UNL     1     168.913 163.305 172.858  1.00  0.00     0.000 C 
BRANCH  24  25
ATOM     25  C   UNL     1     170.150 162.435 173.145  1.00  0.00     0.000 C 
BRANCH  25  26
ATOM     26  C   UNL     1     170.831 161.888 171.866  1.00  0.00     0.000 C 
BRANCH  26  27
ATOM     27  C   UNL     1     172.077 161.034 172.145  1.00  0.00     0.002 C 
BRANCH  27  28
ATOM     28  C   UNL     1     173.258 161.866 172.675  1.00  0.00     0.028 C 
BRANCH  28  29
ATOM     29  C   UNL     1     174.533 161.619 171.860  1.00  0.00     0.156 C 
BRANCH  29  30
ATOM     30  O   UNL     1     174.742 162.651 170.932  1.00  0.00    -0.396 OA
ATOM     31  H   UNL     1     174.990 162.219 170.072  1.00  0.00     0.210 HD
ENDBRANCH  29  30
ENDBRANCH  28  29
ENDBRANCH  27  28
ENDBRANCH  26  27
ENDBRANCH  25  26
ENDBRANCH  24  25
ENDBRANCH  23  24
ENDBRANCH  22  23
ENDBRANCH  21  22
ENDBRANCH  20  21
ENDBRANCH  19  20
ENDBRANCH  18  19
ENDBRANCH  17  18
ENDBRANCH   1  17
TORSDOF 28
ENDMDL
MODEL 3
REMARK VINA RESULT:    -3.278      2.425      5.403
REMARK INTER + INTRA:         -13.655
REMARK INTER:                  -8.475
REMARK INTRA:                  -5.180
REMARK UNBOUND:                -5.107
REMARK SMILES CCCCCCCCCCCCCCCCCCCCCCCCCCCCCO
REMARK SMILES IDX 16 1 15 2 14 3 13 4 12 5 11 6 10 7 9 8 8 9 7 10 6 11 5 12
REMARK SMILES IDX 4 13 3 14 2 15 1 16 17 17 18 18 19 19 20 20 21 21 22 22
REMARK SMILES IDX 23 23 24 24 25 25 26 26 27 27 28 28 29 29 30 30
REMARK H PARENT 30 31
REMARK Flexibility Score: inf
ROOT
ATOM      1  C   UNL     1     166.933 168.943 168.586  1.00  0.00     0.000 C 
ENDROOT
BRANCH   1   2
ATOM      2  C   UNL     1     168.240 168.403 167.982  1.00  0.00     0.000 C 
BRANCH   2   3
ATOM      3  C   UNL     1     169.471 169.219 168.417  1.00  0.00     0.000 C 
BRANCH   3   4
ATOM      4  C   UNL     1     170.469 168.384 169.237  1.00  0.00     0.000 C 
BRANCH   4   5
ATOM      5  C   UNL     1     170.868 169.057 170.560  1.00  0.00     0.000 C 
BRANCH   5   6
ATOM      6  C   UNL     1     170.423 168.208 171.761  1.00  0.00     0.000 C 
BRANCH   6   7
ATOM      7  C   UNL     1     170.884 168.786 173.108  1.00  0.00     0.000 C 
BRANCH   7   8
ATOM      8  C   UNL     1     172.305 168.337 173.489  1.00  0.00    -0.000 C 
BRANCH   8   9
ATOM      9  C   UNL     1     172.335 167.538 174.802  1.00  0.00    -0.000 C 
BRANCH   9  10
ATOM     10  C   UNL     1     172.436 166.022 174.567  1.00  0.00    -0.000 C 
BRANCH  10  11
ATOM     11  C   UNL     1     171.655 165.247 175.635  1.00  0.00    -0.000 C 
BRANCH  11  12
ATOM     12  C   UNL     1     170.621 164.317 174.990  1.00  0.00    -0.000 C 
BRANCH  12  13
ATOM     13  C   UNL     1     169.735 165.082 173.997  1.00  0.00    -0.000 C 
BRANCH  13  14
ATOM     14  C   UNL     1     168.250 164.712 174.130  1.00  0.00    -0.000 C 
BRANCH  14  15
ATOM     15  C   UNL     1     167.458 165.739 174.953  1.00  0.00    -0.003 C 
ATOM     16  C   UNL     1     168.150 167.099 174.947  1.00  0.00     0.004 C 
ENDBRANCH  14  15
ENDBRANCH  13  14
ENDBRANCH  12  13
ENDBRANCH  11  12
ENDBRANCH  10  11
ENDBRANCH   9  10
ENDBRANCH   8   9
ENDBRANCH   7   8
ENDBRANCH   6   7
ENDBRANCH   5   6
ENDBRANCH   4   5
ENDBRANCH   3   4
ENDBRANCH   2   3
ENDBRANCH   1   2
BRANCH   1  17
ATOM     17  C   UNL     1     167.180 169.919 169.752  1.00  0.00     0.000 C 
BRANCH  17  18
ATOM     18  C   UNL     1     166.957 169.265 171.126  1.00  0.00     0.000 C 
BRANCH  18  19
ATOM     19  C   UNL     1     166.236 167.910 171.020  1.00  0.00     0.000 C 
BRANCH  19  20
ATOM     20  C   UNL     1     167.131 166.721 171.416  1.00  0.00     0.000 C 
BRANCH  20  21
ATOM     21  C   UNL     1     167.383 165.693 170.299  1.00  0.00     0.000 C 
BRANCH  21  22
ATOM     22  C   UNL     1     168.828 165.165 170.278  1.00  0.00     0.000 C 
BRANCH  22  23
ATOM     23  C   UNL     1     169.051 164.043 169.240  1.00  0.00     0.000 C 
BRANCH  23  24
ATOM     24  C   UNL     1     169.676 162.761 169.825  1.00  0.00     0.000 C 
BRANCH  24  25
ATOM     25  C   UNL     1     169.896 162.794 171.348  1.00  0.00     0.000 C 
BRANCH  25  26
ATOM     26  C   UNL     1     170.962 161.785 171.840  1.00  0.00     0.000 C 
BRANCH  26  27
ATOM     27  C   UNL     1     172.313 162.429 172.187  1.00  0.00     0.002 C 
BRANCH  27  28
ATOM     28  C   UNL     1     173.361 161.398 172.641  1.00  0.00     0.028 C 
BRANCH  28  29
ATOM     29  C   UNL     1     174.659 161.520 171.833  1.00  0.00     0.156 C 
BRANCH  29  30
ATOM     30  O   UNL     1     174.631 162.657 171.010  1.00  0.00    -0.396 OA
ATOM     31  H   UNL     1     174.766 163.443 171.602  1.00  0.00     0.210 HD
ENDBRANCH  29  30
ENDBRANCH  28  29
ENDBRANCH  27  28
ENDBRANCH  26  27
ENDBRANCH  25  26
ENDBRANCH  24  25
ENDBRANCH  23  24
ENDBRANCH  22  23
ENDBRANCH  21  22
ENDBRANCH  20  21
ENDBRANCH  19  20
ENDBRANCH  18  19
ENDBRANCH  17  18
ENDBRANCH   1  17
TORSDOF 28
ENDMDL
MODEL 4
REMARK VINA RESULT:    -3.209      2.260      4.546
REMARK INTER + INTRA:         -13.474
REMARK INTER:                  -8.048
REMARK INTRA:                  -5.426
REMARK UNBOUND:                -5.107
REMARK SMILES CCCCCCCCCCCCCCCCCCCCCCCCCCCCCO
REMARK SMILES IDX 16 1 15 2 14 3 13 4 12 5 11 6 10 7 9 8 8 9 7 10 6 11 5 12
REMARK SMILES IDX 4 13 3 14 2 15 1 16 17 17 18 18 19 19 20 20 21 21 22 22
REMARK SMILES IDX 23 23 24 24 25 25 26 26 27 27 28 28 29 29 30 30
REMARK H PARENT 30 31
REMARK Flexibility Score: inf
ROOT
ATOM      1  C   UNL     1     167.296 166.444 168.252  1.00  0.00     0.000 C 
ENDROOT
BRANCH   1   2
ATOM      2  C   UNL     1     166.074 165.833 168.958  1.00  0.00     0.000 C 
BRANCH   2   3
ATOM      3  C   UNL     1     165.705 166.583 170.252  1.00  0.00     0.000 C 
BRANCH   3   4
ATOM      4  C   UNL     1     166.898 167.348 170.848  1.00  0.00     0.000 C 
BRANCH   4   5
ATOM      5  C   UNL     1     166.511 168.732 171.390  1.00  0.00     0.000 C 
BRANCH   5   6
ATOM      6  C   UNL     1     167.179 169.847 170.570  1.00  0.00     0.000 C 
BRANCH   6   7
ATOM      7  C   UNL     1     166.493 170.090 169.217  1.00  0.00     0.000 C 
BRANCH   7   8
ATOM      8  C   UNL     1     167.467 169.977 168.032  1.00  0.00    -0.000 C 
BRANCH   8   9
ATOM      9  C   UNL     1     168.936 170.111 168.465  1.00  0.00    -0.000 C 
BRANCH   9  10
ATOM     10  C   UNL     1     169.765 168.860 168.131  1.00  0.00    -0.000 C 
BRANCH  10  11
ATOM     11  C   UNL     1     170.358 168.238 169.401  1.00  0.00    -0.000 C 
BRANCH  11  12
ATOM     12  C   UNL     1     171.235 169.249 170.149  1.00  0.00    -0.000 C 
BRANCH  12  13
ATOM     13  C   UNL     1     171.393 168.856 171.624  1.00  0.00    -0.000 C 
BRANCH  13  14
ATOM     14  C   UNL     1     170.156 168.129 172.174  1.00  0.00    -0.000 C 
BRANCH  14  15
ATOM     15  C   UNL     1     169.887 168.459 173.650  1.00  0.00    -0.003 C 
ATOM     16  C   UNL     1     169.192 169.810 173.793  1.00  0.00     0.004 C 
ENDBRANCH  14  15
ENDBRANCH  13  14
ENDBRANCH  12  13
ENDBRANCH  11  12
ENDBRANCH  10  11
ENDBRANCH   9  10
ENDBRANCH   8   9
ENDBRANCH   7   8
ENDBRANCH   6   7
ENDBRANCH   5   6
ENDBRANCH   4   5
ENDBRANCH   3   4
ENDBRANCH   2   3
ENDBRANCH   1   2
BRANCH   1  17
ATOM     17  C   UNL     1     168.363 165.388 167.903  1.00  0.00     0.000 C 
BRANCH  17  18
ATOM     18  C   UNL     1     168.157 164.066 168.662  1.00  0.00     0.000 C 
BRANCH  18  19
ATOM     19  C   UNL     1     169.237 163.831 169.732  1.00  0.00     0.000 C 
BRANCH  19  20
ATOM     20  C   UNL     1     169.087 164.762 170.950  1.00  0.00     0.000 C 
BRANCH  20  21
ATOM     21  C   UNL     1     168.459 164.111 172.196  1.00  0.00     0.000 C 
BRANCH  21  22
ATOM     22  C   UNL     1     168.700 164.917 173.485  1.00  0.00     0.000 C 
BRANCH  22  23
ATOM     23  C   UNL     1     168.528 164.076 174.769  1.00  0.00     0.000 C 
BRANCH  23  24
ATOM     24  C   UNL     1     169.829 163.883 175.572  1.00  0.00     0.000 C 
BRANCH  24  25
ATOM     25  C   UNL     1     171.004 164.763 175.109  1.00  0.00     0.000 C 
BRANCH  25  26
ATOM     26  C   UNL     1     171.857 164.115 173.991  1.00  0.00     0.000 C 
BRANCH  26  27
ATOM     27  C   UNL     1     171.903 162.580 174.058  1.00  0.00     0.002 C 
BRANCH  27  28
ATOM     28  C   UNL     1     172.196 161.938 172.690  1.00  0.00     0.028 C 
BRANCH  28  29
ATOM     29  C   UNL     1     170.952 161.255 172.110  1.00  0.00     0.156 C 
BRANCH  29  30
ATOM     30  O   UNL     1     169.925 161.191 173.064  1.00  0.00    -0.396 OA
ATOM     31  H   UNL     1     170.227 160.558 173.768  1.00  0.00     0.210 HD
ENDBRANCH  29  30
ENDBRANCH  28  29
ENDBRANCH  27  28
ENDBRANCH  26  27
ENDBRANCH  25  26
ENDBRANCH  24  25
ENDBRANCH  23  24
ENDBRANCH  22  23
ENDBRANCH  21  22
ENDBRANCH  20  21
ENDBRANCH  19  20
ENDBRANCH  18  19
ENDBRANCH  17  18
ENDBRANCH   1  17
TORSDOF 28
ENDMDL
MODEL 5
REMARK VINA RESULT:    -3.187      2.129      5.670
REMARK INTER + INTRA:         -13.418
REMARK INTER:                  -8.447
REMARK INTRA:                  -4.971
REMARK UNBOUND:                -5.107
REMARK SMILES CCCCCCCCCCCCCCCCCCCCCCCCCCCCCO
REMARK SMILES IDX 16 1 15 2 14 3 13 4 12 5 11 6 10 7 9 8 8 9 7 10 6 11 5 12
REMARK SMILES IDX 4 13 3 14 2 15 1 16 17 17 18 18 19 19 20 20 21 21 22 22
REMARK SMILES IDX 23 23 24 24 25 25 26 26 27 27 28 28 29 29 30 30
REMARK H PARENT 30 31
REMARK Flexibility Score: inf
ROOT
ATOM      1  C   UNL     1     169.407 168.246 168.208  1.00  0.00     0.000 C 
ENDROOT
BRANCH   1   2
ATOM      2  C   UNL     1     168.802 169.628 167.911  1.00  0.00     0.000 C 
BRANCH   2   3
ATOM      3  C   UNL     1     167.325 169.729 168.336  1.00  0.00     0.000 C 
BRANCH   3   4
ATOM      4  C   UNL     1     167.165 170.044 169.832  1.00  0.00     0.000 C 
BRANCH   4   5
ATOM      5  C   UNL     1     166.565 168.876 170.629  1.00  0.00     0.000 C 
BRANCH   5   6
ATOM      6  C   UNL     1     165.826 167.901 169.699  1.00  0.00     0.000 C 
BRANCH   6   7
ATOM      7  C   UNL     1     166.401 166.477 169.744  1.00  0.00     0.000 C 
BRANCH   7   8
ATOM      8  C   UNL     1     166.637 165.890 168.341  1.00  0.00    -0.000 C 
BRANCH   8   9
ATOM      9  C   UNL     1     167.761 164.841 168.325  1.00  0.00    -0.000 C 
BRANCH   9  10
ATOM     10  C   UNL     1     168.597 164.854 169.615  1.00  0.00    -0.000 C 
BRANCH  10  11
ATOM     11  C   UNL     1     169.198 163.471 169.895  1.00  0.00    -0.000 C 
BRANCH  11  12
ATOM     12  C   UNL     1     169.488 163.292 171.390  1.00  0.00    -0.000 C 
BRANCH  12  13
ATOM     13  C   UNL     1     170.434 162.108 171.629  1.00  0.00    -0.000 C 
BRANCH  13  14
ATOM     14  C   UNL     1     170.983 162.075 173.064  1.00  0.00    -0.000 C 
BRANCH  14  15
ATOM     15  C   UNL     1     170.094 162.846 174.052  1.00  0.00    -0.003 C 
ATOM     16  C   UNL     1     169.061 161.925 174.694  1.00  0.00     0.004 C 
ENDBRANCH  14  15
ENDBRANCH  13  14
ENDBRANCH  12  13
ENDBRANCH  11  12
ENDBRANCH  10  11
ENDBRANCH   9  10
ENDBRANCH   8   9
ENDBRANCH   7   8
ENDBRANCH   6   7
ENDBRANCH   5   6
ENDBRANCH   4   5
ENDBRANCH   3   4
ENDBRANCH   2   3
ENDBRANCH   1   2
BRANCH   1  17
ATOM     17  C   UNL     1     170.806 168.340 168.846  1.00  0.00     0.000 C 
BRANCH  17  18
ATOM     18  C   UNL     1     170.764 168.882 170.285  1.00  0.00     0.000 C 
BRANCH  18  19
ATOM     19  C   UNL     1     169.942 167.983 171.225  1.00  0.00     0.000 C 
BRANCH  19  20
ATOM     20  C   UNL     1     170.512 167.931 172.655  1.00  0.00     0.000 C 
BRANCH  20  21
ATOM     21  C   UNL     1     169.904 166.845 173.561  1.00  0.00     0.000 C 
BRANCH  21  22
ATOM     22  C   UNL     1     168.557 166.310 173.042  1.00  0.00     0.000 C 
BRANCH  22  23
ATOM     23  C   UNL     1     167.689 165.673 174.150  1.00  0.00     0.000 C 
BRANCH  23  24
ATOM     24  C   UNL     1     166.695 166.651 174.808  1.00  0.00     0.000 C 
BRANCH  24  25
ATOM     25  C   UNL     1     165.560 167.129 173.885  1.00  0.00     0.000 C 
BRANCH  25  26
ATOM     26  C   UNL     1     164.742 165.972 173.262  1.00  0.00     0.000 C 
BRANCH  26  27
ATOM     27  C   UNL     1     163.619 166.442 172.324  1.00  0.00     0.002 C 
BRANCH  27  28
ATOM     28  C   UNL     1     162.573 165.344 172.059  1.00  0.00     0.028 C 
BRANCH  28  29
ATOM     29  C   UNL     1     162.424 165.058 170.560  1.00  0.00     0.156 C 
BRANCH  29  30
ATOM     30  O   UNL     1     162.790 166.178 169.797  1.00  0.00    -0.396 OA
ATOM     31  H   UNL     1     163.088 165.839 168.913  1.00  0.00     0.210 HD
ENDBRANCH  29  30
ENDBRANCH  28  29
ENDBRANCH  27  28
ENDBRANCH  26  27
ENDBRANCH  25  26
ENDBRANCH  24  25
ENDBRANCH  23  24
ENDBRANCH  22  23
ENDBRANCH  21  22
ENDBRANCH  20  21
ENDBRANCH  19  20
ENDBRANCH  18  19
ENDBRANCH  17  18
ENDBRANCH   1  17
TORSDOF 28
ENDMDL
MODEL 6
REMARK VINA RESULT:    -3.171      2.435      5.002
REMARK INTER + INTRA:         -13.377
REMARK INTER:                  -7.933
REMARK INTRA:                  -5.445
REMARK UNBOUND:                -5.107
REMARK SMILES CCCCCCCCCCCCCCCCCCCCCCCCCCCCCO
REMARK SMILES IDX 16 1 15 2 14 3 13 4 12 5 11 6 10 7 9 8 8 9 7 10 6 11 5 12
REMARK SMILES IDX 4 13 3 14 2 15 1 16 17 17 18 18 19 19 20 20 21 21 22 22
REMARK SMILES IDX 23 23 24 24 25 25 26 26 27 27 28 28 29 29 30 30
REMARK H PARENT 30 31
REMARK Flexibility Score: inf
ROOT
ATOM      1  C   UNL     1     169.503 165.482 168.499  1.00  0.00     0.000 C 
ENDROOT
BRANCH   1   2
ATOM      2  C   UNL     1     168.899 166.845 168.121  1.00  0.00     0.000 C 
BRANCH   2   3
ATOM      3  C   UNL     1     169.499 168.004 168.938  1.00  0.00     0.000 C 
BRANCH   3   4
ATOM      4  C   UNL     1     168.682 169.299 168.808  1.00  0.00     0.000 C 
BRANCH   4   5
ATOM      5  C   UNL     1     167.459 169.147 167.890  1.00  0.00     0.000 C 
BRANCH   5   6
ATOM      6  C   UNL     1     166.154 169.325 168.682  1.00  0.00     0.000 C 
BRANCH   6   7
ATOM      7  C   UNL     1     165.090 168.275 168.327  1.00  0.00     0.000 C 
BRANCH   7   8
ATOM      8  C   UNL     1     165.279 166.957 169.097  1.00  0.00    -0.000 C 
BRANCH   8   9
ATOM      9  C   UNL     1     165.558 167.185 170.591  1.00  0.00    -0.000 C 
BRANCH   9  10
ATOM     10  C   UNL     1     166.798 166.422 171.082  1.00  0.00    -0.000 C 
BRANCH  10  11
ATOM     11  C   UNL     1     167.706 167.328 171.923  1.00  0.00    -0.000 C 
BRANCH  11  12
ATOM     12  C   UNL     1     167.070 168.709 172.120  1.00  0.00    -0.000 C 
BRANCH  12  13
ATOM     13  C   UNL     1     168.048 169.673 172.805  1.00  0.00    -0.000 C 
BRANCH  13  14
ATOM     14  C   UNL     1     169.006 168.953 173.766  1.00  0.00    -0.000 C 
BRANCH  14  15
ATOM     15  C   UNL     1     170.471 169.364 173.555  1.00  0.00    -0.003 C 
ATOM     16  C   UNL     1     170.975 168.915 172.186  1.00  0.00     0.004 C 
ENDBRANCH  14  15
ENDBRANCH  13  14
ENDBRANCH  12  13
ENDBRANCH  11  12
ENDBRANCH  10  11
ENDBRANCH   9  10
ENDBRANCH   8   9
ENDBRANCH   7   8
ENDBRANCH   6   7
ENDBRANCH   5   6
ENDBRANCH   4   5
ENDBRANCH   3   4
ENDBRANCH   2   3
ENDBRANCH   1   2
BRANCH   1  17
ATOM     17  C   UNL     1     168.430 164.454 168.905  1.00  0.00     0.000 C 
BRANCH  17  18
ATOM     18  C   UNL     1     169.008 163.040 169.088  1.00  0.00     0.000 C 
BRANCH  18  19
ATOM     19  C   UNL     1     169.786 162.891 170.408  1.00  0.00     0.000 C 
BRANCH  19  20
ATOM     20  C   UNL     1     169.137 163.658 171.575  1.00  0.00     0.000 C 
BRANCH  20  21
ATOM     21  C   UNL     1     169.579 163.206 172.979  1.00  0.00     0.000 C 
BRANCH  21  22
ATOM     22  C   UNL     1     168.399 162.809 173.884  1.00  0.00     0.000 C 
BRANCH  22  23
ATOM     23  C   UNL     1     167.428 163.978 174.165  1.00  0.00     0.000 C 
BRANCH  23  24
ATOM     24  C   UNL     1     167.999 165.055 175.108  1.00  0.00     0.000 C 
BRANCH  24  25
ATOM     25  C   UNL     1     167.096 166.287 175.294  1.00  0.00     0.000 C 
BRANCH  25  26
ATOM     26  C   UNL     1     165.714 166.150 174.609  1.00  0.00     0.000 C 
BRANCH  26  27
ATOM     27  C   UNL     1     164.819 167.389 174.765  1.00  0.00     0.002 C 
BRANCH  27  28
ATOM     28  C   UNL     1     163.561 167.325 173.881  1.00  0.00     0.028 C 
BRANCH  28  29
ATOM     29  C   UNL     1     162.299 167.695 174.669  1.00  0.00     0.156 C 
BRANCH  29  30
ATOM     30  O   UNL     1     161.225 166.864 174.312  1.00  0.00    -0.396 OA
ATOM     31  H   UNL     1     160.453 167.459 174.121  1.00  0.00     0.210 HD
ENDBRANCH  29  30
ENDBRANCH  28  29
ENDBRANCH  27  28
ENDBRANCH  26  27
ENDBRANCH  25  26
ENDBRANCH  24  25
ENDBRANCH  23  24
ENDBRANCH  22  23
ENDBRANCH  21  22
ENDBRANCH  20  21
ENDBRANCH  19  20
ENDBRANCH  18  19
ENDBRANCH  17  18
ENDBRANCH   1  17
TORSDOF 28
ENDMDL
MODEL 7
REMARK VINA RESULT:    -3.132      2.496      4.971
REMARK INTER + INTRA:         -13.276
REMARK INTER:                  -8.743
REMARK INTRA:                  -4.532
REMARK UNBOUND:                -5.107
REMARK SMILES CCCCCCCCCCCCCCCCCCCCCCCCCCCCCO
REMARK SMILES IDX 16 1 15 2 14 3 13 4 12 5 11 6 10 7 9 8 8 9 7 10 6 11 5 12
REMARK SMILES IDX 4 13 3 14 2 15 1 16 17 17 18 18 19 19 20 20 21 21 22 22
REMARK SMILES IDX 23 23 24 24 25 25 26 26 27 27 28 28 29 29 30 30
REMARK H PARENT 30 31
REMARK Flexibility Score: inf
ROOT
ATOM      1  C   UNL     1     168.592 165.606 167.908  1.00  0.00     0.000 C 
ENDROOT
BRANCH   1   2
ATOM      2  C   UNL     1     169.899 166.416 167.924  1.00  0.00     0.000 C 
BRANCH   2   3
ATOM      3  C   UNL     1     169.837 167.617 168.885  1.00  0.00     0.000 C 
BRANCH   3   4
ATOM      4  C   UNL     1     169.338 168.897 168.195  1.00  0.00     0.000 C 
BRANCH   4   5
ATOM      5  C   UNL     1     168.190 169.578 168.956  1.00  0.00     0.000 C 
BRANCH   5   6
ATOM      6  C   UNL     1     166.829 169.027 168.501  1.00  0.00     0.000 C 
BRANCH   6   7
ATOM      7  C   UNL     1     166.162 168.131 169.557  1.00  0.00     0.000 C 
BRANCH   7   8
ATOM      8  C   UNL     1     166.738 168.350 170.967  1.00  0.00    -0.000 C 
BRANCH   8   9
ATOM      9  C   UNL     1     167.244 167.045 171.603  1.00  0.00    -0.000 C 
BRANCH   9  10
ATOM     10  C   UNL     1     168.662 167.182 172.180  1.00  0.00    -0.000 C 
BRANCH  10  11
ATOM     11  C   UNL     1     169.006 168.652 172.452  1.00  0.00    -0.000 C 
BRANCH  11  12
ATOM     12  C   UNL     1     169.858 168.790 173.718  1.00  0.00    -0.000 C 
BRANCH  12  13
ATOM     13  C   UNL     1     171.117 169.625 173.446  1.00  0.00    -0.000 C 
BRANCH  13  14
ATOM     14  C   UNL     1     172.050 168.964 172.420  1.00  0.00    -0.000 C 
BRANCH  14  15
ATOM     15  C   UNL     1     172.757 169.989 171.519  1.00  0.00    -0.003 C 
ATOM     16  C   UNL     1     172.583 169.636 170.045  1.00  0.00     0.004 C 
ENDBRANCH  14  15
ENDBRANCH  13  14
ENDBRANCH  12  13
ENDBRANCH  11  12
ENDBRANCH  10  11
ENDBRANCH   9  10
ENDBRANCH   8   9
ENDBRANCH   7   8
ENDBRANCH   6   7
ENDBRANCH   5   6
ENDBRANCH   4   5
ENDBRANCH   3   4
ENDBRANCH   2   3
ENDBRANCH   1   2
BRANCH   1  17
ATOM     17  C   UNL     1     168.410 164.754 169.179  1.00  0.00     0.000 C 
BRANCH  17  18
ATOM     18  C   UNL     1     168.905 163.309 168.997  1.00  0.00     0.000 C 
BRANCH  18  19
ATOM     19  C   UNL     1     169.506 162.729 170.289  1.00  0.00     0.000 C 
BRANCH  19  20
ATOM     20  C   UNL     1     169.133 163.543 171.542  1.00  0.00     0.000 C 
BRANCH  20  21
ATOM     21  C   UNL     1     170.001 163.267 172.782  1.00  0.00     0.000 C 
BRANCH  21  22
ATOM     22  C   UNL     1     169.347 163.737 174.094  1.00  0.00     0.000 C 
BRANCH  22  23
ATOM     23  C   UNL     1     167.877 164.179 173.917  1.00  0.00     0.000 C 
BRANCH  23  24
ATOM     24  C   UNL     1     166.855 163.239 174.585  1.00  0.00     0.000 C 
BRANCH  24  25
ATOM     25  C   UNL     1     165.416 163.786 174.629  1.00  0.00     0.000 C 
BRANCH  25  26
ATOM     26  C   UNL     1     165.326 165.310 174.373  1.00  0.00     0.000 C 
BRANCH  26  27
ATOM     27  C   UNL     1     164.255 165.703 173.343  1.00  0.00     0.002 C 
BRANCH  27  28
ATOM     28  C   UNL     1     162.879 165.091 173.658  1.00  0.00     0.028 C 
BRANCH  28  29
ATOM     29  C   UNL     1     162.238 164.473 172.410  1.00  0.00     0.156 C 
BRANCH  29  30
ATOM     30  O   UNL     1     161.691 165.467 171.584  1.00  0.00    -0.396 OA
ATOM     31  H   UNL     1     162.312 165.577 170.816  1.00  0.00     0.210 HD
ENDBRANCH  29  30
ENDBRANCH  28  29
ENDBRANCH  27  28
ENDBRANCH  26  27
ENDBRANCH  25  26
ENDBRANCH  24  25
ENDBRANCH  23  24
ENDBRANCH  22  23
ENDBRANCH  21  22
ENDBRANCH  20  21
ENDBRANCH  19  20
ENDBRANCH  18  19
ENDBRANCH  17  18
ENDBRANCH   1  17
TORSDOF 28
ENDMDL
MODEL 8
REMARK VINA RESULT:    -3.122      2.825      5.203
REMARK INTER + INTRA:         -13.249
REMARK INTER:                  -7.739
REMARK INTRA:                  -5.509
REMARK UNBOUND:                -5.107
REMARK SMILES CCCCCCCCCCCCCCCCCCCCCCCCCCCCCO
REMARK SMILES IDX 16 1 15 2 14 3 13 4 12 5 11 6 10 7 9 8 8 9 7 10 6 11 5 12
REMARK SMILES IDX 4 13 3 14 2 15 1 16 17 17 18 18 19 19 20 20 21 21 22 22
REMARK SMILES IDX 23 23 24 24 25 25 26 26 27 27 28 28 29 29 30 30
REMARK H PARENT 30 31
REMARK Flexibility Score: inf
ROOT
ATOM      1  C   UNL     1     169.525 167.374 169.525  1.00  0.00     0.000 C 
ENDROOT
BRANCH   1   2
ATOM      2  C   UNL     1     169.490 165.956 168.931  1.00  0.00     0.000 C 
BRANCH   2   3
ATOM      3  C   UNL     1     168.157 165.643 168.227  1.00  0.00     0.000 C 
BRANCH   3   4
ATOM      4  C   UNL     1     166.938 165.979 169.102  1.00  0.00     0.000 C 
BRANCH   4   5
ATOM      5  C   UNL     1     165.679 166.293 168.279  1.00  0.00     0.000 C 
BRANCH   5   6
ATOM      6  C   UNL     1     164.580 166.894 169.170  1.00  0.00     0.000 C 
BRANCH   6   7
ATOM      7  C   UNL     1     164.728 166.505 170.649  1.00  0.00     0.000 C 
BRANCH   7   8
ATOM      8  C   UNL     1     163.380 166.165 171.309  1.00  0.00    -0.000 C 
BRANCH   8   9
ATOM      9  C   UNL     1     163.473 166.117 172.843  1.00  0.00    -0.000 C 
BRANCH   9  10
ATOM     10  C   UNL     1     164.920 165.971 173.341  1.00  0.00    -0.000 C 
BRANCH  10  11
ATOM     11  C   UNL     1     165.035 164.844 174.375  1.00  0.00    -0.000 C 
BRANCH  11  12
ATOM     12  C   UNL     1     166.457 164.763 174.942  1.00  0.00    -0.000 C 
BRANCH  12  13
ATOM     13  C   UNL     1     167.361 165.833 174.315  1.00  0.00    -0.000 C 
BRANCH  13  14
ATOM     14  C   UNL     1     168.749 165.286 173.947  1.00  0.00    -0.000 C 
BRANCH  14  15
ATOM     15  C   UNL     1     168.957 165.179 172.429  1.00  0.00    -0.003 C 
ATOM     16  C   UNL     1     168.963 163.721 171.978  1.00  0.00     0.004 C 
ENDBRANCH  14  15
ENDBRANCH  13  14
ENDBRANCH  12  13
ENDBRANCH  11  12
ENDBRANCH  10  11
ENDBRANCH   9  10
ENDBRANCH   8   9
ENDBRANCH   7   8
ENDBRANCH   6   7
ENDBRANCH   5   6
ENDBRANCH   4   5
ENDBRANCH   3   4
ENDBRANCH   2   3
ENDBRANCH   1   2
BRANCH   1  17
ATOM     17  C   UNL     1     170.023 168.424 168.514  1.00  0.00     0.000 C 
BRANCH  17  18
ATOM     18  C   UNL     1     169.147 169.689 168.498  1.00  0.00     0.000 C 
BRANCH  18  19
ATOM     19  C   UNL     1     167.715 169.403 168.013  1.00  0.00     0.000 C 
BRANCH  19  20
ATOM     20  C   UNL     1     166.639 170.037 168.915  1.00  0.00     0.000 C 
BRANCH  20  21
ATOM     21  C   UNL     1     167.061 170.255 170.379  1.00  0.00     0.000 C 
BRANCH  21  22
ATOM     22  C   UNL     1     166.452 169.222 171.344  1.00  0.00     0.000 C 
BRANCH  22  23
ATOM     23  C   UNL     1     167.487 168.614 172.317  1.00  0.00     0.000 C 
BRANCH  23  24
ATOM     24  C   UNL     1     168.759 169.466 172.491  1.00  0.00     0.000 C 
BRANCH  24  25
ATOM     25  C   UNL     1     169.815 168.855 173.431  1.00  0.00     0.000 C 
BRANCH  25  26
ATOM     26  C   UNL     1     171.033 168.258 172.686  1.00  0.00     0.000 C 
BRANCH  26  27
ATOM     27  C   UNL     1     172.382 168.836 173.142  1.00  0.00     0.002 C 
BRANCH  27  28
ATOM     28  C   UNL     1     172.747 170.137 172.405  1.00  0.00     0.028 C 
BRANCH  28  29
ATOM     29  C   UNL     1     172.864 171.319 173.374  1.00  0.00     0.156 C 
BRANCH  29  30
ATOM     30  O   UNL     1     172.706 170.896 174.703  1.00  0.00    -0.396 OA
ATOM     31  H   UNL     1     173.555 171.106 175.174  1.00  0.00     0.210 HD
ENDBRANCH  29  30
ENDBRANCH  28  29
ENDBRANCH  27  28
ENDBRANCH  26  27
ENDBRANCH  25  26
ENDBRANCH  24  25
ENDBRANCH  23  24
ENDBRANCH  22  23
ENDBRANCH  21  22
ENDBRANCH  20  21
ENDBRANCH  19  20
ENDBRANCH  18  19
ENDBRANCH  17  18
ENDBRANCH   1  17
TORSDOF 28
ENDMDL
MODEL 9
REMARK VINA RESULT:    -3.103      3.009      7.006
REMARK INTER + INTRA:         -13.198
REMARK INTER:                  -8.243
REMARK INTRA:                  -4.955
REMARK UNBOUND:                -5.107
REMARK SMILES CCCCCCCCCCCCCCCCCCCCCCCCCCCCCO
REMARK SMILES IDX 16 1 15 2 14 3 13 4 12 5 11 6 10 7 9 8 8 9 7 10 6 11 5 12
REMARK SMILES IDX 4 13 3 14 2 15 1 16 17 17 18 18 19 19 20 20 21 21 22 22
REMARK SMILES IDX 23 23 24 24 25 25 26 26 27 27 28 28 29 29 30 30
REMARK H PARENT 30 31
REMARK Flexibility Score: inf
ROOT
ATOM      1  C   UNL     1     167.917 165.571 169.162  1.00  0.00     0.000 C 
ENDROOT
BRANCH   1   2
ATOM      2  C   UNL     1     169.375 166.057 169.119  1.00  0.00     0.000 C 
BRANCH   2   3
ATOM      3  C   UNL     1     169.585 167.208 168.117  1.00  0.00     0.000 C 
BRANCH   3   4
ATOM      4  C   UNL     1     170.960 167.878 168.272  1.00  0.00     0.000 C 
BRANCH   4   5
ATOM      5  C   UNL     1     170.896 169.201 169.052  1.00  0.00     0.000 C 
BRANCH   5   6
ATOM      6  C   UNL     1     172.164 169.399 169.898  1.00  0.00     0.000 C 
BRANCH   6   7
ATOM      7  C   UNL     1     171.970 169.006 171.370  1.00  0.00     0.000 C 
BRANCH   7   8
ATOM      8  C   UNL     1     172.483 170.083 172.342  1.00  0.00    -0.000 C 
BRANCH   8   9
ATOM      9  C   UNL     1     171.694 170.105 173.662  1.00  0.00    -0.000 C 
BRANCH   9  10
ATOM     10  C   UNL     1     170.473 169.173 173.634  1.00  0.00    -0.000 C 
BRANCH  10  11
ATOM     11  C   UNL     1     170.463 168.241 174.852  1.00  0.00    -0.000 C 
BRANCH  11  12
ATOM     12  C   UNL     1     169.029 167.966 175.320  1.00  0.00    -0.000 C 
BRANCH  12  13
ATOM     13  C   UNL     1     168.677 166.480 175.173  1.00  0.00    -0.000 C 
BRANCH  13  14
ATOM     14  C   UNL     1     167.691 166.220 174.024  1.00  0.00    -0.000 C 
BRANCH  14  15
ATOM     15  C   UNL     1     168.396 165.791 172.728  1.00  0.00    -0.003 C 
ATOM     16  C   UNL     1     169.133 164.468 172.917  1.00  0.00     0.004 C 
ENDBRANCH  14  15
ENDBRANCH  13  14
ENDBRANCH  12  13
ENDBRANCH  11  12
ENDBRANCH  10  11
ENDBRANCH   9  10
ENDBRANCH   8   9
ENDBRANCH   7   8
ENDBRANCH   6   7
ENDBRANCH   5   6
ENDBRANCH   4   5
ENDBRANCH   3   4
ENDBRANCH   2   3
ENDBRANCH   1   2
BRANCH   1  17
ATOM     17  C   UNL     1     167.017 166.317 168.158  1.00  0.00     0.000 C 
BRANCH  17  18
ATOM     18  C   UNL     1     165.658 166.709 168.762  1.00  0.00     0.000 C 
BRANCH  18  19
ATOM     19  C   UNL     1     165.124 168.034 168.191  1.00  0.00     0.000 C 
BRANCH  19  20
ATOM     20  C   UNL     1     166.236 169.067 167.932  1.00  0.00     0.000 C 
BRANCH  20  21
ATOM     21  C   UNL     1     166.428 170.113 169.045  1.00  0.00     0.000 C 
BRANCH  21  22
ATOM     22  C   UNL     1     167.768 169.967 169.788  1.00  0.00     0.000 C 
BRANCH  22  23
ATOM     23  C   UNL     1     167.707 168.962 170.960  1.00  0.00     0.000 C 
BRANCH  23  24
ATOM     24  C   UNL     1     166.470 169.126 171.863  1.00  0.00     0.000 C 
BRANCH  24  25
ATOM     25  C   UNL     1     166.765 169.717 173.253  1.00  0.00     0.000 C 
BRANCH  25  26
ATOM     26  C   UNL     1     167.063 171.236 173.227  1.00  0.00     0.000 C 
BRANCH  26  27
ATOM     27  C   UNL     1     166.193 172.022 172.234  1.00  0.00     0.002 C 
BRANCH  27  28
ATOM     28  C   UNL     1     164.974 172.678 172.906  1.00  0.00     0.028 C 
BRANCH  28  29
ATOM     29  C   UNL     1     164.319 173.720 171.992  1.00  0.00     0.156 C 
BRANCH  29  30
ATOM     30  O   UNL     1     162.934 173.510 171.905  1.00  0.00    -0.396 OA
ATOM     31  H   UNL     1     162.802 172.686 171.366  1.00  0.00     0.210 HD
ENDBRANCH  29  30
ENDBRANCH  28  29
ENDBRANCH  27  28
ENDBRANCH  26  27
ENDBRANCH  25  26
ENDBRANCH  24  25
ENDBRANCH  23  24
ENDBRANCH  22  23
ENDBRANCH  21  22
ENDBRANCH  20  21
ENDBRANCH  19  20
ENDBRANCH  18  19
ENDBRANCH  17  18
ENDBRANCH   1  17
TORSDOF 28
ENDMDL
