MODEL 1
REMARK VINA RESULT:    -4.465      0.000      0.000
REMARK INTER + INTRA:          -6.829
REMARK INTER:                  -6.031
REMARK INTRA:                  -0.798
REMARK UNBOUND:                -0.798
REMARK SMILES CC(=O)CCC=C(C)CCC=C(C)C
REMARK SMILES IDX 7 1 6 2 8 3 9 4 10 5 11 6 13 7 12 8 14 9 5 10 4 11 2 12 3 13
REMARK SMILES IDX 1 14
REMARK H PARENT
REMARK Flexibility Score: inf
ROOT
ATOM      1  C   UNL     1      -7.188  31.810  46.770  1.00  0.00    -0.077 C 
ATOM      2  C   UNL     1      -5.966  32.002  47.319  1.00  0.00    -0.028 C 
ATOM      3  C   UNL     1      -7.936  32.923  46.077  1.00  0.00     0.039 C 
ENDROOT
BRANCH   1   4
ATOM      4  C   UNL     1      -7.797  30.424  46.787  1.00  0.00     0.034 C 
BRANCH   4   5
ATOM      5  C   UNL     1      -7.448  29.632  45.518  1.00  0.00     0.032 C 
BRANCH   5   6
ATOM      6  C   UNL     1      -7.295  28.156  45.796  1.00  0.00    -0.028 C 
ATOM      7  C   UNL     1      -4.884  28.355  46.449  1.00  0.00     0.039 C 
ATOM      8  C   UNL     1      -6.144  27.564  46.184  1.00  0.00    -0.080 C 
ATOM      9  C   UNL     1      -6.136  26.069  46.373  1.00  0.00     0.039 C 
ENDBRANCH   5   6
ENDBRANCH   4   5
ENDBRANCH   1   4
BRANCH   2  10
ATOM     10  C   UNL     1      -5.257  33.333  47.388  1.00  0.00     0.035 C 
BRANCH  10  11
ATOM     11  C   UNL     1      -4.716  33.614  48.796  1.00  0.00     0.079 C 
BRANCH  11  12
ATOM     12  C   UNL     1      -5.812  34.051  49.735  1.00  0.00     0.130 C 
ATOM     13  O   UNL     1      -5.839  33.613  50.874  1.00  0.00    -0.300 OA
ATOM     14  C   UNL     1      -6.873  35.015  49.296  1.00  0.00     0.087 C 
ENDBRANCH  11  12
ENDBRANCH  10  11
ENDBRANCH   2  10
TORSDOF 6
ENDMDL
MODEL 2
REMARK VINA RESULT:    -4.459     17.044     19.357
REMARK INTER + INTRA:          -6.821
REMARK INTER:                  -6.336
REMARK INTRA:                  -0.485
REMARK UNBOUND:                -0.798
REMARK SMILES CC(=O)CCC=C(C)CCC=C(C)C
REMARK SMILES IDX 7 1 6 2 8 3 9 4 10 5 11 6 13 7 12 8 14 9 5 10 4 11 2 12 3 13
REMARK SMILES IDX 1 14
REMARK H PARENT
REMARK Flexibility Score: inf
ROOT
ATOM      1  C   UNL     1     -21.394  22.208  40.721  1.00  0.00    -0.077 C 
ATOM      2  C   UNL     1     -20.506  21.203  40.900  1.00  0.00    -0.028 C 
ATOM      3  C   UNL     1     -22.264  22.715  41.846  1.00  0.00     0.039 C 
ENDROOT
BRANCH   1   4
ATOM      4  C   UNL     1     -21.472  22.895  39.374  1.00  0.00     0.034 C 
BRANCH   4   5
ATOM      5  C   UNL     1     -21.875  21.919  38.259  1.00  0.00     0.032 C 
BRANCH   5   6
ATOM      6  C   UNL     1     -21.237  22.274  36.938  1.00  0.00    -0.028 C 
ATOM      7  C   UNL     1     -22.913  20.993  35.588  1.00  0.00     0.039 C 
ATOM      8  C   UNL     1     -21.672  21.842  35.735  1.00  0.00    -0.080 C 
ATOM      9  C   UNL     1     -20.896  22.242  34.505  1.00  0.00     0.039 C 
ENDBRANCH   5   6
ENDBRANCH   4   5
ENDBRANCH   1   4
BRANCH   2  10
ATOM     10  C   UNL     1     -20.341  20.422  42.182  1.00  0.00     0.035 C 
BRANCH  10  11
ATOM     11  C   UNL     1     -18.958  20.646  42.808  1.00  0.00     0.079 C 
BRANCH  11  12
ATOM     12  C   UNL     1     -17.851  20.243  41.866  1.00  0.00     0.130 C 
ATOM     13  O   UNL     1     -17.133  21.102  41.379  1.00  0.00    -0.300 OA
ATOM     14  C   UNL     1     -17.613  18.805  41.514  1.00  0.00     0.087 C 
ENDBRANCH  11  12
ENDBRANCH  10  11
ENDBRANCH   2  10
TORSDOF 6
ENDMDL
MODEL 3
REMARK VINA RESULT:    -4.394     17.984     20.253
REMARK INTER + INTRA:          -6.733
REMARK INTER:                  -6.247
REMARK INTRA:                  -0.486
REMARK UNBOUND:                -0.798
REMARK SMILES CC(=O)CCC=C(C)CCC=C(C)C
REMARK SMILES IDX 7 1 6 2 8 3 9 4 10 5 11 6 13 7 12 8 14 9 5 10 4 11 2 12 3 13
REMARK SMILES IDX 1 14
REMARK H PARENT
REMARK Flexibility Score: inf
ROOT
ATOM      1  C   UNL     1     -22.652  21.307  37.632  1.00  0.00    -0.077 C 
ATOM      2  C   UNL     1     -21.874  21.832  38.605  1.00  0.00    -0.028 C 
ATOM      3  C   UNL     1     -24.042  20.789  37.912  1.00  0.00     0.039 C 
ENDROOT
BRANCH   1   4
ATOM      4  C   UNL     1     -22.146  21.299  36.204  1.00  0.00     0.034 C 
BRANCH   4   5
ATOM      5  C   UNL     1     -21.143  22.432  35.949  1.00  0.00     0.032 C 
BRANCH   5   6
ATOM      6  C   UNL     1     -20.556  22.366  34.559  1.00  0.00    -0.028 C 
ATOM      7  C   UNL     1     -20.003  24.809  34.491  1.00  0.00     0.039 C 
ATOM      8  C   UNL     1     -20.070  23.428  33.880  1.00  0.00    -0.080 C 
ATOM      9  C   UNL     1     -19.563  23.211  32.477  1.00  0.00     0.039 C 
ENDBRANCH   5   6
ENDBRANCH   4   5
ENDBRANCH   1   4
BRANCH   2  10
ATOM     10  C   UNL     1     -22.247  21.883  40.068  1.00  0.00     0.035 C 
BRANCH  10  11
ATOM     11  C   UNL     1     -21.172  22.591  40.903  1.00  0.00     0.079 C 
BRANCH  11  12
ATOM     12  C   UNL     1     -20.027  21.666  41.231  1.00  0.00     0.130 C 
ATOM     13  O   UNL     1     -18.899  21.952  40.861  1.00  0.00    -0.300 OA
ATOM     14  C   UNL     1     -20.245  20.400  42.004  1.00  0.00     0.087 C 
ENDBRANCH  11  12
ENDBRANCH  10  11
ENDBRANCH   2  10
TORSDOF 6
ENDMDL
MODEL 4
REMARK VINA RESULT:    -4.269     16.151     18.370
REMARK INTER + INTRA:          -6.565
REMARK INTER:                  -5.772
REMARK INTRA:                  -0.793
REMARK UNBOUND:                -0.798
REMARK SMILES CC(=O)CCC=C(C)CCC=C(C)C
REMARK SMILES IDX 7 1 6 2 8 3 9 4 10 5 11 6 13 7 12 8 14 9 5 10 4 11 2 12 3 13
REMARK SMILES IDX 1 14
REMARK H PARENT
REMARK Flexibility Score: inf
ROOT
ATOM      1  C   UNL     1     -22.112  22.426  40.553  1.00  0.00    -0.077 C 
ATOM      2  C   UNL     1     -21.376  21.872  41.544  1.00  0.00    -0.028 C 
ATOM      3  C   UNL     1     -21.993  21.969  39.119  1.00  0.00     0.039 C 
ENDROOT
BRANCH   1   4
ATOM      4  C   UNL     1     -23.138  23.485  40.897  1.00  0.00     0.034 C 
BRANCH   4   5
ATOM      5  C   UNL     1     -23.052  23.905  42.372  1.00  0.00     0.032 C 
BRANCH   5   6
ATOM      6  C   UNL     1     -22.947  25.403  42.529  1.00  0.00    -0.028 C 
ATOM      7  C   UNL     1     -20.446  25.416  42.392  1.00  0.00     0.039 C 
ATOM      8  C   UNL     1     -21.786  26.091  42.571  1.00  0.00    -0.080 C 
ATOM      9  C   UNL     1     -21.843  27.582  42.785  1.00  0.00     0.039 C 
ENDBRANCH   5   6
ENDBRANCH   4   5
ENDBRANCH   1   4
BRANCH   2  10
ATOM     10  C   UNL     1     -20.309  20.825  41.337  1.00  0.00     0.035 C 
BRANCH  10  11
ATOM     11  C   UNL     1     -18.903  21.439  41.342  1.00  0.00     0.079 C 
BRANCH  11  12
ATOM     12  C   UNL     1     -17.947  20.630  42.181  1.00  0.00     0.130 C 
ATOM     13  O   UNL     1     -17.500  21.106  43.213  1.00  0.00    -0.300 OA
ATOM     14  C   UNL     1     -17.531  19.248  41.774  1.00  0.00     0.087 C 
ENDBRANCH  11  12
ENDBRANCH  10  11
ENDBRANCH   2  10
TORSDOF 6
ENDMDL
MODEL 5
REMARK VINA RESULT:    -4.242      1.619      2.772
REMARK INTER + INTRA:          -6.528
REMARK INTER:                  -5.523
REMARK INTRA:                  -1.005
REMARK UNBOUND:                -0.798
REMARK SMILES CC(=O)CCC=C(C)CCC=C(C)C
REMARK SMILES IDX 7 1 6 2 8 3 9 4 10 5 11 6 13 7 12 8 14 9 5 10 4 11 2 12 3 13
REMARK SMILES IDX 1 14
REMARK H PARENT
REMARK Flexibility Score: inf
ROOT
ATOM      1  C   UNL     1      -4.296  30.695  45.915  1.00  0.00    -0.077 C 
ATOM      2  C   UNL     1      -4.246  31.485  47.013  1.00  0.00    -0.028 C 
ATOM      3  C   UNL     1      -4.335  31.269  44.519  1.00  0.00     0.039 C 
ENDROOT
BRANCH   1   4
ATOM      4  C   UNL     1      -4.240  29.191  46.084  1.00  0.00     0.034 C 
BRANCH   4   5
ATOM      5  C   UNL     1      -5.512  28.644  46.746  1.00  0.00     0.032 C 
BRANCH   5   6
ATOM      6  C   UNL     1      -6.691  28.657  45.803  1.00  0.00    -0.028 C 
ATOM      7  C   UNL     1      -7.847  30.531  46.999  1.00  0.00     0.039 C 
ATOM      8  C   UNL     1      -7.759  29.475  45.921  1.00  0.00    -0.080 C 
ATOM      9  C   UNL     1      -8.885  29.333  44.928  1.00  0.00     0.039 C 
ENDBRANCH   5   6
ENDBRANCH   4   5
ENDBRANCH   1   4
BRANCH   2  10
ATOM     10  C   UNL     1      -4.315  32.993  46.987  1.00  0.00     0.035 C 
BRANCH  10  11
ATOM     11  C   UNL     1      -4.339  33.584  48.403  1.00  0.00     0.079 C 
BRANCH  11  12
ATOM     12  C   UNL     1      -5.747  33.702  48.930  1.00  0.00     0.130 C 
ATOM     13  O   UNL     1      -6.684  33.717  48.147  1.00  0.00    -0.300 OA
ATOM     14  C   UNL     1      -6.021  33.802  50.401  1.00  0.00     0.087 C 
ENDBRANCH  11  12
ENDBRANCH  10  11
ENDBRANCH   2  10
TORSDOF 6
ENDMDL
MODEL 6
REMARK VINA RESULT:    -4.241      2.585      5.918
REMARK INTER + INTRA:          -6.526
REMARK INTER:                  -5.479
REMARK INTRA:                  -1.047
REMARK UNBOUND:                -0.798
REMARK SMILES CC(=O)CCC=C(C)CCC=C(C)C
REMARK SMILES IDX 7 1 6 2 8 3 9 4 10 5 11 6 13 7 12 8 14 9 5 10 4 11 2 12 3 13
REMARK SMILES IDX 1 14
REMARK H PARENT
REMARK Flexibility Score: inf
ROOT
ATOM      1  C   UNL     1      -6.765  31.079  46.289  1.00  0.00    -0.077 C 
ATOM      2  C   UNL     1      -5.530  30.529  46.227  1.00  0.00    -0.028 C 
ATOM      3  C   UNL     1      -7.885  30.442  47.075  1.00  0.00     0.039 C 
ENDROOT
BRANCH   1   4
ATOM      4  C   UNL     1      -7.016  32.409  45.609  1.00  0.00     0.034 C 
BRANCH   4   5
ATOM      5  C   UNL     1      -6.163  33.531  46.218  1.00  0.00     0.032 C 
BRANCH   5   6
ATOM      6  C   UNL     1      -6.438  33.715  47.691  1.00  0.00    -0.028 C 
ATOM      7  C   UNL     1      -4.036  33.448  48.348  1.00  0.00     0.039 C 
ATOM      8  C   UNL     1      -5.500  33.650  48.660  1.00  0.00    -0.080 C 
ATOM      9  C   UNL     1      -5.939  33.805  50.094  1.00  0.00     0.039 C 
ENDBRANCH   5   6
ENDBRANCH   4   5
ENDBRANCH   1   4
BRANCH   2  10
ATOM     10  C   UNL     1      -5.152  29.202  46.841  1.00  0.00     0.035 C 
BRANCH  10  11
ATOM     11  C   UNL     1      -5.033  28.100  45.780  1.00  0.00     0.079 C 
BRANCH  11  12
ATOM     12  C   UNL     1      -6.106  27.053  45.945  1.00  0.00     0.130 C 
ATOM     13  O   UNL     1      -5.838  25.999  46.500  1.00  0.00    -0.300 OA
ATOM     14  C   UNL     1      -7.500  27.281  45.442  1.00  0.00     0.087 C 
ENDBRANCH  11  12
ENDBRANCH  10  11
ENDBRANCH   2  10
TORSDOF 6
ENDMDL
MODEL 7
REMARK VINA RESULT:    -4.148      1.573      2.406
REMARK INTER + INTRA:          -6.401
REMARK INTER:                  -5.477
REMARK INTRA:                  -0.924
REMARK UNBOUND:                -0.798
REMARK SMILES CC(=O)CCC=C(C)CCC=C(C)C
REMARK SMILES IDX 7 1 6 2 8 3 9 4 10 5 11 6 13 7 12 8 14 9 5 10 4 11 2 12 3 13
REMARK SMILES IDX 1 14
REMARK H PARENT
REMARK Flexibility Score: inf
ROOT
ATOM      1  C   UNL     1      -6.253  30.591  46.959  1.00  0.00    -0.077 C 
ATOM      2  C   UNL     1      -5.121  31.330  46.898  1.00  0.00    -0.028 C 
ATOM      3  C   UNL     1      -7.620  31.227  47.027  1.00  0.00     0.039 C 
ENDROOT
BRANCH   1   4
ATOM      4  C   UNL     1      -6.155  29.081  46.888  1.00  0.00     0.034 C 
BRANCH   4   5
ATOM      5  C   UNL     1      -6.308  28.567  45.449  1.00  0.00     0.032 C 
BRANCH   5   6
ATOM      6  C   UNL     1      -7.659  27.935  45.214  1.00  0.00    -0.028 C 
ATOM      7  C   UNL     1      -8.442  29.766  43.694  1.00  0.00     0.039 C 
ATOM      8  C   UNL     1      -8.637  28.475  44.455  1.00  0.00    -0.080 C 
ATOM      9  C   UNL     1      -9.953  27.747  44.357  1.00  0.00     0.039 C 
ENDBRANCH   5   6
ENDBRANCH   4   5
ENDBRANCH   1   4
BRANCH   2  10
ATOM     10  C   UNL     1      -5.076  32.837  46.980  1.00  0.00     0.035 C 
BRANCH  10  11
ATOM     11  C   UNL     1      -4.699  33.317  48.387  1.00  0.00     0.079 C 
BRANCH  11  12
ATOM     12  C   UNL     1      -5.899  33.839  49.136  1.00  0.00     0.130 C 
ATOM     13  O   UNL     1      -6.842  34.302  48.514  1.00  0.00    -0.300 OA
ATOM     14  C   UNL     1      -5.960  33.799  50.634  1.00  0.00     0.087 C 
ENDBRANCH  11  12
ENDBRANCH  10  11
ENDBRANCH   2  10
TORSDOF 6
ENDMDL
MODEL 8
REMARK VINA RESULT:    -4.072     16.231     17.507
REMARK INTER + INTRA:          -6.298
REMARK INTER:                  -5.315
REMARK INTRA:                  -0.982
REMARK UNBOUND:                -0.798
REMARK SMILES CC(=O)CCC=C(C)CCC=C(C)C
REMARK SMILES IDX 7 1 6 2 8 3 9 4 10 5 11 6 13 7 12 8 14 9 5 10 4 11 2 12 3 13
REMARK SMILES IDX 1 14
REMARK H PARENT
REMARK Flexibility Score: inf
ROOT
ATOM      1  C   UNL     1     -20.876  23.017  40.590  1.00  0.00    -0.077 C 
ATOM      2  C   UNL     1     -20.525  23.701  41.704  1.00  0.00    -0.028 C 
ATOM      3  C   UNL     1     -20.742  23.615  39.210  1.00  0.00     0.039 C 
ENDROOT
BRANCH   1   4
ATOM      4  C   UNL     1     -21.350  21.585  40.720  1.00  0.00     0.034 C 
BRANCH   4   5
ATOM      5  C   UNL     1     -20.782  20.908  41.976  1.00  0.00     0.032 C 
BRANCH   5   6
ATOM      6  C   UNL     1     -19.587  20.041  41.660  1.00  0.00    -0.028 C 
ATOM      7  C   UNL     1     -18.111  21.165  43.343  1.00  0.00     0.039 C 
ATOM      8  C   UNL     1     -18.375  20.164  42.242  1.00  0.00    -0.080 C 
ATOM      9  C   UNL     1     -17.263  19.256  41.783  1.00  0.00     0.039 C 
ENDBRANCH   5   6
ENDBRANCH   4   5
ENDBRANCH   1   4
BRANCH   2  10
ATOM     10  C   UNL     1     -20.058  25.136  41.716  1.00  0.00     0.035 C 
BRANCH  10  11
ATOM     11  C   UNL     1     -21.060  26.053  42.431  1.00  0.00     0.079 C 
BRANCH  11  12
ATOM     12  C   UNL     1     -22.357  26.157  41.669  1.00  0.00     0.130 C 
ATOM     13  O   UNL     1     -22.379  26.737  40.595  1.00  0.00    -0.300 OA
ATOM     14  C   UNL     1     -23.624  25.559  42.204  1.00  0.00     0.087 C 
ENDBRANCH  11  12
ENDBRANCH  10  11
ENDBRANCH   2  10
TORSDOF 6
ENDMDL
MODEL 9
REMARK VINA RESULT:    -3.955      1.026      1.541
REMARK INTER + INTRA:          -6.141
REMARK INTER:                  -5.562
REMARK INTRA:                  -0.579
REMARK UNBOUND:                -0.798
REMARK SMILES CC(=O)CCC=C(C)CCC=C(C)C
REMARK SMILES IDX 7 1 6 2 8 3 9 4 10 5 11 6 13 7 12 8 14 9 5 10 4 11 2 12 3 13
REMARK SMILES IDX 1 14
REMARK H PARENT
REMARK Flexibility Score: inf
ROOT
ATOM      1  C   UNL     1      -5.942  30.899  46.924  1.00  0.00    -0.077 C 
ATOM      2  C   UNL     1      -4.933  31.794  47.029  1.00  0.00    -0.028 C 
ATOM      3  C   UNL     1      -7.391  31.315  47.003  1.00  0.00     0.039 C 
ENDROOT
BRANCH   1   4
ATOM      4  C   UNL     1      -5.615  29.446  46.651  1.00  0.00     0.034 C 
BRANCH   4   5
ATOM      5  C   UNL     1      -6.838  28.674  46.134  1.00  0.00     0.032 C 
BRANCH   5   6
ATOM      6  C   UNL     1      -6.480  27.733  45.009  1.00  0.00    -0.028 C 
ATOM      7  C   UNL     1      -6.187  25.760  46.524  1.00  0.00     0.039 C 
ATOM      8  C   UNL     1      -6.156  26.432  45.171  1.00  0.00    -0.080 C 
ATOM      9  C   UNL     1      -5.770  25.632  43.953  1.00  0.00     0.039 C 
ENDBRANCH   5   6
ENDBRANCH   4   5
ENDBRANCH   1   4
BRANCH   2  10
ATOM     10  C   UNL     1      -5.118  33.264  47.320  1.00  0.00     0.035 C 
BRANCH  10  11
ATOM     11  C   UNL     1      -4.638  33.627  48.731  1.00  0.00     0.079 C 
BRANCH  11  12
ATOM     12  C   UNL     1      -5.787  34.026  49.622  1.00  0.00     0.130 C 
ATOM     13  O   UNL     1      -5.801  33.661  50.787  1.00  0.00    -0.300 OA
ATOM     14  C   UNL     1      -6.917  34.867  49.106  1.00  0.00     0.087 C 
ENDBRANCH  11  12
ENDBRANCH  10  11
ENDBRANCH   2  10
TORSDOF 6
ENDMDL
