MODEL 1
REMARK VINA RESULT:    -1.446      0.000      0.000
REMARK INTER + INTRA:          -7.331
REMARK INTER:                  -3.644
REMARK INTRA:                  -3.688
REMARK UNBOUND:                -3.688
REMARK SMILES CCCCCCCCCCCCCCCCCCCCCCCCCCCC(=O)[O-]
REMARK SMILES IDX 15 1 16 2 17 3 18 4 19 5 20 6 21 7 22 8 23 9 24 10 25 11
REMARK SMILES IDX 26 12 27 13 28 14 29 15 30 16 14 17 13 18 12 19 11 20 10 21
REMARK SMILES IDX 9 22 8 23 7 24 6 25 5 26 4 27 3 28 2 29 1 30
REMARK H PARENT
REMARK Flexibility Score: inf
ROOT
ATOM      1  C   UNL     1       8.899 -29.006  18.869  1.00  0.00     0.000 C 
ENDROOT
BRANCH   1   2
ATOM      2  C   UNL     1       7.965 -27.794  18.725  1.00  0.00     0.000 C 
BRANCH   2   3
ATOM      3  C   UNL     1       6.572 -28.173  18.190  1.00  0.00     0.000 C 
BRANCH   3   4
ATOM      4  C   UNL     1       6.215 -29.657  18.374  1.00  0.00     0.000 C 
BRANCH   4   5
ATOM      5  C   UNL     1       5.875 -30.370  17.042  1.00  0.00     0.000 C 
BRANCH   5   6
ATOM      6  C   UNL     1       6.050 -29.454  15.820  1.00  0.00     0.000 C 
BRANCH   6   7
ATOM      7  C   UNL     1       6.090 -30.249  14.500  1.00  0.00     0.000 C 
BRANCH   7   8
ATOM      8  C   UNL     1       7.481 -30.239  13.838  1.00  0.00     0.000 C 
BRANCH   8   9
ATOM      9  C   UNL     1       7.545 -29.529  12.467  1.00  0.00     0.000 C 
BRANCH   9  10
ATOM     10  C   UNL     1       8.972 -29.344  11.914  1.00  0.00     0.000 C 
BRANCH  10  11
ATOM     11  C   UNL     1       9.892 -30.524  12.270  1.00  0.00     0.000 C 
BRANCH  11  12
ATOM     12  C   UNL     1      10.967 -30.154  13.307  1.00  0.00     0.006 C 
BRANCH  12  13
ATOM     13  C   UNL     1      10.896 -28.700  13.796  1.00  0.00     0.053 C 
BRANCH  13  14
ATOM     14  C   UNL     1      12.046 -28.359  14.690  1.00  0.00     0.041 C 
ATOM     15  O   UNL     1      11.832 -27.928  15.853  1.00  0.00    -0.550 OA
ATOM     16  O   UNL     1      13.351 -28.443  14.217  1.00  0.00    -0.550 OA
ENDBRANCH  13  14
ENDBRANCH  12  13
ENDBRANCH  11  12
ENDBRANCH  10  11
ENDBRANCH   9  10
ENDBRANCH   8   9
ENDBRANCH   7   8
ENDBRANCH   6   7
ENDBRANCH   5   6
ENDBRANCH   4   5
ENDBRANCH   3   4
ENDBRANCH   2   3
ENDBRANCH   1   2
BRANCH   1  17
ATOM     17  C   UNL     1       9.696 -29.229  17.576  1.00  0.00     0.000 C 
BRANCH  17  18
ATOM     18  C   UNL     1       9.035 -30.252  16.634  1.00  0.00     0.000 C 
BRANCH  18  19
ATOM     19  C   UNL     1       9.142 -31.716  17.092  1.00  0.00     0.000 C 
BRANCH  19  20
ATOM     20  C   UNL     1       8.310 -32.728  16.279  1.00  0.00     0.000 C 
BRANCH  20  21
ATOM     21  C   UNL     1       7.454 -33.682  17.138  1.00  0.00     0.000 C 
BRANCH  21  22
ATOM     22  C   UNL     1       6.141 -34.080  16.447  1.00  0.00    -0.000 C 
BRANCH  22  23
ATOM     23  C   UNL     1       6.088 -33.607  14.978  1.00  0.00    -0.000 C 
BRANCH  23  24
ATOM     24  C   UNL     1       6.000 -34.762  13.966  1.00  0.00    -0.000 C 
BRANCH  24  25
ATOM     25  C   UNL     1       6.522 -34.371  12.573  1.00  0.00    -0.000 C 
BRANCH  25  26
ATOM     26  C   UNL     1       7.899 -33.688  12.630  1.00  0.00    -0.000 C 
BRANCH  26  27
ATOM     27  C   UNL     1       9.012 -34.639  13.102  1.00  0.00    -0.000 C 
BRANCH  27  28
ATOM     28  C   UNL     1      10.235 -34.618  12.160  1.00  0.00    -0.000 C 
BRANCH  28  29
ATOM     29  C   UNL     1      11.518 -34.100  12.829  1.00  0.00    -0.003 C 
ATOM     30  C   UNL     1      12.390 -33.265  11.891  1.00  0.00     0.004 C 
ENDBRANCH  28  29
ENDBRANCH  27  28
ENDBRANCH  26  27
ENDBRANCH  25  26
ENDBRANCH  24  25
ENDBRANCH  23  24
ENDBRANCH  22  23
ENDBRANCH  21  22
ENDBRANCH  20  21
ENDBRANCH  19  20
ENDBRANCH  18  19
ENDBRANCH  17  18
ENDBRANCH   1  17
TORSDOF 26
ENDMDL
MODEL 2
REMARK VINA RESULT:    -1.185      1.335      2.016
REMARK INTER + INTRA:          -6.673
REMARK INTER:                  -3.891
REMARK INTRA:                  -2.782
REMARK UNBOUND:                -3.688
REMARK SMILES CCCCCCCCCCCCCCCCCCCCCCCCCCCC(=O)[O-]
REMARK SMILES IDX 15 1 16 2 17 3 18 4 19 5 20 6 21 7 22 8 23 9 24 10 25 11
REMARK SMILES IDX 26 12 27 13 28 14 29 15 30 16 14 17 13 18 12 19 11 20 10 21
REMARK SMILES IDX 9 22 8 23 7 24 6 25 5 26 4 27 3 28 2 29 1 30
REMARK H PARENT
REMARK Flexibility Score: inf
ROOT
ATOM      1  C   UNL     1       9.713 -28.971  17.601  1.00  0.00     0.000 C 
ENDROOT
BRANCH   1   2
ATOM      2  C   UNL     1       8.593 -28.730  16.577  1.00  0.00     0.000 C 
BRANCH   2   3
ATOM      3  C   UNL     1       8.333 -29.950  15.675  1.00  0.00     0.000 C 
BRANCH   3   4
ATOM      4  C   UNL     1       6.993 -29.897  14.922  1.00  0.00     0.000 C 
BRANCH   4   5
ATOM      5  C   UNL     1       6.509 -31.288  14.446  1.00  0.00     0.000 C 
BRANCH   5   6
ATOM      6  C   UNL     1       5.946 -31.261  13.015  1.00  0.00     0.000 C 
BRANCH   6   7
ATOM      7  C   UNL     1       6.972 -30.722  11.999  1.00  0.00     0.000 C 
BRANCH   7   8
ATOM      8  C   UNL     1       7.200 -29.204  12.126  1.00  0.00     0.000 C 
BRANCH   8   9
ATOM      9  C   UNL     1       8.652 -28.740  11.875  1.00  0.00     0.000 C 
BRANCH   9  10
ATOM     10  C   UNL     1       9.718 -29.824  12.128  1.00  0.00     0.000 C 
BRANCH  10  11
ATOM     11  C   UNL     1      10.311 -29.736  13.545  1.00  0.00     0.000 C 
BRANCH  11  12
ATOM     12  C   UNL     1      11.811 -29.392  13.547  1.00  0.00     0.006 C 
BRANCH  12  13
ATOM     13  C   UNL     1      12.139 -28.015  14.143  1.00  0.00     0.053 C 
BRANCH  13  14
ATOM     14  C   UNL     1      13.615 -27.811  14.288  1.00  0.00     0.041 C 
ATOM     15  O   UNL     1      14.244 -28.406  15.203  1.00  0.00    -0.550 OA
ATOM     16  O   UNL     1      14.283 -26.910  13.467  1.00  0.00    -0.550 OA
ENDBRANCH  13  14
ENDBRANCH  12  13
ENDBRANCH  11  12
ENDBRANCH  10  11
ENDBRANCH   9  10
ENDBRANCH   8   9
ENDBRANCH   7   8
ENDBRANCH   6   7
ENDBRANCH   5   6
ENDBRANCH   4   5
ENDBRANCH   3   4
ENDBRANCH   2   3
ENDBRANCH   1   2
BRANCH   1  17
ATOM     17  C   UNL     1       9.132 -29.487  18.924  1.00  0.00     0.000 C 
BRANCH  17  18
ATOM     18  C   UNL     1       7.632 -29.822  18.831  1.00  0.00     0.000 C 
BRANCH  18  19
ATOM     19  C   UNL     1       7.283 -31.301  19.069  1.00  0.00     0.000 C 
BRANCH  19  20
ATOM     20  C   UNL     1       7.740 -32.276  17.966  1.00  0.00     0.000 C 
BRANCH  20  21
ATOM     21  C   UNL     1       7.399 -33.754  18.245  1.00  0.00     0.000 C 
BRANCH  21  22
ATOM     22  C   UNL     1       6.386 -34.325  17.240  1.00  0.00    -0.000 C 
BRANCH  22  23
ATOM     23  C   UNL     1       6.717 -33.926  15.786  1.00  0.00    -0.000 C 
BRANCH  23  24
ATOM     24  C   UNL     1       6.735 -35.118  14.813  1.00  0.00    -0.000 C 
BRANCH  24  25
ATOM     25  C   UNL     1       6.112 -34.778  13.448  1.00  0.00    -0.000 C 
BRANCH  25  26
ATOM     26  C   UNL     1       7.140 -34.819  12.304  1.00  0.00    -0.000 C 
BRANCH  26  27
ATOM     27  C   UNL     1       8.590 -34.864  12.813  1.00  0.00    -0.000 C 
BRANCH  27  28
ATOM     28  C   UNL     1       9.278 -33.484  12.735  1.00  0.00    -0.000 C 
BRANCH  28  29
ATOM     29  C   UNL     1      10.353 -33.270  13.812  1.00  0.00    -0.003 C 
ATOM     30  C   UNL     1      11.771 -33.547  13.311  1.00  0.00     0.004 C 
ENDBRANCH  28  29
ENDBRANCH  27  28
ENDBRANCH  26  27
ENDBRANCH  25  26
ENDBRANCH  24  25
ENDBRANCH  23  24
ENDBRANCH  22  23
ENDBRANCH  21  22
ENDBRANCH  20  21
ENDBRANCH  19  20
ENDBRANCH  18  19
ENDBRANCH  17  18
ENDBRANCH   1  17
TORSDOF 26
ENDMDL
MODEL 3
REMARK VINA RESULT:    -1.146      1.911      4.612
REMARK INTER + INTRA:          -6.576
REMARK INTER:                  -4.254
REMARK INTRA:                  -2.322
REMARK UNBOUND:                -3.688
REMARK SMILES CCCCCCCCCCCCCCCCCCCCCCCCCCCC(=O)[O-]
REMARK SMILES IDX 15 1 16 2 17 3 18 4 19 5 20 6 21 7 22 8 23 9 24 10 25 11
REMARK SMILES IDX 26 12 27 13 28 14 29 15 30 16 14 17 13 18 12 19 11 20 10 21
REMARK SMILES IDX 9 22 8 23 7 24 6 25 5 26 4 27 3 28 2 29 1 30
REMARK H PARENT
REMARK Flexibility Score: inf
ROOT
ATOM      1  C   UNL     1      10.081 -28.345  17.987  1.00  0.00     0.000 C 
ENDROOT
BRANCH   1   2
ATOM      2  C   UNL     1       9.365 -29.080  19.131  1.00  0.00     0.000 C 
BRANCH   2   3
ATOM      3  C   UNL     1       7.904 -29.431  18.794  1.00  0.00     0.000 C 
BRANCH   3   4
ATOM      4  C   UNL     1       7.471 -30.828  19.271  1.00  0.00     0.000 C 
BRANCH   4   5
ATOM      5  C   UNL     1       6.878 -31.700  18.137  1.00  0.00     0.000 C 
BRANCH   5   6
ATOM      6  C   UNL     1       7.722 -32.954  17.853  1.00  0.00     0.000 C 
BRANCH   6   7
ATOM      7  C   UNL     1       6.847 -34.202  17.628  1.00  0.00     0.000 C 
BRANCH   7   8
ATOM      8  C   UNL     1       6.406 -34.368  16.161  1.00  0.00     0.000 C 
BRANCH   8   9
ATOM      9  C   UNL     1       7.375 -33.770  15.118  1.00  0.00     0.000 C 
BRANCH   9  10
ATOM     10  C   UNL     1       6.931 -33.963  13.654  1.00  0.00     0.000 C 
BRANCH  10  11
ATOM     11  C   UNL     1       7.672 -35.125  12.971  1.00  0.00     0.000 C 
BRANCH  11  12
ATOM     12  C   UNL     1       9.145 -34.801  12.666  1.00  0.00     0.006 C 
BRANCH  12  13
ATOM     13  C   UNL     1       9.729 -33.667  13.521  1.00  0.00     0.053 C 
BRANCH  13  14
ATOM     14  C   UNL     1      11.192 -33.478  13.267  1.00  0.00     0.041 C 
ATOM     15  O   UNL     1      12.034 -33.899  14.102  1.00  0.00    -0.550 OA
ATOM     16  O   UNL     1      11.623 -32.772  12.149  1.00  0.00    -0.550 OA
ENDBRANCH  13  14
ENDBRANCH  12  13
ENDBRANCH  11  12
ENDBRANCH  10  11
ENDBRANCH   9  10
ENDBRANCH   8   9
ENDBRANCH   7   8
ENDBRANCH   6   7
ENDBRANCH   5   6
ENDBRANCH   4   5
ENDBRANCH   3   4
ENDBRANCH   2   3
ENDBRANCH   1   2
BRANCH   1  17
ATOM     17  C   UNL     1       9.201 -28.315  16.731  1.00  0.00     0.000 C 
BRANCH  17  18
ATOM     18  C   UNL     1       9.505 -29.467  15.756  1.00  0.00     0.000 C 
BRANCH  18  19
ATOM     19  C   UNL     1       8.339 -30.442  15.523  1.00  0.00     0.000 C 
BRANCH  19  20
ATOM     20  C   UNL     1       6.949 -29.792  15.377  1.00  0.00     0.000 C 
BRANCH  20  21
ATOM     21  C   UNL     1       6.042 -30.461  14.324  1.00  0.00     0.000 C 
BRANCH  21  22
ATOM     22  C   UNL     1       6.361 -30.001  12.893  1.00  0.00    -0.000 C 
BRANCH  22  23
ATOM     23  C   UNL     1       7.012 -31.120  12.051  1.00  0.00    -0.000 C 
BRANCH  23  24
ATOM     24  C   UNL     1       8.536 -30.966  11.903  1.00  0.00    -0.000 C 
BRANCH  24  25
ATOM     25  C   UNL     1       9.013 -29.525  12.151  1.00  0.00    -0.000 C 
BRANCH  25  26
ATOM     26  C   UNL     1      10.543 -29.389  12.072  1.00  0.00    -0.000 C 
BRANCH  26  27
ATOM     27  C   UNL     1      11.223 -29.562  13.440  1.00  0.00    -0.000 C 
BRANCH  27  28
ATOM     28  C   UNL     1      11.868 -28.252  13.941  1.00  0.00    -0.000 C 
BRANCH  28  29
ATOM     29  C   UNL     1      13.359 -28.392  14.286  1.00  0.00    -0.003 C 
ATOM     30  C   UNL     1      14.154 -27.106  14.056  1.00  0.00     0.004 C 
ENDBRANCH  28  29
ENDBRANCH  27  28
ENDBRANCH  26  27
ENDBRANCH  25  26
ENDBRANCH  24  25
ENDBRANCH  23  24
ENDBRANCH  22  23
ENDBRANCH  21  22
ENDBRANCH  20  21
ENDBRANCH  19  20
ENDBRANCH  18  19
ENDBRANCH  17  18
ENDBRANCH   1  17
TORSDOF 26
ENDMDL
MODEL 4
REMARK VINA RESULT:    -0.499      1.969      4.869
REMARK INTER + INTRA:          -4.945
REMARK INTER:                  -3.143
REMARK INTRA:                  -1.802
REMARK UNBOUND:                -3.688
REMARK SMILES CCCCCCCCCCCCCCCCCCCCCCCCCCCC(=O)[O-]
REMARK SMILES IDX 15 1 16 2 17 3 18 4 19 5 20 6 21 7 22 8 23 9 24 10 25 11
REMARK SMILES IDX 26 12 27 13 28 14 29 15 30 16 14 17 13 18 12 19 11 20 10 21
REMARK SMILES IDX 9 22 8 23 7 24 6 25 5 26 4 27 3 28 2 29 1 30
REMARK H PARENT
REMARK Flexibility Score: inf
ROOT
ATOM      1  C   UNL     1      10.447 -28.776  17.631  1.00  0.00     0.000 C 
ENDROOT
BRANCH   1   2
ATOM      2  C   UNL     1      10.513 -28.109  16.248  1.00  0.00     0.000 C 
BRANCH   2   3
ATOM      3  C   UNL     1       9.853 -28.955  15.144  1.00  0.00     0.000 C 
BRANCH   3   4
ATOM      4  C   UNL     1      10.765 -29.227  13.936  1.00  0.00     0.000 C 
BRANCH   4   5
ATOM      5  C   UNL     1      10.104 -28.869  12.582  1.00  0.00     0.000 C 
BRANCH   5   6
ATOM      6  C   UNL     1       9.423 -30.077  11.918  1.00  0.00     0.000 C 
BRANCH   6   7
ATOM      7  C   UNL     1       8.369 -30.725  12.836  1.00  0.00     0.000 C 
BRANCH   7   8
ATOM      8  C   UNL     1       7.088 -31.132  12.082  1.00  0.00     0.000 C 
BRANCH   8   9
ATOM      9  C   UNL     1       6.598 -32.570  12.359  1.00  0.00     0.000 C 
BRANCH   9  10
ATOM     10  C   UNL     1       7.559 -33.674  11.875  1.00  0.00     0.000 C 
BRANCH  10  11
ATOM     11  C   UNL     1       7.971 -34.625  13.012  1.00  0.00     0.000 C 
BRANCH  11  12
ATOM     12  C   UNL     1       9.452 -35.039  12.939  1.00  0.00     0.006 C 
BRANCH  12  13
ATOM     13  C   UNL     1      10.327 -34.100  12.096  1.00  0.00     0.053 C 
BRANCH  13  14
ATOM     14  C   UNL     1      11.665 -33.875  12.726  1.00  0.00     0.041 C 
ATOM     15  O   UNL     1      11.740 -33.420  13.897  1.00  0.00    -0.550 OA
ATOM     16  O   UNL     1      12.829 -34.094  11.997  1.00  0.00    -0.550 OA
ENDBRANCH  13  14
ENDBRANCH  12  13
ENDBRANCH  11  12
ENDBRANCH  10  11
ENDBRANCH   9  10
ENDBRANCH   8   9
ENDBRANCH   7   8
ENDBRANCH   6   7
ENDBRANCH   5   6
ENDBRANCH   4   5
ENDBRANCH   3   4
ENDBRANCH   2   3
ENDBRANCH   1   2
BRANCH   1  17
ATOM     17  C   UNL     1       9.011 -28.756  18.171  1.00  0.00     0.000 C 
BRANCH  17  18
ATOM     18  C   UNL     1       8.486 -30.158  18.531  1.00  0.00     0.000 C 
BRANCH  18  19
ATOM     19  C   UNL     1       7.169 -30.171  19.326  1.00  0.00     0.000 C 
BRANCH  19  20
ATOM     20  C   UNL     1       5.887 -29.990  18.490  1.00  0.00     0.000 C 
BRANCH  20  21
ATOM     21  C   UNL     1       6.005 -28.941  17.366  1.00  0.00     0.000 C 
BRANCH  21  22
ATOM     22  C   UNL     1       6.642 -29.514  16.090  1.00  0.00    -0.000 C 
BRANCH  22  23
ATOM     23  C   UNL     1       6.425 -31.038  15.962  1.00  0.00    -0.000 C 
BRANCH  23  24
ATOM     24  C   UNL     1       7.713 -31.814  15.636  1.00  0.00    -0.000 C 
BRANCH  24  25
ATOM     25  C   UNL     1       7.479 -33.330  15.524  1.00  0.00    -0.000 C 
BRANCH  25  26
ATOM     26  C   UNL     1       6.034 -33.730  15.868  1.00  0.00    -0.000 C 
BRANCH  26  27
ATOM     27  C   UNL     1       5.877 -34.176  17.332  1.00  0.00    -0.000 C 
BRANCH  27  28
ATOM     28  C   UNL     1       7.161 -34.829  17.884  1.00  0.00    -0.000 C 
BRANCH  28  29
ATOM     29  C   UNL     1       7.690 -34.163  19.163  1.00  0.00    -0.003 C 
ATOM     30  C   UNL     1       8.459 -35.125  20.070  1.00  0.00     0.004 C 
ENDBRANCH  28  29
ENDBRANCH  27  28
ENDBRANCH  26  27
ENDBRANCH  25  26
ENDBRANCH  24  25
ENDBRANCH  23  24
ENDBRANCH  22  23
ENDBRANCH  21  22
ENDBRANCH  20  21
ENDBRANCH  19  20
ENDBRANCH  18  19
ENDBRANCH  17  18
ENDBRANCH   1  17
TORSDOF 26
ENDMDL
MODEL 5
REMARK VINA RESULT:    -0.460      1.963      4.554
REMARK INTER + INTRA:          -4.846
REMARK INTER:                  -2.466
REMARK INTRA:                  -2.380
REMARK UNBOUND:                -3.688
REMARK SMILES CCCCCCCCCCCCCCCCCCCCCCCCCCCC(=O)[O-]
REMARK SMILES IDX 15 1 16 2 17 3 18 4 19 5 20 6 21 7 22 8 23 9 24 10 25 11
REMARK SMILES IDX 26 12 27 13 28 14 29 15 30 16 14 17 13 18 12 19 11 20 10 21
REMARK SMILES IDX 9 22 8 23 7 24 6 25 5 26 4 27 3 28 2 29 1 30
REMARK H PARENT
REMARK Flexibility Score: inf
ROOT
ATOM      1  C   UNL     1       8.615 -29.894  18.816  1.00  0.00     0.000 C 
ENDROOT
BRANCH   1   2
ATOM      2  C   UNL     1       7.272 -30.635  18.902  1.00  0.00     0.000 C 
BRANCH   2   3
ATOM      3  C   UNL     1       6.906 -31.364  17.596  1.00  0.00     0.000 C 
BRANCH   3   4
ATOM      4  C   UNL     1       7.659 -32.688  17.388  1.00  0.00     0.000 C 
BRANCH   4   5
ATOM      5  C   UNL     1       7.123 -33.838  18.276  1.00  0.00     0.000 C 
BRANCH   5   6
ATOM      6  C   UNL     1       6.477 -34.967  17.455  1.00  0.00     0.000 C 
BRANCH   6   7
ATOM      7  C   UNL     1       6.262 -34.565  15.984  1.00  0.00     0.000 C 
BRANCH   7   8
ATOM      8  C   UNL     1       7.520 -34.770  15.117  1.00  0.00     0.000 C 
BRANCH   8   9
ATOM      9  C   UNL     1       7.290 -34.646  13.595  1.00  0.00     0.000 C 
BRANCH   9  10
ATOM     10  C   UNL     1       5.875 -34.176  13.202  1.00  0.00     0.000 C 
BRANCH  10  11
ATOM     11  C   UNL     1       5.894 -33.210  12.006  1.00  0.00     0.000 C 
BRANCH  11  12
ATOM     12  C   UNL     1       6.958 -32.106  12.142  1.00  0.00     0.006 C 
BRANCH  12  13
ATOM     13  C   UNL     1       6.388 -30.680  12.138  1.00  0.00     0.053 C 
BRANCH  13  14
ATOM     14  C   UNL     1       7.138 -29.781  13.071  1.00  0.00     0.041 C 
ATOM     15  O   UNL     1       6.958 -29.876  14.313  1.00  0.00    -0.550 OA
ATOM     16  O   UNL     1       7.975 -28.791  12.569  1.00  0.00    -0.550 OA
ENDBRANCH  13  14
ENDBRANCH  12  13
ENDBRANCH  11  12
ENDBRANCH  10  11
ENDBRANCH   9  10
ENDBRANCH   8   9
ENDBRANCH   7   8
ENDBRANCH   6   7
ENDBRANCH   5   6
ENDBRANCH   4   5
ENDBRANCH   3   4
ENDBRANCH   2   3
ENDBRANCH   1   2
BRANCH   1  17
ATOM     17  C   UNL     1       8.390 -28.382  18.678  1.00  0.00     0.000 C 
BRANCH  17  18
ATOM     18  C   UNL     1       9.687 -27.607  18.385  1.00  0.00     0.000 C 
BRANCH  18  19
ATOM     19  C   UNL     1      10.021 -27.445  16.892  1.00  0.00     0.000 C 
BRANCH  19  20
ATOM     20  C   UNL     1      10.815 -28.606  16.260  1.00  0.00     0.000 C 
BRANCH  20  21
ATOM     21  C   UNL     1      10.282 -29.068  14.889  1.00  0.00     0.000 C 
BRANCH  21  22
ATOM     22  C   UNL     1      11.320 -28.906  13.767  1.00  0.00    -0.000 C 
BRANCH  22  23
ATOM     23  C   UNL     1      11.655 -30.249  13.083  1.00  0.00    -0.000 C 
BRANCH  23  24
ATOM     24  C   UNL     1      10.550 -30.745  12.135  1.00  0.00    -0.000 C 
BRANCH  24  25
ATOM     25  C   UNL     1       9.897 -32.051  12.617  1.00  0.00    -0.000 C 
BRANCH  25  26
ATOM     26  C   UNL     1      10.323 -32.430  14.046  1.00  0.00    -0.000 C 
BRANCH  26  27
ATOM     27  C   UNL     1      10.900 -33.852  14.134  1.00  0.00    -0.000 C 
BRANCH  27  28
ATOM     28  C   UNL     1      10.441 -34.742  12.959  1.00  0.00    -0.000 C 
BRANCH  28  29
ATOM     29  C   UNL     1      11.538 -34.996  11.913  1.00  0.00    -0.003 C 
ATOM     30  C   UNL     1      12.951 -34.828  12.471  1.00  0.00     0.004 C 
ENDBRANCH  28  29
ENDBRANCH  27  28
ENDBRANCH  26  27
ENDBRANCH  25  26
ENDBRANCH  24  25
ENDBRANCH  23  24
ENDBRANCH  22  23
ENDBRANCH  21  22
ENDBRANCH  20  21
ENDBRANCH  19  20
ENDBRANCH  18  19
ENDBRANCH  17  18
ENDBRANCH   1  17
TORSDOF 26
ENDMDL
MODEL 6
REMARK VINA RESULT:    -0.368      2.234      6.740
REMARK INTER + INTRA:          -4.614
REMARK INTER:                  -2.891
REMARK INTRA:                  -1.723
REMARK UNBOUND:                -3.688
REMARK SMILES CCCCCCCCCCCCCCCCCCCCCCCCCCCC(=O)[O-]
REMARK SMILES IDX 15 1 16 2 17 3 18 4 19 5 20 6 21 7 22 8 23 9 24 10 25 11
REMARK SMILES IDX 26 12 27 13 28 14 29 15 30 16 14 17 13 18 12 19 11 20 10 21
REMARK SMILES IDX 9 22 8 23 7 24 6 25 5 26 4 27 3 28 2 29 1 30
REMARK H PARENT
REMARK Flexibility Score: inf
ROOT
ATOM      1  C   UNL     1      10.104 -31.211  14.139  1.00  0.00     0.000 C 
ENDROOT
BRANCH   1   2
ATOM      2  C   UNL     1      11.564 -31.647  13.936  1.00  0.00     0.000 C 
BRANCH   2   3
ATOM      3  C   UNL     1      11.885 -31.996  12.471  1.00  0.00     0.000 C 
BRANCH   3   4
ATOM      4  C   UNL     1      12.720 -33.276  12.302  1.00  0.00     0.000 C 
BRANCH   4   5
ATOM      5  C   UNL     1      11.855 -34.539  12.069  1.00  0.00     0.000 C 
BRANCH   5   6
ATOM      6  C   UNL     1      10.362 -34.211  11.901  1.00  0.00     0.000 C 
BRANCH   6   7
ATOM      7  C   UNL     1       9.467 -35.117  12.768  1.00  0.00     0.000 C 
BRANCH   7   8
ATOM      8  C   UNL     1       9.056 -34.457  14.098  1.00  0.00     0.000 C 
BRANCH   8   9
ATOM      9  C   UNL     1       7.913 -33.423  13.986  1.00  0.00     0.000 C 
BRANCH   9  10
ATOM     10  C   UNL     1       6.533 -34.033  13.676  1.00  0.00     0.000 C 
BRANCH  10  11
ATOM     11  C   UNL     1       5.876 -34.651  14.922  1.00  0.00     0.000 C 
BRANCH  11  12
ATOM     12  C   UNL     1       6.893 -35.002  16.023  1.00  0.00     0.006 C 
BRANCH  12  13
ATOM     13  C   UNL     1       6.443 -34.615  17.440  1.00  0.00     0.053 C 
BRANCH  13  14
ATOM     14  C   UNL     1       7.543 -33.948  18.206  1.00  0.00     0.041 C 
ATOM     15  O   UNL     1       8.192 -33.006  17.681  1.00  0.00    -0.550 OA
ATOM     16  O   UNL     1       7.902 -34.413  19.466  1.00  0.00    -0.550 OA
ENDBRANCH  13  14
ENDBRANCH  12  13
ENDBRANCH  11  12
ENDBRANCH  10  11
ENDBRANCH   9  10
ENDBRANCH   8   9
ENDBRANCH   7   8
ENDBRANCH   6   7
ENDBRANCH   5   6
ENDBRANCH   4   5
ENDBRANCH   3   4
ENDBRANCH   2   3
ENDBRANCH   1   2
BRANCH   1  17
ATOM     17  C   UNL     1       9.553 -30.559  12.864  1.00  0.00     0.000 C 
BRANCH  17  18
ATOM     18  C   UNL     1       8.734 -29.286  13.147  1.00  0.00     0.000 C 
BRANCH  18  19
ATOM     19  C   UNL     1       7.370 -29.225  12.438  1.00  0.00     0.000 C 
BRANCH  19  20
ATOM     20  C   UNL     1       6.627 -30.569  12.310  1.00  0.00     0.000 C 
BRANCH  20  21
ATOM     21  C   UNL     1       5.946 -31.044  13.610  1.00  0.00     0.000 C 
BRANCH  21  22
ATOM     22  C   UNL     1       6.352 -30.202  14.830  1.00  0.00    -0.000 C 
BRANCH  22  23
ATOM     23  C   UNL     1       6.577 -31.069  16.088  1.00  0.00    -0.000 C 
BRANCH  23  24
ATOM     24  C   UNL     1       5.898 -30.506  17.349  1.00  0.00    -0.000 C 
BRANCH  24  25
ATOM     25  C   UNL     1       6.010 -28.975  17.448  1.00  0.00    -0.000 C 
BRANCH  25  26
ATOM     26  C   UNL     1       6.793 -28.520  18.691  1.00  0.00    -0.000 C 
BRANCH  26  27
ATOM     27  C   UNL     1       8.067 -29.348  18.923  1.00  0.00    -0.000 C 
BRANCH  27  28
ATOM     28  C   UNL     1       8.964 -29.403  17.668  1.00  0.00    -0.000 C 
BRANCH  28  29
ATOM     29  C   UNL     1      10.183 -28.471  17.740  1.00  0.00    -0.003 C 
ATOM     30  C   UNL     1      10.523 -27.819  16.400  1.00  0.00     0.004 C 
ENDBRANCH  28  29
ENDBRANCH  27  28
ENDBRANCH  26  27
ENDBRANCH  25  26
ENDBRANCH  24  25
ENDBRANCH  23  24
ENDBRANCH  22  23
ENDBRANCH  21  22
ENDBRANCH  20  21
ENDBRANCH  19  20
ENDBRANCH  18  19
ENDBRANCH  17  18
ENDBRANCH   1  17
TORSDOF 26
ENDMDL
MODEL 7
REMARK VINA RESULT:     0.083      1.689      3.347
REMARK INTER + INTRA:          -3.478
REMARK INTER:                  -2.299
REMARK INTRA:                  -1.179
REMARK UNBOUND:                -3.688
REMARK SMILES CCCCCCCCCCCCCCCCCCCCCCCCCCCC(=O)[O-]
REMARK SMILES IDX 15 1 16 2 17 3 18 4 19 5 20 6 21 7 22 8 23 9 24 10 25 11
REMARK SMILES IDX 26 12 27 13 28 14 29 15 30 16 14 17 13 18 12 19 11 20 10 21
REMARK SMILES IDX 9 22 8 23 7 24 6 25 5 26 4 27 3 28 2 29 1 30
REMARK H PARENT
REMARK Flexibility Score: inf
ROOT
ATOM      1  C   UNL     1       8.092 -28.674  18.430  1.00  0.00     0.000 C 
ENDROOT
BRANCH   1   2
ATOM      2  C   UNL     1       9.363 -27.962  18.917  1.00  0.00     0.000 C 
BRANCH   2   3
ATOM      3  C   UNL     1      10.583 -28.233  18.017  1.00  0.00     0.000 C 
BRANCH   3   4
ATOM      4  C   UNL     1      10.348 -27.908  16.532  1.00  0.00     0.000 C 
BRANCH   4   5
ATOM      5  C   UNL     1      11.294 -28.685  15.584  1.00  0.00     0.000 C 
BRANCH   5   6
ATOM      6  C   UNL     1      11.541 -27.945  14.258  1.00  0.00     0.000 C 
BRANCH   6   7
ATOM      7  C   UNL     1      11.075 -28.766  13.041  1.00  0.00     0.000 C 
BRANCH   7   8
ATOM      8  C   UNL     1      11.441 -30.258  13.149  1.00  0.00     0.000 C 
BRANCH   8   9
ATOM      9  C   UNL     1      10.253 -31.234  13.000  1.00  0.00     0.000 C 
BRANCH   9  10
ATOM     10  C   UNL     1       9.225 -30.825  11.927  1.00  0.00     0.000 C 
BRANCH  10  11
ATOM     11  C   UNL     1       8.852 -29.335  12.016  1.00  0.00     0.000 C 
BRANCH  11  12
ATOM     12  C   UNL     1       7.349 -29.107  12.256  1.00  0.00     0.006 C 
BRANCH  12  13
ATOM     13  C   UNL     1       6.714 -30.091  13.250  1.00  0.00     0.053 C 
BRANCH  13  14
ATOM     14  C   UNL     1       7.074 -29.759  14.664  1.00  0.00     0.041 C 
ATOM     15  O   UNL     1       8.277 -29.799  15.033  1.00  0.00    -0.550 OA
ATOM     16  O   UNL     1       6.078 -29.480  15.594  1.00  0.00    -0.550 OA
ENDBRANCH  13  14
ENDBRANCH  12  13
ENDBRANCH  11  12
ENDBRANCH  10  11
ENDBRANCH   9  10
ENDBRANCH   8   9
ENDBRANCH   7   8
ENDBRANCH   6   7
ENDBRANCH   5   6
ENDBRANCH   4   5
ENDBRANCH   3   4
ENDBRANCH   2   3
ENDBRANCH   1   2
BRANCH   1  17
ATOM     17  C   UNL     1       7.938 -30.036  19.122  1.00  0.00     0.000 C 
BRANCH  17  18
ATOM     18  C   UNL     1       8.255 -31.220  18.190  1.00  0.00     0.000 C 
BRANCH  18  19
ATOM     19  C   UNL     1       7.338 -32.443  18.364  1.00  0.00     0.000 C 
BRANCH  19  20
ATOM     20  C   UNL     1       7.655 -33.645  17.454  1.00  0.00     0.000 C 
BRANCH  20  21
ATOM     21  C   UNL     1       6.491 -34.071  16.535  1.00  0.00     0.000 C 
BRANCH  21  22
ATOM     22  C   UNL     1       5.880 -32.886  15.771  1.00  0.00    -0.000 C 
BRANCH  22  23
ATOM     23  C   UNL     1       6.033 -33.035  14.242  1.00  0.00    -0.000 C 
BRANCH  23  24
ATOM     24  C   UNL     1       6.347 -34.474  13.797  1.00  0.00    -0.000 C 
BRANCH  24  25
ATOM     25  C   UNL     1       6.540 -34.595  12.275  1.00  0.00    -0.000 C 
BRANCH  25  26
ATOM     26  C   UNL     1       7.934 -35.123  11.898  1.00  0.00    -0.000 C 
BRANCH  26  27
ATOM     27  C   UNL     1       9.070 -34.247  12.452  1.00  0.00    -0.000 C 
BRANCH  27  28
ATOM     28  C   UNL     1      10.046 -35.049  13.338  1.00  0.00    -0.000 C 
BRANCH  28  29
ATOM     29  C   UNL     1      11.448 -34.426  13.429  1.00  0.00    -0.003 C 
ATOM     30  C   UNL     1      12.128 -34.270  12.069  1.00  0.00     0.004 C 
ENDBRANCH  28  29
ENDBRANCH  27  28
ENDBRANCH  26  27
ENDBRANCH  25  26
ENDBRANCH  24  25
ENDBRANCH  23  24
ENDBRANCH  22  23
ENDBRANCH  21  22
ENDBRANCH  20  21
ENDBRANCH  19  20
ENDBRANCH  18  19
ENDBRANCH  17  18
ENDBRANCH   1  17
TORSDOF 26
ENDMDL
