MODEL 1
REMARK VINA RESULT:     0.258      0.000      0.000
REMARK INTER + INTRA:           0.266
REMARK INTER:                   0.266
REMARK INTRA:                   0.000
REMARK UNBOUND:                 0.000
REMARK SMILES Nc1ncnc2nc[nH]c12
REMARK SMILES IDX 8 1 7 2 6 3 5 4 4 5 3 6 2 7 10 8 9 9 1 11
REMARK H PARENT 9 10 1 12 1 13
REMARK Flexibility Score: inf
ROOT
ATOM      1  C   UNL     1      15.189   6.075  22.752  1.00  0.00     0.199 A 
ATOM      2  N   UNL     1      13.997   6.035  23.408  1.00  0.00    -0.217 NA
ATOM      3  C   UNL     1      14.149   6.997  24.332  1.00  0.00     0.182 A 
ATOM      4  N   UNL     1      13.240   7.374  25.263  1.00  0.00    -0.215 NA
ATOM      5  C   UNL     1      13.577   8.381  26.125  1.00  0.00     0.226 A 
ATOM      6  N   UNL     1      14.806   8.986  26.042  1.00  0.00    -0.217 NA
ATOM      7  C   UNL     1      15.726   8.606  25.105  1.00  0.00     0.152 A 
ATOM      8  C   UNL     1      15.366   7.581  24.235  1.00  0.00     0.127 A 
ATOM      9  N   UNL     1      16.047   7.009  23.233  1.00  0.00    -0.340 N 
ATOM     10  H   UNL     1      17.011   7.223  22.894  1.00  0.00     0.168 HD
ENDROOT
BRANCH   7  11
ATOM     11  N   UNL     1      16.998   9.250  25.037  1.00  0.00    -0.382 N 
ATOM     12  H   UNL     1      17.059  10.291  25.084  1.00  0.00     0.158 HD
ATOM     13  H   UNL     1      17.881   8.702  24.942  1.00  0.00     0.158 HD
ENDBRANCH   7  11
TORSDOF 1
ENDMDL
MODEL 2
REMARK VINA RESULT:     0.573      1.123      2.954
REMARK INTER + INTRA:           0.590
REMARK INTER:                   0.590
REMARK INTRA:                   0.000
REMARK UNBOUND:                 0.000
REMARK SMILES Nc1ncnc2nc[nH]c12
REMARK SMILES IDX 8 1 7 2 6 3 5 4 4 5 3 6 2 7 10 8 9 9 1 11
REMARK H PARENT 9 10 1 12 1 13
REMARK Flexibility Score: inf
ROOT
ATOM      1  C   UNL     1      16.565   9.436  25.270  1.00  0.00     0.199 A 
ATOM      2  N   UNL     1      15.506   9.471  26.124  1.00  0.00    -0.217 NA
ATOM      3  C   UNL     1      14.714   8.503  25.634  1.00  0.00     0.182 A 
ATOM      4  N   UNL     1      13.510   8.120  26.125  1.00  0.00    -0.215 NA
ATOM      5  C   UNL     1      12.846   7.108  25.487  1.00  0.00     0.226 A 
ATOM      6  N   UNL     1      13.392   6.505  24.381  1.00  0.00    -0.217 NA
ATOM      7  C   UNL     1      14.605   6.892  23.885  1.00  0.00     0.152 A 
ATOM      8  C   UNL     1      15.268   7.922  24.546  1.00  0.00     0.127 A 
ATOM      9  N   UNL     1      16.449   8.500  24.294  1.00  0.00    -0.340 N 
ATOM     10  H   UNL     1      17.129   8.289  23.531  1.00  0.00     0.168 HD
ENDROOT
BRANCH   7  11
ATOM     11  N   UNL     1      15.153   6.250  22.734  1.00  0.00    -0.382 N 
ATOM     12  H   UNL     1      16.106   6.508  22.396  1.00  0.00     0.158 HD
ATOM     13  H   UNL     1      14.621   5.518  22.213  1.00  0.00     0.158 HD
ENDBRANCH   7  11
TORSDOF 1
ENDMDL
MODEL 3
REMARK VINA RESULT:     1.581      0.890      3.536
REMARK INTER + INTRA:           1.627
REMARK INTER:                   1.627
REMARK INTRA:                   0.000
REMARK UNBOUND:                 0.000
REMARK SMILES Nc1ncnc2nc[nH]c12
REMARK SMILES IDX 8 1 7 2 6 3 5 4 4 5 3 6 2 7 10 8 9 9 1 11
REMARK H PARENT 9 10 1 12 1 13
REMARK Flexibility Score: inf
ROOT
ATOM      1  C   UNL     1      16.151   9.645  25.706  1.00  0.00     0.199 A 
ATOM      2  N   UNL     1      16.662   8.969  24.641  1.00  0.00    -0.217 NA
ATOM      3  C   UNL     1      15.713   8.047  24.409  1.00  0.00     0.182 A 
ATOM      4  N   UNL     1      15.727   7.101  23.439  1.00  0.00    -0.215 NA
ATOM      5  C   UNL     1      14.664   6.244  23.357  1.00  0.00     0.226 A 
ATOM      6  N   UNL     1      13.618   6.347  24.239  1.00  0.00    -0.217 NA
ATOM      7  C   UNL     1      13.603   7.300  25.219  1.00  0.00     0.152 A 
ATOM      8  C   UNL     1      14.692   8.165  25.287  1.00  0.00     0.127 A 
ATOM      9  N   UNL     1      14.949   9.177  26.125  1.00  0.00    -0.340 N 
ATOM     10  H   UNL     1      14.368   9.532  26.916  1.00  0.00     0.168 HD
ENDROOT
BRANCH   7  11
ATOM     11  N   UNL     1      12.503   7.389  26.125  1.00  0.00    -0.382 N 
ATOM     12  H   UNL     1      11.973   8.283  26.217  1.00  0.00     0.158 HD
ATOM     13  H   UNL     1      12.209   6.573  26.706  1.00  0.00     0.158 HD
ENDBRANCH   7  11
TORSDOF 1
ENDMDL
MODEL 4
REMARK VINA RESULT:     2.553      0.663      2.769
REMARK INTER + INTRA:           2.627
REMARK INTER:                   2.627
REMARK INTRA:                   0.000
REMARK UNBOUND:                 0.000
REMARK SMILES Nc1ncnc2nc[nH]c12
REMARK SMILES IDX 8 1 7 2 6 3 5 4 4 5 3 6 2 7 10 8 9 9 1 11
REMARK H PARENT 9 10 1 12 1 13
REMARK Flexibility Score: inf
ROOT
ATOM      1  C   UNL     1      12.915   8.037  26.125  1.00  0.00     0.199 A 
ATOM      2  N   UNL     1      12.784   7.033  25.216  1.00  0.00    -0.217 NA
ATOM      3  C   UNL     1      13.970   7.062  24.586  1.00  0.00     0.182 A 
ATOM      4  N   UNL     1      14.367   6.254  23.574  1.00  0.00    -0.215 NA
ATOM      5  C   UNL     1      15.620   6.436  23.056  1.00  0.00     0.226 A 
ATOM      6  N   UNL     1      16.444   7.414  23.555  1.00  0.00    -0.217 NA
ATOM      7  C   UNL     1      16.045   8.231  24.575  1.00  0.00     0.152 A 
ATOM      8  C   UNL     1      14.767   8.032  25.091  1.00  0.00     0.127 A 
ATOM      9  N   UNL     1      14.116   8.667  26.074  1.00  0.00    -0.340 N 
ATOM     10  H   UNL     1      14.444   9.460  26.667  1.00  0.00     0.168 HD
ENDROOT
BRANCH   7  11
ATOM     11  N   UNL     1      16.919   9.241  25.078  1.00  0.00    -0.382 N 
ATOM     12  H   UNL     1      16.550  10.195  25.285  1.00  0.00     0.158 HD
ATOM     13  H   UNL     1      17.931   9.050  25.248  1.00  0.00     0.158 HD
ENDBRANCH   7  11
TORSDOF 1
ENDMDL
MODEL 5
REMARK VINA RESULT:     3.113      1.020      2.821
REMARK INTER + INTRA:           3.204
REMARK INTER:                   3.204
REMARK INTRA:                   0.000
REMARK UNBOUND:                 0.000
REMARK SMILES Nc1ncnc2nc[nH]c12
REMARK SMILES IDX 8 1 7 2 6 3 5 4 4 5 3 6 2 7 10 8 9 9 1 11
REMARK H PARENT 9 10 1 12 1 13
REMARK Flexibility Score: inf
ROOT
ATOM      1  C   UNL     1      12.446   7.052  25.400  1.00  0.00     0.199 A 
ATOM      2  N   UNL     1      12.902   8.110  26.125  1.00  0.00    -0.217 NA
ATOM      3  C   UNL     1      14.139   8.282  25.629  1.00  0.00     0.182 A 
ATOM      4  N   UNL     1      15.038   9.221  26.011  1.00  0.00    -0.215 NA
ATOM      5  C   UNL     1      16.254   9.241  25.386  1.00  0.00     0.226 A 
ATOM      6  N   UNL     1      16.547   8.330  24.401  1.00  0.00    -0.217 NA
ATOM      7  C   UNL     1      15.641   7.382  24.016  1.00  0.00     0.152 A 
ATOM      8  C   UNL     1      14.407   7.376  24.661  1.00  0.00     0.127 A 
ATOM      9  N   UNL     1      13.343   6.581  24.498  1.00  0.00    -0.340 N 
ATOM     10  H   UNL     1      13.220   5.783  23.835  1.00  0.00     0.168 HD
ENDROOT
BRANCH   7  11
ATOM     11  N   UNL     1      15.967   6.445  22.989  1.00  0.00    -0.382 N 
ATOM     12  H   UNL     1      15.870   6.715  21.986  1.00  0.00     0.158 HD
ATOM     13  H   UNL     1      16.305   5.484  23.217  1.00  0.00     0.158 HD
ENDBRANCH   7  11
TORSDOF 1
ENDMDL
