MODEL 1
REMARK VINA RESULT:    -0.426      0.000      0.000
REMARK INTER + INTRA:           0.564
REMARK INTER:                  -0.576
REMARK INTRA:                   1.140
REMARK UNBOUND:                 1.140
REMARK SMILES CC(=O)CCC=C(C)CCC=C(C)C
REMARK SMILES IDX 7 1 6 2 8 3 9 4 10 5 11 6 13 7 12 8 14 9 5 10 4 11 2 12 3 13
REMARK SMILES IDX 1 14
REMARK H PARENT
REMARK Flexibility Score: inf
ROOT
ATOM      1  C   UNL     1      11.061  16.803   1.382  1.00  0.00    -0.077 C 
ATOM      2  C   UNL     1       9.886  16.866   2.050  1.00  0.00    -0.028 C 
ATOM      3  C   UNL     1      11.195  17.282  -0.044  1.00  0.00     0.039 C 
ENDROOT
BRANCH   1   4
ATOM      4  C   UNL     1      12.271  16.218   2.078  1.00  0.00     0.034 C 
BRANCH   4   5
ATOM      5  C   UNL     1      12.294  14.692   1.936  1.00  0.00     0.032 C 
BRANCH   5   6
ATOM      6  C   UNL     1      11.218  14.227   0.988  1.00  0.00    -0.028 C 
ATOM      7  C   UNL     1      10.253  13.019  -0.922  1.00  0.00     0.039 C 
ATOM      8  C   UNL     1      11.435  13.438  -0.088  1.00  0.00    -0.080 C 
ATOM      9  C   UNL     1      12.822  12.983  -0.479  1.00  0.00     0.039 C 
ENDBRANCH   5   6
ENDBRANCH   4   5
ENDBRANCH   1   4
BRANCH   2  10
ATOM     10  C   UNL     1       8.616  17.458   1.490  1.00  0.00     0.035 C 
BRANCH  10  11
ATOM     11  C   UNL     1       7.385  16.805   2.125  1.00  0.00     0.079 C 
BRANCH  11  12
ATOM     12  C   UNL     1       7.473  15.305   2.036  1.00  0.00     0.130 C 
ATOM     13  O   UNL     1       8.565  14.761   2.097  1.00  0.00    -0.300 OA
ATOM     14  C   UNL     1       6.244  14.458   1.881  1.00  0.00     0.087 C 
ENDBRANCH  11  12
ENDBRANCH  10  11
ENDBRANCH   2  10
TORSDOF 6
ENDMDL
MODEL 2
REMARK VINA RESULT:     0.494      1.770      2.606
REMARK INTER + INTRA:           1.807
REMARK INTER:                   2.559
REMARK INTRA:                  -0.752
REMARK UNBOUND:                 1.140
REMARK SMILES CC(=O)CCC=C(C)CCC=C(C)C
REMARK SMILES IDX 7 1 6 2 8 3 9 4 10 5 11 6 13 7 12 8 14 9 5 10 4 11 2 12 3 13
REMARK SMILES IDX 1 14
REMARK H PARENT
REMARK Flexibility Score: inf
ROOT
ATOM      1  C   UNL     1      11.745  15.387   2.003  1.00  0.00    -0.077 C 
ATOM      2  C   UNL     1      10.405  15.530   2.125  1.00  0.00    -0.028 C 
ATOM      3  C   UNL     1      12.658  16.569   1.777  1.00  0.00     0.039 C 
ENDROOT
BRANCH   1   4
ATOM      4  C   UNL     1      12.345  13.999   2.075  1.00  0.00     0.034 C 
BRANCH   4   5
ATOM      5  C   UNL     1      11.612  13.040   1.130  1.00  0.00     0.032 C 
BRANCH   5   6
ATOM      6  C   UNL     1      11.855  13.420  -0.309  1.00  0.00    -0.028 C 
ATOM      7  C   UNL     1      11.309  14.287  -2.543  1.00  0.00     0.039 C 
ATOM      8  C   UNL     1      10.909  13.914  -1.139  1.00  0.00    -0.080 C 
ATOM      9  C   UNL     1       9.472  14.082  -0.704  1.00  0.00     0.039 C 
ENDBRANCH   5   6
ENDBRANCH   4   5
ENDBRANCH   1   4
BRANCH   2  10
ATOM     10  C   UNL     1       9.684  16.855   2.109  1.00  0.00     0.035 C 
BRANCH  10  11
ATOM     11  C   UNL     1       8.246  16.686   1.610  1.00  0.00     0.079 C 
BRANCH  11  12
ATOM     12  C   UNL     1       7.612  18.026   1.348  1.00  0.00     0.130 C 
ATOM     13  O   UNL     1       6.738  18.435   2.097  1.00  0.00    -0.300 OA
ATOM     14  C   UNL     1       8.036  18.877   0.188  1.00  0.00     0.087 C 
ENDBRANCH  11  12
ENDBRANCH  10  11
ENDBRANCH   2  10
TORSDOF 6
ENDMDL
MODEL 3
REMARK VINA RESULT:     2.113      1.460      3.323
REMARK INTER + INTRA:           3.995
REMARK INTER:                   3.296
REMARK INTRA:                   0.699
REMARK UNBOUND:                 1.140
REMARK SMILES CC(=O)CCC=C(C)CCC=C(C)C
REMARK SMILES IDX 7 1 6 2 8 3 9 4 10 5 11 6 13 7 12 8 14 9 5 10 4 11 2 12 3 13
REMARK SMILES IDX 1 14
REMARK H PARENT
REMARK Flexibility Score: inf
ROOT
ATOM      1  C   UNL     1      10.902  13.705  -0.086  1.00  0.00    -0.077 C 
ATOM      2  C   UNL     1       9.733  13.814   0.585  1.00  0.00    -0.028 C 
ATOM      3  C   UNL     1      11.039  14.133  -1.528  1.00  0.00     0.039 C 
ENDROOT
BRANCH   1   4
ATOM      4  C   UNL     1      12.104  13.118   0.623  1.00  0.00     0.034 C 
BRANCH   4   5
ATOM      5  C   UNL     1      12.309  13.784   1.988  1.00  0.00     0.032 C 
BRANCH   5   6
ATOM      6  C   UNL     1      11.556  15.088   2.065  1.00  0.00    -0.028 C 
ATOM      7  C   UNL     1      11.254  17.526   2.125  1.00  0.00     0.039 C 
ATOM      8  C   UNL     1      12.139  16.308   2.087  1.00  0.00    -0.080 C 
ATOM      9  C   UNL     1      13.641  16.476   2.093  1.00  0.00     0.039 C 
ENDBRANCH   5   6
ENDBRANCH   4   5
ENDBRANCH   1   4
BRANCH   2  10
ATOM     10  C   UNL     1       8.472  14.413   0.011  1.00  0.00     0.035 C 
BRANCH  10  11
ATOM     11  C   UNL     1       7.764  15.288   1.050  1.00  0.00     0.079 C 
BRANCH  11  12
ATOM     12  C   UNL     1       8.349  16.675   1.065  1.00  0.00     0.130 C 
ATOM     13  O   UNL     1       9.142  17.003   0.195  1.00  0.00    -0.300 OA
ATOM     14  C   UNL     1       7.973  17.670   2.122  1.00  0.00     0.087 C 
ENDBRANCH  11  12
ENDBRANCH  10  11
ENDBRANCH   2  10
TORSDOF 6
ENDMDL
MODEL 4
REMARK VINA RESULT:     2.554      1.840      5.140
REMARK INTER + INTRA:           4.589
REMARK INTER:                   4.517
REMARK INTRA:                   0.073
REMARK UNBOUND:                 1.140
REMARK SMILES CC(=O)CCC=C(C)CCC=C(C)C
REMARK SMILES IDX 7 1 6 2 8 3 9 4 10 5 11 6 13 7 12 8 14 9 5 10 4 11 2 12 3 13
REMARK SMILES IDX 1 14
REMARK H PARENT
REMARK Flexibility Score: inf
ROOT
ATOM      1  C   UNL     1      10.686  14.352   1.827  1.00  0.00    -0.077 C 
ATOM      2  C   UNL     1      11.257  13.222   1.352  1.00  0.00    -0.028 C 
ATOM      3  C   UNL     1      11.491  15.603   2.089  1.00  0.00     0.039 C 
ENDROOT
BRANCH   1   4
ATOM      4  C   UNL     1       9.202  14.356   2.124  1.00  0.00     0.034 C 
BRANCH   4   5
ATOM      5  C   UNL     1       8.417  14.976   0.964  1.00  0.00     0.032 C 
BRANCH   5   6
ATOM      6  C   UNL     1       7.577  16.133   1.445  1.00  0.00    -0.028 C 
ATOM      7  C   UNL     1       7.046  18.467   2.001  1.00  0.00     0.039 C 
ATOM      8  C   UNL     1       8.014  17.408   1.541  1.00  0.00    -0.080 C 
ATOM      9  C   UNL     1       9.440  17.791   1.218  1.00  0.00     0.039 C 
ENDBRANCH   5   6
ENDBRANCH   4   5
ENDBRANCH   1   4
BRANCH   2  10
ATOM     10  C   UNL     1      12.714  13.092   0.980  1.00  0.00     0.035 C 
BRANCH  10  11
ATOM     11  C   UNL     1      12.876  12.914  -0.532  1.00  0.00     0.079 C 
BRANCH  11  12
ATOM     12  C   UNL     1      11.785  13.640  -1.273  1.00  0.00     0.130 C 
ATOM     13  O   UNL     1      11.988  14.773  -1.683  1.00  0.00    -0.300 OA
ATOM     14  C   UNL     1      10.453  12.999  -1.529  1.00  0.00     0.087 C 
ENDBRANCH  11  12
ENDBRANCH  10  11
ENDBRANCH   2  10
TORSDOF 6
ENDMDL
MODEL 5
REMARK VINA RESULT:     2.554      2.372      3.883
REMARK INTER + INTRA:           4.590
REMARK INTER:                   5.002
REMARK INTRA:                  -0.412
REMARK UNBOUND:                 1.140
REMARK SMILES CC(=O)CCC=C(C)CCC=C(C)C
REMARK SMILES IDX 7 1 6 2 8 3 9 4 10 5 11 6 13 7 12 8 14 9 5 10 4 11 2 12 3 13
REMARK SMILES IDX 1 14
REMARK H PARENT
REMARK Flexibility Score: inf
ROOT
ATOM      1  C   UNL     1      11.589  13.566   0.565  1.00  0.00    -0.077 C 
ATOM      2  C   UNL     1      10.420  14.216   0.768  1.00  0.00    -0.028 C 
ATOM      3  C   UNL     1      12.468  13.129   1.713  1.00  0.00     0.039 C 
ENDROOT
BRANCH   1   4
ATOM      4  C   UNL     1      12.038  13.287  -0.852  1.00  0.00     0.034 C 
BRANCH   4   5
ATOM      5  C   UNL     1      10.848  13.317  -1.817  1.00  0.00     0.032 C 
BRANCH   5   6
ATOM      6  C   UNL     1      11.004  14.429  -2.824  1.00  0.00    -0.028 C 
ATOM      7  C   UNL     1      11.088  15.474  -5.046  1.00  0.00     0.039 C 
ATOM      8  C   UNL     1      10.957  14.260  -4.163  1.00  0.00    -0.080 C 
ATOM      9  C   UNL     1      10.794  12.895  -4.792  1.00  0.00     0.039 C 
ENDBRANCH   5   6
ENDBRANCH   4   5
ENDBRANCH   1   4
BRANCH   2  10
ATOM     10  C   UNL     1       9.838  14.525   2.125  1.00  0.00     0.035 C 
BRANCH  10  11
ATOM     11  C   UNL     1       8.640  15.470   2.001  1.00  0.00     0.079 C 
BRANCH  11  12
ATOM     12  C   UNL     1       9.097  16.902   1.929  1.00  0.00     0.130 C 
ATOM     13  O   UNL     1       8.275  17.788   1.747  1.00  0.00    -0.300 OA
ATOM     14  C   UNL     1      10.544  17.270   2.082  1.00  0.00     0.087 C 
ENDBRANCH  11  12
ENDBRANCH  10  11
ENDBRANCH   2  10
TORSDOF 6
ENDMDL
