MODEL 1
REMARK VINA RESULT:    -4.728      0.000      0.000
REMARK INTER + INTRA:          -5.097
REMARK INTER:                  -5.005
REMARK INTRA:                  -0.093
REMARK UNBOUND:                -0.093
REMARK SMILES C=C(C)[C@@H]1CC=C(C)C(=O)C1
REMARK SMILES IDX 8 1 7 2 6 3 5 4 4 5 11 6 9 7 10 8 2 9 1 10 3 11
REMARK H PARENT
REMARK Flexibility Score: inf
ROOT
ATOM      1  C   UNL     1       4.700  12.828  24.392  1.00  0.00     0.048 C 
ATOM      2  C   UNL     1       3.943  13.899  23.655  1.00  0.00    -0.012 C 
ATOM      3  C   UNL     1       3.311  14.865  24.344  1.00  0.00    -0.019 C 
ATOM      4  C   UNL     1       2.554  15.971  23.656  1.00  0.00     0.036 C 
ATOM      5  C   UNL     1       1.927  15.478  22.340  1.00  0.00     0.025 C 
ATOM      6  C   UNL     1       3.005  14.859  21.433  1.00  0.00     0.089 C 
ATOM      7  C   UNL     1       3.792  13.817  22.181  1.00  0.00     0.158 C 
ATOM      8  O   UNL     1       4.355  12.892  21.536  1.00  0.00    -0.295 OA
ENDROOT
BRANCH   5   9
ATOM      9  C   UNL     1       1.175  16.595  21.628  1.00  0.00    -0.077 C 
ATOM     10  C   UNL     1       0.158  17.220  22.242  1.00  0.00     0.008 C 
ATOM     11  C   UNL     1       1.547  17.025  20.230  1.00  0.00     0.039 C 
ENDBRANCH   5   9
TORSDOF 1
ENDMDL
MODEL 2
REMARK VINA RESULT:    -4.496      6.432      8.051
REMARK INTER + INTRA:          -4.851
REMARK INTER:                  -4.756
REMARK INTRA:                  -0.095
REMARK UNBOUND:                -0.093
REMARK SMILES C=C(C)[C@@H]1CC=C(C)C(=O)C1
REMARK SMILES IDX 8 1 7 2 6 3 5 4 4 5 11 6 9 7 10 8 2 9 1 10 3 11
REMARK H PARENT
REMARK Flexibility Score: inf
ROOT
ATOM      1  C   UNL     1       3.099  12.123  14.489  1.00  0.00     0.048 C 
ATOM      2  C   UNL     1       2.700  11.281  15.670  1.00  0.00    -0.012 C 
ATOM      3  C   UNL     1       2.077  10.106  15.474  1.00  0.00    -0.019 C 
ATOM      4  C   UNL     1       1.672   9.217  16.620  1.00  0.00     0.036 C 
ATOM      5  C   UNL     1       1.298  10.047  17.861  1.00  0.00     0.025 C 
ATOM      6  C   UNL     1       2.452  10.993  18.238  1.00  0.00     0.089 C 
ATOM      7  C   UNL     1       2.882  11.805  17.047  1.00  0.00     0.158 C 
ATOM      8  O   UNL     1       3.434  12.922  17.232  1.00  0.00    -0.295 OA
ENDROOT
BRANCH   5   9
ATOM      9  C   UNL     1       0.905   9.155  19.031  1.00  0.00    -0.077 C 
ATOM     10  C   UNL     1       0.139   8.072  18.824  1.00  0.00     0.008 C 
ATOM     11  C   UNL     1       1.359   9.458  20.438  1.00  0.00     0.039 C 
ENDBRANCH   5   9
TORSDOF 1
ENDMDL
MODEL 3
REMARK VINA RESULT:    -4.458      6.609      8.075
REMARK INTER + INTRA:          -4.812
REMARK INTER:                  -4.713
REMARK INTRA:                  -0.098
REMARK UNBOUND:                -0.093
REMARK SMILES C=C(C)[C@@H]1CC=C(C)C(=O)C1
REMARK SMILES IDX 8 1 7 2 6 3 5 4 4 5 11 6 9 7 10 8 2 9 1 10 3 11
REMARK H PARENT
REMARK Flexibility Score: inf
ROOT
ATOM      1  C   UNL     1       2.458  11.063  14.839  1.00  0.00     0.048 C 
ATOM      2  C   UNL     1       2.016  10.568  16.188  1.00  0.00    -0.012 C 
ATOM      3  C   UNL     1       2.139   9.265  16.497  1.00  0.00    -0.019 C 
ATOM      4  C   UNL     1       1.729   8.720  17.840  1.00  0.00     0.036 C 
ATOM      5  C   UNL     1       0.531   9.499  18.412  1.00  0.00     0.025 C 
ATOM      6  C   UNL     1       0.849  11.005  18.466  1.00  0.00     0.089 C 
ATOM      7  C   UNL     1       1.333  11.492  17.128  1.00  0.00     0.158 C 
ATOM      8  O   UNL     1       1.185  12.707  16.827  1.00  0.00    -0.295 OA
ENDROOT
BRANCH   5   9
ATOM      9  C   UNL     1       0.121   8.968  19.778  1.00  0.00    -0.077 C 
ATOM     10  C   UNL     1       0.803   7.957  20.340  1.00  0.00     0.008 C 
ATOM     11  C   UNL     1      -1.049   9.553  20.531  1.00  0.00     0.039 C 
ENDBRANCH   5   9
TORSDOF 1
ENDMDL
MODEL 4
REMARK VINA RESULT:    -4.451      1.381      4.125
REMARK INTER + INTRA:          -4.804
REMARK INTER:                  -4.707
REMARK INTRA:                  -0.097
REMARK UNBOUND:                -0.093
REMARK SMILES C=C(C)[C@@H]1CC=C(C)C(=O)C1
REMARK SMILES IDX 8 1 7 2 6 3 5 4 4 5 11 6 9 7 10 8 2 9 1 10 3 11
REMARK H PARENT
REMARK Flexibility Score: inf
ROOT
ATOM      1  C   UNL     1       2.177  16.889  19.733  1.00  0.00     0.048 C 
ATOM      2  C   UNL     1       2.422  15.968  20.896  1.00  0.00    -0.012 C 
ATOM      3  C   UNL     1       2.346  16.441  22.152  1.00  0.00    -0.019 C 
ATOM      4  C   UNL     1       2.564  15.558  23.353  1.00  0.00     0.036 C 
ATOM      5  C   UNL     1       3.587  14.450  23.047  1.00  0.00     0.025 C 
ATOM      6  C   UNL     1       3.153  13.649  21.806  1.00  0.00     0.089 C 
ATOM      7  C   UNL     1       2.867  14.572  20.654  1.00  0.00     0.158 C 
ATOM      8  O   UNL     1       2.972  14.136  19.477  1.00  0.00    -0.295 OA
ENDROOT
BRANCH   5   9
ATOM      9  C   UNL     1       3.800  13.540  24.250  1.00  0.00    -0.077 C 
ATOM     10  C   UNL     1       2.744  13.061  24.927  1.00  0.00     0.008 C 
ATOM     11  C   UNL     1       5.185  13.156  24.710  1.00  0.00     0.039 C 
ENDBRANCH   5   9
TORSDOF 1
ENDMDL
MODEL 5
REMARK VINA RESULT:    -4.423      6.641      7.771
REMARK INTER + INTRA:          -4.774
REMARK INTER:                  -4.676
REMARK INTRA:                  -0.099
REMARK UNBOUND:                -0.093
REMARK SMILES C=C(C)[C@@H]1CC=C(C)C(=O)C1
REMARK SMILES IDX 8 1 7 2 6 3 5 4 4 5 11 6 9 7 10 8 2 9 1 10 3 11
REMARK H PARENT
REMARK Flexibility Score: inf
ROOT
ATOM      1  C   UNL     1      -1.559  10.005  21.154  1.00  0.00     0.048 C 
ATOM      2  C   UNL     1      -0.488   9.954  20.100  1.00  0.00    -0.012 C 
ATOM      3  C   UNL     1      -0.321  10.994  19.265  1.00  0.00    -0.019 C 
ATOM      4  C   UNL     1       0.748  11.002  18.204  1.00  0.00     0.036 C 
ATOM      5  C   UNL     1       1.009   9.583  17.669  1.00  0.00     0.025 C 
ATOM      6  C   UNL     1       1.347   8.628  18.828  1.00  0.00     0.089 C 
ATOM      7  C   UNL     1       0.299   8.710  19.904  1.00  0.00     0.158 C 
ATOM      8  O   UNL     1       0.120   7.721  20.663  1.00  0.00    -0.295 OA
ENDROOT
BRANCH   5   9
ATOM      9  C   UNL     1       2.102   9.579  16.609  1.00  0.00    -0.077 C 
ATOM     10  C   UNL     1       3.165   8.768  16.740  1.00  0.00     0.008 C 
ATOM     11  C   UNL     1       2.025  10.473  15.396  1.00  0.00     0.039 C 
ENDBRANCH   5   9
TORSDOF 1
ENDMDL
MODEL 6
REMARK VINA RESULT:    -4.369      6.696      7.694
REMARK INTER + INTRA:          -4.717
REMARK INTER:                  -4.629
REMARK INTRA:                  -0.087
REMARK UNBOUND:                -0.093
REMARK SMILES C=C(C)[C@@H]1CC=C(C)C(=O)C1
REMARK SMILES IDX 8 1 7 2 6 3 5 4 4 5 11 6 9 7 10 8 2 9 1 10 3 11
REMARK H PARENT
REMARK Flexibility Score: inf
ROOT
ATOM      1  C   UNL     1       1.248   8.132  18.978  1.00  0.00     0.048 C 
ATOM      2  C   UNL     1       1.309   9.225  17.947  1.00  0.00    -0.012 C 
ATOM      3  C   UNL     1       1.869   8.985  16.750  1.00  0.00    -0.019 C 
ATOM      4  C   UNL     1       1.940  10.038  15.675  1.00  0.00     0.036 C 
ATOM      5  C   UNL     1       2.088  11.443  16.285  1.00  0.00     0.025 C 
ATOM      6  C   UNL     1       0.953  11.712  17.290  1.00  0.00     0.089 C 
ATOM      7  C   UNL     1       0.863  10.597  18.297  1.00  0.00     0.158 C 
ATOM      8  O   UNL     1       0.369  10.834  19.431  1.00  0.00    -0.295 OA
ENDROOT
BRANCH   5   9
ATOM      9  C   UNL     1       2.140  12.517  15.206  1.00  0.00    -0.077 C 
ATOM     10  C   UNL     1       3.320  13.037  14.832  1.00  0.00     0.008 C 
ATOM     11  C   UNL     1       0.885  13.020  14.536  1.00  0.00     0.039 C 
ENDBRANCH   5   9
TORSDOF 1
ENDMDL
MODEL 7
REMARK VINA RESULT:    -4.352      1.348      2.298
REMARK INTER + INTRA:          -4.700
REMARK INTER:                  -4.608
REMARK INTRA:                  -0.092
REMARK UNBOUND:                -0.093
REMARK SMILES C=C(C)[C@@H]1CC=C(C)C(=O)C1
REMARK SMILES IDX 8 1 7 2 6 3 5 4 4 5 11 6 9 7 10 8 2 9 1 10 3 11
REMARK H PARENT
REMARK Flexibility Score: inf
ROOT
ATOM      1  C   UNL     1       5.131  12.530  22.799  1.00  0.00     0.048 C 
ATOM      2  C   UNL     1       4.065  13.522  22.426  1.00  0.00    -0.012 C 
ATOM      3  C   UNL     1       3.599  13.563  21.165  1.00  0.00    -0.019 C 
ATOM      4  C   UNL     1       2.520  14.524  20.743  1.00  0.00     0.036 C 
ATOM      5  C   UNL     1       2.611  15.842  21.533  1.00  0.00     0.025 C 
ATOM      6  C   UNL     1       2.581  15.560  23.047  1.00  0.00     0.089 C 
ATOM      7  C   UNL     1       3.618  14.535  23.415  1.00  0.00     0.158 C 
ATOM      8  O   UNL     1       4.079  14.522  24.588  1.00  0.00    -0.295 OA
ENDROOT
BRANCH   5   9
ATOM      9  C   UNL     1       1.511  16.814  21.127  1.00  0.00    -0.077 C 
ATOM     10  C   UNL     1       1.499  17.338  19.891  1.00  0.00     0.008 C 
ATOM     11  C   UNL     1       0.418  17.211  22.088  1.00  0.00     0.039 C 
ENDBRANCH   5   9
TORSDOF 1
ENDMDL
MODEL 8
REMARK VINA RESULT:    -4.344      6.118      7.516
REMARK INTER + INTRA:          -4.690
REMARK INTER:                  -4.592
REMARK INTRA:                  -0.098
REMARK UNBOUND:                -0.093
REMARK SMILES C=C(C)[C@@H]1CC=C(C)C(=O)C1
REMARK SMILES IDX 8 1 7 2 6 3 5 4 4 5 11 6 9 7 10 8 2 9 1 10 3 11
REMARK H PARENT
REMARK Flexibility Score: inf
ROOT
ATOM      1  C   UNL     1       0.352   8.149  18.643  1.00  0.00     0.048 C 
ATOM      2  C   UNL     1       1.250   9.217  18.082  1.00  0.00    -0.012 C 
ATOM      3  C   UNL     1       1.624   9.167  16.792  1.00  0.00    -0.019 C 
ATOM      4  C   UNL     1       2.506  10.220  16.175  1.00  0.00     0.036 C 
ATOM      5  C   UNL     1       3.502  10.782  17.205  1.00  0.00     0.025 C 
ATOM      6  C   UNL     1       2.752  11.304  18.444  1.00  0.00     0.089 C 
ATOM      7  C   UNL     1       1.821  10.251  18.981  1.00  0.00     0.158 C 
ATOM      8  O   UNL     1       1.500  10.279  20.199  1.00  0.00    -0.295 OA
ENDROOT
BRANCH   5   9
ATOM      9  C   UNL     1       4.386  11.861  16.595  1.00  0.00    -0.077 C 
ATOM     10  C   UNL     1       3.935  12.602  15.570  1.00  0.00     0.008 C 
ATOM     11  C   UNL     1       5.777  12.126  17.118  1.00  0.00     0.039 C 
ENDBRANCH   5   9
TORSDOF 1
ENDMDL
MODEL 9
REMARK VINA RESULT:    -4.212      7.567      9.293
REMARK INTER + INTRA:          -4.551
REMARK INTER:                  -4.459
REMARK INTRA:                  -0.092
REMARK UNBOUND:                -0.093
REMARK SMILES C=C(C)[C@@H]1CC=C(C)C(=O)C1
REMARK SMILES IDX 8 1 7 2 6 3 5 4 4 5 11 6 9 7 10 8 2 9 1 10 3 11
REMARK H PARENT
REMARK Flexibility Score: inf
ROOT
ATOM      1  C   UNL     1       1.386  14.759  12.622  1.00  0.00     0.048 C 
ATOM      2  C   UNL     1       1.713  13.744  13.683  1.00  0.00    -0.012 C 
ATOM      3  C   UNL     1       2.959  13.246  13.771  1.00  0.00    -0.019 C 
ATOM      4  C   UNL     1       3.344  12.241  14.825  1.00  0.00     0.036 C 
ATOM      5  C   UNL     1       2.160  11.322  15.174  1.00  0.00     0.025 C 
ATOM      6  C   UNL     1       0.937  12.160  15.587  1.00  0.00     0.089 C 
ATOM      7  C   UNL     1       0.634  13.204  14.548  1.00  0.00     0.158 C 
ATOM      8  O   UNL     1      -0.542  13.644  14.443  1.00  0.00    -0.295 OA
ENDROOT
BRANCH   5   9
ATOM      9  C   UNL     1       2.535  10.315  16.253  1.00  0.00    -0.077 C 
ATOM     10  C   UNL     1       1.811   9.195  16.410  1.00  0.00     0.008 C 
ATOM     11  C   UNL     1       3.715  10.543  17.166  1.00  0.00     0.039 C 
ENDBRANCH   5   9
TORSDOF 1
ENDMDL
