MODEL 1
REMARK VINA RESULT:    -5.145      0.000      0.000
REMARK INTER + INTRA:          -7.274
REMARK INTER:                  -7.250
REMARK INTRA:                  -0.024
REMARK UNBOUND:                -0.024
REMARK SMILES COc1ccc(-c2cc(=O)c3c(OC)c(OC)c(OC)c(OC)c3o2)cc1OC
REMARK SMILES IDX 7 1 8 2 9 3 10 4 11 5 24 6 25 7 21 8 18 9 15 10 12 11 6 12
REMARK SMILES IDX 3 13 27 14 4 15 26 16 5 17 2 18 1 19 28 20 29 21 22 22 23 23
REMARK SMILES IDX 13 24 14 25 19 26 20 27 16 28 17 29
REMARK H PARENT
REMARK Flexibility Score: inf
ROOT
ATOM      1  C   UNL     1     138.501 150.561 120.970  1.00  0.00     0.138 A 
ATOM      2  C   UNL     1     137.566 151.555 121.276  1.00  0.00     0.100 A 
ATOM      3  C   UNL     1     137.972 152.885 121.316  1.00  0.00     0.197 A 
ATOM      4  O   UNL     1     137.113 153.767 121.588  1.00  0.00    -0.289 OA
ATOM      5  C   UNL     1     139.321 153.217 121.047  1.00  0.00     0.115 A 
ATOM      6  C   UNL     1     140.218 152.155 120.770  1.00  0.00     0.188 A 
ATOM      7  O   UNL     1     139.767 150.902 120.747  1.00  0.00    -0.452 OA
ATOM      8  C   UNL     1     141.584 152.418 120.509  1.00  0.00     0.209 A 
ATOM      9  C   UNL     1     142.037 153.759 120.476  1.00  0.00     0.211 A 
ATOM     10  C   UNL     1     141.134 154.814 120.706  1.00  0.00     0.208 A 
ATOM     11  C   UNL     1     139.788 154.553 121.048  1.00  0.00     0.179 A 
ENDROOT
BRANCH   1  12
ATOM     12  C   UNL     1     138.115 149.131 120.895  1.00  0.00     0.021 A 
ATOM     13  C   UNL     1     137.398 146.402 120.813  1.00  0.00     0.160 A 
ATOM     14  C   UNL     1     138.285 146.920 119.857  1.00  0.00     0.161 A 
ATOM     15  C   UNL     1     136.875 147.248 121.805  1.00  0.00     0.051 A 
ATOM     16  C   UNL     1     138.644 148.281 119.905  1.00  0.00     0.062 A 
ATOM     17  C   UNL     1     137.232 148.598 121.845  1.00  0.00     0.016 A 
BRANCH  13  18
ATOM     18  O   UNL     1     137.063 145.039 120.742  1.00  0.00    -0.493 OA
ATOM     19  C   UNL     1     137.577 144.037 121.615  1.00  0.00     0.278 C 
ENDBRANCH  13  18
BRANCH  14  20
ATOM     20  O   UNL     1     138.790 146.050 118.877  1.00  0.00    -0.493 OA
ATOM     21  C   UNL     1     139.783 145.056 119.113  1.00  0.00     0.278 C 
ENDBRANCH  14  20
ENDBRANCH   1  12
BRANCH   8  22
ATOM     22  O   UNL     1     142.514 151.390 120.268  1.00  0.00    -0.490 OA
ATOM     23  C   UNL     1     142.453 150.404 119.243  1.00  0.00     0.278 C 
ENDBRANCH   8  22
BRANCH  11  24
ATOM     24  O   UNL     1     138.880 155.579 121.380  1.00  0.00    -0.492 OA
ATOM     25  C   UNL     1     138.895 156.383 122.558  1.00  0.00     0.278 C 
ENDBRANCH  11  24
BRANCH   9  26
ATOM     26  O   UNL     1     143.380 154.120 120.248  1.00  0.00    -0.490 OA
ATOM     27  C   UNL     1     144.257 153.602 119.253  1.00  0.00     0.279 C 
ENDBRANCH   9  26
BRANCH  10  28
ATOM     28  O   UNL     1     141.585 156.135 120.606  1.00  0.00    -0.490 OA
ATOM     29  C   UNL     1     141.228 156.991 119.525  1.00  0.00     0.278 C 
ENDBRANCH  10  28
TORSDOF 7
ENDMDL
MODEL 2
REMARK VINA RESULT:    -4.536      1.133      3.438
REMARK INTER + INTRA:          -6.415
REMARK INTER:                  -5.879
REMARK INTRA:                  -0.537
REMARK UNBOUND:                -0.024
REMARK SMILES COc1ccc(-c2cc(=O)c3c(OC)c(OC)c(OC)c(OC)c3o2)cc1OC
REMARK SMILES IDX 7 1 8 2 9 3 10 4 11 5 24 6 25 7 21 8 18 9 15 10 12 11 6 12
REMARK SMILES IDX 3 13 27 14 4 15 26 16 5 17 2 18 1 19 28 20 29 21 22 22 23 23
REMARK SMILES IDX 13 24 14 25 19 26 20 27 16 28 17 29
REMARK H PARENT
REMARK Flexibility Score: inf
ROOT
ATOM      1  C   UNL     1     139.506 150.789 120.703  1.00  0.00     0.138 A 
ATOM      2  C   UNL     1     140.808 150.895 120.205  1.00  0.00     0.100 A 
ATOM      3  C   UNL     1     141.425 152.141 120.167  1.00  0.00     0.197 A 
ATOM      4  O   UNL     1     142.601 152.215 119.719  1.00  0.00    -0.289 OA
ATOM      5  C   UNL     1     140.731 153.284 120.630  1.00  0.00     0.115 A 
ATOM      6  C   UNL     1     139.405 153.105 121.097  1.00  0.00     0.188 A 
ATOM      7  O   UNL     1     138.871 151.885 121.108  1.00  0.00    -0.452 OA
ATOM      8  C   UNL     1     138.651 154.210 121.559  1.00  0.00     0.209 A 
ATOM      9  C   UNL     1     139.252 155.490 121.600  1.00  0.00     0.211 A 
ATOM     10  C   UNL     1     140.585 155.657 121.179  1.00  0.00     0.208 A 
ATOM     11  C   UNL     1     141.315 154.573 120.639  1.00  0.00     0.179 A 
ENDROOT
BRANCH   1  12
ATOM     12  C   UNL     1     138.812 149.480 120.785  1.00  0.00     0.021 A 
ATOM     13  C   UNL     1     137.504 146.988 121.005  1.00  0.00     0.160 A 
ATOM     14  C   UNL     1     138.527 147.159 120.059  1.00  0.00     0.161 A 
ATOM     15  C   UNL     1     137.141 148.062 121.836  1.00  0.00     0.051 A 
ATOM     16  C   UNL     1     139.180 148.403 119.957  1.00  0.00     0.062 A 
ATOM     17  C   UNL     1     137.790 149.294 121.727  1.00  0.00     0.016 A 
BRANCH  13  18
ATOM     18  O   UNL     1     136.875 145.735 121.087  1.00  0.00    -0.493 OA
ATOM     19  C   UNL     1     137.119 144.776 122.112  1.00  0.00     0.278 C 
ENDBRANCH  13  18
BRANCH  14  20
ATOM     20  O   UNL     1     138.867 146.069 119.243  1.00  0.00    -0.493 OA
ATOM     21  C   UNL     1     139.891 145.124 119.540  1.00  0.00     0.278 C 
ENDBRANCH  14  20
ENDBRANCH   1  12
BRANCH   8  22
ATOM     22  O   UNL     1     137.319 154.080 121.995  1.00  0.00    -0.490 OA
ATOM     23  C   UNL     1     136.875 153.783 123.314  1.00  0.00     0.278 C 
ENDBRANCH   8  22
BRANCH  11  24
ATOM     24  O   UNL     1     142.616 154.723 120.118  1.00  0.00    -0.492 OA
ATOM     25  C   UNL     1     143.829 154.808 120.863  1.00  0.00     0.278 C 
ENDBRANCH  11  24
BRANCH   9  26
ATOM     26  O   UNL     1     138.576 156.653 122.021  1.00  0.00    -0.490 OA
ATOM     27  C   UNL     1     137.632 157.420 121.281  1.00  0.00     0.279 C 
ENDBRANCH   9  26
BRANCH  10  28
ATOM     28  O   UNL     1     141.184 156.917 121.286  1.00  0.00    -0.490 OA
ATOM     29  C   UNL     1     141.034 157.928 120.293  1.00  0.00     0.278 C 
ENDBRANCH  10  28
TORSDOF 7
ENDMDL
MODEL 3
REMARK VINA RESULT:    -3.613      1.989      8.391
REMARK INTER + INTRA:          -5.115
REMARK INTER:                  -4.993
REMARK INTRA:                  -0.122
REMARK UNBOUND:                -0.024
REMARK SMILES COc1ccc(-c2cc(=O)c3c(OC)c(OC)c(OC)c(OC)c3o2)cc1OC
REMARK SMILES IDX 7 1 8 2 9 3 10 4 11 5 24 6 25 7 21 8 18 9 15 10 12 11 6 12
REMARK SMILES IDX 3 13 27 14 4 15 26 16 5 17 2 18 1 19 28 20 29 21 22 22 23 23
REMARK SMILES IDX 13 24 14 25 19 26 20 27 16 28 17 29
REMARK H PARENT
REMARK Flexibility Score: inf
ROOT
ATOM      1  C   UNL     1     139.509 153.878 121.283  1.00  0.00     0.138 A 
ATOM      2  C   UNL     1     140.684 153.736 120.540  1.00  0.00     0.100 A 
ATOM      3  C   UNL     1     140.993 152.500 119.982  1.00  0.00     0.197 A 
ATOM      4  O   UNL     1     142.055 152.392 119.310  1.00  0.00    -0.289 OA
ATOM      5  C   UNL     1     140.118 151.404 120.171  1.00  0.00     0.115 A 
ATOM      6  C   UNL     1     138.959 151.616 120.958  1.00  0.00     0.188 A 
ATOM      7  O   UNL     1     138.719 152.824 121.465  1.00  0.00    -0.452 OA
ATOM      8  C   UNL     1     138.051 150.557 121.199  1.00  0.00     0.209 A 
ATOM      9  C   UNL     1     138.286 149.295 120.603  1.00  0.00     0.211 A 
ATOM     10  C   UNL     1     139.414 149.100 119.785  1.00  0.00     0.208 A 
ATOM     11  C   UNL     1     140.366 150.129 119.608  1.00  0.00     0.179 A 
ENDROOT
BRANCH   1  12
ATOM     12  C   UNL     1     139.124 155.181 121.881  1.00  0.00     0.021 A 
ATOM     13  C   UNL     1     138.331 157.652 122.991  1.00  0.00     0.160 A 
ATOM     14  C   UNL     1     139.511 157.572 122.235  1.00  0.00     0.161 A 
ATOM     15  C   UNL     1     137.553 156.498 123.187  1.00  0.00     0.051 A 
ATOM     16  C   UNL     1     139.899 156.337 121.679  1.00  0.00     0.062 A 
ATOM     17  C   UNL     1     137.946 155.277 122.636  1.00  0.00     0.016 A 
BRANCH  13  18
ATOM     18  O   UNL     1     137.968 158.898 123.527  1.00  0.00    -0.493 OA
ATOM     19  C   UNL     1     137.167 159.071 124.693  1.00  0.00     0.278 C 
ENDBRANCH  13  18
BRANCH  14  20
ATOM     20  O   UNL     1     140.268 158.741 122.057  1.00  0.00    -0.493 OA
ATOM     21  C   UNL     1     141.384 158.856 121.178  1.00  0.00     0.278 C 
ENDBRANCH  14  20
ENDBRANCH   1  12
BRANCH   8  22
ATOM     22  O   UNL     1     136.908 150.716 122.005  1.00  0.00    -0.490 OA
ATOM     23  C   UNL     1     136.875 151.078 123.381  1.00  0.00     0.278 C 
ENDBRANCH   8  22
BRANCH  11  24
ATOM     24  O   UNL     1     141.556 149.940 118.876  1.00  0.00    -0.492 OA
ATOM     25  C   UNL     1     142.799 149.455 119.379  1.00  0.00     0.278 C 
ENDBRANCH  11  24
BRANCH   9  26
ATOM     26  O   UNL     1     137.453 148.175 120.802  1.00  0.00    -0.490 OA
ATOM     27  C   UNL     1     137.004 147.642 122.044  1.00  0.00     0.279 C 
ENDBRANCH   9  26
BRANCH  10  28
ATOM     28  O   UNL     1     139.596 147.865 119.152  1.00  0.00    -0.490 OA
ATOM     29  C   UNL     1     140.172 146.741 119.810  1.00  0.00     0.278 C 
ENDBRANCH  10  28
TORSDOF 7
ENDMDL
MODEL 4
REMARK VINA RESULT:    -3.370      1.692      3.421
REMARK INTER + INTRA:          -4.773
REMARK INTER:                  -4.877
REMARK INTRA:                   0.103
REMARK UNBOUND:                -0.024
REMARK SMILES COc1ccc(-c2cc(=O)c3c(OC)c(OC)c(OC)c(OC)c3o2)cc1OC
REMARK SMILES IDX 7 1 8 2 9 3 10 4 11 5 24 6 25 7 21 8 18 9 15 10 12 11 6 12
REMARK SMILES IDX 3 13 27 14 4 15 26 16 5 17 2 18 1 19 28 20 29 21 22 22 23 23
REMARK SMILES IDX 13 24 14 25 19 26 20 27 16 28 17 29
REMARK H PARENT
REMARK Flexibility Score: inf
ROOT
ATOM      1  C   UNL     1     139.656 151.500 120.705  1.00  0.00     0.138 A 
ATOM      2  C   UNL     1     140.974 151.603 121.157  1.00  0.00     0.100 A 
ATOM      3  C   UNL     1     141.610 152.840 121.132  1.00  0.00     0.197 A 
ATOM      4  O   UNL     1     142.797 152.914 121.547  1.00  0.00    -0.289 OA
ATOM      5  C   UNL     1     140.917 153.977 120.652  1.00  0.00     0.115 A 
ATOM      6  C   UNL     1     139.591 153.792 120.186  1.00  0.00     0.188 A 
ATOM      7  O   UNL     1     139.039 152.581 120.237  1.00  0.00    -0.452 OA
ATOM      8  C   UNL     1     138.849 154.885 119.679  1.00  0.00     0.209 A 
ATOM      9  C   UNL     1     139.425 156.178 119.689  1.00  0.00     0.211 A 
ATOM     10  C   UNL     1     140.725 156.366 120.194  1.00  0.00     0.208 A 
ATOM     11  C   UNL     1     141.501 155.266 120.625  1.00  0.00     0.179 A 
ENDROOT
BRANCH   1  12
ATOM     12  C   UNL     1     138.927 150.207 120.731  1.00  0.00     0.021 A 
ATOM     13  C   UNL     1     137.552 147.744 120.844  1.00  0.00     0.160 A 
ATOM     14  C   UNL     1     138.588 147.924 119.914  1.00  0.00     0.161 A 
ATOM     15  C   UNL     1     137.209 148.795 121.712  1.00  0.00     0.051 A 
ATOM     16  C   UNL     1     139.275 149.154 119.866  1.00  0.00     0.062 A 
ATOM     17  C   UNL     1     137.891 150.012 121.656  1.00  0.00     0.016 A 
BRANCH  13  18
ATOM     18  O   UNL     1     136.891 146.506 120.872  1.00  0.00    -0.493 OA
ATOM     19  C   UNL     1     136.892 145.616 121.985  1.00  0.00     0.278 C 
ENDBRANCH  13  18
BRANCH  14  20
ATOM     20  O   UNL     1     138.908 146.857 119.059  1.00  0.00    -0.493 OA
ATOM     21  C   UNL     1     139.855 145.836 119.360  1.00  0.00     0.278 C 
ENDBRANCH  14  20
ENDBRANCH   1  12
BRANCH   8  22
ATOM     22  O   UNL     1     137.544 154.736 119.173  1.00  0.00    -0.490 OA
ATOM     23  C   UNL     1     136.875 153.516 118.875  1.00  0.00     0.278 C 
ENDBRANCH   8  22
BRANCH  11  24
ATOM     24  O   UNL     1     142.839 155.403 121.045  1.00  0.00    -0.492 OA
ATOM     25  C   UNL     1     143.291 155.843 122.324  1.00  0.00     0.278 C 
ENDBRANCH  11  24
BRANCH   9  26
ATOM     26  O   UNL     1     138.775 157.322 119.184  1.00  0.00    -0.490 OA
ATOM     27  C   UNL     1     137.715 158.053 119.793  1.00  0.00     0.279 C 
ENDBRANCH   9  26
BRANCH  10  28
ATOM     28  O   UNL     1     141.256 157.660 120.255  1.00  0.00    -0.490 OA
ATOM     29  C   UNL     1     141.070 158.516 121.378  1.00  0.00     0.278 C 
ENDBRANCH  10  28
TORSDOF 7
ENDMDL
