MODEL 1
REMARK VINA RESULT:    -5.530      0.000      0.000
REMARK INTER + INTRA:          -6.597
REMARK INTER:                  -6.338
REMARK INTRA:                  -0.259
REMARK UNBOUND:                -0.259
REMARK SMILES COC(=O)c1ccccc1O
REMARK SMILES IDX 5 1 6 2 7 3 8 4 9 5 10 6 3 7 4 8 2 9 1 10 11 11
REMARK H PARENT 11 12
REMARK Flexibility Score: inf
ROOT
ATOM      1  C   UNL     1      47.455  49.826  28.402  1.00  0.00     0.101 A 
ATOM      2  C   UNL     1      47.458  49.566  29.787  1.00  0.00     0.019 A 
ATOM      3  C   UNL     1      46.683  50.333  30.659  1.00  0.00     0.001 A 
ATOM      4  C   UNL     1      45.893  51.370  30.165  1.00  0.00     0.004 A 
ATOM      5  C   UNL     1      45.875  51.644  28.797  1.00  0.00     0.047 A 
ATOM      6  C   UNL     1      46.650  50.882  27.909  1.00  0.00     0.130 A 
ENDROOT
BRANCH   1   7
ATOM      7  C   UNL     1      48.293  48.989  27.506  1.00  0.00     0.341 C 
ATOM      8  O   UNL     1      48.115  47.742  27.441  1.00  0.00    -0.246 OA
BRANCH   7   9
ATOM      9  O   UNL     1      49.288  49.589  26.726  1.00  0.00    -0.465 OA
ATOM     10  C   UNL     1      50.243  48.838  25.988  1.00  0.00     0.282 C 
ENDBRANCH   7   9
ENDBRANCH   1   7
BRANCH   6  11
ATOM     11  O   UNL     1      46.615  51.176  26.546  1.00  0.00    -0.507 OA
ATOM     12  H   UNL     1      45.980  51.869  26.167  1.00  0.00     0.293 HD
ENDBRANCH   6  11
TORSDOF 3
ENDMDL
MODEL 2
REMARK VINA RESULT:    -5.148      1.478      1.558
REMARK INTER + INTRA:          -6.159
REMARK INTER:                  -5.912
REMARK INTRA:                  -0.247
REMARK UNBOUND:                -0.259
REMARK SMILES COC(=O)c1ccccc1O
REMARK SMILES IDX 5 1 6 2 7 3 8 4 9 5 10 6 3 7 4 8 2 9 1 10 11 11
REMARK H PARENT 11 12
REMARK Flexibility Score: inf
ROOT
ATOM      1  C   UNL     1      47.827  50.147  29.067  1.00  0.00     0.101 A 
ATOM      2  C   UNL     1      47.109  49.526  30.108  1.00  0.00     0.019 A 
ATOM      3  C   UNL     1      46.795  50.227  31.274  1.00  0.00     0.001 A 
ATOM      4  C   UNL     1      47.190  51.556  31.421  1.00  0.00     0.004 A 
ATOM      5  C   UNL     1      47.901  52.189  30.401  1.00  0.00     0.047 A 
ATOM      6  C   UNL     1      48.225  51.497  29.224  1.00  0.00     0.130 A 
ENDROOT
BRANCH   1   7
ATOM      7  C   UNL     1      48.143  49.369  27.841  1.00  0.00     0.341 C 
ATOM      8  O   UNL     1      47.451  48.364  27.522  1.00  0.00    -0.246 OA
BRANCH   7   9
ATOM      9  O   UNL     1      49.219  49.755  27.033  1.00  0.00    -0.465 OA
ATOM     10  C   UNL     1      50.024  48.820  26.326  1.00  0.00     0.282 C 
ENDBRANCH   7   9
ENDBRANCH   1   7
BRANCH   6  11
ATOM     11  O   UNL     1      48.937  52.153  28.220  1.00  0.00    -0.507 OA
ATOM     12  H   UNL     1      49.949  52.188  28.221  1.00  0.00     0.293 HD
ENDBRANCH   6  11
TORSDOF 3
ENDMDL
MODEL 3
REMARK VINA RESULT:    -5.025      1.278      2.085
REMARK INTER + INTRA:          -6.018
REMARK INTER:                  -5.891
REMARK INTRA:                  -0.127
REMARK UNBOUND:                -0.259
REMARK SMILES COC(=O)c1ccccc1O
REMARK SMILES IDX 5 1 6 2 7 3 8 4 9 5 10 6 3 7 4 8 2 9 1 10 11 11
REMARK H PARENT 11 12
REMARK Flexibility Score: inf
ROOT
ATOM      1  C   UNL     1      47.674  50.327  28.363  1.00  0.00     0.101 A 
ATOM      2  C   UNL     1      46.541  50.997  27.862  1.00  0.00     0.019 A 
ATOM      3  C   UNL     1      45.875  51.950  28.637  1.00  0.00     0.001 A 
ATOM      4  C   UNL     1      46.328  52.250  29.920  1.00  0.00     0.004 A 
ATOM      5  C   UNL     1      47.448  51.598  30.435  1.00  0.00     0.047 A 
ATOM      6  C   UNL     1      48.128  50.638  29.669  1.00  0.00     0.130 A 
ENDROOT
BRANCH   1   7
ATOM      7  C   UNL     1      48.357  49.320  27.511  1.00  0.00     0.341 C 
ATOM      8  O   UNL     1      48.131  48.088  27.667  1.00  0.00    -0.246 OA
BRANCH   7   9
ATOM      9  O   UNL     1      49.258  49.740  26.528  1.00  0.00    -0.465 OA
ATOM     10  C   UNL     1      50.212  48.867  25.935  1.00  0.00     0.282 C 
ENDBRANCH   7   9
ENDBRANCH   1   7
BRANCH   6  11
ATOM     11  O   UNL     1      49.245  50.000  30.208  1.00  0.00    -0.507 OA
ATOM     12  H   UNL     1      49.163  49.330  30.963  1.00  0.00     0.293 HD
ENDBRANCH   6  11
TORSDOF 3
ENDMDL
MODEL 4
REMARK VINA RESULT:    -4.725      2.735      4.864
REMARK INTER + INTRA:          -5.674
REMARK INTER:                  -5.387
REMARK INTRA:                  -0.287
REMARK UNBOUND:                -0.259
REMARK SMILES COC(=O)c1ccccc1O
REMARK SMILES IDX 5 1 6 2 7 3 8 4 9 5 10 6 3 7 4 8 2 9 1 10 11 11
REMARK H PARENT 11 12
REMARK Flexibility Score: inf
ROOT
ATOM      1  C   UNL     1      46.936  51.171  29.545  1.00  0.00     0.101 A 
ATOM      2  C   UNL     1      46.288  51.209  28.294  1.00  0.00     0.019 A 
ATOM      3  C   UNL     1      46.777  50.470  27.215  1.00  0.00     0.001 A 
ATOM      4  C   UNL     1      47.917  49.682  27.364  1.00  0.00     0.004 A 
ATOM      5  C   UNL     1      48.573  49.630  28.594  1.00  0.00     0.047 A 
ATOM      6  C   UNL     1      48.094  50.367  29.688  1.00  0.00     0.130 A 
ENDROOT
BRANCH   1   7
ATOM      7  C   UNL     1      46.387  51.969  30.670  1.00  0.00     0.341 C 
ATOM      8  O   UNL     1      46.338  53.228  30.600  1.00  0.00    -0.246 OA
BRANCH   7   9
ATOM      9  O   UNL     1      45.920  51.321  31.819  1.00  0.00    -0.465 OA
ATOM     10  C   UNL     1      46.165  51.810  33.132  1.00  0.00     0.282 C 
ENDBRANCH   7   9
ENDBRANCH   1   7
BRANCH   6  11
ATOM     11  O   UNL     1      48.768  50.298  30.907  1.00  0.00    -0.507 OA
ATOM     12  H   UNL     1      49.778  50.232  30.954  1.00  0.00     0.293 HD
ENDBRANCH   6  11
TORSDOF 3
ENDMDL
MODEL 5
REMARK VINA RESULT:    -4.273      2.472      4.426
REMARK INTER + INTRA:          -5.157
REMARK INTER:                  -4.864
REMARK INTRA:                  -0.292
REMARK UNBOUND:                -0.259
REMARK SMILES COC(=O)c1ccccc1O
REMARK SMILES IDX 5 1 6 2 7 3 8 4 9 5 10 6 3 7 4 8 2 9 1 10 11 11
REMARK H PARENT 11 12
REMARK Flexibility Score: inf
ROOT
ATOM      1  C   UNL     1      47.220  51.047  29.578  1.00  0.00     0.101 A 
ATOM      2  C   UNL     1      48.240  50.128  29.893  1.00  0.00     0.019 A 
ATOM      3  C   UNL     1      48.902  49.424  28.885  1.00  0.00     0.001 A 
ATOM      4  C   UNL     1      48.560  49.625  27.549  1.00  0.00     0.004 A 
ATOM      5  C   UNL     1      47.553  50.531  27.216  1.00  0.00     0.047 A 
ATOM      6  C   UNL     1      46.878  51.246  28.218  1.00  0.00     0.130 A 
ENDROOT
BRANCH   1   7
ATOM      7  C   UNL     1      46.538  51.778  30.677  1.00  0.00     0.341 C 
ATOM      8  O   UNL     1      46.436  53.035  30.645  1.00  0.00    -0.246 OA
BRANCH   7   9
ATOM      9  O   UNL     1      46.004  51.066  31.756  1.00  0.00    -0.465 OA
ATOM     10  C   UNL     1      46.059  51.543  33.095  1.00  0.00     0.282 C 
ENDBRANCH   7   9
ENDBRANCH   1   7
BRANCH   6  11
ATOM     11  O   UNL     1      45.875  52.145  27.858  1.00  0.00    -0.507 OA
ATOM     12  H   UNL     1      45.060  52.295  28.440  1.00  0.00     0.293 HD
ENDBRANCH   6  11
TORSDOF 3
ENDMDL
MODEL 6
REMARK VINA RESULT:    -4.263      1.475      2.277
REMARK INTER + INTRA:          -5.145
REMARK INTER:                  -4.861
REMARK INTRA:                  -0.284
REMARK UNBOUND:                -0.259
REMARK SMILES COC(=O)c1ccccc1O
REMARK SMILES IDX 5 1 6 2 7 3 8 4 9 5 10 6 3 7 4 8 2 9 1 10 11 11
REMARK H PARENT 11 12
REMARK Flexibility Score: inf
ROOT
ATOM      1  C   UNL     1      48.384  50.434  28.306  1.00  0.00     0.101 A 
ATOM      2  C   UNL     1      48.557  51.696  28.909  1.00  0.00     0.019 A 
ATOM      3  C   UNL     1      48.051  51.952  30.185  1.00  0.00     0.001 A 
ATOM      4  C   UNL     1      47.366  50.957  30.880  1.00  0.00     0.004 A 
ATOM      5  C   UNL     1      47.184  49.701  30.301  1.00  0.00     0.047 A 
ATOM      6  C   UNL     1      47.687  49.428  29.020  1.00  0.00     0.130 A 
ENDROOT
BRANCH   1   7
ATOM      7  C   UNL     1      48.936  50.198  26.948  1.00  0.00     0.341 C 
ATOM      8  O   UNL     1      48.710  51.014  26.012  1.00  0.00    -0.246 OA
BRANCH   7   9
ATOM      9  O   UNL     1      49.713  49.060  26.703  1.00  0.00    -0.465 OA
ATOM     10  C   UNL     1      50.490  48.899  25.523  1.00  0.00     0.282 C 
ENDBRANCH   7   9
ENDBRANCH   1   7
BRANCH   6  11
ATOM     11  O   UNL     1      47.491  48.165  28.464  1.00  0.00    -0.507 OA
ATOM     12  H   UNL     1      46.795  47.524  28.828  1.00  0.00     0.293 HD
ENDBRANCH   6  11
TORSDOF 3
ENDMDL
MODEL 7
REMARK VINA RESULT:    -3.926      2.034      5.533
REMARK INTER + INTRA:          -4.758
REMARK INTER:                  -4.495
REMARK INTRA:                  -0.263
REMARK UNBOUND:                -0.259
REMARK SMILES COC(=O)c1ccccc1O
REMARK SMILES IDX 5 1 6 2 7 3 8 4 9 5 10 6 3 7 4 8 2 9 1 10 11 11
REMARK H PARENT 11 12
REMARK Flexibility Score: inf
ROOT
ATOM      1  C   UNL     1      49.910  49.196  25.949  1.00  0.00     0.101 A 
ATOM      2  C   UNL     1      49.598  49.650  24.653  1.00  0.00     0.019 A 
ATOM      3  C   UNL     1      50.432  49.355  23.573  1.00  0.00     0.001 A 
ATOM      4  C   UNL     1      51.589  48.603  23.767  1.00  0.00     0.004 A 
ATOM      5  C   UNL     1      51.917  48.143  25.043  1.00  0.00     0.047 A 
ATOM      6  C   UNL     1      51.088  48.432  26.138  1.00  0.00     0.130 A 
ENDROOT
BRANCH   1   7
ATOM      7  C   UNL     1      48.999  49.529  27.073  1.00  0.00     0.341 C 
ATOM      8  O   UNL     1      48.460  48.615  27.756  1.00  0.00    -0.246 OA
BRANCH   7   9
ATOM      9  O   UNL     1      48.734  50.869  27.378  1.00  0.00    -0.465 OA
ATOM     10  C   UNL     1      48.436  51.314  28.696  1.00  0.00     0.282 C 
ENDBRANCH   7   9
ENDBRANCH   1   7
BRANCH   6  11
ATOM     11  O   UNL     1      51.438  47.961  27.403  1.00  0.00    -0.507 OA
ATOM     12  H   UNL     1      52.165  47.266  27.530  1.00  0.00     0.293 HD
ENDBRANCH   6  11
TORSDOF 3
ENDMDL
MODEL 8
REMARK VINA RESULT:    -3.915      1.592      2.035
REMARK INTER + INTRA:          -4.746
REMARK INTER:                  -4.534
REMARK INTRA:                  -0.212
REMARK UNBOUND:                -0.259
REMARK SMILES COC(=O)c1ccccc1O
REMARK SMILES IDX 5 1 6 2 7 3 8 4 9 5 10 6 3 7 4 8 2 9 1 10 11 11
REMARK H PARENT 11 12
REMARK Flexibility Score: inf
ROOT
ATOM      1  C   UNL     1      48.828  49.543  27.144  1.00  0.00     0.101 A 
ATOM      2  C   UNL     1      48.515  48.835  28.321  1.00  0.00     0.019 A 
ATOM      3  C   UNL     1      47.444  49.228  29.126  1.00  0.00     0.001 A 
ATOM      4  C   UNL     1      46.668  50.330  28.771  1.00  0.00     0.004 A 
ATOM      5  C   UNL     1      46.961  51.045  27.609  1.00  0.00     0.047 A 
ATOM      6  C   UNL     1      48.035  50.662  26.790  1.00  0.00     0.130 A 
ENDROOT
BRANCH   1   7
ATOM      7  C   UNL     1      49.975  49.096  26.312  1.00  0.00     0.341 C 
ATOM      8  O   UNL     1      50.863  48.341  26.796  1.00  0.00    -0.246 OA
BRANCH   7   9
ATOM      9  O   UNL     1      50.072  49.515  24.981  1.00  0.00    -0.465 OA
ATOM     10  C   UNL     1      50.788  48.783  23.994  1.00  0.00     0.282 C 
ENDBRANCH   7   9
ENDBRANCH   1   7
BRANCH   6  11
ATOM     11  O   UNL     1      48.307  51.393  25.634  1.00  0.00    -0.507 OA
ATOM     12  H   UNL     1      48.883  52.226  25.654  1.00  0.00     0.293 HD
ENDBRANCH   6  11
TORSDOF 3
ENDMDL
MODEL 9
REMARK VINA RESULT:    -3.867      2.184      4.023
REMARK INTER + INTRA:          -4.691
REMARK INTER:                  -4.473
REMARK INTRA:                  -0.217
REMARK UNBOUND:                -0.259
REMARK SMILES COC(=O)c1ccccc1O
REMARK SMILES IDX 5 1 6 2 7 3 8 4 9 5 10 6 3 7 4 8 2 9 1 10 11 11
REMARK H PARENT 11 12
REMARK Flexibility Score: inf
ROOT
ATOM      1  C   UNL     1      47.825  50.059  28.758  1.00  0.00     0.101 A 
ATOM      2  C   UNL     1      47.559  48.683  28.621  1.00  0.00     0.019 A 
ATOM      3  C   UNL     1      48.081  47.959  27.547  1.00  0.00     0.001 A 
ATOM      4  C   UNL     1      48.877  48.593  26.595  1.00  0.00     0.004 A 
ATOM      5  C   UNL     1      49.154  49.956  26.713  1.00  0.00     0.047 A 
ATOM      6  C   UNL     1      48.635  50.697  27.787  1.00  0.00     0.130 A 
ENDROOT
BRANCH   1   7
ATOM      7  C   UNL     1      47.252  50.797  29.913  1.00  0.00     0.341 C 
ATOM      8  O   UNL     1      46.786  50.173  30.906  1.00  0.00    -0.246 OA
BRANCH   7   9
ATOM      9  O   UNL     1      47.229  52.196  29.900  1.00  0.00    -0.465 OA
ATOM     10  C   UNL     1      46.039  52.943  29.683  1.00  0.00     0.282 C 
ENDBRANCH   7   9
ENDBRANCH   1   7
BRANCH   6  11
ATOM     11  O   UNL     1      48.926  52.057  27.881  1.00  0.00    -0.507 OA
ATOM     12  H   UNL     1      48.431  52.665  28.523  1.00  0.00     0.293 HD
ENDBRANCH   6  11
TORSDOF 3
ENDMDL
