MODEL 1
REMARK VINA RESULT:    -4.170      0.000      0.000
REMARK INTER + INTRA:          -7.731
REMARK INTER:                  -6.608
REMARK INTRA:                  -1.123
REMARK UNBOUND:                -1.123
REMARK SMILES CCCCCCCCCCCC(=O)[O-]
REMARK SMILES IDX 7 1 8 2 9 3 10 4 11 5 12 6 13 7 14 8 6 9 5 10 4 11 3 12 2 13
REMARK SMILES IDX 1 14
REMARK H PARENT
REMARK Flexibility Score: inf
ROOT
ATOM      1  C   UNL     1      18.555   9.782 -15.106  1.00  0.00     0.000 C 
ENDROOT
BRANCH   1   2
ATOM      2  C   UNL     1      17.193   9.198 -15.509  1.00  0.00     0.000 C 
BRANCH   2   3
ATOM      3  C   UNL     1      16.274   9.058 -14.285  1.00  0.00     0.000 C 
BRANCH   3   4
ATOM      4  C   UNL     1      14.963   9.846 -14.437  1.00  0.00     0.006 C 
BRANCH   4   5
ATOM      5  C   UNL     1      15.018  10.871 -15.577  1.00  0.00     0.053 C 
BRANCH   5   6
ATOM      6  C   UNL     1      15.292  12.239 -15.037  1.00  0.00     0.041 C 
ATOM      7  O   UNL     1      15.597  13.178 -15.817  1.00  0.00    -0.550 OA
ATOM      8  O   UNL     1      15.258  12.465 -13.667  1.00  0.00    -0.550 OA
ENDBRANCH   5   6
ENDBRANCH   4   5
ENDBRANCH   3   4
ENDBRANCH   2   3
ENDBRANCH   1   2
BRANCH   1   9
ATOM      9  C   UNL     1      18.608  10.215 -13.630  1.00  0.00     0.000 C 
BRANCH   9  10
ATOM     10  C   UNL     1      18.664  11.738 -13.397  1.00  0.00    -0.000 C 
BRANCH  10  11
ATOM     11  C   UNL     1      19.005  12.577 -14.642  1.00  0.00    -0.000 C 
BRANCH  11  12
ATOM     12  C   UNL     1      20.208  13.507 -14.424  1.00  0.00    -0.000 C 
BRANCH  12  13
ATOM     13  C   UNL     1      21.236  12.862 -13.488  1.00  0.00    -0.003 C 
ATOM     14  C   UNL     1      22.386  13.819 -13.187  1.00  0.00     0.004 C 
ENDBRANCH  12  13
ENDBRANCH  11  12
ENDBRANCH  10  11
ENDBRANCH   9  10
ENDBRANCH   1   9
TORSDOF 10
ENDMDL
MODEL 2
REMARK VINA RESULT:    -4.140      0.729      1.652
REMARK INTER + INTRA:          -7.683
REMARK INTER:                  -6.749
REMARK INTRA:                  -0.934
REMARK UNBOUND:                -1.123
REMARK SMILES CCCCCCCCCCCC(=O)[O-]
REMARK SMILES IDX 7 1 8 2 9 3 10 4 11 5 12 6 13 7 14 8 6 9 5 10 4 11 3 12 2 13
REMARK SMILES IDX 1 14
REMARK H PARENT
REMARK Flexibility Score: inf
ROOT
ATOM      1  C   UNL     1      18.521  10.260 -13.769  1.00  0.00     0.000 C 
ENDROOT
BRANCH   1   2
ATOM      2  C   UNL     1      18.288   9.926 -15.251  1.00  0.00     0.000 C 
BRANCH   2   3
ATOM      3  C   UNL     1      17.154   8.902 -15.409  1.00  0.00     0.000 C 
BRANCH   3   4
ATOM      4  C   UNL     1      16.073   9.045 -14.326  1.00  0.00     0.006 C 
BRANCH   4   5
ATOM      5  C   UNL     1      14.804   9.736 -14.844  1.00  0.00     0.053 C 
BRANCH   5   6
ATOM      6  C   UNL     1      14.812  11.186 -14.475  1.00  0.00     0.041 C 
ATOM      7  O   UNL     1      14.359  11.559 -13.362  1.00  0.00    -0.550 OA
ATOM      8  O   UNL     1      15.274  12.132 -15.383  1.00  0.00    -0.550 OA
ENDBRANCH   5   6
ENDBRANCH   4   5
ENDBRANCH   3   4
ENDBRANCH   2   3
ENDBRANCH   1   2
BRANCH   1   9
ATOM      9  C   UNL     1      18.473  11.770 -13.481  1.00  0.00     0.000 C 
BRANCH   9  10
ATOM     10  C   UNL     1      18.846  12.675 -14.673  1.00  0.00    -0.000 C 
BRANCH  10  11
ATOM     11  C   UNL     1      20.132  13.502 -14.487  1.00  0.00    -0.000 C 
BRANCH  11  12
ATOM     12  C   UNL     1      21.091  12.890 -13.456  1.00  0.00    -0.000 C 
BRANCH  12  13
ATOM     13  C   UNL     1      22.296  13.807 -13.216  1.00  0.00    -0.003 C 
ATOM     14  C   UNL     1      22.322  14.958 -14.218  1.00  0.00     0.004 C 
ENDBRANCH  12  13
ENDBRANCH  11  12
ENDBRANCH  10  11
ENDBRANCH   9  10
ENDBRANCH   1   9
TORSDOF 10
ENDMDL
MODEL 3
REMARK VINA RESULT:    -4.096      2.766      5.564
REMARK INTER + INTRA:          -7.613
REMARK INTER:                  -6.418
REMARK INTRA:                  -1.194
REMARK UNBOUND:                -1.123
REMARK SMILES CCCCCCCCCCCC(=O)[O-]
REMARK SMILES IDX 7 1 8 2 9 3 10 4 11 5 12 6 13 7 14 8 6 9 5 10 4 11 3 12 2 13
REMARK SMILES IDX 1 14
REMARK H PARENT
REMARK Flexibility Score: inf
ROOT
ATOM      1  C   UNL     1      18.700  10.162 -15.005  1.00  0.00     0.000 C 
ENDROOT
BRANCH   1   2
ATOM      2  C   UNL     1      18.759  10.428 -13.494  1.00  0.00     0.000 C 
BRANCH   2   3
ATOM      3  C   UNL     1      18.973  11.923 -13.209  1.00  0.00     0.000 C 
BRANCH   3   4
ATOM      4  C   UNL     1      19.442  12.699 -14.450  1.00  0.00     0.006 C 
BRANCH   4   5
ATOM      5  C   UNL     1      20.666  13.580 -14.169  1.00  0.00     0.053 C 
BRANCH   5   6
ATOM      6  C   UNL     1      21.767  12.767 -13.565  1.00  0.00     0.041 C 
ATOM      7  O   UNL     1      22.341  13.159 -12.516  1.00  0.00    -0.550 OA
ATOM      8  O   UNL     1      22.193  11.601 -14.189  1.00  0.00    -0.550 OA
ENDBRANCH   5   6
ENDBRANCH   4   5
ENDBRANCH   3   4
ENDBRANCH   2   3
ENDBRANCH   1   2
BRANCH   1   9
ATOM      9  C   UNL     1      17.465   9.344 -15.421  1.00  0.00     0.000 C 
BRANCH   9  10
ATOM     10  C   UNL     1      16.534   8.931 -14.263  1.00  0.00    -0.000 C 
BRANCH  10  11
ATOM     11  C   UNL     1      15.035   8.889 -14.614  1.00  0.00    -0.000 C 
BRANCH  11  12
ATOM     12  C   UNL     1      14.471  10.268 -14.987  1.00  0.00    -0.000 C 
BRANCH  12  13
ATOM     13  C   UNL     1      14.572  11.239 -13.805  1.00  0.00    -0.003 C 
ATOM     14  C   UNL     1      15.475  12.423 -14.139  1.00  0.00     0.004 C 
ENDBRANCH  12  13
ENDBRANCH  11  12
ENDBRANCH  10  11
ENDBRANCH   9  10
ENDBRANCH   1   9
TORSDOF 10
ENDMDL
MODEL 4
REMARK VINA RESULT:    -4.079      2.019      3.011
REMARK INTER + INTRA:          -7.587
REMARK INTER:                  -6.581
REMARK INTRA:                  -1.006
REMARK UNBOUND:                -1.123
REMARK SMILES CCCCCCCCCCCC(=O)[O-]
REMARK SMILES IDX 7 1 8 2 9 3 10 4 11 5 12 6 13 7 14 8 6 9 5 10 4 11 3 12 2 13
REMARK SMILES IDX 1 14
REMARK H PARENT
REMARK Flexibility Score: inf
ROOT
ATOM      1  C   UNL     1      15.710  12.272 -13.908  1.00  0.00     0.000 C 
ENDROOT
BRANCH   1   2
ATOM      2  C   UNL     1      14.446  11.413 -13.757  1.00  0.00     0.000 C 
BRANCH   2   3
ATOM      3  C   UNL     1      14.275  10.475 -14.961  1.00  0.00     0.000 C 
BRANCH   3   4
ATOM      4  C   UNL     1      14.912   9.095 -14.731  1.00  0.00     0.006 C 
BRANCH   4   5
ATOM      5  C   UNL     1      15.977   8.753 -15.780  1.00  0.00     0.053 C 
BRANCH   5   6
ATOM      6  C   UNL     1      17.348   8.903 -15.202  1.00  0.00     0.041 C 
ATOM      7  O   UNL     1      18.364   8.688 -15.914  1.00  0.00    -0.550 OA
ATOM      8  O   UNL     1      17.505   9.234 -13.861  1.00  0.00    -0.550 OA
ENDBRANCH   5   6
ENDBRANCH   4   5
ENDBRANCH   3   4
ENDBRANCH   2   3
ENDBRANCH   1   2
BRANCH   1   9
ATOM      9  C   UNL     1      16.030  12.614 -15.374  1.00  0.00     0.000 C 
BRANCH   9  10
ATOM     10  C   UNL     1      17.531  12.657 -15.723  1.00  0.00    -0.000 C 
BRANCH  10  11
ATOM     11  C   UNL     1      18.484  12.405 -14.540  1.00  0.00    -0.000 C 
BRANCH  11  12
ATOM     12  C   UNL     1      19.770  13.239 -14.622  1.00  0.00    -0.000 C 
BRANCH  12  13
ATOM     13  C   UNL     1      20.715  12.905 -13.463  1.00  0.00    -0.003 C 
ATOM     14  C   UNL     1      22.119  13.444 -13.722  1.00  0.00     0.004 C 
ENDBRANCH  12  13
ENDBRANCH  11  12
ENDBRANCH  10  11
ENDBRANCH   9  10
ENDBRANCH   1   9
TORSDOF 10
ENDMDL
MODEL 5
REMARK VINA RESULT:    -4.071      2.824      5.753
REMARK INTER + INTRA:          -7.574
REMARK INTER:                  -6.503
REMARK INTRA:                  -1.071
REMARK UNBOUND:                -1.123
REMARK SMILES CCCCCCCCCCCC(=O)[O-]
REMARK SMILES IDX 7 1 8 2 9 3 10 4 11 5 12 6 13 7 14 8 6 9 5 10 4 11 3 12 2 13
REMARK SMILES IDX 1 14
REMARK H PARENT
REMARK Flexibility Score: inf
ROOT
ATOM      1  C   UNL     1      16.172  12.535 -15.265  1.00  0.00     0.000 C 
ENDROOT
BRANCH   1   2
ATOM      2  C   UNL     1      17.694  12.327 -15.252  1.00  0.00     0.000 C 
BRANCH   2   3
ATOM      3  C   UNL     1      18.189  12.002 -13.835  1.00  0.00     0.000 C 
BRANCH   3   4
ATOM      4  C   UNL     1      19.709  12.174 -13.686  1.00  0.00     0.006 C 
BRANCH   4   5
ATOM      5  C   UNL     1      20.213  13.504 -14.260  1.00  0.00     0.053 C 
BRANCH   5   6
ATOM      6  C   UNL     1      21.581  13.813 -13.741  1.00  0.00     0.041 C 
ATOM      7  O   UNL     1      21.950  13.365 -12.623  1.00  0.00    -0.550 OA
ATOM      8  O   UNL     1      22.432  14.637 -14.468  1.00  0.00    -0.550 OA
ENDBRANCH   5   6
ENDBRANCH   4   5
ENDBRANCH   3   4
ENDBRANCH   2   3
ENDBRANCH   1   2
BRANCH   1   9
ATOM      9  C   UNL     1      15.541  12.429 -13.866  1.00  0.00     0.000 C 
BRANCH   9  10
ATOM     10  C   UNL     1      14.397  11.403 -13.740  1.00  0.00    -0.000 C 
BRANCH  10  11
ATOM     11  C   UNL     1      14.385  10.303 -14.817  1.00  0.00    -0.000 C 
BRANCH  11  12
ATOM     12  C   UNL     1      15.218   9.074 -14.424  1.00  0.00    -0.000 C 
BRANCH  12  13
ATOM     13  C   UNL     1      15.923   8.476 -15.647  1.00  0.00    -0.003 C 
ATOM     14  C   UNL     1      17.423   8.751 -15.609  1.00  0.00     0.004 C 
ENDBRANCH  12  13
ENDBRANCH  11  12
ENDBRANCH  10  11
ENDBRANCH   9  10
ENDBRANCH   1   9
TORSDOF 10
ENDMDL
MODEL 6
REMARK VINA RESULT:    -3.953      2.732      5.400
REMARK INTER + INTRA:          -7.386
REMARK INTER:                  -6.154
REMARK INTRA:                  -1.232
REMARK UNBOUND:                -1.123
REMARK SMILES CCCCCCCCCCCC(=O)[O-]
REMARK SMILES IDX 7 1 8 2 9 3 10 4 11 5 12 6 13 7 14 8 6 9 5 10 4 11 3 12 2 13
REMARK SMILES IDX 1 14
REMARK H PARENT
REMARK Flexibility Score: inf
ROOT
ATOM      1  C   UNL     1      17.444   9.108 -14.361  1.00  0.00     0.000 C 
ENDROOT
BRANCH   1   2
ATOM      2  C   UNL     1      18.511  10.137 -14.766  1.00  0.00     0.000 C 
BRANCH   2   3
ATOM      3  C   UNL     1      18.926  10.997 -13.564  1.00  0.00     0.000 C 
BRANCH   3   4
ATOM      4  C   UNL     1      19.290  12.436 -13.963  1.00  0.00     0.006 C 
BRANCH   4   5
ATOM      5  C   UNL     1      20.726  12.813 -13.577  1.00  0.00     0.053 C 
BRANCH   5   6
ATOM      6  C   UNL     1      21.700  12.221 -14.546  1.00  0.00     0.041 C 
ATOM      7  O   UNL     1      22.409  11.237 -14.210  1.00  0.00    -0.550 OA
ATOM      8  O   UNL     1      21.860  12.788 -15.804  1.00  0.00    -0.550 OA
ENDBRANCH   5   6
ENDBRANCH   4   5
ENDBRANCH   3   4
ENDBRANCH   2   3
ENDBRANCH   1   2
BRANCH   1   9
ATOM      9  C   UNL     1      16.306   8.990 -15.390  1.00  0.00     0.000 C 
BRANCH   9  10
ATOM     10  C   UNL     1      14.883   9.077 -14.803  1.00  0.00    -0.000 C 
BRANCH  10  11
ATOM     11  C   UNL     1      14.216  10.461 -14.909  1.00  0.00    -0.000 C 
BRANCH  11  12
ATOM     12  C   UNL     1      14.471  11.342 -13.677  1.00  0.00    -0.000 C 
BRANCH  12  13
ATOM     13  C   UNL     1      15.569  12.374 -13.959  1.00  0.00    -0.003 C 
ATOM     14  C   UNL     1      15.655  12.695 -15.449  1.00  0.00     0.004 C 
ENDBRANCH  12  13
ENDBRANCH  11  12
ENDBRANCH  10  11
ENDBRANCH   9  10
ENDBRANCH   1   9
TORSDOF 10
ENDMDL
MODEL 7
REMARK VINA RESULT:    -3.916      1.507      2.936
REMARK INTER + INTRA:          -7.328
REMARK INTER:                  -6.695
REMARK INTRA:                  -0.633
REMARK UNBOUND:                -1.123
REMARK SMILES CCCCCCCCCCCC(=O)[O-]
REMARK SMILES IDX 7 1 8 2 9 3 10 4 11 5 12 6 13 7 14 8 6 9 5 10 4 11 3 12 2 13
REMARK SMILES IDX 1 14
REMARK H PARENT
REMARK Flexibility Score: inf
ROOT
ATOM      1  C   UNL     1      18.764  12.657 -14.636  1.00  0.00     0.000 C 
ENDROOT
BRANCH   1   2
ATOM      2  C   UNL     1      18.624  11.625 -13.507  1.00  0.00     0.000 C 
BRANCH   2   3
ATOM      3  C   UNL     1      18.298  10.235 -14.074  1.00  0.00     0.000 C 
BRANCH   3   4
ATOM      4  C   UNL     1      17.140  10.264 -15.083  1.00  0.00     0.006 C 
BRANCH   4   5
ATOM      5  C   UNL     1      15.774  10.031 -14.424  1.00  0.00     0.053 C 
BRANCH   5   6
ATOM      6  C   UNL     1      14.985  11.301 -14.392  1.00  0.00     0.041 C 
ATOM      7  O   UNL     1      14.079  11.463 -13.533  1.00  0.00    -0.550 OA
ATOM      8  O   UNL     1      15.216  12.287 -15.344  1.00  0.00    -0.550 OA
ENDBRANCH   5   6
ENDBRANCH   4   5
ENDBRANCH   3   4
ENDBRANCH   2   3
ENDBRANCH   1   2
BRANCH   1   9
ATOM      9  C   UNL     1      20.081  13.448 -14.565  1.00  0.00     0.000 C 
BRANCH   9  10
ATOM     10  C   UNL     1      21.009  13.068 -13.393  1.00  0.00    -0.000 C 
BRANCH  10  11
ATOM     11  C   UNL     1      22.351  13.822 -13.352  1.00  0.00    -0.000 C 
BRANCH  11  12
ATOM     12  C   UNL     1      22.399  15.007 -14.327  1.00  0.00    -0.000 C 
BRANCH  12  13
ATOM     13  C   UNL     1      23.105  16.211 -13.692  1.00  0.00    -0.003 C 
ATOM     14  C   UNL     1      22.640  17.519 -14.325  1.00  0.00     0.004 C 
ENDBRANCH  12  13
ENDBRANCH  11  12
ENDBRANCH  10  11
ENDBRANCH   9  10
ENDBRANCH   1   9
TORSDOF 10
ENDMDL
MODEL 8
REMARK VINA RESULT:    -3.886      1.907      2.784
REMARK INTER + INTRA:          -7.280
REMARK INTER:                  -6.191
REMARK INTRA:                  -1.089
REMARK UNBOUND:                -1.123
REMARK SMILES CCCCCCCCCCCC(=O)[O-]
REMARK SMILES IDX 7 1 8 2 9 3 10 4 11 5 12 6 13 7 14 8 6 9 5 10 4 11 3 12 2 13
REMARK SMILES IDX 1 14
REMARK H PARENT
REMARK Flexibility Score: inf
ROOT
ATOM      1  C   UNL     1      18.215  12.291 -14.174  1.00  0.00     0.000 C 
ENDROOT
BRANCH   1   2
ATOM      2  C   UNL     1      17.519  12.391 -15.540  1.00  0.00     0.000 C 
BRANCH   2   3
ATOM      3  C   UNL     1      16.006  12.595 -15.369  1.00  0.00     0.000 C 
BRANCH   3   4
ATOM      4  C   UNL     1      15.531  12.324 -13.932  1.00  0.00     0.006 C 
BRANCH   4   5
ATOM      5  C   UNL     1      14.341  11.358 -13.875  1.00  0.00     0.053 C 
BRANCH   5   6
ATOM      6  C   UNL     1      14.659  10.094 -14.609  1.00  0.00     0.041 C 
ATOM      7  O   UNL     1      13.943   9.728 -15.578  1.00  0.00    -0.550 OA
ATOM      8  O   UNL     1      15.715   9.294 -14.192  1.00  0.00    -0.550 OA
ENDBRANCH   5   6
ENDBRANCH   4   5
ENDBRANCH   3   4
ENDBRANCH   2   3
ENDBRANCH   1   2
BRANCH   1   9
ATOM      9  C   UNL     1      19.321  11.222 -14.143  1.00  0.00     0.000 C 
BRANCH   9  10
ATOM     10  C   UNL     1      20.761  11.769 -14.212  1.00  0.00    -0.000 C 
BRANCH  10  11
ATOM     11  C   UNL     1      21.016  13.044 -13.388  1.00  0.00    -0.000 C 
BRANCH  11  12
ATOM     12  C   UNL     1      21.612  14.186 -14.224  1.00  0.00    -0.000 C 
BRANCH  12  13
ATOM     13  C   UNL     1      21.215  14.050 -15.698  1.00  0.00    -0.003 C 
ATOM     14  C   UNL     1      20.075  15.000 -16.052  1.00  0.00     0.004 C 
ENDBRANCH  12  13
ENDBRANCH  11  12
ENDBRANCH  10  11
ENDBRANCH   9  10
ENDBRANCH   1   9
TORSDOF 10
ENDMDL
MODEL 9
REMARK VINA RESULT:    -3.840      2.097      2.822
REMARK INTER + INTRA:          -7.207
REMARK INTER:                  -6.542
REMARK INTRA:                  -0.665
REMARK UNBOUND:                -1.123
REMARK SMILES CCCCCCCCCCCC(=O)[O-]
REMARK SMILES IDX 7 1 8 2 9 3 10 4 11 5 12 6 13 7 14 8 6 9 5 10 4 11 3 12 2 13
REMARK SMILES IDX 1 14
REMARK H PARENT
REMARK Flexibility Score: inf
ROOT
ATOM      1  C   UNL     1      17.301  12.463 -15.426  1.00  0.00     0.000 C 
ENDROOT
BRANCH   1   2
ATOM      2  C   UNL     1      16.730  12.102 -14.046  1.00  0.00     0.000 C 
BRANCH   2   3
ATOM      3  C   UNL     1      15.204  12.280 -14.022  1.00  0.00     0.000 C 
BRANCH   3   4
ATOM      4  C   UNL     1      14.454  10.942 -13.926  1.00  0.00     0.006 C 
BRANCH   4   5
ATOM      5  C   UNL     1      14.485  10.151 -15.240  1.00  0.00     0.053 C 
BRANCH   5   6
ATOM      6  C   UNL     1      15.244   8.874 -15.062  1.00  0.00     0.041 C 
ATOM      7  O   UNL     1      14.959   8.094 -14.117  1.00  0.00    -0.550 OA
ATOM      8  O   UNL     1      16.300   8.569 -15.912  1.00  0.00    -0.550 OA
ENDBRANCH   5   6
ENDBRANCH   4   5
ENDBRANCH   3   4
ENDBRANCH   2   3
ENDBRANCH   1   2
BRANCH   1   9
ATOM      9  C   UNL     1      18.802  12.154 -15.552  1.00  0.00     0.000 C 
BRANCH   9  10
ATOM     10  C   UNL     1      19.455  11.557 -14.288  1.00  0.00    -0.000 C 
BRANCH  10  11
ATOM     11  C   UNL     1      20.362  12.522 -13.503  1.00  0.00    -0.000 C 
BRANCH  11  12
ATOM     12  C   UNL     1      20.711  13.790 -14.296  1.00  0.00    -0.000 C 
BRANCH  12  13
ATOM     13  C   UNL     1      22.129  14.269 -13.968  1.00  0.00    -0.003 C 
ATOM     14  C   UNL     1      22.677  13.565 -12.730  1.00  0.00     0.004 C 
ENDBRANCH  12  13
ENDBRANCH  11  12
ENDBRANCH  10  11
ENDBRANCH   9  10
ENDBRANCH   1   9
TORSDOF 10
ENDMDL
