MODEL 1
REMARK VINA RESULT:    26.154      0.000      0.000
REMARK INTER + INTRA:          31.211
REMARK INTER:                  31.506
REMARK INTRA:                  -0.295
REMARK UNBOUND:                -0.295
REMARK SMILES Oc1cc(O)c2cc(O)c(-c3ccc(O)c(O)c3)[o+]c2c1
REMARK SMILES IDX 10 1 19 2 20 3 21 4 2 5 3 6 4 7 6 8 7 9 8 10 11 11 12 12
REMARK SMILES IDX 13 13 14 14 18 15 16 16 15 17 17 19 9 21 1 23 5 25
REMARK H PARENT 15 18 17 20 9 22 1 24 5 26
REMARK Flexibility Score: inf
ROOT
ATOM      1  C   UNL     1      -5.843   7.558  16.713  1.00  0.00     0.402 A 
ATOM      2  O   UNL     1      -6.480   7.104  15.637  1.00  0.00    -0.202 OA
ATOM      3  C   UNL     1      -6.718   5.815  15.419  1.00  0.00     0.368 A 
ATOM      4  C   UNL     1      -7.398   5.436  14.258  1.00  0.00     0.162 A 
ATOM      5  C   UNL     1      -7.665   4.087  14.006  1.00  0.00     0.128 A 
ATOM      6  C   UNL     1      -7.251   3.113  14.918  1.00  0.00     0.093 A 
ATOM      7  C   UNL     1      -6.568   3.468  16.089  1.00  0.00     0.136 A 
ATOM      8  C   UNL     1      -6.292   4.836  16.349  1.00  0.00     0.125 A 
ATOM      9  C   UNL     1      -5.603   5.281  17.488  1.00  0.00     0.078 A 
ATOM     10  C   UNL     1      -5.364   6.647  17.673  1.00  0.00     0.223 A 
ENDROOT
BRANCH   1  11
ATOM     11  C   UNL     1      -5.646   9.020  16.847  1.00  0.00     0.087 A 
ATOM     12  C   UNL     1      -4.392   9.577  16.552  1.00  0.00     0.022 A 
ATOM     13  C   UNL     1      -4.190  10.955  16.651  1.00  0.00     0.051 A 
ATOM     14  C   UNL     1      -5.242  11.798  17.033  1.00  0.00     0.157 A 
ATOM     15  C   UNL     1      -6.706   9.872  17.209  1.00  0.00     0.068 A 
ATOM     16  C   UNL     1      -6.503  11.256  17.306  1.00  0.00     0.158 A 
BRANCH  14  17
ATOM     17  O   UNL     1      -5.043  13.174  17.134  1.00  0.00    -0.504 OA
ATOM     18  H   UNL     1      -4.351  13.565  17.762  1.00  0.00     0.293 HD
ENDBRANCH  14  17
BRANCH  16  19
ATOM     19  O   UNL     1      -7.552  12.099  17.672  1.00  0.00    -0.504 OA
ATOM     20  H   UNL     1      -8.447  11.731  17.971  1.00  0.00     0.293 HD
ENDBRANCH  16  19
ENDBRANCH   1  11
BRANCH  10  21
ATOM     21  O   UNL     1      -4.636   7.086  18.779  1.00  0.00    -0.500 OA
ATOM     22  H   UNL     1      -3.905   6.520  19.194  1.00  0.00     0.294 HD
ENDBRANCH  10  21
BRANCH   5  23
ATOM     23  O   UNL     1      -8.342   3.701  12.852  1.00  0.00    -0.507 OA
ATOM     24  H   UNL     1      -9.095   4.260  12.467  1.00  0.00     0.293 HD
ENDBRANCH   5  23
BRANCH   7  25
ATOM     25  O   UNL     1      -6.191   2.435  16.952  1.00  0.00    -0.507 OA
ATOM     26  H   UNL     1      -6.778   2.058  17.683  1.00  0.00     0.293 HD
ENDBRANCH   7  25
TORSDOF 6
ENDMDL
MODEL 2
REMARK VINA RESULT:    26.330      1.120      2.626
REMARK INTER + INTRA:          31.422
REMARK INTER:                  31.760
REMARK INTRA:                  -0.337
REMARK UNBOUND:                -0.295
REMARK SMILES Oc1cc(O)c2cc(O)c(-c3ccc(O)c(O)c3)[o+]c2c1
REMARK SMILES IDX 10 1 19 2 20 3 21 4 2 5 3 6 4 7 6 8 7 9 8 10 11 11 12 12
REMARK SMILES IDX 13 13 14 14 18 15 16 16 15 17 17 19 9 21 1 23 5 25
REMARK H PARENT 15 18 17 20 9 22 1 24 5 26
REMARK Flexibility Score: inf
ROOT
ATOM      1  C   UNL     1      -6.157   7.371  15.998  1.00  0.00     0.402 A 
ATOM      2  O   UNL     1      -5.924   6.372  16.845  1.00  0.00    -0.202 OA
ATOM      3  C   UNL     1      -6.106   5.094  16.533  1.00  0.00     0.368 A 
ATOM      4  C   UNL     1      -5.831   4.114  17.491  1.00  0.00     0.162 A 
ATOM      5  C   UNL     1      -6.010   2.761  17.188  1.00  0.00     0.128 A 
ATOM      6  C   UNL     1      -6.467   2.386  15.922  1.00  0.00     0.093 A 
ATOM      7  C   UNL     1      -6.749   3.348  14.945  1.00  0.00     0.136 A 
ATOM      8  C   UNL     1      -6.571   4.724  15.248  1.00  0.00     0.125 A 
ATOM      9  C   UNL     1      -6.841   5.756  14.336  1.00  0.00     0.078 A 
ATOM     10  C   UNL     1      -6.647   7.090  14.709  1.00  0.00     0.223 A 
ENDROOT
BRANCH   1  11
ATOM     11  C   UNL     1      -5.907   8.756  16.462  1.00  0.00     0.087 A 
ATOM     12  C   UNL     1      -4.622   9.305  16.328  1.00  0.00     0.022 A 
ATOM     13  C   UNL     1      -4.368  10.616  16.739  1.00  0.00     0.051 A 
ATOM     14  C   UNL     1      -5.397  11.401  17.276  1.00  0.00     0.157 A 
ATOM     15  C   UNL     1      -6.943   9.554  16.982  1.00  0.00     0.068 A 
ATOM     16  C   UNL     1      -6.687  10.870  17.392  1.00  0.00     0.158 A 
BRANCH  14  17
ATOM     17  O   UNL     1      -5.146  12.708  17.688  1.00  0.00    -0.504 OA
ATOM     18  H   UNL     1      -5.603  13.105  18.500  1.00  0.00     0.293 HD
ENDBRANCH  14  17
BRANCH  16  19
ATOM     19  O   UNL     1      -7.712  11.658  17.913  1.00  0.00    -0.504 OA
ATOM     20  H   UNL     1      -8.649  11.632  17.527  1.00  0.00     0.293 HD
ENDBRANCH  16  19
ENDBRANCH   1  11
BRANCH  10  21
ATOM     21  O   UNL     1      -6.962   8.119  13.821  1.00  0.00    -0.500 OA
ATOM     22  H   UNL     1      -7.832   8.634  13.891  1.00  0.00     0.294 HD
ENDBRANCH  10  21
BRANCH   5  23
ATOM     23  O   UNL     1      -5.738   1.779  18.138  1.00  0.00    -0.507 OA
ATOM     24  H   UNL     1      -6.365   1.605  18.915  1.00  0.00     0.293 HD
ENDBRANCH   5  23
BRANCH   7  25
ATOM     25  O   UNL     1      -7.198   2.892  13.702  1.00  0.00    -0.507 OA
ATOM     26  H   UNL     1      -7.245   1.919  13.434  1.00  0.00     0.293 HD
ENDBRANCH   7  25
TORSDOF 6
ENDMDL
MODEL 3
REMARK VINA RESULT:    27.055     10.541     12.023
REMARK INTER + INTRA:          32.295
REMARK INTER:                  31.900
REMARK INTRA:                   0.395
REMARK UNBOUND:                -0.295
REMARK SMILES Oc1cc(O)c2cc(O)c(-c3ccc(O)c(O)c3)[o+]c2c1
REMARK SMILES IDX 10 1 19 2 20 3 21 4 2 5 3 6 4 7 6 8 7 9 8 10 11 11 12 12
REMARK SMILES IDX 13 13 14 14 18 15 16 16 15 17 17 19 9 21 1 23 5 25
REMARK H PARENT 15 18 17 20 9 22 1 24 5 26
REMARK Flexibility Score: inf
ROOT
ATOM      1  C   UNL     1      -5.889  -2.393  12.933  1.00  0.00     0.402 A 
ATOM      2  O   UNL     1      -4.883  -3.025  13.530  1.00  0.00    -0.202 OA
ATOM      3  C   UNL     1      -3.611  -2.867  13.180  1.00  0.00     0.368 A 
ATOM      4  C   UNL     1      -2.623  -3.574  13.870  1.00  0.00     0.162 A 
ATOM      5  C   UNL     1      -1.276  -3.424  13.525  1.00  0.00     0.128 A 
ATOM      6  C   UNL     1      -0.917  -2.563  12.485  1.00  0.00     0.093 A 
ATOM      7  C   UNL     1      -1.889  -1.843  11.778  1.00  0.00     0.136 A 
ATOM      8  C   UNL     1      -3.257  -1.994  12.123  1.00  0.00     0.125 A 
ATOM      9  C   UNL     1      -4.298  -1.323  11.462  1.00  0.00     0.078 A 
ATOM     10  C   UNL     1      -5.625  -1.527  11.856  1.00  0.00     0.223 A 
ENDROOT
BRANCH   1  11
ATOM     11  C   UNL     1      -7.265  -2.646  13.421  1.00  0.00     0.087 A 
ATOM     12  C   UNL     1      -8.355  -2.388  12.576  1.00  0.00     0.022 A 
ATOM     13  C   UNL     1      -9.660  -2.639  13.008  1.00  0.00     0.051 A 
ATOM     14  C   UNL     1      -9.892  -3.164  14.285  1.00  0.00     0.157 A 
ATOM     15  C   UNL     1      -7.501  -3.194  14.696  1.00  0.00     0.068 A 
ATOM     16  C   UNL     1      -8.811  -3.447  15.129  1.00  0.00     0.158 A 
BRANCH  14  17
ATOM     17  O   UNL     1     -11.192  -3.414  14.720  1.00  0.00    -0.504 OA
ATOM     18  H   UNL     1     -11.693  -4.250  14.444  1.00  0.00     0.293 HD
ENDBRANCH  14  17
BRANCH  16  19
ATOM     19  O   UNL     1      -9.044  -3.984  16.394  1.00  0.00    -0.504 OA
ATOM     20  H   UNL     1      -9.865  -4.546  16.588  1.00  0.00     0.293 HD
ENDBRANCH  16  19
ENDBRANCH   1  11
BRANCH  10  21
ATOM     21  O   UNL     1      -6.664  -0.900  11.167  1.00  0.00    -0.500 OA
ATOM     22  H   UNL     1      -7.620  -0.935  11.499  1.00  0.00     0.294 HD
ENDBRANCH  10  21
BRANCH   5  23
ATOM     23  O   UNL     1      -0.286  -4.125  14.208  1.00  0.00    -0.507 OA
ATOM     24  H   UNL     1       0.481  -3.647  14.667  1.00  0.00     0.293 HD
ENDBRANCH   5  23
BRANCH   7  25
ATOM     25  O   UNL     1      -1.447  -1.000  10.754  1.00  0.00    -0.507 OA
ATOM     26  H   UNL     1      -2.026  -0.674   9.994  1.00  0.00     0.293 HD
ENDBRANCH   7  25
TORSDOF 6
ENDMDL
MODEL 4
REMARK VINA RESULT:    28.044      5.206      8.442
REMARK INTER + INTRA:          33.487
REMARK INTER:                  33.178
REMARK INTRA:                   0.309
REMARK UNBOUND:                -0.295
REMARK SMILES Oc1cc(O)c2cc(O)c(-c3ccc(O)c(O)c3)[o+]c2c1
REMARK SMILES IDX 10 1 19 2 20 3 21 4 2 5 3 6 4 7 6 8 7 9 8 10 11 11 12 12
REMARK SMILES IDX 13 13 14 14 18 15 16 16 15 17 17 19 9 21 1 23 5 25
REMARK H PARENT 15 18 17 20 9 22 1 24 5 26
REMARK Flexibility Score: inf
ROOT
ATOM      1  C   UNL     1     -10.347   8.432  19.323  1.00  0.00     0.402 A 
ATOM      2  O   UNL     1     -11.023   9.376  18.673  1.00  0.00    -0.202 OA
ATOM      3  C   UNL     1     -10.474  10.512  18.257  1.00  0.00     0.368 A 
ATOM      4  C   UNL     1     -11.266  11.443  17.580  1.00  0.00     0.162 A 
ATOM      5  C   UNL     1     -10.713  12.645  17.128  1.00  0.00     0.128 A 
ATOM      6  C   UNL     1      -9.361  12.916  17.354  1.00  0.00     0.093 A 
ATOM      7  C   UNL     1      -8.546  11.999  18.029  1.00  0.00     0.136 A 
ATOM      8  C   UNL     1      -9.104  10.779  18.493  1.00  0.00     0.125 A 
ATOM      9  C   UNL     1      -8.366   9.809  19.189  1.00  0.00     0.078 A 
ATOM     10  C   UNL     1      -8.986   8.632  19.620  1.00  0.00     0.223 A 
ENDROOT
BRANCH   1  11
ATOM     11  C   UNL     1     -11.071   7.205  19.727  1.00  0.00     0.087 A 
ATOM     12  C   UNL     1     -12.197   6.795  18.996  1.00  0.00     0.022 A 
ATOM     13  C   UNL     1     -12.882   5.629  19.346  1.00  0.00     0.051 A 
ATOM     14  C   UNL     1     -12.443   4.849  20.423  1.00  0.00     0.157 A 
ATOM     15  C   UNL     1     -10.620   6.406  20.795  1.00  0.00     0.068 A 
ATOM     16  C   UNL     1     -11.307   5.235  21.145  1.00  0.00     0.158 A 
BRANCH  14  17
ATOM     17  O   UNL     1     -13.125   3.686  20.777  1.00  0.00    -0.504 OA
ATOM     18  H   UNL     1     -14.052   3.718  21.184  1.00  0.00     0.293 HD
ENDBRANCH  14  17
BRANCH  16  19
ATOM     19  O   UNL     1     -10.864   4.448  22.207  1.00  0.00    -0.504 OA
ATOM     20  H   UNL     1     -11.499   3.856  22.729  1.00  0.00     0.293 HD
ENDBRANCH  16  19
ENDBRANCH   1  11
BRANCH  10  21
ATOM     21  O   UNL     1      -8.266   7.690  20.355  1.00  0.00    -0.500 OA
ATOM     22  H   UNL     1      -8.728   7.033  20.974  1.00  0.00     0.294 HD
ENDBRANCH  10  21
BRANCH   5  23
ATOM     23  O   UNL     1     -11.496  13.577  16.453  1.00  0.00    -0.507 OA
ATOM     24  H   UNL     1     -12.183  14.143  16.938  1.00  0.00     0.293 HD
ENDBRANCH   5  23
BRANCH   7  25
ATOM     25  O   UNL     1      -7.203  12.344  18.211  1.00  0.00    -0.507 OA
ATOM     26  H   UNL     1      -6.779  13.192  17.863  1.00  0.00     0.293 HD
ENDBRANCH   7  25
TORSDOF 6
ENDMDL
