MODEL 1
REMARK VINA RESULT:    -4.784      0.000      0.000
REMARK INTER + INTRA:         -10.010
REMARK INTER:                  -8.420
REMARK INTRA:                  -1.589
REMARK UNBOUND:                -1.589
REMARK SMILES CCCCCCCCCCCCCCC(=O)[O-]
REMARK SMILES IDX 9 1 10 2 11 3 12 4 13 5 14 6 15 7 16 8 17 9 8 10 7 11 6 12
REMARK SMILES IDX 5 13 4 14 3 15 2 16 1 17
REMARK H PARENT
REMARK Flexibility Score: inf
ROOT
ATOM      1  C   UNL     1      11.498   1.839  39.231  1.00  0.00     0.000 C 
ENDROOT
BRANCH   1   2
ATOM      2  C   UNL     1      12.435   2.308  38.108  1.00  0.00     0.000 C 
BRANCH   2   3
ATOM      3  C   UNL     1      11.685   3.005  36.963  1.00  0.00     0.000 C 
BRANCH   3   4
ATOM      4  C   UNL     1      10.752   4.120  37.458  1.00  0.00     0.000 C 
BRANCH   4   5
ATOM      5  C   UNL     1      11.540   5.201  38.213  1.00  0.00     0.006 C 
BRANCH   5   6
ATOM      6  C   UNL     1      10.619   6.210  38.912  1.00  0.00     0.053 C 
BRANCH   6   7
ATOM      7  C   UNL     1      11.248   6.768  40.152  1.00  0.00     0.041 C 
ATOM      8  O   UNL     1      12.408   6.414  40.490  1.00  0.00    -0.550 OA
ATOM      9  O   UNL     1      10.564   7.703  40.918  1.00  0.00    -0.550 OA
ENDBRANCH   6   7
ENDBRANCH   5   6
ENDBRANCH   4   5
ENDBRANCH   3   4
ENDBRANCH   2   3
ENDBRANCH   1   2
BRANCH   1  10
ATOM     10  C   UNL     1      11.959   2.376  40.591  1.00  0.00     0.000 C 
BRANCH  10  11
ATOM     11  C   UNL     1      13.443   2.768  40.554  1.00  0.00    -0.000 C 
BRANCH  11  12
ATOM     12  C   UNL     1      14.292   2.008  41.589  1.00  0.00    -0.000 C 
BRANCH  12  13
ATOM     13  C   UNL     1      13.496   1.088  42.533  1.00  0.00    -0.000 C 
BRANCH  13  14
ATOM     14  C   UNL     1      13.909  -0.387  42.422  1.00  0.00    -0.000 C 
BRANCH  14  15
ATOM     15  C   UNL     1      12.818  -1.212  41.729  1.00  0.00    -0.000 C 
BRANCH  15  16
ATOM     16  C   UNL     1      11.422  -0.735  42.140  1.00  0.00    -0.003 C 
ATOM     17  C   UNL     1      10.367  -1.180  41.131  1.00  0.00     0.004 C 
ENDBRANCH  15  16
ENDBRANCH  14  15
ENDBRANCH  13  14
ENDBRANCH  12  13
ENDBRANCH  11  12
ENDBRANCH  10  11
ENDBRANCH   1  10
TORSDOF 13
ENDMDL
MODEL 2
REMARK VINA RESULT:    -4.782     11.734     13.232
REMARK INTER + INTRA:         -10.006
REMARK INTER:                  -8.326
REMARK INTRA:                  -1.680
REMARK UNBOUND:                -1.589
REMARK SMILES CCCCCCCCCCCCCCC(=O)[O-]
REMARK SMILES IDX 9 1 10 2 11 3 12 4 13 5 14 6 15 7 16 8 17 9 8 10 7 11 6 12
REMARK SMILES IDX 5 13 4 14 3 15 2 16 1 17
REMARK H PARENT
REMARK Flexibility Score: inf
ROOT
ATOM      1  C   UNL     1      20.524  -3.426  34.657  1.00  0.00     0.000 C 
ENDROOT
BRANCH   1   2
ATOM      2  C   UNL     1      22.001  -3.665  35.004  1.00  0.00     0.000 C 
BRANCH   2   3
ATOM      3  C   UNL     1      22.466  -2.844  36.217  1.00  0.00     0.000 C 
BRANCH   3   4
ATOM      4  C   UNL     1      23.057  -1.483  35.820  1.00  0.00     0.000 C 
BRANCH   4   5
ATOM      5  C   UNL     1      22.031  -0.358  36.024  1.00  0.00     0.006 C 
BRANCH   5   6
ATOM      6  C   UNL     1      21.767   0.429  34.733  1.00  0.00     0.053 C 
BRANCH   6   7
ATOM      7  C   UNL     1      22.298   1.827  34.818  1.00  0.00     0.041 C 
ATOM      8  O   UNL     1      23.419   2.112  34.320  1.00  0.00    -0.550 OA
ATOM      9  O   UNL     1      21.539   2.824  35.418  1.00  0.00    -0.550 OA
ENDBRANCH   6   7
ENDBRANCH   5   6
ENDBRANCH   4   5
ENDBRANCH   3   4
ENDBRANCH   2   3
ENDBRANCH   1   2
BRANCH   1  10
ATOM     10  C   UNL     1      20.387  -2.703  33.312  1.00  0.00     0.000 C 
BRANCH  10  11
ATOM     11  C   UNL     1      19.065  -3.070  32.621  1.00  0.00    -0.000 C 
BRANCH  11  12
ATOM     12  C   UNL     1      19.270  -3.797  31.280  1.00  0.00    -0.000 C 
BRANCH  12  13
ATOM     13  C   UNL     1      18.821  -5.270  31.262  1.00  0.00    -0.000 C 
BRANCH  13  14
ATOM     14  C   UNL     1      19.997  -6.255  31.198  1.00  0.00    -0.000 C 
BRANCH  14  15
ATOM     15  C   UNL     1      21.304  -5.529  30.856  1.00  0.00    -0.000 C 
BRANCH  15  16
ATOM     16  C   UNL     1      22.365  -5.767  31.936  1.00  0.00    -0.003 C 
ATOM     17  C   UNL     1      21.877  -6.769  32.978  1.00  0.00     0.004 C 
ENDBRANCH  15  16
ENDBRANCH  14  15
ENDBRANCH  13  14
ENDBRANCH  12  13
ENDBRANCH  11  12
ENDBRANCH  10  11
ENDBRANCH   1  10
TORSDOF 13
ENDMDL
MODEL 3
REMARK VINA RESULT:    -4.779     12.691     14.302
REMARK INTER + INTRA:         -10.001
REMARK INTER:                  -7.565
REMARK INTRA:                  -2.436
REMARK UNBOUND:                -1.589
REMARK SMILES CCCCCCCCCCCCCCC(=O)[O-]
REMARK SMILES IDX 9 1 10 2 11 3 12 4 13 5 14 6 15 7 16 8 17 9 8 10 7 11 6 12
REMARK SMILES IDX 5 13 4 14 3 15 2 16 1 17
REMARK H PARENT
REMARK Flexibility Score: inf
ROOT
ATOM      1  C   UNL     1      20.600  -6.497  30.868  1.00  0.00     0.000 C 
ENDROOT
BRANCH   1   2
ATOM      2  C   UNL     1      22.041  -5.988  31.016  1.00  0.00     0.000 C 
BRANCH   2   3
ATOM      3  C   UNL     1      22.608  -6.212  32.427  1.00  0.00     0.000 C 
BRANCH   3   4
ATOM      4  C   UNL     1      21.534  -6.655  33.432  1.00  0.00     0.000 C 
BRANCH   4   5
ATOM      5  C   UNL     1      21.541  -5.754  34.676  1.00  0.00     0.006 C 
BRANCH   5   6
ATOM      6  C   UNL     1      21.883  -4.297  34.336  1.00  0.00     0.053 C 
BRANCH   6   7
ATOM      7  C   UNL     1      22.655  -3.637  35.437  1.00  0.00     0.041 C 
ATOM      8  O   UNL     1      22.800  -2.386  35.450  1.00  0.00    -0.550 OA
ATOM      9  O   UNL     1      23.187  -4.401  36.468  1.00  0.00    -0.550 OA
ENDBRANCH   6   7
ENDBRANCH   5   6
ENDBRANCH   4   5
ENDBRANCH   3   4
ENDBRANCH   2   3
ENDBRANCH   1   2
BRANCH   1  10
ATOM     10  C   UNL     1      19.668  -5.375  30.393  1.00  0.00     0.000 C 
BRANCH  10  11
ATOM     11  C   UNL     1      19.978  -4.058  31.118  1.00  0.00    -0.000 C 
BRANCH  11  12
ATOM     12  C   UNL     1      18.809  -3.562  31.989  1.00  0.00    -0.000 C 
BRANCH  12  13
ATOM     13  C   UNL     1      17.756  -4.631  32.333  1.00  0.00    -0.000 C 
BRANCH  13  14
ATOM     14  C   UNL     1      17.773  -5.034  33.815  1.00  0.00    -0.000 C 
BRANCH  14  15
ATOM     15  C   UNL     1      17.886  -6.556  33.968  1.00  0.00    -0.000 C 
BRANCH  15  16
ATOM     16  C   UNL     1      17.435  -7.273  32.691  1.00  0.00    -0.003 C 
ATOM     17  C   UNL     1      18.081  -8.650  32.574  1.00  0.00     0.004 C 
ENDBRANCH  15  16
ENDBRANCH  14  15
ENDBRANCH  13  14
ENDBRANCH  12  13
ENDBRANCH  11  12
ENDBRANCH  10  11
ENDBRANCH   1  10
TORSDOF 13
ENDMDL
MODEL 4
REMARK VINA RESULT:    -4.772     11.554     12.782
REMARK INTER + INTRA:          -9.987
REMARK INTER:                  -8.033
REMARK INTRA:                  -1.955
REMARK UNBOUND:                -1.589
REMARK SMILES CCCCCCCCCCCCCCC(=O)[O-]
REMARK SMILES IDX 9 1 10 2 11 3 12 4 13 5 14 6 15 7 16 8 17 9 8 10 7 11 6 12
REMARK SMILES IDX 5 13 4 14 3 15 2 16 1 17
REMARK H PARENT
REMARK Flexibility Score: inf
ROOT
ATOM      1  C   UNL     1      18.805  -4.713  30.824  1.00  0.00     0.000 C 
ENDROOT
BRANCH   1   2
ATOM      2  C   UNL     1      19.654  -3.546  31.350  1.00  0.00     0.000 C 
BRANCH   2   3
ATOM      3  C   UNL     1      19.165  -3.021  32.709  1.00  0.00     0.000 C 
BRANCH   3   4
ATOM      4  C   UNL     1      17.653  -3.205  32.905  1.00  0.00     0.000 C 
BRANCH   4   5
ATOM      5  C   UNL     1      17.198  -2.618  34.250  1.00  0.00     0.006 C 
BRANCH   5   6
ATOM      6  C   UNL     1      17.051  -1.091  34.197  1.00  0.00     0.053 C 
BRANCH   6   7
ATOM      7  C   UNL     1      15.770  -0.680  33.538  1.00  0.00     0.041 C 
ATOM      8  O   UNL     1      15.789   0.069  32.525  1.00  0.00    -0.550 OA
ATOM      9  O   UNL     1      14.557  -1.150  34.023  1.00  0.00    -0.550 OA
ENDBRANCH   6   7
ENDBRANCH   5   6
ENDBRANCH   4   5
ENDBRANCH   3   4
ENDBRANCH   2   3
ENDBRANCH   1   2
BRANCH   1  10
ATOM     10  C   UNL     1      19.691  -5.800  30.204  1.00  0.00     0.000 C 
BRANCH  10  11
ATOM     11  C   UNL     1      21.158  -5.352  30.153  1.00  0.00    -0.000 C 
BRANCH  11  12
ATOM     12  C   UNL     1      22.093  -6.261  30.971  1.00  0.00    -0.000 C 
BRANCH  12  13
ATOM     13  C   UNL     1      22.685  -5.615  32.237  1.00  0.00    -0.000 C 
BRANCH  13  14
ATOM     14  C   UNL     1      21.779  -5.766  33.468  1.00  0.00    -0.000 C 
BRANCH  14  15
ATOM     15  C   UNL     1      21.033  -7.106  33.439  1.00  0.00    -0.000 C 
BRANCH  15  16
ATOM     16  C   UNL     1      19.541  -6.910  33.727  1.00  0.00    -0.003 C 
ATOM     17  C   UNL     1      18.696  -7.947  32.993  1.00  0.00     0.004 C 
ENDBRANCH  15  16
ENDBRANCH  14  15
ENDBRANCH  13  14
ENDBRANCH  12  13
ENDBRANCH  11  12
ENDBRANCH  10  11
ENDBRANCH   1  10
TORSDOF 13
ENDMDL
MODEL 5
REMARK VINA RESULT:    -4.710     12.491     14.206
REMARK INTER + INTRA:          -9.879
REMARK INTER:                  -8.864
REMARK INTRA:                  -1.015
REMARK UNBOUND:                -1.589
REMARK SMILES CCCCCCCCCCCCCCC(=O)[O-]
REMARK SMILES IDX 9 1 10 2 11 3 12 4 13 5 14 6 15 7 16 8 17 9 8 10 7 11 6 12
REMARK SMILES IDX 5 13 4 14 3 15 2 16 1 17
REMARK H PARENT
REMARK Flexibility Score: inf
ROOT
ATOM      1  C   UNL     1      21.850  -4.587  34.171  1.00  0.00     0.000 C 
ENDROOT
BRANCH   1   2
ATOM      2  C   UNL     1      21.682  -5.905  33.399  1.00  0.00     0.000 C 
BRANCH   2   3
ATOM      3  C   UNL     1      22.730  -6.080  32.289  1.00  0.00     0.000 C 
BRANCH   3   4
ATOM      4  C   UNL     1      22.121  -5.996  30.881  1.00  0.00     0.000 C 
BRANCH   4   5
ATOM      5  C   UNL     1      20.645  -6.421  30.895  1.00  0.00     0.006 C 
BRANCH   5   6
ATOM      6  C   UNL     1      19.744  -5.418  30.161  1.00  0.00     0.053 C 
BRANCH   6   7
ATOM      7  C   UNL     1      19.182  -4.390  31.094  1.00  0.00     0.041 C 
ATOM      8  O   UNL     1      19.555  -3.189  31.016  1.00  0.00    -0.550 OA
ATOM      9  O   UNL     1      18.222  -4.752  32.030  1.00  0.00    -0.550 OA
ENDBRANCH   6   7
ENDBRANCH   5   6
ENDBRANCH   4   5
ENDBRANCH   3   4
ENDBRANCH   2   3
ENDBRANCH   1   2
BRANCH   1  10
ATOM     10  C   UNL     1      21.759  -4.822  35.684  1.00  0.00     0.000 C 
BRANCH  10  11
ATOM     11  C   UNL     1      22.749  -3.925  36.441  1.00  0.00    -0.000 C 
BRANCH  11  12
ATOM     12  C   UNL     1      23.306  -2.781  35.575  1.00  0.00    -0.000 C 
BRANCH  12  13
ATOM     13  C   UNL     1      22.965  -1.364  36.072  1.00  0.00    -0.000 C 
BRANCH  13  14
ATOM     14  C   UNL     1      21.921  -0.656  35.197  1.00  0.00    -0.000 C 
BRANCH  14  15
ATOM     15  C   UNL     1      21.549   0.712  35.782  1.00  0.00    -0.000 C 
BRANCH  15  16
ATOM     16  C   UNL     1      21.768   1.828  34.755  1.00  0.00    -0.003 C 
ATOM     17  C   UNL     1      23.253   2.033  34.472  1.00  0.00     0.004 C 
ENDBRANCH  15  16
ENDBRANCH  14  15
ENDBRANCH  13  14
ENDBRANCH  12  13
ENDBRANCH  11  12
ENDBRANCH  10  11
ENDBRANCH   1  10
TORSDOF 13
ENDMDL
MODEL 6
REMARK VINA RESULT:    -4.691     12.808     14.386
REMARK INTER + INTRA:          -9.846
REMARK INTER:                  -7.908
REMARK INTRA:                  -1.938
REMARK UNBOUND:                -1.589
REMARK SMILES CCCCCCCCCCCCCCC(=O)[O-]
REMARK SMILES IDX 9 1 10 2 11 3 12 4 13 5 14 6 15 7 16 8 17 9 8 10 7 11 6 12
REMARK SMILES IDX 5 13 4 14 3 15 2 16 1 17
REMARK H PARENT
REMARK Flexibility Score: inf
ROOT
ATOM      1  C   UNL     1      19.869  -4.793  33.988  1.00  0.00     0.000 C 
ENDROOT
BRANCH   1   2
ATOM      2  C   UNL     1      20.963  -5.866  34.088  1.00  0.00     0.000 C 
BRANCH   2   3
ATOM      3  C   UNL     1      22.268  -5.450  33.392  1.00  0.00     0.000 C 
BRANCH   3   4
ATOM      4  C   UNL     1      22.606  -6.340  32.187  1.00  0.00     0.000 C 
BRANCH   4   5
ATOM      5  C   UNL     1      22.265  -5.632  30.868  1.00  0.00     0.006 C 
BRANCH   5   6
ATOM      6  C   UNL     1      21.208  -6.392  30.056  1.00  0.00     0.053 C 
BRANCH   6   7
ATOM      7  C   UNL     1      19.827  -6.164  30.592  1.00  0.00     0.041 C 
ATOM      8  O   UNL     1      19.210  -7.096  31.173  1.00  0.00    -0.550 OA
ATOM      9  O   UNL     1      19.236  -4.912  30.479  1.00  0.00    -0.550 OA
ENDBRANCH   6   7
ENDBRANCH   5   6
ENDBRANCH   4   5
ENDBRANCH   3   4
ENDBRANCH   2   3
ENDBRANCH   1   2
BRANCH   1  10
ATOM     10  C   UNL     1      20.464  -3.438  33.586  1.00  0.00     0.000 C 
BRANCH  10  11
ATOM     11  C   UNL     1      20.285  -2.404  34.707  1.00  0.00    -0.000 C 
BRANCH  11  12
ATOM     12  C   UNL     1      21.170  -1.158  34.521  1.00  0.00    -0.000 C 
BRANCH  12  13
ATOM     13  C   UNL     1      22.277  -0.983  35.577  1.00  0.00    -0.000 C 
BRANCH  13  14
ATOM     14  C   UNL     1      23.154  -2.232  35.740  1.00  0.00    -0.000 C 
BRANCH  14  15
ATOM     15  C   UNL     1      23.064  -2.784  37.168  1.00  0.00    -0.000 C 
BRANCH  15  16
ATOM     16  C   UNL     1      22.366  -4.148  37.188  1.00  0.00    -0.003 C 
ATOM     17  C   UNL     1      23.373  -5.286  37.053  1.00  0.00     0.004 C 
ENDBRANCH  15  16
ENDBRANCH  14  15
ENDBRANCH  13  14
ENDBRANCH  12  13
ENDBRANCH  11  12
ENDBRANCH  10  11
ENDBRANCH   1  10
TORSDOF 13
ENDMDL
MODEL 7
REMARK VINA RESULT:    -4.675     12.682     14.342
REMARK INTER + INTRA:          -9.817
REMARK INTER:                  -7.558
REMARK INTRA:                  -2.259
REMARK UNBOUND:                -1.589
REMARK SMILES CCCCCCCCCCCCCCC(=O)[O-]
REMARK SMILES IDX 9 1 10 2 11 3 12 4 13 5 14 6 15 7 16 8 17 9 8 10 7 11 6 12
REMARK SMILES IDX 5 13 4 14 3 15 2 16 1 17
REMARK H PARENT
REMARK Flexibility Score: inf
ROOT
ATOM      1  C   UNL     1      18.748  -3.579  32.792  1.00  0.00     0.000 C 
ENDROOT
BRANCH   1   2
ATOM      2  C   UNL     1      19.992  -2.680  32.846  1.00  0.00     0.000 C 
BRANCH   2   3
ATOM      3  C   UNL     1      20.427  -2.356  34.284  1.00  0.00     0.000 C 
BRANCH   3   4
ATOM      4  C   UNL     1      20.773  -3.613  35.096  1.00  0.00     0.000 C 
BRANCH   4   5
ATOM      5  C   UNL     1      22.294  -3.766  35.250  1.00  0.00     0.006 C 
BRANCH   5   6
ATOM      6  C   UNL     1      22.673  -5.011  36.063  1.00  0.00     0.053 C 
BRANCH   6   7
ATOM      7  C   UNL     1      23.548  -4.667  37.229  1.00  0.00     0.041 C 
ATOM      8  O   UNL     1      24.477  -5.442  37.577  1.00  0.00    -0.550 OA
ATOM      9  O   UNL     1      23.357  -3.472  37.912  1.00  0.00    -0.550 OA
ENDBRANCH   6   7
ENDBRANCH   5   6
ENDBRANCH   4   5
ENDBRANCH   3   4
ENDBRANCH   2   3
ENDBRANCH   1   2
BRANCH   1  10
ATOM     10  C   UNL     1      18.658  -4.311  31.447  1.00  0.00     0.000 C 
BRANCH  10  11
ATOM     11  C   UNL     1      19.981  -4.207  30.674  1.00  0.00    -0.000 C 
BRANCH  11  12
ATOM     12  C   UNL     1      20.441  -5.553  30.087  1.00  0.00    -0.000 C 
BRANCH  12  13
ATOM     13  C   UNL     1      21.787  -6.072  30.626  1.00  0.00    -0.000 C 
BRANCH  13  14
ATOM     14  C   UNL     1      22.000  -5.754  32.113  1.00  0.00    -0.000 C 
BRANCH  14  15
ATOM     15  C   UNL     1      21.706  -6.981  32.985  1.00  0.00    -0.000 C 
BRANCH  15  16
ATOM     16  C   UNL     1      20.337  -6.859  33.662  1.00  0.00    -0.003 C 
ATOM     17  C   UNL     1      19.278  -7.666  32.917  1.00  0.00     0.004 C 
ENDBRANCH  15  16
ENDBRANCH  14  15
ENDBRANCH  13  14
ENDBRANCH  12  13
ENDBRANCH  11  12
ENDBRANCH  10  11
ENDBRANCH   1  10
TORSDOF 13
ENDMDL
MODEL 8
REMARK VINA RESULT:    -4.666     12.283     13.956
REMARK INTER + INTRA:          -9.802
REMARK INTER:                  -7.765
REMARK INTRA:                  -2.037
REMARK UNBOUND:                -1.589
REMARK SMILES CCCCCCCCCCCCCCC(=O)[O-]
REMARK SMILES IDX 9 1 10 2 11 3 12 4 13 5 14 6 15 7 16 8 17 9 8 10 7 11 6 12
REMARK SMILES IDX 5 13 4 14 3 15 2 16 1 17
REMARK H PARENT
REMARK Flexibility Score: inf
ROOT
ATOM      1  C   UNL     1      22.451  -6.505  32.439  1.00  0.00     0.000 C 
ENDROOT
BRANCH   1   2
ATOM      2  C   UNL     1      21.217  -6.934  33.246  1.00  0.00     0.000 C 
BRANCH   2   3
ATOM      3  C   UNL     1      21.036  -6.115  34.534  1.00  0.00     0.000 C 
BRANCH   3   4
ATOM      4  C   UNL     1      22.248  -5.225  34.845  1.00  0.00     0.000 C 
BRANCH   4   5
ATOM      5  C   UNL     1      21.877  -3.738  34.747  1.00  0.00     0.006 C 
BRANCH   5   6
ATOM      6  C   UNL     1      22.856  -2.842  35.518  1.00  0.00     0.053 C 
BRANCH   6   7
ATOM      7  C   UNL     1      22.407  -1.413  35.533  1.00  0.00     0.041 C 
ATOM      8  O   UNL     1      22.995  -0.570  36.259  1.00  0.00    -0.550 OA
ATOM      9  O   UNL     1      21.357  -1.006  34.719  1.00  0.00    -0.550 OA
ENDBRANCH   6   7
ENDBRANCH   5   6
ENDBRANCH   4   5
ENDBRANCH   3   4
ENDBRANCH   2   3
ENDBRANCH   1   2
BRANCH   1  10
ATOM     10  C   UNL     1      22.042  -5.874  31.103  1.00  0.00     0.000 C 
BRANCH  10  11
ATOM     11  C   UNL     1      20.607  -6.270  30.724  1.00  0.00    -0.000 C 
BRANCH  11  12
ATOM     12  C   UNL     1      19.679  -5.056  30.538  1.00  0.00    -0.000 C 
BRANCH  12  13
ATOM     13  C   UNL     1      19.895  -3.911  31.544  1.00  0.00    -0.000 C 
BRANCH  13  14
ATOM     14  C   UNL     1      18.625  -3.555  32.330  1.00  0.00    -0.000 C 
BRANCH  14  15
ATOM     15  C   UNL     1      17.567  -4.657  32.192  1.00  0.00    -0.000 C 
BRANCH  15  16
ATOM     16  C   UNL     1      17.522  -5.537  33.445  1.00  0.00    -0.003 C 
ATOM     17  C   UNL     1      17.487  -7.018  33.077  1.00  0.00     0.004 C 
ENDBRANCH  15  16
ENDBRANCH  14  15
ENDBRANCH  13  14
ENDBRANCH  12  13
ENDBRANCH  11  12
ENDBRANCH  10  11
ENDBRANCH   1  10
TORSDOF 13
ENDMDL
MODEL 9
REMARK VINA RESULT:    -4.628     12.329     13.705
REMARK INTER + INTRA:          -9.734
REMARK INTER:                  -7.580
REMARK INTRA:                  -2.154
REMARK UNBOUND:                -1.589
REMARK SMILES CCCCCCCCCCCCCCC(=O)[O-]
REMARK SMILES IDX 9 1 10 2 11 3 12 4 13 5 14 6 15 7 16 8 17 9 8 10 7 11 6 12
REMARK SMILES IDX 5 13 4 14 3 15 2 16 1 17
REMARK H PARENT
REMARK Flexibility Score: inf
ROOT
ATOM      1  C   UNL     1      19.616  -4.843  30.616  1.00  0.00     0.000 C 
ENDROOT
BRANCH   1   2
ATOM      2  C   UNL     1      19.548  -3.475  31.310  1.00  0.00     0.000 C 
BRANCH   2   3
ATOM      3  C   UNL     1      18.560  -3.455  32.487  1.00  0.00     0.000 C 
BRANCH   3   4
ATOM      4  C   UNL     1      19.125  -2.738  33.723  1.00  0.00     0.000 C 
BRANCH   4   5
ATOM      5  C   UNL     1      20.654  -2.625  33.640  1.00  0.00     0.006 C 
BRANCH   5   6
ATOM      6  C   UNL     1      21.355  -3.360  34.791  1.00  0.00     0.053 C 
BRANCH   6   7
ATOM      7  C   UNL     1      22.377  -2.494  35.461  1.00  0.00     0.041 C 
ATOM      8  O   UNL     1      22.244  -1.242  35.467  1.00  0.00    -0.550 OA
ATOM      9  O   UNL     1      23.462  -3.073  36.108  1.00  0.00    -0.550 OA
ENDBRANCH   6   7
ENDBRANCH   5   6
ENDBRANCH   4   5
ENDBRANCH   3   4
ENDBRANCH   2   3
ENDBRANCH   1   2
BRANCH   1  10
ATOM     10  C   UNL     1      20.980  -5.052  29.947  1.00  0.00     0.000 C 
BRANCH  10  11
ATOM     11  C   UNL     1      21.781  -6.149  30.663  1.00  0.00    -0.000 C 
BRANCH  11  12
ATOM     12  C   UNL     1      22.035  -5.836  32.148  1.00  0.00    -0.000 C 
BRANCH  12  13
ATOM     13  C   UNL     1      21.614  -6.947  33.128  1.00  0.00    -0.000 C 
BRANCH  13  14
ATOM     14  C   UNL     1      20.185  -6.768  33.661  1.00  0.00    -0.000 C 
BRANCH  14  15
ATOM     15  C   UNL     1      19.193  -7.633  32.874  1.00  0.00    -0.000 C 
BRANCH  15  16
ATOM     16  C   UNL     1      17.747  -7.228  33.180  1.00  0.00    -0.003 C 
ATOM     17  C   UNL     1      17.669  -6.366  34.436  1.00  0.00     0.004 C 
ENDBRANCH  15  16
ENDBRANCH  14  15
ENDBRANCH  13  14
ENDBRANCH  12  13
ENDBRANCH  11  12
ENDBRANCH  10  11
ENDBRANCH   1  10
TORSDOF 13
ENDMDL
