MODEL 1
REMARK VINA RESULT:     9.043      0.000      0.000
REMARK INTER + INTRA:          14.465
REMARK INTER:                  13.801
REMARK INTRA:                   0.664
REMARK UNBOUND:                 0.664
REMARK SMILES O=C([O-])CCCCCCCCC(=O)[O-]
REMARK SMILES IDX 7 1 6 2 5 3 4 4 2 5 1 6 3 7 8 8 9 9 10 10 11 11 12 12 13 13
REMARK SMILES IDX 14 14
REMARK H PARENT
REMARK Flexibility Score: inf
ROOT
ATOM      1  C   UNL     1      18.076   4.547   7.155  1.00  0.00     0.000 C 
ENDROOT
BRANCH   1   2
ATOM      2  C   UNL     1      18.124   5.940   7.810  1.00  0.00     0.000 C 
BRANCH   2   3
ATOM      3  C   UNL     1      17.746   5.911   9.301  1.00  0.00     0.006 C 
BRANCH   3   4
ATOM      4  C   UNL     1      18.124   7.214  10.018  1.00  0.00     0.053 C 
BRANCH   4   5
ATOM      5  C   UNL     1      17.060   8.258   9.871  1.00  0.00     0.041 C 
ATOM      6  O   UNL     1      15.844   7.942   9.957  1.00  0.00    -0.550 OA
ATOM      7  O   UNL     1      17.412   9.586   9.665  1.00  0.00    -0.550 OA
ENDBRANCH   4   5
ENDBRANCH   3   4
ENDBRANCH   2   3
ENDBRANCH   1   2
BRANCH   1   8
ATOM      8  C   UNL     1      17.137   4.430   5.938  1.00  0.00     0.000 C 
BRANCH   8   9
ATOM      9  C   UNL     1      15.666   4.804   6.207  1.00  0.00     0.000 C 
BRANCH   9  10
ATOM     10  C   UNL     1      15.460   6.112   6.997  1.00  0.00     0.006 C 
BRANCH  10  11
ATOM     11  C   UNL     1      14.432   6.010   8.135  1.00  0.00     0.053 C 
BRANCH  11  12
ATOM     12  C   UNL     1      13.152   6.711   7.801  1.00  0.00     0.041 C 
ATOM     13  O   UNL     1      12.054   6.253   8.213  1.00  0.00    -0.550 OA
ATOM     14  O   UNL     1      13.174   7.889   7.064  1.00  0.00    -0.550 OA
ENDBRANCH  11  12
ENDBRANCH  10  11
ENDBRANCH   9  10
ENDBRANCH   8   9
ENDBRANCH   1   8
TORSDOF 9
ENDMDL
MODEL 2
REMARK VINA RESULT:     9.163      2.551      3.828
REMARK INTER + INTRA:          14.649
REMARK INTER:                  14.893
REMARK INTRA:                  -0.245
REMARK UNBOUND:                 0.664
REMARK SMILES O=C([O-])CCCCCCCCC(=O)[O-]
REMARK SMILES IDX 7 1 6 2 5 3 4 4 2 5 1 6 3 7 8 8 9 9 10 10 11 11 12 12 13 13
REMARK SMILES IDX 14 14
REMARK H PARENT
REMARK Flexibility Score: inf
ROOT
ATOM      1  C   UNL     1      14.140   5.813   8.170  1.00  0.00     0.000 C 
ENDROOT
BRANCH   1   2
ATOM      2  C   UNL     1      15.499   5.815   7.446  1.00  0.00     0.000 C 
BRANCH   2   3
ATOM      3  C   UNL     1      16.648   6.324   8.334  1.00  0.00     0.006 C 
BRANCH   3   4
ATOM      4  C   UNL     1      16.198   7.453   9.271  1.00  0.00     0.053 C 
BRANCH   4   5
ATOM      5  C   UNL     1      17.362   8.123   9.932  1.00  0.00     0.041 C 
ATOM      6  O   UNL     1      18.122   7.469  10.695  1.00  0.00    -0.550 OA
ATOM      7  O   UNL     1      17.625   9.465   9.685  1.00  0.00    -0.550 OA
ENDBRANCH   4   5
ENDBRANCH   3   4
ENDBRANCH   2   3
ENDBRANCH   1   2
BRANCH   1   8
ATOM      8  C   UNL     1      13.171   6.932   7.739  1.00  0.00     0.000 C 
BRANCH   8   9
ATOM      9  C   UNL     1      11.675   6.565   7.804  1.00  0.00     0.000 C 
BRANCH   9  10
ATOM     10  C   UNL     1      11.365   5.063   7.641  1.00  0.00     0.006 C 
BRANCH  10  11
ATOM     11  C   UNL     1      10.398   4.497   8.693  1.00  0.00     0.053 C 
BRANCH  11  12
ATOM     12  C   UNL     1      10.586   3.025   8.895  1.00  0.00     0.041 C 
ATOM     13  O   UNL     1      10.427   2.230   7.932  1.00  0.00    -0.550 OA
ATOM     14  O   UNL     1      10.969   2.535  10.136  1.00  0.00    -0.550 OA
ENDBRANCH  11  12
ENDBRANCH  10  11
ENDBRANCH   9  10
ENDBRANCH   8   9
ENDBRANCH   1   8
TORSDOF 9
ENDMDL
MODEL 3
REMARK VINA RESULT:     9.357      2.069      3.224
REMARK INTER + INTRA:          14.944
REMARK INTER:                  14.871
REMARK INTRA:                   0.073
REMARK UNBOUND:                 0.664
REMARK SMILES O=C([O-])CCCCCCCCC(=O)[O-]
REMARK SMILES IDX 7 1 6 2 5 3 4 4 2 5 1 6 3 7 8 8 9 9 10 10 11 11 12 12 13 13
REMARK SMILES IDX 14 14
REMARK H PARENT
REMARK Flexibility Score: inf
ROOT
ATOM      1  C   UNL     1      14.713   5.790   7.722  1.00  0.00     0.000 C 
ENDROOT
BRANCH   1   2
ATOM      2  C   UNL     1      16.204   5.639   7.362  1.00  0.00     0.000 C 
BRANCH   2   3
ATOM      3  C   UNL     1      17.138   6.228   8.433  1.00  0.00     0.006 C 
BRANCH   3   4
ATOM      4  C   UNL     1      16.391   7.145   9.411  1.00  0.00     0.053 C 
BRANCH   4   5
ATOM      5  C   UNL     1      17.294   8.188   9.995  1.00  0.00     0.041 C 
ATOM      6  O   UNL     1      18.124   7.880  10.891  1.00  0.00    -0.550 OA
ATOM      7  O   UNL     1      17.237   9.495   9.530  1.00  0.00    -0.550 OA
ENDBRANCH   4   5
ENDBRANCH   3   4
ENDBRANCH   2   3
ENDBRANCH   1   2
BRANCH   1   8
ATOM      8  C   UNL     1      14.102   7.168   7.401  1.00  0.00     0.000 C 
BRANCH   8   9
ATOM      9  C   UNL     1      12.570   7.257   7.553  1.00  0.00     0.000 C 
BRANCH   9  10
ATOM     10  C   UNL     1      11.917   6.065   8.281  1.00  0.00     0.006 C 
BRANCH  10  11
ATOM     11  C   UNL     1      10.446   5.823   7.908  1.00  0.00     0.053 C 
BRANCH  11  12
ATOM     12  C   UNL     1      10.228   4.452   7.347  1.00  0.00     0.041 C 
ATOM     13  O   UNL     1      10.700   3.444   7.936  1.00  0.00    -0.550 OA
ATOM     14  O   UNL     1       9.474   4.284   6.192  1.00  0.00    -0.550 OA
ENDBRANCH  11  12
ENDBRANCH  10  11
ENDBRANCH   9  10
ENDBRANCH   8   9
ENDBRANCH   1   8
TORSDOF 9
ENDMDL
MODEL 4
REMARK VINA RESULT:     9.605      1.332      4.996
REMARK INTER + INTRA:          15.322
REMARK INTER:                  15.276
REMARK INTRA:                   0.046
REMARK UNBOUND:                 0.664
REMARK SMILES O=C([O-])CCCCCCCCC(=O)[O-]
REMARK SMILES IDX 7 1 6 2 5 3 4 4 2 5 1 6 3 7 8 8 9 9 10 10 11 11 12 12 13 13
REMARK SMILES IDX 14 14
REMARK H PARENT
REMARK Flexibility Score: inf
ROOT
ATOM      1  C   UNL     1      15.251   5.279   7.427  1.00  0.00     0.000 C 
ENDROOT
BRANCH   1   2
ATOM      2  C   UNL     1      14.576   6.625   7.748  1.00  0.00     0.000 C 
BRANCH   2   3
ATOM      3  C   UNL     1      13.041   6.533   7.767  1.00  0.00     0.006 C 
BRANCH   3   4
ATOM      4  C   UNL     1      12.548   5.081   7.715  1.00  0.00     0.053 C 
BRANCH   4   5
ATOM      5  C   UNL     1      11.124   4.961   8.163  1.00  0.00     0.041 C 
ATOM      6  O   UNL     1      10.512   3.866   8.047  1.00  0.00    -0.550 OA
ATOM      7  O   UNL     1      10.480   6.052   8.734  1.00  0.00    -0.550 OA
ENDBRANCH   4   5
ENDBRANCH   3   4
ENDBRANCH   2   3
ENDBRANCH   1   2
BRANCH   1   8
ATOM      8  C   UNL     1      16.570   5.383   6.636  1.00  0.00     0.000 C 
BRANCH   8   9
ATOM      9  C   UNL     1      17.829   5.634   7.490  1.00  0.00     0.000 C 
BRANCH   9  10
ATOM     10  C   UNL     1      17.581   5.706   9.010  1.00  0.00     0.006 C 
BRANCH  10  11
ATOM     11  C   UNL     1      18.125   6.976   9.683  1.00  0.00     0.053 C 
BRANCH  11  12
ATOM     12  C   UNL     1      17.091   8.056   9.763  1.00  0.00     0.041 C 
ATOM     13  O   UNL     1      15.891   7.766  10.010  1.00  0.00    -0.550 OA
ATOM     14  O   UNL     1      17.458   9.386   9.601  1.00  0.00    -0.550 OA
ENDBRANCH  11  12
ENDBRANCH  10  11
ENDBRANCH   9  10
ENDBRANCH   8   9
ENDBRANCH   1   8
TORSDOF 9
ENDMDL
MODEL 5
REMARK VINA RESULT:    10.138      3.291      6.471
REMARK INTER + INTRA:          16.136
REMARK INTER:                  16.565
REMARK INTRA:                  -0.429
REMARK UNBOUND:                 0.664
REMARK SMILES O=C([O-])CCCCCCCCC(=O)[O-]
REMARK SMILES IDX 7 1 6 2 5 3 4 4 2 5 1 6 3 7 8 8 9 9 10 10 11 11 12 12 13 13
REMARK SMILES IDX 14 14
REMARK H PARENT
REMARK Flexibility Score: inf
ROOT
ATOM      1  C   UNL     1      12.285   6.214   7.871  1.00  0.00     0.000 C 
ENDROOT
BRANCH   1   2
ATOM      2  C   UNL     1      10.902   6.491   8.488  1.00  0.00     0.000 C 
BRANCH   2   3
ATOM      3  C   UNL     1      10.006   5.240   8.529  1.00  0.00     0.006 C 
BRANCH   3   4
ATOM      4  C   UNL     1      10.646   4.047   7.806  1.00  0.00     0.053 C 
BRANCH   4   5
ATOM      5  C   UNL     1      10.613   2.807   8.645  1.00  0.00     0.041 C 
ATOM      6  O   UNL     1      10.642   2.890   9.902  1.00  0.00    -0.550 OA
ATOM      7  O   UNL     1      10.524   1.560   8.040  1.00  0.00    -0.550 OA
ENDBRANCH   4   5
ENDBRANCH   3   4
ENDBRANCH   2   3
ENDBRANCH   1   2
BRANCH   1   8
ATOM      8  C   UNL     1      13.105   7.471   7.517  1.00  0.00     0.000 C 
BRANCH   8   9
ATOM      9  C   UNL     1      14.626   7.251   7.402  1.00  0.00     0.000 C 
BRANCH   9  10
ATOM     10  C   UNL     1      15.153   5.972   8.084  1.00  0.00     0.006 C 
BRANCH  10  11
ATOM     11  C   UNL     1      16.652   5.708   7.864  1.00  0.00     0.053 C 
BRANCH  11  12
ATOM     12  C   UNL     1      16.909   4.950   6.600  1.00  0.00     0.041 C 
ATOM     13  O   UNL     1      18.090   4.761   6.204  1.00  0.00    -0.550 OA
ATOM     14  O   UNL     1      15.848   4.422   5.875  1.00  0.00    -0.550 OA
ENDBRANCH  11  12
ENDBRANCH  10  11
ENDBRANCH   9  10
ENDBRANCH   8   9
ENDBRANCH   1   8
TORSDOF 9
ENDMDL
