MODEL 1
REMARK VINA RESULT:    -6.382      0.000      0.000
REMARK INTER + INTRA:          -7.360
REMARK INTER:                  -7.315
REMARK INTRA:                  -0.045
REMARK UNBOUND:                -0.045
REMARK SMILES O=C([O-])c1cc(O)c(O)c(O)c1
REMARK SMILES IDX 4 1 5 2 12 3 6 4 10 5 8 6 2 7 1 8 3 9 7 10 11 12 9 14
REMARK H PARENT 7 11 11 13 9 15
REMARK Flexibility Score: inf
ROOT
ATOM      1  C   UNL     1      13.785 -13.387  28.043  1.00  0.00     0.005 A 
ATOM      2  C   UNL     1      13.882 -12.276  28.897  1.00  0.00     0.060 A 
ATOM      3  C   UNL     1      12.520 -13.775  27.570  1.00  0.00     0.060 A 
ATOM      4  C   UNL     1      12.735 -11.563  29.275  1.00  0.00     0.162 A 
ATOM      5  C   UNL     1      11.371 -13.070  27.943  1.00  0.00     0.162 A 
ATOM      6  C   UNL     1      11.474 -11.960  28.798  1.00  0.00     0.200 A 
ENDROOT
BRANCH   1   7
ATOM      7  C   UNL     1      14.994 -14.140  27.643  1.00  0.00     0.072 C 
ATOM      8  O   UNL     1      15.777 -13.679  26.771  1.00  0.00    -0.545 OA
ATOM      9  O   UNL     1      15.283 -15.369  28.226  1.00  0.00    -0.545 OA
ENDBRANCH   1   7
BRANCH   4  10
ATOM     10  O   UNL     1      12.844 -10.462  30.124  1.00  0.00    -0.504 OA
ATOM     11  H   UNL     1      12.935  -9.519  29.763  1.00  0.00     0.293 HD
ENDBRANCH   4  10
BRANCH   5  12
ATOM     12  O   UNL     1      10.134 -13.488  27.452  1.00  0.00    -0.504 OA
ATOM     13  H   UNL     1       9.593 -14.215  27.903  1.00  0.00     0.293 HD
ENDBRANCH   5  12
BRANCH   6  14
ATOM     14  O   UNL     1      10.322 -11.262  29.164  1.00  0.00    -0.502 OA
ATOM     15  H   UNL     1       9.902 -11.359  30.081  1.00  0.00     0.293 HD
ENDBRANCH   6  14
TORSDOF 4
ENDMDL
MODEL 2
REMARK VINA RESULT:    -6.345      0.039      2.429
REMARK INTER + INTRA:          -7.317
REMARK INTER:                  -7.272
REMARK INTRA:                  -0.045
REMARK UNBOUND:                -0.045
REMARK SMILES O=C([O-])c1cc(O)c(O)c(O)c1
REMARK SMILES IDX 4 1 5 2 12 3 6 4 10 5 8 6 2 7 1 8 3 9 7 10 11 12 9 14
REMARK H PARENT 7 11 11 13 9 15
REMARK Flexibility Score: inf
ROOT
ATOM      1  C   UNL     1      13.793 -13.410  28.049  1.00  0.00     0.005 A 
ATOM      2  C   UNL     1      12.527 -13.787  27.568  1.00  0.00     0.060 A 
ATOM      3  C   UNL     1      13.893 -12.306  28.911  1.00  0.00     0.060 A 
ATOM      4  C   UNL     1      11.380 -13.074  27.942  1.00  0.00     0.162 A 
ATOM      5  C   UNL     1      12.753 -11.589  29.289  1.00  0.00     0.162 A 
ATOM      6  C   UNL     1      11.490 -11.971  28.806  1.00  0.00     0.200 A 
ENDROOT
BRANCH   1   7
ATOM      7  C   UNL     1      15.005 -14.162  27.654  1.00  0.00     0.072 C 
ATOM      8  O   UNL     1      15.765 -13.724  26.751  1.00  0.00    -0.545 OA
ATOM      9  O   UNL     1      15.320 -15.366  28.275  1.00  0.00    -0.545 OA
ENDBRANCH   1   7
BRANCH   4  10
ATOM     10  O   UNL     1      10.130 -13.458  27.458  1.00  0.00    -0.504 OA
ATOM     11  H   UNL     1       9.654 -12.929  26.735  1.00  0.00     0.293 HD
ENDBRANCH   4  10
BRANCH   5  12
ATOM     12  O   UNL     1      12.895 -10.499  30.148  1.00  0.00    -0.504 OA
ATOM     13  H   UNL     1      12.142 -10.181  30.745  1.00  0.00     0.293 HD
ENDBRANCH   5  12
BRANCH   6  14
ATOM     14  O   UNL     1      10.359 -11.249  29.188  1.00  0.00    -0.502 OA
ATOM     15  H   UNL     1       9.857 -11.446  30.045  1.00  0.00     0.293 HD
ENDBRANCH   6  14
TORSDOF 4
ENDMDL
MODEL 3
REMARK VINA RESULT:    -6.276     11.748     13.343
REMARK INTER + INTRA:          -7.238
REMARK INTER:                  -7.193
REMARK INTRA:                  -0.045
REMARK UNBOUND:                -0.045
REMARK SMILES O=C([O-])c1cc(O)c(O)c(O)c1
REMARK SMILES IDX 4 1 5 2 12 3 6 4 10 5 8 6 2 7 1 8 3 9 7 10 11 12 9 14
REMARK H PARENT 7 11 11 13 9 15
REMARK Flexibility Score: inf
ROOT
ATOM      1  C   UNL     1      16.631  -0.850  26.525  1.00  0.00     0.005 A 
ATOM      2  C   UNL     1      16.640  -1.651  27.679  1.00  0.00     0.060 A 
ATOM      3  C   UNL     1      17.850  -0.555  25.891  1.00  0.00     0.060 A 
ATOM      4  C   UNL     1      17.846  -2.150  28.194  1.00  0.00     0.162 A 
ATOM      5  C   UNL     1      19.056  -1.049  26.398  1.00  0.00     0.162 A 
ATOM      6  C   UNL     1      19.059  -1.849  27.552  1.00  0.00     0.200 A 
ENDROOT
BRANCH   1   7
ATOM      7  C   UNL     1      15.360  -0.322  25.982  1.00  0.00     0.072 C 
ATOM      8  O   UNL     1      14.667  -1.013  25.189  1.00  0.00    -0.545 OA
ATOM      9  O   UNL     1      14.913   0.945  26.339  1.00  0.00    -0.545 OA
ENDBRANCH   1   7
BRANCH   4  10
ATOM     10  O   UNL     1      17.841  -2.944  29.340  1.00  0.00    -0.504 OA
ATOM     11  H   UNL     1      17.140  -2.828  30.064  1.00  0.00     0.293 HD
ENDBRANCH   4  10
BRANCH   5  12
ATOM     12  O   UNL     1      20.244  -0.733  25.738  1.00  0.00    -0.504 OA
ATOM     13  H   UNL     1      20.254  -0.304  24.821  1.00  0.00     0.293 HD
ENDBRANCH   5  12
BRANCH   6  14
ATOM     14  O   UNL     1      20.268  -2.337  28.051  1.00  0.00    -0.502 OA
ATOM     15  H   UNL     1      20.982  -1.725  28.427  1.00  0.00     0.293 HD
ENDBRANCH   6  14
TORSDOF 4
ENDMDL
MODEL 4
REMARK VINA RESULT:    -6.243     11.761     13.323
REMARK INTER + INTRA:          -7.200
REMARK INTER:                  -7.155
REMARK INTRA:                  -0.045
REMARK UNBOUND:                -0.045
REMARK SMILES O=C([O-])c1cc(O)c(O)c(O)c1
REMARK SMILES IDX 4 1 5 2 12 3 6 4 10 5 8 6 2 7 1 8 3 9 7 10 11 12 9 14
REMARK H PARENT 7 11 11 13 9 15
REMARK Flexibility Score: inf
ROOT
ATOM      1  C   UNL     1      16.625  -0.829  26.500  1.00  0.00     0.005 A 
ATOM      2  C   UNL     1      17.844  -0.527  25.871  1.00  0.00     0.060 A 
ATOM      3  C   UNL     1      16.633  -1.631  27.653  1.00  0.00     0.060 A 
ATOM      4  C   UNL     1      19.054  -1.017  26.385  1.00  0.00     0.162 A 
ATOM      5  C   UNL     1      17.835  -2.124  28.171  1.00  0.00     0.162 A 
ATOM      6  C   UNL     1      19.051  -1.818  27.539  1.00  0.00     0.200 A 
ENDROOT
BRANCH   1   7
ATOM      7  C   UNL     1      15.348  -0.313  25.959  1.00  0.00     0.072 C 
ATOM      8  O   UNL     1      14.663  -1.007  25.163  1.00  0.00    -0.545 OA
ATOM      9  O   UNL     1      14.888   0.948  26.321  1.00  0.00    -0.545 OA
ENDBRANCH   1   7
BRANCH   4  10
ATOM     10  O   UNL     1      20.257  -0.710  25.751  1.00  0.00    -0.504 OA
ATOM     11  H   UNL     1      20.680  -1.339  25.078  1.00  0.00     0.293 HD
ENDBRANCH   4  10
BRANCH   5  12
ATOM     12  O   UNL     1      17.800  -2.916  29.319  1.00  0.00    -0.504 OA
ATOM     13  H   UNL     1      18.563  -3.533  29.572  1.00  0.00     0.293 HD
ENDBRANCH   5  12
BRANCH   6  14
ATOM     14  O   UNL     1      20.246  -2.315  28.063  1.00  0.00    -0.502 OA
ATOM     15  H   UNL     1      21.128  -2.226  27.573  1.00  0.00     0.293 HD
ENDBRANCH   6  14
TORSDOF 4
ENDMDL
MODEL 5
REMARK VINA RESULT:    -6.240     11.446     12.757
REMARK INTER + INTRA:          -7.197
REMARK INTER:                  -7.144
REMARK INTRA:                  -0.052
REMARK UNBOUND:                -0.045
REMARK SMILES O=C([O-])c1cc(O)c(O)c(O)c1
REMARK SMILES IDX 4 1 5 2 12 3 6 4 10 5 8 6 2 7 1 8 3 9 7 10 11 12 9 14
REMARK H PARENT 7 11 11 13 9 15
REMARK Flexibility Score: inf
ROOT
ATOM      1  C   UNL     1      16.283  -1.516  27.559  1.00  0.00     0.005 A 
ATOM      2  C   UNL     1      16.204  -0.481  28.506  1.00  0.00     0.060 A 
ATOM      3  C   UNL     1      15.735  -1.314  26.282  1.00  0.00     0.060 A 
ATOM      4  C   UNL     1      15.588   0.737  28.183  1.00  0.00     0.162 A 
ATOM      5  C   UNL     1      15.119  -0.103  25.952  1.00  0.00     0.162 A 
ATOM      6  C   UNL     1      15.043   0.929  26.903  1.00  0.00     0.200 A 
ENDROOT
BRANCH   1   7
ATOM      7  C   UNL     1      16.933  -2.801  27.899  1.00  0.00     0.072 C 
ATOM      8  O   UNL     1      16.774  -3.813  27.165  1.00  0.00    -0.545 OA
ATOM      9  O   UNL     1      17.728  -2.910  29.034  1.00  0.00    -0.545 OA
ENDBRANCH   1   7
BRANCH   4  10
ATOM     10  O   UNL     1      15.516   1.756  29.132  1.00  0.00    -0.504 OA
ATOM     11  H   UNL     1      15.347   1.559  30.112  1.00  0.00     0.293 HD
ENDBRANCH   4  10
BRANCH   5  12
ATOM     12  O   UNL     1      14.587   0.057  24.672  1.00  0.00    -0.504 OA
ATOM     13  H   UNL     1      14.911   0.780  24.041  1.00  0.00     0.293 HD
ENDBRANCH   5  12
BRANCH   6  14
ATOM     14  O   UNL     1      14.425   2.134  26.565  1.00  0.00    -0.502 OA
ATOM     15  H   UNL     1      14.825   2.775  25.890  1.00  0.00     0.293 HD
ENDBRANCH   6  14
TORSDOF 4
ENDMDL
MODEL 6
REMARK VINA RESULT:    -6.238     11.435     12.937
REMARK INTER + INTRA:          -7.194
REMARK INTER:                  -7.142
REMARK INTRA:                  -0.052
REMARK UNBOUND:                -0.045
REMARK SMILES O=C([O-])c1cc(O)c(O)c(O)c1
REMARK SMILES IDX 4 1 5 2 12 3 6 4 10 5 8 6 2 7 1 8 3 9 7 10 11 12 9 14
REMARK H PARENT 7 11 11 13 9 15
REMARK Flexibility Score: inf
ROOT
ATOM      1  C   UNL     1      16.255  -1.527  27.543  1.00  0.00     0.005 A 
ATOM      2  C   UNL     1      15.712  -1.338  26.261  1.00  0.00     0.060 A 
ATOM      3  C   UNL     1      16.176  -0.481  28.478  1.00  0.00     0.060 A 
ATOM      4  C   UNL     1      15.100  -0.125  25.916  1.00  0.00     0.162 A 
ATOM      5  C   UNL     1      15.567   0.732  28.141  1.00  0.00     0.162 A 
ATOM      6  C   UNL     1      15.025   0.915  26.858  1.00  0.00     0.200 A 
ENDROOT
BRANCH   1   7
ATOM      7  C   UNL     1      16.903  -2.807  27.908  1.00  0.00     0.072 C 
ATOM      8  O   UNL     1      16.774  -3.822  27.173  1.00  0.00    -0.545 OA
ATOM      9  O   UNL     1      17.661  -2.907  29.068  1.00  0.00    -0.545 OA
ENDBRANCH   1   7
BRANCH   4  10
ATOM     10  O   UNL     1      14.565   0.050  24.641  1.00  0.00    -0.504 OA
ATOM     11  H   UNL     1      14.135   0.925  24.359  1.00  0.00     0.293 HD
ENDBRANCH   4  10
BRANCH   5  12
ATOM     12  O   UNL     1      15.508   1.745  29.098  1.00  0.00    -0.504 OA
ATOM     13  H   UNL     1      14.944   2.577  28.970  1.00  0.00     0.293 HD
ENDBRANCH   5  12
BRANCH   6  14
ATOM     14  O   UNL     1      14.420   2.130  26.532  1.00  0.00    -0.502 OA
ATOM     15  H   UNL     1      13.802   2.614  27.172  1.00  0.00     0.293 HD
ENDBRANCH   6  14
TORSDOF 4
ENDMDL
MODEL 7
REMARK VINA RESULT:    -5.804      1.347      4.165
REMARK INTER + INTRA:          -6.697
REMARK INTER:                  -6.647
REMARK INTRA:                  -0.051
REMARK UNBOUND:                -0.045
REMARK SMILES O=C([O-])c1cc(O)c(O)c(O)c1
REMARK SMILES IDX 4 1 5 2 12 3 6 4 10 5 8 6 2 7 1 8 3 9 7 10 11 12 9 14
REMARK H PARENT 7 11 11 13 9 15
REMARK Flexibility Score: inf
ROOT
ATOM      1  C   UNL     1      11.983 -11.851  29.209  1.00  0.00     0.005 A 
ATOM      2  C   UNL     1      13.114 -12.293  29.915  1.00  0.00     0.060 A 
ATOM      3  C   UNL     1      11.634 -12.494  28.010  1.00  0.00     0.060 A 
ATOM      4  C   UNL     1      13.886 -13.360  29.432  1.00  0.00     0.162 A 
ATOM      5  C   UNL     1      12.399 -13.559  27.522  1.00  0.00     0.162 A 
ATOM      6  C   UNL     1      13.529 -13.997  28.232  1.00  0.00     0.200 A 
ENDROOT
BRANCH   1   7
ATOM      7  C   UNL     1      11.168 -10.726  29.717  1.00  0.00     0.072 C 
ATOM      8  O   UNL     1      11.697  -9.811  30.403  1.00  0.00    -0.545 OA
ATOM      9  O   UNL     1       9.806 -10.663  29.446  1.00  0.00    -0.545 OA
ENDBRANCH   1   7
BRANCH   4  10
ATOM     10  O   UNL     1      15.007 -13.789  30.143  1.00  0.00    -0.504 OA
ATOM     11  H   UNL     1      15.140 -13.552  31.120  1.00  0.00     0.293 HD
ENDBRANCH   4  10
BRANCH   5  12
ATOM     12  O   UNL     1      12.018 -14.171  26.327  1.00  0.00    -0.504 OA
ATOM     13  H   UNL     1      11.977 -15.178  26.226  1.00  0.00     0.293 HD
ENDBRANCH   5  12
BRANCH   6  14
ATOM     14  O   UNL     1      14.286 -15.059  27.737  1.00  0.00    -0.502 OA
ATOM     15  H   UNL     1      15.230 -14.934  27.390  1.00  0.00     0.293 HD
ENDBRANCH   6  14
TORSDOF 4
ENDMDL
MODEL 8
REMARK VINA RESULT:    -5.801      1.330      4.713
REMARK INTER + INTRA:          -6.694
REMARK INTER:                  -6.643
REMARK INTRA:                  -0.051
REMARK UNBOUND:                -0.045
REMARK SMILES O=C([O-])c1cc(O)c(O)c(O)c1
REMARK SMILES IDX 4 1 5 2 12 3 6 4 10 5 8 6 2 7 1 8 3 9 7 10 11 12 9 14
REMARK H PARENT 7 11 11 13 9 15
REMARK Flexibility Score: inf
ROOT
ATOM      1  C   UNL     1      12.010 -11.819  29.223  1.00  0.00     0.005 A 
ATOM      2  C   UNL     1      11.600 -12.481  28.054  1.00  0.00     0.060 A 
ATOM      3  C   UNL     1      13.181 -12.245  29.872  1.00  0.00     0.060 A 
ATOM      4  C   UNL     1      12.346 -13.551  27.539  1.00  0.00     0.162 A 
ATOM      5  C   UNL     1      13.930 -13.312  29.366  1.00  0.00     0.162 A 
ATOM      6  C   UNL     1      13.516 -13.969  28.196  1.00  0.00     0.200 A 
ENDROOT
BRANCH   1   7
ATOM      7  C   UNL     1      11.223 -10.690  29.768  1.00  0.00     0.072 C 
ATOM      8  O   UNL     1      11.778  -9.800  30.465  1.00  0.00    -0.545 OA
ATOM      9  O   UNL     1       9.859 -10.597  29.517  1.00  0.00    -0.545 OA
ENDBRANCH   1   7
BRANCH   4  10
ATOM     10  O   UNL     1      11.928 -14.199  26.377  1.00  0.00    -0.504 OA
ATOM     11  H   UNL     1      10.948 -14.385  26.195  1.00  0.00     0.293 HD
ENDBRANCH   4  10
BRANCH   5  12
ATOM     12  O   UNL     1      15.087 -13.704  30.040  1.00  0.00    -0.504 OA
ATOM     13  H   UNL     1      15.308 -13.371  30.971  1.00  0.00     0.293 HD
ENDBRANCH   5  12
BRANCH   6  14
ATOM     14  O   UNL     1      14.270 -15.033  27.698  1.00  0.00    -0.502 OA
ATOM     15  H   UNL     1      14.564 -15.079  26.729  1.00  0.00     0.293 HD
ENDBRANCH   6  14
TORSDOF 4
ENDMDL
MODEL 9
REMARK VINA RESULT:    -5.685      1.824      4.716
REMARK INTER + INTRA:          -6.560
REMARK INTER:                  -6.510
REMARK INTRA:                  -0.050
REMARK UNBOUND:                -0.045
REMARK SMILES O=C([O-])c1cc(O)c(O)c(O)c1
REMARK SMILES IDX 4 1 5 2 12 3 6 4 10 5 8 6 2 7 1 8 3 9 7 10 11 12 9 14
REMARK H PARENT 7 11 11 13 9 15
REMARK Flexibility Score: inf
ROOT
ATOM      1  C   UNL     1      13.783 -12.251  29.118  1.00  0.00     0.005 A 
ATOM      2  C   UNL     1      14.337 -12.576  27.869  1.00  0.00     0.060 A 
ATOM      3  C   UNL     1      13.908 -13.165  30.178  1.00  0.00     0.060 A 
ATOM      4  C   UNL     1      15.006 -13.793  27.679  1.00  0.00     0.162 A 
ATOM      5  C   UNL     1      14.574 -14.381  29.996  1.00  0.00     0.162 A 
ATOM      6  C   UNL     1      15.126 -14.701  28.745  1.00  0.00     0.200 A 
ENDROOT
BRANCH   1   7
ATOM      7  C   UNL     1      13.076 -10.967  29.319  1.00  0.00     0.072 C 
ATOM      8  O   UNL     1      13.139 -10.367  30.425  1.00  0.00    -0.545 OA
ATOM      9  O   UNL     1      12.330 -10.404  28.290  1.00  0.00    -0.545 OA
ENDBRANCH   1   7
BRANCH   4  10
ATOM     10  O   UNL     1      15.552 -14.104  26.434  1.00  0.00    -0.504 OA
ATOM     11  H   UNL     1      15.142 -14.813  25.836  1.00  0.00     0.293 HD
ENDBRANCH   4  10
BRANCH   5  12
ATOM     12  O   UNL     1      14.677 -15.261  31.074  1.00  0.00    -0.504 OA
ATOM     13  H   UNL     1      15.467 -15.885  31.187  1.00  0.00     0.293 HD
ENDBRANCH   5  12
BRANCH   6  14
ATOM     14  O   UNL     1      15.789 -15.917  28.573  1.00  0.00    -0.502 OA
ATOM     15  H   UNL     1      15.553 -16.740  29.115  1.00  0.00     0.293 HD
ENDBRANCH   6  14
TORSDOF 4
ENDMDL
