MODEL 1
REMARK VINA RESULT:     4.449      0.000      0.000
REMARK INTER + INTRA:           7.034
REMARK INTER:                   6.791
REMARK INTRA:                   0.243
REMARK UNBOUND:                 0.243
REMARK SMILES O=C([O-])CCCCCCCCC(=O)[O-]
REMARK SMILES IDX 7 1 6 2 5 3 4 4 2 5 1 6 3 7 8 8 9 9 10 10 11 11 12 12 13 13
REMARK SMILES IDX 14 14
REMARK H PARENT
REMARK Flexibility Score: inf
ROOT
ATOM      1  C   UNL     1      13.133 -13.671   7.150  1.00  0.00     0.000 C 
ENDROOT
BRANCH   1   2
ATOM      2  C   UNL     1      12.488 -13.513   5.758  1.00  0.00     0.000 C 
BRANCH   2   3
ATOM      3  C   UNL     1      11.975 -12.099   5.433  1.00  0.00     0.006 C 
BRANCH   3   4
ATOM      4  C   UNL     1      10.583 -11.822   6.014  1.00  0.00     0.053 C 
BRANCH   4   5
ATOM      5  C   UNL     1       9.558 -12.687   5.351  1.00  0.00     0.041 C 
ATOM      6  O   UNL     1       8.475 -12.189   4.946  1.00  0.00    -0.550 OA
ATOM      7  O   UNL     1       9.777 -14.053   5.225  1.00  0.00    -0.550 OA
ENDBRANCH   4   5
ENDBRANCH   3   4
ENDBRANCH   2   3
ENDBRANCH   1   2
BRANCH   1   8
ATOM      8  C   UNL     1      14.628 -14.035   7.140  1.00  0.00     0.000 C 
BRANCH   8   9
ATOM      9  C   UNL     1      14.892 -15.462   6.638  1.00  0.00     0.000 C 
BRANCH   9  10
ATOM     10  C   UNL     1      16.234 -15.991   7.164  1.00  0.00     0.006 C 
BRANCH  10  11
ATOM     11  C   UNL     1      17.430 -15.378   6.425  1.00  0.00     0.053 C 
BRANCH  11  12
ATOM     12  C   UNL     1      18.567 -16.346   6.309  1.00  0.00     0.041 C 
ATOM     13  O   UNL     1      19.040 -16.895   7.338  1.00  0.00    -0.550 OA
ATOM     14  O   UNL     1      19.125 -16.618   5.065  1.00  0.00    -0.550 OA
ENDBRANCH  11  12
ENDBRANCH  10  11
ENDBRANCH   9  10
ENDBRANCH   8   9
ENDBRANCH   1   8
TORSDOF 9
ENDMDL
MODEL 2
REMARK VINA RESULT:     4.458      0.108      7.882
REMARK INTER + INTRA:           7.046
REMARK INTER:                   6.837
REMARK INTRA:                   0.209
REMARK UNBOUND:                 0.243
REMARK SMILES O=C([O-])CCCCCCCCC(=O)[O-]
REMARK SMILES IDX 7 1 6 2 5 3 4 4 2 5 1 6 3 7 8 8 9 9 10 10 11 11 12 12 13 13
REMARK SMILES IDX 14 14
REMARK H PARENT
REMARK Flexibility Score: inf
ROOT
ATOM      1  C   UNL     1      14.579 -14.052   7.182  1.00  0.00     0.000 C 
ENDROOT
BRANCH   1   2
ATOM      2  C   UNL     1      14.871 -15.463   6.633  1.00  0.00     0.000 C 
BRANCH   2   3
ATOM      3  C   UNL     1      16.205 -16.078   7.092  1.00  0.00     0.006 C 
BRANCH   3   4
ATOM      4  C   UNL     1      17.423 -15.430   6.421  1.00  0.00     0.053 C 
BRANCH   4   5
ATOM      5  C   UNL     1      18.559 -16.400   6.352  1.00  0.00     0.041 C 
ATOM      6  O   UNL     1      19.041 -16.889   7.408  1.00  0.00    -0.550 OA
ATOM      7  O   UNL     1      19.120 -16.728   5.124  1.00  0.00    -0.550 OA
ENDBRANCH   4   5
ENDBRANCH   3   4
ENDBRANCH   2   3
ENDBRANCH   1   2
BRANCH   1   8
ATOM      8  C   UNL     1      13.102 -13.625   7.132  1.00  0.00     0.000 C 
BRANCH   8   9
ATOM      9  C   UNL     1      12.564 -13.498   5.699  1.00  0.00     0.000 C 
BRANCH   9  10
ATOM     10  C   UNL     1      11.986 -12.098   5.450  1.00  0.00     0.006 C 
BRANCH  10  11
ATOM     11  C   UNL     1      10.571 -11.943   6.023  1.00  0.00     0.053 C 
BRANCH  11  12
ATOM     12  C   UNL     1       9.590 -12.836   5.328  1.00  0.00     0.041 C 
ATOM     13  O   UNL     1       8.494 -12.373   4.914  1.00  0.00    -0.550 OA
ATOM     14  O   UNL     1       9.871 -14.187   5.168  1.00  0.00    -0.550 OA
ENDBRANCH  11  12
ENDBRANCH  10  11
ENDBRANCH   9  10
ENDBRANCH   8   9
ENDBRANCH   1   8
TORSDOF 9
ENDMDL
MODEL 3
REMARK VINA RESULT:     4.508      0.869      1.724
REMARK INTER + INTRA:           7.123
REMARK INTER:                   7.397
REMARK INTRA:                  -0.275
REMARK UNBOUND:                 0.243
REMARK SMILES O=C([O-])CCCCCCCCC(=O)[O-]
REMARK SMILES IDX 7 1 6 2 5 3 4 4 2 5 1 6 3 7 8 8 9 9 10 10 11 11 12 12 13 13
REMARK SMILES IDX 14 14
REMARK H PARENT
REMARK Flexibility Score: inf
ROOT
ATOM      1  C   UNL     1      14.656 -14.045   7.209  1.00  0.00     0.000 C 
ENDROOT
BRANCH   1   2
ATOM      2  C   UNL     1      13.187 -13.584   7.291  1.00  0.00     0.000 C 
BRANCH   2   3
ATOM      3  C   UNL     1      12.445 -13.528   5.944  1.00  0.00     0.006 C 
BRANCH   3   4
ATOM      4  C   UNL     1      11.373 -12.432   5.900  1.00  0.00     0.053 C 
BRANCH   4   5
ATOM      5  C   UNL     1      10.067 -12.999   5.441  1.00  0.00     0.041 C 
ATOM      6  O   UNL     1       9.956 -14.232   5.212  1.00  0.00    -0.550 OA
ATOM      7  O   UNL     1       8.984 -12.158   5.217  1.00  0.00    -0.550 OA
ENDBRANCH   4   5
ENDBRANCH   3   4
ENDBRANCH   2   3
ENDBRANCH   1   2
BRANCH   1   8
ATOM      8  C   UNL     1      14.887 -15.359   6.442  1.00  0.00     0.000 C 
BRANCH   8   9
ATOM      9  C   UNL     1      16.011 -16.214   7.045  1.00  0.00     0.000 C 
BRANCH   9  10
ATOM     10  C   UNL     1      17.387 -15.594   6.759  1.00  0.00     0.006 C 
BRANCH  10  11
ATOM     11  C   UNL     1      18.517 -16.629   6.829  1.00  0.00     0.053 C 
BRANCH  11  12
ATOM     12  C   UNL     1      18.949 -17.073   5.465  1.00  0.00     0.041 C 
ATOM     13  O   UNL     1      19.125 -16.227   4.549  1.00  0.00    -0.550 OA
ATOM     14  O   UNL     1      19.125 -18.425   5.197  1.00  0.00    -0.550 OA
ENDBRANCH  11  12
ENDBRANCH  10  11
ENDBRANCH   9  10
ENDBRANCH   8   9
ENDBRANCH   1   8
TORSDOF 9
ENDMDL
MODEL 4
REMARK VINA RESULT:     4.667      1.364      8.135
REMARK INTER + INTRA:           7.365
REMARK INTER:                   7.549
REMARK INTRA:                  -0.184
REMARK UNBOUND:                 0.243
REMARK SMILES O=C([O-])CCCCCCCCC(=O)[O-]
REMARK SMILES IDX 7 1 6 2 5 3 4 4 2 5 1 6 3 7 8 8 9 9 10 10 11 11 12 12 13 13
REMARK SMILES IDX 14 14
REMARK H PARENT
REMARK Flexibility Score: inf
ROOT
ATOM      1  C   UNL     1      15.456 -15.688   7.077  1.00  0.00     0.000 C 
ENDROOT
BRANCH   1   2
ATOM      2  C   UNL     1      16.903 -15.444   6.604  1.00  0.00     0.000 C 
BRANCH   2   3
ATOM      3  C   UNL     1      17.848 -16.649   6.748  1.00  0.00     0.006 C 
BRANCH   3   4
ATOM      4  C   UNL     1      19.125 -16.510   5.909  1.00  0.00     0.053 C 
BRANCH   4   5
ATOM      5  C   UNL     1      19.099 -17.463   4.757  1.00  0.00     0.041 C 
ATOM      6  O   UNL     1      19.010 -17.030   3.578  1.00  0.00    -0.550 OA
ATOM      7  O   UNL     1      19.123 -18.833   4.987  1.00  0.00    -0.550 OA
ENDBRANCH   4   5
ENDBRANCH   3   4
ENDBRANCH   2   3
ENDBRANCH   1   2
BRANCH   1   8
ATOM      8  C   UNL     1      14.556 -14.439   7.097  1.00  0.00     0.000 C 
BRANCH   8   9
ATOM      9  C   UNL     1      13.352 -14.555   6.151  1.00  0.00     0.000 C 
BRANCH   9  10
ATOM     10  C   UNL     1      12.517 -13.267   6.164  1.00  0.00     0.006 C 
BRANCH  10  11
ATOM     11  C   UNL     1      11.094 -13.491   5.635  1.00  0.00     0.053 C 
BRANCH  11  12
ATOM     12  C   UNL     1      10.306 -12.218   5.602  1.00  0.00     0.041 C 
ATOM     13  O   UNL     1      10.830 -11.138   5.984  1.00  0.00    -0.550 OA
ATOM     14  O   UNL     1       8.982 -12.229   5.180  1.00  0.00    -0.550 OA
ENDBRANCH  11  12
ENDBRANCH  10  11
ENDBRANCH   9  10
ENDBRANCH   8   9
ENDBRANCH   1   8
TORSDOF 9
ENDMDL
