MODEL 1
REMARK VINA RESULT:    -4.391      0.000      0.000
REMARK INTER + INTRA:         -10.514
REMARK INTER:                  -7.985
REMARK INTRA:                  -2.530
REMARK UNBOUND:                -2.530
REMARK SMILES CCCCCCCCCCCCCC[C@@H](C)C(=O)[O-]
REMARK SMILES IDX 9 1 10 2 11 3 12 4 13 5 14 6 15 7 16 8 17 9 18 10 19 11 8 12
REMARK SMILES IDX 7 13 6 14 5 15 4 16 3 17 2 18 1 19
REMARK H PARENT
REMARK Flexibility Score: inf
ROOT
ATOM      1  C   UNL     1      16.452  -0.705   0.109  1.00  0.00     0.000 C 
ENDROOT
BRANCH   1   2
ATOM      2  C   UNL     1      15.503   0.239  -0.645  1.00  0.00     0.000 C 
BRANCH   2   3
ATOM      3  C   UNL     1      14.387  -0.513  -1.387  1.00  0.00     0.000 C 
BRANCH   3   4
ATOM      4  C   UNL     1      13.228  -0.918  -0.457  1.00  0.00     0.000 C 
BRANCH   4   5
ATOM      5  C   UNL     1      12.885   0.175   0.568  1.00  0.00     0.001 C 
BRANCH   5   6
ATOM      6  C   UNL     1      11.378   0.228   0.891  1.00  0.00     0.009 C 
BRANCH   6   7
ATOM      7  C   UNL     1      10.992  -0.448   2.226  1.00  0.00     0.032 C 
ATOM      8  C   UNL     1      10.961   0.539   3.402  1.00  0.00     0.014 C 
BRANCH   7   9
ATOM      9  C   UNL     1       9.707  -1.226   2.105  1.00  0.00     0.044 C 
ATOM     10  O   UNL     1       9.672  -2.329   1.496  1.00  0.00    -0.550 OA
ATOM     11  O   UNL     1       8.555  -0.747   2.714  1.00  0.00    -0.550 OA
ENDBRANCH   7   9
ENDBRANCH   6   7
ENDBRANCH   5   6
ENDBRANCH   4   5
ENDBRANCH   3   4
ENDBRANCH   2   3
ENDBRANCH   1   2
BRANCH   1  12
ATOM     12  C   UNL     1      17.244   0.052   1.181  1.00  0.00     0.000 C 
BRANCH  12  13
ATOM     13  C   UNL     1      16.306   0.850   2.099  1.00  0.00    -0.000 C 
BRANCH  13  14
ATOM     14  C   UNL     1      16.160   0.223   3.497  1.00  0.00    -0.000 C 
BRANCH  14  15
ATOM     15  C   UNL     1      14.718  -0.150   3.897  1.00  0.00    -0.000 C 
BRANCH  15  16
ATOM     16  C   UNL     1      14.272  -1.567   3.485  1.00  0.00    -0.000 C 
BRANCH  16  17
ATOM     17  C   UNL     1      15.420  -2.547   3.176  1.00  0.00    -0.000 C 
BRANCH  17  18
ATOM     18  C   UNL     1      15.109  -3.584   2.082  1.00  0.00    -0.003 C 
ATOM     19  C   UNL     1      13.612  -3.738   1.816  1.00  0.00     0.004 C 
ENDBRANCH  17  18
ENDBRANCH  16  17
ENDBRANCH  15  16
ENDBRANCH  14  15
ENDBRANCH  13  14
ENDBRANCH  12  13
ENDBRANCH   1  12
TORSDOF 14
ENDMDL
MODEL 2
REMARK VINA RESULT:    -4.049      1.124      3.231
REMARK INTER + INTRA:          -9.892
REMARK INTER:                  -7.626
REMARK INTRA:                  -2.266
REMARK UNBOUND:                -2.530
REMARK SMILES CCCCCCCCCCCCCC[C@@H](C)C(=O)[O-]
REMARK SMILES IDX 9 1 10 2 11 3 12 4 13 5 14 6 15 7 16 8 17 9 18 10 19 11 8 12
REMARK SMILES IDX 7 13 6 14 5 15 4 16 3 17 2 18 1 19
REMARK H PARENT
REMARK Flexibility Score: inf
ROOT
ATOM      1  C   UNL     1      16.229  -2.601   3.994  1.00  0.00     0.000 C 
ENDROOT
BRANCH   1   2
ATOM      2  C   UNL     1      15.495  -3.042   2.718  1.00  0.00     0.000 C 
BRANCH   2   3
ATOM      3  C   UNL     1      13.980  -2.794   2.792  1.00  0.00     0.000 C 
BRANCH   3   4
ATOM      4  C   UNL     1      13.481  -1.850   1.684  1.00  0.00     0.000 C 
BRANCH   4   5
ATOM      5  C   UNL     1      13.222  -0.424   2.196  1.00  0.00     0.001 C 
BRANCH   5   6
ATOM      6  C   UNL     1      11.919  -0.319   3.014  1.00  0.00     0.009 C 
BRANCH   6   7
ATOM      7  C   UNL     1      10.675   0.057   2.179  1.00  0.00     0.032 C 
ATOM      8  C   UNL     1      11.037   0.609   0.793  1.00  0.00     0.014 C 
BRANCH   7   9
ATOM      9  C   UNL     1       9.694  -1.085   2.096  1.00  0.00     0.044 C 
ATOM     10  O   UNL     1      10.007  -2.168   1.533  1.00  0.00    -0.550 OA
ATOM     11  O   UNL     1       8.445  -0.962   2.690  1.00  0.00    -0.550 OA
ENDBRANCH   7   9
ENDBRANCH   6   7
ENDBRANCH   5   6
ENDBRANCH   4   5
ENDBRANCH   3   4
ENDBRANCH   2   3
ENDBRANCH   1   2
BRANCH   1  12
ATOM     12  C   UNL     1      15.487  -1.452   4.686  1.00  0.00     0.000 C 
BRANCH  12  13
ATOM     13  C   UNL     1      16.254  -0.130   4.532  1.00  0.00    -0.000 C 
BRANCH  13  14
ATOM     14  C   UNL     1      17.701  -0.330   4.048  1.00  0.00    -0.000 C 
BRANCH  14  15
ATOM     15  C   UNL     1      17.997   0.215   2.636  1.00  0.00    -0.000 C 
BRANCH  15  16
ATOM     16  C   UNL     1      16.751   0.556   1.793  1.00  0.00    -0.000 C 
BRANCH  16  17
ATOM     17  C   UNL     1      16.662  -0.174   0.439  1.00  0.00    -0.000 C 
BRANCH  17  18
ATOM     18  C   UNL     1      15.604   0.386  -0.529  1.00  0.00    -0.003 C 
ATOM     19  C   UNL     1      15.072  -0.666  -1.502  1.00  0.00     0.004 C 
ENDBRANCH  17  18
ENDBRANCH  16  17
ENDBRANCH  15  16
ENDBRANCH  14  15
ENDBRANCH  13  14
ENDBRANCH  12  13
ENDBRANCH   1  12
TORSDOF 14
ENDMDL
MODEL 3
REMARK VINA RESULT:    -4.007      3.289      6.228
REMARK INTER + INTRA:          -9.816
REMARK INTER:                  -7.573
REMARK INTRA:                  -2.243
REMARK UNBOUND:                -2.530
REMARK SMILES CCCCCCCCCCCCCC[C@@H](C)C(=O)[O-]
REMARK SMILES IDX 9 1 10 2 11 3 12 4 13 5 14 6 15 7 16 8 17 9 18 10 19 11 8 12
REMARK SMILES IDX 7 13 6 14 5 15 4 16 3 17 2 18 1 19
REMARK H PARENT
REMARK Flexibility Score: inf
ROOT
ATOM      1  C   UNL     1      10.978  -0.412   3.171  1.00  0.00     0.000 C 
ENDROOT
BRANCH   1   2
ATOM      2  C   UNL     1      11.943   0.297   4.132  1.00  0.00     0.000 C 
BRANCH   2   3
ATOM      3  C   UNL     1      13.398  -0.162   3.954  1.00  0.00     0.000 C 
BRANCH   3   4
ATOM      4  C   UNL     1      13.503  -1.624   3.482  1.00  0.00     0.000 C 
BRANCH   4   5
ATOM      5  C   UNL     1      14.658  -2.380   4.156  1.00  0.00     0.001 C 
BRANCH   5   6
ATOM      6  C   UNL     1      15.649  -2.975   3.135  1.00  0.00     0.009 C 
BRANCH   6   7
ATOM      7  C   UNL     1      17.118  -2.993   3.614  1.00  0.00     0.032 C 
ATOM      8  C   UNL     1      17.391  -1.970   4.727  1.00  0.00     0.014 C 
BRANCH   7   9
ATOM      9  C   UNL     1      17.561  -4.381   4.000  1.00  0.00     0.044 C 
ATOM     10  O   UNL     1      17.790  -4.677   5.203  1.00  0.00    -0.550 OA
ATOM     11  O   UNL     1      17.672  -5.362   3.024  1.00  0.00    -0.550 OA
ENDBRANCH   7   9
ENDBRANCH   6   7
ENDBRANCH   5   6
ENDBRANCH   4   5
ENDBRANCH   3   4
ENDBRANCH   2   3
ENDBRANCH   1   2
BRANCH   1  12
ATOM     12  C   UNL     1      10.457   0.555   2.101  1.00  0.00     0.000 C 
BRANCH  12  13
ATOM     13  C   UNL     1      11.197   0.356   0.771  1.00  0.00    -0.000 C 
BRANCH  13  14
ATOM     14  C   UNL     1      11.534  -1.119   0.488  1.00  0.00    -0.000 C 
BRANCH  14  15
ATOM     15  C   UNL     1      12.923  -1.362  -0.136  1.00  0.00    -0.000 C 
BRANCH  15  16
ATOM     16  C   UNL     1      13.925  -0.201   0.028  1.00  0.00    -0.000 C 
BRANCH  16  17
ATOM     17  C   UNL     1      15.308  -0.440  -0.609  1.00  0.00    -0.000 C 
BRANCH  17  18
ATOM     18  C   UNL     1      16.496  -0.336   0.365  1.00  0.00    -0.003 C 
ATOM     19  C   UNL     1      16.136   0.373   1.669  1.00  0.00     0.004 C 
ENDBRANCH  17  18
ENDBRANCH  16  17
ENDBRANCH  15  16
ENDBRANCH  14  15
ENDBRANCH  13  14
ENDBRANCH  12  13
ENDBRANCH   1  12
TORSDOF 14
ENDMDL
MODEL 4
REMARK VINA RESULT:    -3.997      3.319      5.226
REMARK INTER + INTRA:          -9.799
REMARK INTER:                  -7.967
REMARK INTRA:                  -1.832
REMARK UNBOUND:                -2.530
REMARK SMILES CCCCCCCCCCCCCC[C@@H](C)C(=O)[O-]
REMARK SMILES IDX 9 1 10 2 11 3 12 4 13 5 14 6 15 7 16 8 17 9 18 10 19 11 8 12
REMARK SMILES IDX 7 13 6 14 5 15 4 16 3 17 2 18 1 19
REMARK H PARENT
REMARK Flexibility Score: inf
ROOT
ATOM      1  C   UNL     1      11.420   0.479   1.730  1.00  0.00     0.000 C 
ENDROOT
BRANCH   1   2
ATOM      2  C   UNL     1      11.564  -0.695   0.750  1.00  0.00     0.000 C 
BRANCH   2   3
ATOM      3  C   UNL     1      10.726  -1.915   1.162  1.00  0.00     0.000 C 
BRANCH   3   4
ATOM      4  C   UNL     1      10.819  -3.066   0.143  1.00  0.00     0.000 C 
BRANCH   4   5
ATOM      5  C   UNL     1       9.569  -3.961   0.150  1.00  0.00     0.001 C 
BRANCH   5   6
ATOM      6  C   UNL     1       9.629  -5.065  -0.926  1.00  0.00     0.009 C 
BRANCH   6   7
ATOM      7  C   UNL     1      10.256  -6.391  -0.439  1.00  0.00     0.032 C 
ATOM      8  C   UNL     1       9.424  -7.619  -0.835  1.00  0.00     0.014 C 
BRANCH   7   9
ATOM      9  C   UNL     1      11.694  -6.518  -0.871  1.00  0.00     0.044 C 
ATOM     10  O   UNL     1      12.635  -6.331  -0.053  1.00  0.00    -0.550 OA
ATOM     11  O   UNL     1      11.989  -6.894  -2.174  1.00  0.00    -0.550 OA
ENDBRANCH   7   9
ENDBRANCH   6   7
ENDBRANCH   5   6
ENDBRANCH   4   5
ENDBRANCH   3   4
ENDBRANCH   2   3
ENDBRANCH   1   2
BRANCH   1  12
ATOM     12  C   UNL     1      10.969  -0.011   3.111  1.00  0.00     0.000 C 
BRANCH  12  13
ATOM     13  C   UNL     1      12.001   0.352   4.189  1.00  0.00    -0.000 C 
BRANCH  13  14
ATOM     14  C   UNL     1      13.347  -0.370   3.997  1.00  0.00    -0.000 C 
BRANCH  14  15
ATOM     15  C   UNL     1      13.254  -1.906   3.898  1.00  0.00    -0.000 C 
BRANCH  15  16
ATOM     16  C   UNL     1      14.452  -2.590   3.209  1.00  0.00    -0.000 C 
BRANCH  16  17
ATOM     17  C   UNL     1      14.428  -2.548   1.668  1.00  0.00    -0.000 C 
BRANCH  17  18
ATOM     18  C   UNL     1      15.562  -1.730   1.026  1.00  0.00    -0.003 C 
ATOM     19  C   UNL     1      15.183  -0.269   0.789  1.00  0.00     0.004 C 
ENDBRANCH  17  18
ENDBRANCH  16  17
ENDBRANCH  15  16
ENDBRANCH  14  15
ENDBRANCH  13  14
ENDBRANCH  12  13
ENDBRANCH   1  12
TORSDOF 14
ENDMDL
MODEL 5
REMARK VINA RESULT:    -3.994      3.069      5.179
REMARK INTER + INTRA:          -9.792
REMARK INTER:                  -7.891
REMARK INTRA:                  -1.901
REMARK UNBOUND:                -2.530
REMARK SMILES CCCCCCCCCCCCCC[C@@H](C)C(=O)[O-]
REMARK SMILES IDX 9 1 10 2 11 3 12 4 13 5 14 6 15 7 16 8 17 9 18 10 19 11 8 12
REMARK SMILES IDX 7 13 6 14 5 15 4 16 3 17 2 18 1 19
REMARK H PARENT
REMARK Flexibility Score: inf
ROOT
ATOM      1  C   UNL     1      11.236   0.695   3.717  1.00  0.00     0.000 C 
ENDROOT
BRANCH   1   2
ATOM      2  C   UNL     1      10.666  -0.031   2.489  1.00  0.00     0.000 C 
BRANCH   2   3
ATOM      3  C   UNL     1      11.176   0.558   1.165  1.00  0.00     0.000 C 
BRANCH   3   4
ATOM      4  C   UNL     1      11.461  -0.525   0.108  1.00  0.00     0.000 C 
BRANCH   4   5
ATOM      5  C   UNL     1      12.821  -1.210   0.318  1.00  0.00     0.001 C 
BRANCH   5   6
ATOM      6  C   UNL     1      13.962  -0.198   0.551  1.00  0.00     0.009 C 
BRANCH   6   7
ATOM      7  C   UNL     1      15.306  -0.599  -0.097  1.00  0.00     0.032 C 
ATOM      8  C   UNL     1      15.316  -0.390  -1.618  1.00  0.00     0.014 C 
BRANCH   7   9
ATOM      9  C   UNL     1      16.472   0.078   0.576  1.00  0.00     0.044 C 
ATOM     10  O   UNL     1      16.320   0.708   1.656  1.00  0.00    -0.550 OA
ATOM     11  O   UNL     1      17.742  -0.032   0.024  1.00  0.00    -0.550 OA
ENDBRANCH   7   9
ENDBRANCH   6   7
ENDBRANCH   5   6
ENDBRANCH   4   5
ENDBRANCH   3   4
ENDBRANCH   2   3
ENDBRANCH   1   2
BRANCH   1  12
ATOM     12  C   UNL     1      12.658   0.214   4.028  1.00  0.00     0.000 C 
BRANCH  12  13
ATOM     13  C   UNL     1      12.681  -1.297   4.302  1.00  0.00    -0.000 C 
BRANCH  13  14
ATOM     14  C   UNL     1      13.914  -1.996   3.702  1.00  0.00    -0.000 C 
BRANCH  14  15
ATOM     15  C   UNL     1      15.272  -1.428   4.160  1.00  0.00    -0.000 C 
BRANCH  15  16
ATOM     16  C   UNL     1      16.500  -2.272   3.763  1.00  0.00    -0.000 C 
BRANCH  16  17
ATOM     17  C   UNL     1      16.896  -3.363   4.779  1.00  0.00    -0.000 C 
BRANCH  17  18
ATOM     18  C   UNL     1      16.472  -3.079   6.231  1.00  0.00    -0.003 C 
ATOM     19  C   UNL     1      17.590  -2.460   7.068  1.00  0.00     0.004 C 
ENDBRANCH  17  18
ENDBRANCH  16  17
ENDBRANCH  15  16
ENDBRANCH  14  15
ENDBRANCH  13  14
ENDBRANCH  12  13
ENDBRANCH   1  12
TORSDOF 14
ENDMDL
MODEL 6
REMARK VINA RESULT:    -3.975      2.500      5.401
REMARK INTER + INTRA:          -9.758
REMARK INTER:                  -7.583
REMARK INTRA:                  -2.175
REMARK UNBOUND:                -2.530
REMARK SMILES CCCCCCCCCCCCCC[C@@H](C)C(=O)[O-]
REMARK SMILES IDX 9 1 10 2 11 3 12 4 13 5 14 6 15 7 16 8 17 9 18 10 19 11 8 12
REMARK SMILES IDX 7 13 6 14 5 15 4 16 3 17 2 18 1 19
REMARK H PARENT
REMARK Flexibility Score: inf
ROOT
ATOM      1  C   UNL     1      10.851  -0.152   1.117  1.00  0.00     0.000 C 
ENDROOT
BRANCH   1   2
ATOM      2  C   UNL     1      10.574   0.142   2.599  1.00  0.00     0.000 C 
BRANCH   2   3
ATOM      3  C   UNL     1      11.652   1.034   3.235  1.00  0.00     0.000 C 
BRANCH   3   4
ATOM      4  C   UNL     1      12.223   0.435   4.533  1.00  0.00     0.000 C 
BRANCH   4   5
ATOM      5  C   UNL     1      12.494  -1.074   4.417  1.00  0.00     0.001 C 
BRANCH   5   6
ATOM      6  C   UNL     1      13.937  -1.381   3.968  1.00  0.00     0.009 C 
BRANCH   6   7
ATOM      7  C   UNL     1      14.112  -2.762   3.297  1.00  0.00     0.032 C 
ATOM      8  C   UNL     1      12.996  -3.077   2.290  1.00  0.00     0.014 C 
BRANCH   7   9
ATOM      9  C   UNL     1      15.483  -2.916   2.689  1.00  0.00     0.044 C 
ATOM     10  O   UNL     1      15.640  -3.503   1.585  1.00  0.00    -0.550 OA
ATOM     11  O   UNL     1      16.584  -2.362   3.328  1.00  0.00    -0.550 OA
ENDBRANCH   7   9
ENDBRANCH   6   7
ENDBRANCH   5   6
ENDBRANCH   4   5
ENDBRANCH   3   4
ENDBRANCH   2   3
ENDBRANCH   1   2
BRANCH   1  12
ATOM     12  C   UNL     1      12.281   0.246   0.735  1.00  0.00     0.000 C 
BRANCH  12  13
ATOM     13  C   UNL     1      12.816  -0.643  -0.397  1.00  0.00    -0.000 C 
BRANCH  13  14
ATOM     14  C   UNL     1      14.353  -0.641  -0.483  1.00  0.00    -0.000 C 
BRANCH  14  15
ATOM     15  C   UNL     1      15.074  -0.059   0.749  1.00  0.00    -0.000 C 
BRANCH  15  16
ATOM     16  C   UNL     1      16.523   0.407   0.498  1.00  0.00    -0.000 C 
BRANCH  16  17
ATOM     17  C   UNL     1      17.322   0.760   1.768  1.00  0.00    -0.000 C 
BRANCH  17  18
ATOM     18  C   UNL     1      17.378   2.262   2.101  1.00  0.00    -0.003 C 
ATOM     19  C   UNL     1      18.178   3.069   1.079  1.00  0.00     0.004 C 
ENDBRANCH  17  18
ENDBRANCH  16  17
ENDBRANCH  15  16
ENDBRANCH  14  15
ENDBRANCH  13  14
ENDBRANCH  12  13
ENDBRANCH   1  12
TORSDOF 14
ENDMDL
MODEL 7
REMARK VINA RESULT:    -3.958      3.465      5.446
REMARK INTER + INTRA:          -9.726
REMARK INTER:                  -7.267
REMARK INTRA:                  -2.459
REMARK UNBOUND:                -2.530
REMARK SMILES CCCCCCCCCCCCCC[C@@H](C)C(=O)[O-]
REMARK SMILES IDX 9 1 10 2 11 3 12 4 13 5 14 6 15 7 16 8 17 9 18 10 19 11 8 12
REMARK SMILES IDX 7 13 6 14 5 15 4 16 3 17 2 18 1 19
REMARK H PARENT
REMARK Flexibility Score: inf
ROOT
ATOM      1  C   UNL     1      11.721  -0.737   0.165  1.00  0.00     0.000 C 
ENDROOT
BRANCH   1   2
ATOM      2  C   UNL     1      13.105  -0.485  -0.452  1.00  0.00     0.000 C 
BRANCH   2   3
ATOM      3  C   UNL     1      14.243  -1.090   0.384  1.00  0.00     0.000 C 
BRANCH   3   4
ATOM      4  C   UNL     1      15.217  -0.023   0.915  1.00  0.00     0.000 C 
BRANCH   4   5
ATOM      5  C   UNL     1      16.673  -0.515   0.944  1.00  0.00     0.001 C 
BRANCH   5   6
ATOM      6  C   UNL     1      17.569   0.346   1.858  1.00  0.00     0.009 C 
BRANCH   6   7
ATOM      7  C   UNL     1      16.840   1.537   2.519  1.00  0.00     0.032 C 
ATOM      8  C   UNL     1      16.756   1.406   4.047  1.00  0.00     0.014 C 
BRANCH   7   9
ATOM      9  C   UNL     1      17.432   2.857   2.095  1.00  0.00     0.044 C 
ATOM     10  O   UNL     1      17.893   3.017   0.934  1.00  0.00    -0.550 OA
ATOM     11  O   UNL     1      17.427   3.927   2.980  1.00  0.00    -0.550 OA
ENDBRANCH   7   9
ENDBRANCH   6   7
ENDBRANCH   5   6
ENDBRANCH   4   5
ENDBRANCH   3   4
ENDBRANCH   2   3
ENDBRANCH   1   2
BRANCH   1  12
ATOM     12  C   UNL     1      11.205   0.513   0.887  1.00  0.00     0.000 C 
BRANCH  12  13
ATOM     13  C   UNL     1      10.602   0.152   2.252  1.00  0.00    -0.000 C 
BRANCH  13  14
ATOM     14  C   UNL     1      11.420   0.704   3.434  1.00  0.00    -0.000 C 
BRANCH  14  15
ATOM     15  C   UNL     1      12.743  -0.036   3.712  1.00  0.00    -0.000 C 
BRANCH  15  16
ATOM     16  C   UNL     1      12.613  -1.561   3.899  1.00  0.00    -0.000 C 
BRANCH  16  17
ATOM     17  C   UNL     1      13.900  -2.363   3.624  1.00  0.00    -0.000 C 
BRANCH  17  18
ATOM     18  C   UNL     1      15.174  -1.780   4.260  1.00  0.00    -0.003 C 
ATOM     19  C   UNL     1      16.399  -2.673   4.069  1.00  0.00     0.004 C 
ENDBRANCH  17  18
ENDBRANCH  16  17
ENDBRANCH  15  16
ENDBRANCH  14  15
ENDBRANCH  13  14
ENDBRANCH  12  13
ENDBRANCH   1  12
TORSDOF 14
ENDMDL
MODEL 8
REMARK VINA RESULT:    -3.956      1.522      2.827
REMARK INTER + INTRA:          -9.723
REMARK INTER:                  -7.528
REMARK INTRA:                  -2.196
REMARK UNBOUND:                -2.530
REMARK SMILES CCCCCCCCCCCCCC[C@@H](C)C(=O)[O-]
REMARK SMILES IDX 9 1 10 2 11 3 12 4 13 5 14 6 15 7 16 8 17 9 18 10 19 11 8 12
REMARK SMILES IDX 7 13 6 14 5 15 4 16 3 17 2 18 1 19
REMARK H PARENT
REMARK Flexibility Score: inf
ROOT
ATOM      1  C   UNL     1      17.673   0.857   2.876  1.00  0.00     0.000 C 
ENDROOT
BRANCH   1   2
ATOM      2  C   UNL     1      16.482   0.669   1.923  1.00  0.00     0.000 C 
BRANCH   2   3
ATOM      3  C   UNL     1      16.914   0.220   0.519  1.00  0.00     0.000 C 
BRANCH   3   4
ATOM      4  C   UNL     1      15.719  -0.156  -0.375  1.00  0.00     0.000 C 
BRANCH   4   5
ATOM      5  C   UNL     1      14.601  -0.868   0.404  1.00  0.00     0.001 C 
BRANCH   5   6
ATOM      6  C   UNL     1      13.205  -0.610  -0.199  1.00  0.00     0.009 C 
BRANCH   6   7
ATOM      7  C   UNL     1      12.052  -0.658   0.829  1.00  0.00     0.032 C 
ATOM      8  C   UNL     1      11.162   0.592   0.777  1.00  0.00     0.014 C 
BRANCH   7   9
ATOM      9  C   UNL     1      11.252  -1.929   0.709  1.00  0.00     0.044 C 
ATOM     10  O   UNL     1      11.689  -2.911   0.051  1.00  0.00    -0.550 OA
ATOM     11  O   UNL     1      10.037  -2.040   1.374  1.00  0.00    -0.550 OA
ENDBRANCH   7   9
ENDBRANCH   6   7
ENDBRANCH   5   6
ENDBRANCH   4   5
ENDBRANCH   3   4
ENDBRANCH   2   3
ENDBRANCH   1   2
BRANCH   1  12
ATOM     12  C   UNL     1      18.476  -0.441   3.015  1.00  0.00     0.000 C 
BRANCH  12  13
ATOM     13  C   UNL     1      17.990  -1.263   4.218  1.00  0.00    -0.000 C 
BRANCH  13  14
ATOM     14  C   UNL     1      17.647  -2.718   3.850  1.00  0.00    -0.000 C 
BRANCH  14  15
ATOM     15  C   UNL     1      16.194  -2.949   3.391  1.00  0.00    -0.000 C 
BRANCH  15  16
ATOM     16  C   UNL     1      15.127  -2.162   4.178  1.00  0.00    -0.000 C 
BRANCH  16  17
ATOM     17  C   UNL     1      13.675  -2.389   3.713  1.00  0.00    -0.000 C 
BRANCH  17  18
ATOM     18  C   UNL     1      12.675  -1.309   4.163  1.00  0.00    -0.003 C 
ATOM     19  C   UNL     1      13.276   0.095   4.166  1.00  0.00     0.004 C 
ENDBRANCH  17  18
ENDBRANCH  16  17
ENDBRANCH  15  16
ENDBRANCH  14  15
ENDBRANCH  13  14
ENDBRANCH  12  13
ENDBRANCH   1  12
TORSDOF 14
ENDMDL
MODEL 9
REMARK VINA RESULT:    -3.934      1.217      4.084
REMARK INTER + INTRA:          -9.684
REMARK INTER:                  -7.809
REMARK INTRA:                  -1.875
REMARK UNBOUND:                -2.530
REMARK SMILES CCCCCCCCCCCCCC[C@@H](C)C(=O)[O-]
REMARK SMILES IDX 9 1 10 2 11 3 12 4 13 5 14 6 15 7 16 8 17 9 18 10 19 11 8 12
REMARK SMILES IDX 7 13 6 14 5 15 4 16 3 17 2 18 1 19
REMARK H PARENT
REMARK Flexibility Score: inf
ROOT
ATOM      1  C   UNL     1      13.428  -3.110   2.753  1.00  0.00     0.000 C 
ENDROOT
BRANCH   1   2
ATOM      2  C   UNL     1      13.809  -1.909   3.631  1.00  0.00     0.000 C 
BRANCH   2   3
ATOM      3  C   UNL     1      12.590  -1.258   4.303  1.00  0.00     0.000 C 
BRANCH   3   4
ATOM      4  C   UNL     1      12.705   0.275   4.378  1.00  0.00     0.000 C 
BRANCH   4   5
ATOM      5  C   UNL     1      11.522   0.989   3.704  1.00  0.00     0.001 C 
BRANCH   5   6
ATOM      6  C   UNL     1      10.479   0.001   3.145  1.00  0.00     0.009 C 
BRANCH   6   7
ATOM      7  C   UNL     1      10.521  -0.162   1.609  1.00  0.00     0.032 C 
ATOM      8  C   UNL     1      11.734   0.533   0.972  1.00  0.00     0.014 C 
BRANCH   7   9
ATOM      9  C   UNL     1      10.417  -1.608   1.199  1.00  0.00     0.044 C 
ATOM     10  O   UNL     1       9.532  -2.359   1.689  1.00  0.00    -0.550 OA
ATOM     11  O   UNL     1      11.278  -2.111   0.232  1.00  0.00    -0.550 OA
ENDBRANCH   7   9
ENDBRANCH   6   7
ENDBRANCH   5   6
ENDBRANCH   4   5
ENDBRANCH   3   4
ENDBRANCH   2   3
ENDBRANCH   1   2
BRANCH   1  12
ATOM     12  C   UNL     1      14.615  -3.562   1.895  1.00  0.00     0.000 C 
BRANCH  12  13
ATOM     13  C   UNL     1      15.486  -2.366   1.485  1.00  0.00    -0.000 C 
BRANCH  13  14
ATOM     14  C   UNL     1      14.834  -1.496   0.394  1.00  0.00    -0.000 C 
BRANCH  14  15
ATOM     15  C   UNL     1      15.815  -0.641  -0.431  1.00  0.00    -0.000 C 
BRANCH  15  16
ATOM     16  C   UNL     1      16.206   0.706   0.209  1.00  0.00    -0.000 C 
BRANCH  16  17
ATOM     17  C   UNL     1      17.515   0.686   1.021  1.00  0.00    -0.000 C 
BRANCH  17  18
ATOM     18  C   UNL     1      17.431   1.360   2.402  1.00  0.00    -0.003 C 
ATOM     19  C   UNL     1      16.284   0.824   3.258  1.00  0.00     0.004 C 
ENDBRANCH  17  18
ENDBRANCH  16  17
ENDBRANCH  15  16
ENDBRANCH  14  15
ENDBRANCH  13  14
ENDBRANCH  12  13
ENDBRANCH   1  12
TORSDOF 14
ENDMDL
