MODEL 1
REMARK VINA RESULT:    -3.993      0.000      0.000
REMARK INTER + INTRA:          -4.909
REMARK INTER:                  -4.693
REMARK INTRA:                  -0.216
REMARK UNBOUND:                -0.216
REMARK SMILES O=C([O-])C=Cc1ccc(O)c(O)c1
REMARK SMILES IDX 6 1 13 2 7 3 11 4 8 5 9 6 5 7 4 8 2 9 1 10 3 11 12 12 10 14
REMARK H PARENT 12 13 10 15
REMARK Flexibility Score: inf
ROOT
ATOM      1  C   UNL     1      13.212  64.889  14.717  1.00  0.00    -0.022 A 
ATOM      2  C   UNL     1      13.243  63.545  14.319  1.00  0.00     0.058 A 
ATOM      3  C   UNL     1      13.399  65.896  13.754  1.00  0.00     0.012 A 
ATOM      4  C   UNL     1      13.510  63.202  12.988  1.00  0.00     0.157 A 
ATOM      5  C   UNL     1      13.667  65.559  12.426  1.00  0.00     0.051 A 
ATOM      6  C   UNL     1      13.728  64.213  12.036  1.00  0.00     0.157 A 
ENDROOT
BRANCH   1   7
ATOM      7  C   UNL     1      12.875  65.223  16.116  1.00  0.00     0.010 C 
ATOM      8  C   UNL     1      13.762  65.424  17.102  1.00  0.00     0.025 C 
BRANCH   8   9
ATOM      9  C   UNL     1      15.213  65.164  17.014  1.00  0.00     0.064 C 
ATOM     10  O   UNL     1      15.707  64.210  17.668  1.00  0.00    -0.545 OA
ATOM     11  O   UNL     1      16.032  65.904  16.171  1.00  0.00    -0.545 OA
ENDBRANCH   8   9
ENDBRANCH   1   7
BRANCH   4  12
ATOM     12  O   UNL     1      13.553  61.855  12.631  1.00  0.00    -0.504 OA
ATOM     13  H   UNL     1      14.181  61.508  11.916  1.00  0.00     0.293 HD
ENDBRANCH   4  12
BRANCH   6  14
ATOM     14  O   UNL     1      13.997  63.879  10.710  1.00  0.00    -0.504 OA
ATOM     15  H   UNL     1      14.340  62.961  10.453  1.00  0.00     0.293 HD
ENDBRANCH   6  14
TORSDOF 4
ENDMDL
MODEL 2
REMARK VINA RESULT:    -3.352     17.892     19.617
REMARK INTER + INTRA:          -4.156
REMARK INTER:                  -3.907
REMARK INTRA:                  -0.250
REMARK UNBOUND:                -0.216
REMARK SMILES O=C([O-])C=Cc1ccc(O)c(O)c1
REMARK SMILES IDX 6 1 13 2 7 3 11 4 8 5 9 6 5 7 4 8 2 9 1 10 3 11 12 12 10 14
REMARK H PARENT 12 13 10 15
REMARK Flexibility Score: inf
ROOT
ATOM      1  C   UNL     1      33.009  63.835  20.936  1.00  0.00    -0.022 A 
ATOM      2  C   UNL     1      33.076  63.478  19.582  1.00  0.00     0.058 A 
ATOM      3  C   UNL     1      32.996  62.825  21.914  1.00  0.00     0.012 A 
ATOM      4  C   UNL     1      33.077  62.132  19.199  1.00  0.00     0.157 A 
ATOM      5  C   UNL     1      32.996  61.480  21.536  1.00  0.00     0.051 A 
ATOM      6  C   UNL     1      33.032  61.126  20.180  1.00  0.00     0.157 A 
ENDROOT
BRANCH   1   7
ATOM      7  C   UNL     1      33.063  65.262  21.313  1.00  0.00     0.010 C 
ATOM      8  C   UNL     1      31.999  66.063  21.482  1.00  0.00     0.025 C 
BRANCH   8   9
ATOM      9  C   UNL     1      30.606  65.717  21.140  1.00  0.00     0.064 C 
ATOM     10  O   UNL     1      29.750  65.632  22.058  1.00  0.00    -0.545 OA
ATOM     11  O   UNL     1      30.202  65.554  19.821  1.00  0.00    -0.545 OA
ENDBRANCH   8   9
ENDBRANCH   1   7
BRANCH   4  12
ATOM     12  O   UNL     1      33.125  61.813  17.843  1.00  0.00    -0.504 OA
ATOM     13  H   UNL     1      33.234  62.521  17.127  1.00  0.00     0.293 HD
ENDBRANCH   4  12
BRANCH   6  14
ATOM     14  O   UNL     1      33.030  59.784  19.806  1.00  0.00    -0.504 OA
ATOM     15  H   UNL     1      33.244  59.496  18.858  1.00  0.00     0.293 HD
ENDBRANCH   6  14
TORSDOF 4
ENDMDL
MODEL 3
REMARK VINA RESULT:    -3.297      1.062      2.133
REMARK INTER + INTRA:          -4.091
REMARK INTER:                  -4.359
REMARK INTRA:                   0.268
REMARK UNBOUND:                -0.216
REMARK SMILES O=C([O-])C=Cc1ccc(O)c(O)c1
REMARK SMILES IDX 6 1 13 2 7 3 11 4 8 5 9 6 5 7 4 8 2 9 1 10 3 11 12 12 10 14
REMARK H PARENT 12 13 10 15
REMARK Flexibility Score: inf
ROOT
ATOM      1  C   UNL     1      13.764  64.918  14.547  1.00  0.00    -0.022 A 
ATOM      2  C   UNL     1      14.081  64.866  13.182  1.00  0.00     0.058 A 
ATOM      3  C   UNL     1      13.209  63.786  15.168  1.00  0.00     0.012 A 
ATOM      4  C   UNL     1      13.802  63.720  12.429  1.00  0.00     0.157 A 
ATOM      5  C   UNL     1      12.928  62.640  14.420  1.00  0.00     0.051 A 
ATOM      6  C   UNL     1      13.218  62.601  13.048  1.00  0.00     0.157 A 
ENDROOT
BRANCH   1   7
ATOM      7  C   UNL     1      14.118  66.121  15.327  1.00  0.00     0.010 C 
ATOM      8  C   UNL     1      14.799  66.124  16.484  1.00  0.00     0.025 C 
BRANCH   8   9
ATOM      9  C   UNL     1      15.147  64.928  17.275  1.00  0.00     0.064 C 
ATOM     10  O   UNL     1      16.308  64.449  17.187  1.00  0.00    -0.545 OA
ATOM     11  O   UNL     1      14.247  64.361  18.168  1.00  0.00    -0.545 OA
ENDBRANCH   8   9
ENDBRANCH   1   7
BRANCH   4  12
ATOM     12  O   UNL     1      14.112  63.709  11.069  1.00  0.00    -0.504 OA
ATOM     13  H   UNL     1      14.596  64.478  10.622  1.00  0.00     0.293 HD
ENDBRANCH   4  12
BRANCH   6  14
ATOM     14  O   UNL     1      12.935  61.457  12.304  1.00  0.00    -0.504 OA
ATOM     15  H   UNL     1      13.548  61.141  11.562  1.00  0.00     0.293 HD
ENDBRANCH   6  14
TORSDOF 4
ENDMDL
MODEL 4
REMARK VINA RESULT:    -3.263     14.502     16.250
REMARK INTER + INTRA:          -4.051
REMARK INTER:                  -3.823
REMARK INTRA:                  -0.227
REMARK UNBOUND:                -0.216
REMARK SMILES O=C([O-])C=Cc1ccc(O)c(O)c1
REMARK SMILES IDX 6 1 13 2 7 3 11 4 8 5 9 6 5 7 4 8 2 9 1 10 3 11 12 12 10 14
REMARK H PARENT 12 13 10 15
REMARK Flexibility Score: inf
ROOT
ATOM      1  C   UNL     1      29.910  65.704  18.068  1.00  0.00    -0.022 A 
ATOM      2  C   UNL     1      28.870  64.992  18.682  1.00  0.00     0.058 A 
ATOM      3  C   UNL     1      29.764  66.124  16.735  1.00  0.00     0.012 A 
ATOM      4  C   UNL     1      27.717  64.655  17.963  1.00  0.00     0.157 A 
ATOM      5  C   UNL     1      28.616  65.789  16.014  1.00  0.00     0.051 A 
ATOM      6  C   UNL     1      27.590  65.051  16.620  1.00  0.00     0.157 A 
ENDROOT
BRANCH   1   7
ATOM      7  C   UNL     1      31.091  66.091  18.866  1.00  0.00     0.010 C 
ATOM      8  C   UNL     1      32.139  65.298  19.141  1.00  0.00     0.025 C 
BRANCH   8   9
ATOM      9  C   UNL     1      32.213  63.851  18.859  1.00  0.00     0.064 C 
ATOM     10  O   UNL     1      31.934  63.032  19.773  1.00  0.00    -0.545 OA
ATOM     11  O   UNL     1      32.514  63.373  17.590  1.00  0.00    -0.545 OA
ENDBRANCH   8   9
ENDBRANCH   1   7
BRANCH   4  12
ATOM     12  O   UNL     1      26.710  63.929  18.598  1.00  0.00    -0.504 OA
ATOM     13  H   UNL     1      26.473  62.983  18.323  1.00  0.00     0.293 HD
ENDBRANCH   4  12
BRANCH   6  14
ATOM     14  O   UNL     1      26.446  64.716  15.897  1.00  0.00    -0.504 OA
ATOM     15  H   UNL     1      25.520  64.798  16.301  1.00  0.00     0.293 HD
ENDBRANCH   6  14
TORSDOF 4
ENDMDL
MODEL 5
REMARK VINA RESULT:    -3.012     16.955     19.034
REMARK INTER + INTRA:          -3.756
REMARK INTER:                  -3.501
REMARK INTRA:                  -0.255
REMARK UNBOUND:                -0.216
REMARK SMILES O=C([O-])C=Cc1ccc(O)c(O)c1
REMARK SMILES IDX 6 1 13 2 7 3 11 4 8 5 9 6 5 7 4 8 2 9 1 10 3 11 12 12 10 14
REMARK H PARENT 12 13 10 15
REMARK Flexibility Score: inf
ROOT
ATOM      1  C   UNL     1      32.777  63.962  18.674  1.00  0.00    -0.022 A 
ATOM      2  C   UNL     1      32.532  63.599  20.006  1.00  0.00     0.058 A 
ATOM      3  C   UNL     1      33.048  62.960  17.727  1.00  0.00     0.012 A 
ATOM      4  C   UNL     1      32.608  62.260  20.405  1.00  0.00     0.157 A 
ATOM      5  C   UNL     1      33.125  61.622  18.120  1.00  0.00     0.051 A 
ATOM      6  C   UNL     1      32.910  61.264  19.459  1.00  0.00     0.157 A 
ENDROOT
BRANCH   1   7
ATOM      7  C   UNL     1      32.638  65.376  18.271  1.00  0.00     0.010 C 
ATOM      8  C   UNL     1      31.501  65.960  17.862  1.00  0.00     0.025 C 
BRANCH   8   9
ATOM      9  C   UNL     1      30.239  65.257  17.560  1.00  0.00     0.064 C 
ATOM     10  O   UNL     1      29.447  64.984  18.500  1.00  0.00    -0.545 OA
ATOM     11  O   UNL     1      29.871  64.954  16.256  1.00  0.00    -0.545 OA
ENDBRANCH   8   9
ENDBRANCH   1   7
BRANCH   4  12
ATOM     12  O   UNL     1      32.378  61.936  21.742  1.00  0.00    -0.504 OA
ATOM     13  H   UNL     1      32.008  62.609  22.402  1.00  0.00     0.293 HD
ENDBRANCH   4  12
BRANCH   6  14
ATOM     14  O   UNL     1      32.990  59.929  19.850  1.00  0.00    -0.504 OA
ATOM     15  H   UNL     1      32.831  59.173  19.193  1.00  0.00     0.293 HD
ENDBRANCH   6  14
TORSDOF 4
ENDMDL
MODEL 6
REMARK VINA RESULT:    -2.961      2.321      4.782
REMARK INTER + INTRA:          -3.696
REMARK INTER:                  -3.437
REMARK INTRA:                  -0.259
REMARK UNBOUND:                -0.216
REMARK SMILES O=C([O-])C=Cc1ccc(O)c(O)c1
REMARK SMILES IDX 6 1 13 2 7 3 11 4 8 5 9 6 5 7 4 8 2 9 1 10 3 11 12 12 10 14
REMARK H PARENT 12 13 10 15
REMARK Flexibility Score: inf
ROOT
ATOM      1  C   UNL     1      14.967  65.915  13.814  1.00  0.00    -0.022 A 
ATOM      2  C   UNL     1      16.203  65.988  13.158  1.00  0.00     0.058 A 
ATOM      3  C   UNL     1      14.930  65.956  15.219  1.00  0.00     0.012 A 
ATOM      4  C   UNL     1      17.396  66.048  13.889  1.00  0.00     0.157 A 
ATOM      5  C   UNL     1      16.118  66.015  15.952  1.00  0.00     0.051 A 
ATOM      6  C   UNL     1      17.355  66.057  15.294  1.00  0.00     0.157 A 
ENDROOT
BRANCH   1   7
ATOM      7  C   UNL     1      13.723  65.906  13.017  1.00  0.00     0.010 C 
ATOM      8  C   UNL     1      12.911  64.851  12.855  1.00  0.00     0.025 C 
BRANCH   8   9
ATOM      9  C   UNL     1      13.208  63.469  13.282  1.00  0.00     0.064 C 
ATOM     10  O   UNL     1      13.835  62.706  12.502  1.00  0.00    -0.545 OA
ATOM     11  O   UNL     1      12.875  63.014  14.552  1.00  0.00    -0.545 OA
ENDBRANCH   8   9
ENDBRANCH   1   7
BRANCH   4  12
ATOM     12  O   UNL     1      18.609  66.099  13.204  1.00  0.00    -0.504 OA
ATOM     13  H   UNL     1      18.957  66.955  12.788  1.00  0.00     0.293 HD
ENDBRANCH   4  12
BRANCH   6  14
ATOM     14  O   UNL     1      18.538  66.113  16.028  1.00  0.00    -0.504 OA
ATOM     15  H   UNL     1      18.931  66.996  16.334  1.00  0.00     0.293 HD
ENDBRANCH   6  14
TORSDOF 4
ENDMDL
MODEL 7
REMARK VINA RESULT:    -2.805     15.945     18.233
REMARK INTER + INTRA:          -3.513
REMARK INTER:                  -3.268
REMARK INTRA:                  -0.245
REMARK UNBOUND:                -0.216
REMARK SMILES O=C([O-])C=Cc1ccc(O)c(O)c1
REMARK SMILES IDX 6 1 13 2 7 3 11 4 8 5 9 6 5 7 4 8 2 9 1 10 3 11 12 12 10 14
REMARK H PARENT 12 13 10 15
REMARK Flexibility Score: inf
ROOT
ATOM      1  C   UNL     1      31.463  64.904  19.086  1.00  0.00    -0.022 A 
ATOM      2  C   UNL     1      31.625  63.513  19.013  1.00  0.00     0.058 A 
ATOM      3  C   UNL     1      31.799  65.575  20.274  1.00  0.00     0.012 A 
ATOM      4  C   UNL     1      32.067  62.789  20.126  1.00  0.00     0.157 A 
ATOM      5  C   UNL     1      32.241  64.856  21.388  1.00  0.00     0.051 A 
ATOM      6  C   UNL     1      32.373  63.462  21.323  1.00  0.00     0.157 A 
ENDROOT
BRANCH   1   7
ATOM      7  C   UNL     1      31.045  65.648  17.881  1.00  0.00     0.010 C 
ATOM      8  C   UNL     1      29.787  66.012  17.588  1.00  0.00     0.025 C 
BRANCH   8   9
ATOM      9  C   UNL     1      28.579  65.574  18.315  1.00  0.00     0.064 C 
ATOM     10  O   UNL     1      28.287  66.122  19.409  1.00  0.00    -0.545 OA
ATOM     11  O   UNL     1      27.718  64.622  17.784  1.00  0.00    -0.545 OA
ENDBRANCH   8   9
ENDBRANCH   1   7
BRANCH   4  12
ATOM     12  O   UNL     1      32.199  61.404  20.026  1.00  0.00    -0.504 OA
ATOM     13  H   UNL     1      32.907  60.971  19.445  1.00  0.00     0.293 HD
ENDBRANCH   4  12
BRANCH   6  14
ATOM     14  O   UNL     1      32.811  62.746  22.435  1.00  0.00    -0.504 OA
ATOM     15  H   UNL     1      32.164  62.242  23.030  1.00  0.00     0.293 HD
ENDBRANCH   6  14
TORSDOF 4
ENDMDL
MODEL 8
REMARK VINA RESULT:    -2.720      2.870      4.491
REMARK INTER + INTRA:          -3.413
REMARK INTER:                  -3.700
REMARK INTRA:                   0.287
REMARK UNBOUND:                -0.216
REMARK SMILES O=C([O-])C=Cc1ccc(O)c(O)c1
REMARK SMILES IDX 6 1 13 2 7 3 11 4 8 5 9 6 5 7 4 8 2 9 1 10 3 11 12 12 10 14
REMARK H PARENT 12 13 10 15
REMARK Flexibility Score: inf
ROOT
ATOM      1  C   UNL     1      15.874  65.946  15.842  1.00  0.00    -0.022 A 
ATOM      2  C   UNL     1      17.115  65.731  16.458  1.00  0.00     0.058 A 
ATOM      3  C   UNL     1      15.817  66.102  14.447  1.00  0.00     0.012 A 
ATOM      4  C   UNL     1      18.294  65.724  15.703  1.00  0.00     0.157 A 
ATOM      5  C   UNL     1      16.990  66.097  13.689  1.00  0.00     0.051 A 
ATOM      6  C   UNL     1      18.233  65.912  14.311  1.00  0.00     0.157 A 
ENDROOT
BRANCH   1   7
ATOM      7  C   UNL     1      14.643  65.895  16.657  1.00  0.00     0.010 C 
ATOM      8  C   UNL     1      13.568  65.136  16.395  1.00  0.00     0.025 C 
BRANCH   8   9
ATOM      9  C   UNL     1      13.346  64.367  15.155  1.00  0.00     0.064 C 
ATOM     10  O   UNL     1      13.524  63.121  15.163  1.00  0.00    -0.545 OA
ATOM     11  O   UNL     1      12.876  64.975  13.998  1.00  0.00    -0.545 OA
ENDBRANCH   8   9
ENDBRANCH   1   7
BRANCH   4  12
ATOM     12  O   UNL     1      19.513  65.528  16.350  1.00  0.00    -0.504 OA
ATOM     13  H   UNL     1      19.882  66.194  17.018  1.00  0.00     0.293 HD
ENDBRANCH   4  12
BRANCH   6  14
ATOM     14  O   UNL     1      19.402  65.910  13.553  1.00  0.00    -0.504 OA
ATOM     15  H   UNL     1      19.989  66.733  13.479  1.00  0.00     0.293 HD
ENDBRANCH   6  14
TORSDOF 4
ENDMDL
