MODEL 1
REMARK VINA RESULT:    -6.838      0.000      0.000
REMARK INTER + INTRA:          -8.190
REMARK INTER:                  -8.237
REMARK INTRA:                   0.047
REMARK UNBOUND:                 0.047
REMARK SMILES O=c1c(O)c(-c2ccc(O)c(O)c2)oc2cc(O)cc(O)c12
REMARK SMILES IDX 5 1 3 2 2 3 1 4 22 5 20 6 19 7 17 8 16 9 15 10 14 11 6 12
REMARK SMILES IDX 7 13 8 14 9 15 13 16 11 17 10 18 12 20 4 22 21 24 18 26
REMARK H PARENT 10 19 12 21 4 23 21 25 18 27
REMARK Flexibility Score: inf
ROOT
ATOM      1  C   UNL     1     -19.663  26.605  -1.071  1.00  0.00     0.180 A 
ATOM      2  C   UNL     1     -18.727  26.289  -0.072  1.00  0.00     0.208 A 
ATOM      3  C   UNL     1     -18.678  24.978   0.427  1.00  0.00     0.238 A 
ATOM      4  O   UNL     1     -17.875  24.715   1.359  1.00  0.00    -0.285 OA
ATOM      5  C   UNL     1     -19.554  23.993  -0.093  1.00  0.00     0.111 A 
ATOM      6  C   UNL     1     -19.563  22.624   0.309  1.00  0.00     0.134 A 
ATOM      7  C   UNL     1     -20.559  21.768  -0.177  1.00  0.00     0.093 A 
ATOM      8  C   UNL     1     -21.507  22.217  -1.101  1.00  0.00     0.123 A 
ATOM      9  C   UNL     1     -21.468  23.537  -1.544  1.00  0.00     0.094 A 
ATOM     10  C   UNL     1     -20.509  24.424  -1.049  1.00  0.00     0.146 A 
ATOM     11  O   UNL     1     -20.515  25.675  -1.491  1.00  0.00    -0.452 OA
ENDROOT
BRANCH   1  12
ATOM     12  C   UNL     1     -19.759  27.958  -1.664  1.00  0.00     0.025 A 
ATOM     13  C   UNL     1     -19.793  29.107  -0.858  1.00  0.00     0.016 A 
ATOM     14  C   UNL     1     -19.860  30.375  -1.439  1.00  0.00     0.051 A 
ATOM     15  C   UNL     1     -19.882  30.523  -2.830  1.00  0.00     0.157 A 
ATOM     16  C   UNL     1     -19.759  28.104  -3.059  1.00  0.00     0.062 A 
ATOM     17  C   UNL     1     -19.827  29.372  -3.652  1.00  0.00     0.158 A 
BRANCH  15  18
ATOM     18  O   UNL     1     -19.954  31.818  -3.348  1.00  0.00    -0.504 OA
ATOM     19  H   UNL     1     -20.037  32.649  -2.780  1.00  0.00     0.293 HD
ENDBRANCH  15  18
BRANCH  17  20
ATOM     20  O   UNL     1     -19.835  29.441  -5.046  1.00  0.00    -0.504 OA
ATOM     21  H   UNL     1     -19.346  28.794  -5.647  1.00  0.00     0.293 HD
ENDBRANCH  17  20
ENDBRANCH   1  12
BRANCH   2  22
ATOM     22  O   UNL     1     -17.887  27.281   0.442  1.00  0.00    -0.502 OA
ATOM     23  H   UNL     1     -17.585  28.076  -0.107  1.00  0.00     0.293 HD
ENDBRANCH   2  22
BRANCH   6  24
ATOM     24  O   UNL     1     -18.608  22.052   1.155  1.00  0.00    -0.507 OA
ATOM     25  H   UNL     1     -18.811  21.385   1.884  1.00  0.00     0.293 HD
ENDBRANCH   6  24
BRANCH   8  26
ATOM     26  O   UNL     1     -22.486  21.355  -1.590  1.00  0.00    -0.508 OA
ATOM     27  H   UNL     1     -23.396  21.285  -1.152  1.00  0.00     0.293 HD
ENDBRANCH   8  26
TORSDOF 6
ENDMDL
MODEL 2
REMARK VINA RESULT:    -6.415      1.908      7.042
REMARK INTER + INTRA:          -7.681
REMARK INTER:                  -7.418
REMARK INTRA:                  -0.263
REMARK UNBOUND:                 0.047
REMARK SMILES O=c1c(O)c(-c2ccc(O)c(O)c2)oc2cc(O)cc(O)c12
REMARK SMILES IDX 5 1 3 2 2 3 1 4 22 5 20 6 19 7 17 8 16 9 15 10 14 11 6 12
REMARK SMILES IDX 7 13 8 14 9 15 13 16 11 17 10 18 12 20 4 22 21 24 18 26
REMARK H PARENT 10 19 12 21 4 23 21 25 18 27
REMARK Flexibility Score: inf
ROOT
ATOM      1  C   UNL     1     -19.938  27.020  -1.161  1.00  0.00     0.180 A 
ATOM      2  C   UNL     1     -19.522  27.592  -2.375  1.00  0.00     0.208 A 
ATOM      3  C   UNL     1     -19.382  28.986  -2.460  1.00  0.00     0.238 A 
ATOM      4  O   UNL     1     -19.062  29.496  -3.565  1.00  0.00    -0.285 OA
ATOM      5  C   UNL     1     -19.644  29.791  -1.323  1.00  0.00     0.111 A 
ATOM      6  C   UNL     1     -19.496  31.210  -1.284  1.00  0.00     0.134 A 
ATOM      7  C   UNL     1     -19.907  31.915  -0.146  1.00  0.00     0.093 A 
ATOM      8  C   UNL     1     -20.401  31.246   0.977  1.00  0.00     0.123 A 
ATOM      9  C   UNL     1     -20.493  29.857   0.969  1.00  0.00     0.094 A 
ATOM     10  C   UNL     1     -20.125  29.128  -0.165  1.00  0.00     0.146 A 
ATOM     11  O   UNL     1     -20.238  27.806  -0.133  1.00  0.00    -0.452 OA
ENDROOT
BRANCH   1  12
ATOM     12  C   UNL     1     -20.084  25.557  -0.987  1.00  0.00     0.025 A 
ATOM     13  C   UNL     1     -19.150  24.812  -0.250  1.00  0.00     0.016 A 
ATOM     14  C   UNL     1     -19.321  23.437  -0.080  1.00  0.00     0.051 A 
ATOM     15  C   UNL     1     -20.429  22.781  -0.627  1.00  0.00     0.157 A 
ATOM     16  C   UNL     1     -21.208  24.906  -1.519  1.00  0.00     0.062 A 
ATOM     17  C   UNL     1     -21.388  23.527  -1.353  1.00  0.00     0.158 A 
BRANCH  15  18
ATOM     18  O   UNL     1     -20.539  21.404  -0.423  1.00  0.00    -0.504 OA
ATOM     19  H   UNL     1     -21.412  20.897  -0.452  1.00  0.00     0.293 HD
ENDBRANCH  15  18
BRANCH  17  20
ATOM     20  O   UNL     1     -22.524  22.944  -1.920  1.00  0.00    -0.504 OA
ATOM     21  H   UNL     1     -23.034  22.179  -1.504  1.00  0.00     0.293 HD
ENDBRANCH  17  20
ENDBRANCH   1  12
BRANCH   2  22
ATOM     22  O   UNL     1     -19.290  26.782  -3.491  1.00  0.00    -0.502 OA
ATOM     23  H   UNL     1     -19.383  27.122  -4.440  1.00  0.00     0.293 HD
ENDBRANCH   2  22
BRANCH   6  24
ATOM     24  O   UNL     1     -18.928  31.964  -2.315  1.00  0.00    -0.507 OA
ATOM     25  H   UNL     1     -19.447  32.388  -3.070  1.00  0.00     0.293 HD
ENDBRANCH   6  24
BRANCH   8  26
ATOM     26  O   UNL     1     -20.794  31.956   2.109  1.00  0.00    -0.508 OA
ATOM     27  H   UNL     1     -21.734  32.322   2.205  1.00  0.00     0.293 HD
ENDBRANCH   8  26
TORSDOF 6
ENDMDL
MODEL 3
REMARK VINA RESULT:    -6.339      1.253      2.849
REMARK INTER + INTRA:          -7.590
REMARK INTER:                  -7.433
REMARK INTRA:                  -0.157
REMARK UNBOUND:                 0.047
REMARK SMILES O=c1c(O)c(-c2ccc(O)c(O)c2)oc2cc(O)cc(O)c12
REMARK SMILES IDX 5 1 3 2 2 3 1 4 22 5 20 6 19 7 17 8 16 9 15 10 14 11 6 12
REMARK SMILES IDX 7 13 8 14 9 15 13 16 11 17 10 18 12 20 4 22 21 24 18 26
REMARK H PARENT 10 19 12 21 4 23 21 25 18 27
REMARK Flexibility Score: inf
ROOT
ATOM      1  C   UNL     1     -20.314  26.348  -1.378  1.00  0.00     0.180 A 
ATOM      2  C   UNL     1     -21.411  25.735  -2.007  1.00  0.00     0.208 A 
ATOM      3  C   UNL     1     -21.639  24.366  -1.799  1.00  0.00     0.238 A 
ATOM      4  O   UNL     1     -22.591  23.811  -2.408  1.00  0.00    -0.285 OA
ATOM      5  C   UNL     1     -20.777  23.629  -0.950  1.00  0.00     0.111 A 
ATOM      6  C   UNL     1     -20.937  22.246  -0.636  1.00  0.00     0.134 A 
ATOM      7  C   UNL     1     -19.952  21.589   0.111  1.00  0.00     0.093 A 
ATOM      8  C   UNL     1     -18.844  22.280   0.608  1.00  0.00     0.123 A 
ATOM      9  C   UNL     1     -18.710  23.643   0.356  1.00  0.00     0.094 A 
ATOM     10  C   UNL     1     -19.658  24.319  -0.416  1.00  0.00     0.146 A 
ATOM     11  O   UNL     1     -19.486  25.616  -0.640  1.00  0.00    -0.452 OA
ENDROOT
BRANCH   1  12
ATOM     12  C   UNL     1     -20.023  27.791  -1.529  1.00  0.00     0.025 A 
ATOM     13  C   UNL     1     -20.065  28.664  -0.431  1.00  0.00     0.016 A 
ATOM     14  C   UNL     1     -19.764  30.018  -0.592  1.00  0.00     0.051 A 
ATOM     15  C   UNL     1     -19.403  30.525  -1.845  1.00  0.00     0.157 A 
ATOM     16  C   UNL     1     -19.640  28.292  -2.783  1.00  0.00     0.062 A 
ATOM     17  C   UNL     1     -19.336  29.649  -2.955  1.00  0.00     0.158 A 
BRANCH  15  18
ATOM     18  O   UNL     1     -19.117  31.888  -1.940  1.00  0.00    -0.504 OA
ATOM     19  H   UNL     1     -18.948  32.486  -1.145  1.00  0.00     0.293 HD
ENDBRANCH  15  18
BRANCH  17  20
ATOM     20  O   UNL     1     -18.975  30.079  -4.234  1.00  0.00    -0.504 OA
ATOM     21  H   UNL     1     -18.696  29.461  -4.981  1.00  0.00     0.293 HD
ENDBRANCH  17  20
ENDBRANCH   1  12
BRANCH   2  22
ATOM     22  O   UNL     1     -22.237  26.475  -2.858  1.00  0.00    -0.502 OA
ATOM     23  H   UNL     1     -22.632  27.369  -2.591  1.00  0.00     0.293 HD
ENDBRANCH   2  22
BRANCH   6  24
ATOM     24  O   UNL     1     -22.051  21.485  -1.005  1.00  0.00    -0.507 OA
ATOM     25  H   UNL     1     -22.013  20.638  -1.550  1.00  0.00     0.293 HD
ENDBRANCH   6  24
BRANCH   8  26
ATOM     26  O   UNL     1     -17.875  21.622   1.362  1.00  0.00    -0.508 OA
ATOM     27  H   UNL     1     -16.966  22.035   1.533  1.00  0.00     0.293 HD
ENDBRANCH   8  26
TORSDOF 6
ENDMDL
MODEL 4
REMARK VINA RESULT:    -6.152      1.724      6.960
REMARK INTER + INTRA:          -7.364
REMARK INTER:                  -7.131
REMARK INTRA:                  -0.233
REMARK UNBOUND:                 0.047
REMARK SMILES O=c1c(O)c(-c2ccc(O)c(O)c2)oc2cc(O)cc(O)c12
REMARK SMILES IDX 5 1 3 2 2 3 1 4 22 5 20 6 19 7 17 8 16 9 15 10 14 11 6 12
REMARK SMILES IDX 7 13 8 14 9 15 13 16 11 17 10 18 12 20 4 22 21 24 18 26
REMARK H PARENT 10 19 12 21 4 23 21 25 18 27
REMARK Flexibility Score: inf
ROOT
ATOM      1  C   UNL     1     -20.558  26.154  -0.587  1.00  0.00     0.180 A 
ATOM      2  C   UNL     1     -21.039  26.932   0.480  1.00  0.00     0.208 A 
ATOM      3  C   UNL     1     -20.835  28.320   0.458  1.00  0.00     0.238 A 
ATOM      4  O   UNL     1     -21.220  29.004   1.442  1.00  0.00    -0.285 OA
ATOM      5  C   UNL     1     -20.167  28.917  -0.640  1.00  0.00     0.111 A 
ATOM      6  C   UNL     1     -19.941  30.319  -0.786  1.00  0.00     0.134 A 
ATOM      7  C   UNL     1     -19.156  30.785  -1.848  1.00  0.00     0.093 A 
ATOM      8  C   UNL     1     -18.643  29.905  -2.804  1.00  0.00     0.123 A 
ATOM      9  C   UNL     1     -18.909  28.541  -2.702  1.00  0.00     0.094 A 
ATOM     10  C   UNL     1     -19.658  28.042  -1.634  1.00  0.00     0.146 A 
ATOM     11  O   UNL     1     -19.879  26.735  -1.570  1.00  0.00    -0.452 OA
ENDROOT
BRANCH   1  12
ATOM     12  C   UNL     1     -20.756  24.688  -0.647  1.00  0.00     0.025 A 
ATOM     13  C   UNL     1     -21.636  24.108  -1.574  1.00  0.00     0.016 A 
ATOM     14  C   UNL     1     -21.789  22.721  -1.628  1.00  0.00     0.051 A 
ATOM     15  C   UNL     1     -21.062  21.887  -0.773  1.00  0.00     0.157 A 
ATOM     16  C   UNL     1     -20.009  23.854   0.198  1.00  0.00     0.062 A 
ATOM     17  C   UNL     1     -20.155  22.462   0.151  1.00  0.00     0.158 A 
BRANCH  15  18
ATOM     18  O   UNL     1     -21.264  20.510  -0.875  1.00  0.00    -0.504 OA
ATOM     19  H   UNL     1     -21.036  19.965  -1.694  1.00  0.00     0.293 HD
ENDBRANCH  15  18
BRANCH  17  20
ATOM     20  O   UNL     1     -19.388  21.695   1.030  1.00  0.00    -0.504 OA
ATOM     21  H   UNL     1     -19.140  20.730   0.869  1.00  0.00     0.293 HD
ENDBRANCH  17  20
ENDBRANCH   1  12
BRANCH   2  22
ATOM     22  O   UNL     1     -21.676  26.321   1.563  1.00  0.00    -0.502 OA
ATOM     23  H   UNL     1     -22.543  26.670   1.953  1.00  0.00     0.293 HD
ENDBRANCH   2  22
BRANCH   6  24
ATOM     24  O   UNL     1     -20.485  31.290   0.061  1.00  0.00    -0.507 OA
ATOM     25  H   UNL     1     -21.230  31.125   0.721  1.00  0.00     0.293 HD
ENDBRANCH   6  24
BRANCH   8  26
ATOM     26  O   UNL     1     -17.875  30.378  -3.866  1.00  0.00    -0.508 OA
ATOM     27  H   UNL     1     -18.155  31.192  -4.401  1.00  0.00     0.293 HD
ENDBRANCH   8  26
TORSDOF 6
ENDMDL
MODEL 5
REMARK VINA RESULT:    -6.039      1.492      3.207
REMARK INTER + INTRA:          -7.228
REMARK INTER:                  -6.948
REMARK INTRA:                  -0.280
REMARK UNBOUND:                 0.047
REMARK SMILES O=c1c(O)c(-c2ccc(O)c(O)c2)oc2cc(O)cc(O)c12
REMARK SMILES IDX 5 1 3 2 2 3 1 4 22 5 20 6 19 7 17 8 16 9 15 10 14 11 6 12
REMARK SMILES IDX 7 13 8 14 9 15 13 16 11 17 10 18 12 20 4 22 21 24 18 26
REMARK H PARENT 10 19 12 21 4 23 21 25 18 27
REMARK Flexibility Score: inf
ROOT
ATOM      1  C   UNL     1     -20.106  26.411  -1.444  1.00  0.00     0.180 A 
ATOM      2  C   UNL     1     -21.206  25.825  -2.093  1.00  0.00     0.208 A 
ATOM      3  C   UNL     1     -21.481  24.465  -1.876  1.00  0.00     0.238 A 
ATOM      4  O   UNL     1     -22.434  23.933  -2.501  1.00  0.00    -0.285 OA
ATOM      5  C   UNL     1     -20.661  23.712  -0.999  1.00  0.00     0.111 A 
ATOM      6  C   UNL     1     -20.870  22.338  -0.675  1.00  0.00     0.134 A 
ATOM      7  C   UNL     1     -19.922  21.660   0.101  1.00  0.00     0.093 A 
ATOM      8  C   UNL     1     -18.806  22.324   0.617  1.00  0.00     0.123 A 
ATOM      9  C   UNL     1     -18.625  23.679   0.355  1.00  0.00     0.094 A 
ATOM     10  C   UNL     1     -19.534  24.374  -0.447  1.00  0.00     0.146 A 
ATOM     11  O   UNL     1     -19.318  25.663  -0.680  1.00  0.00    -0.452 OA
ENDROOT
BRANCH   1  12
ATOM     12  C   UNL     1     -19.768  27.843  -1.604  1.00  0.00     0.025 A 
ATOM     13  C   UNL     1     -19.126  28.318  -2.759  1.00  0.00     0.016 A 
ATOM     14  C   UNL     1     -18.838  29.678  -2.897  1.00  0.00     0.051 A 
ATOM     15  C   UNL     1     -19.193  30.589  -1.898  1.00  0.00     0.157 A 
ATOM     16  C   UNL     1     -20.145  28.758  -0.609  1.00  0.00     0.062 A 
ATOM     17  C   UNL     1     -19.859  30.124  -0.739  1.00  0.00     0.158 A 
BRANCH  15  18
ATOM     18  O   UNL     1     -18.872  31.934  -2.096  1.00  0.00    -0.504 OA
ATOM     19  H   UNL     1     -19.026  32.429  -2.962  1.00  0.00     0.293 HD
ENDBRANCH  15  18
BRANCH  17  20
ATOM     20  O   UNL     1     -20.253  30.974   0.296  1.00  0.00    -0.504 OA
ATOM     21  H   UNL     1     -19.674  31.205   1.090  1.00  0.00     0.293 HD
ENDBRANCH  17  20
ENDBRANCH   1  12
BRANCH   2  22
ATOM     22  O   UNL     1     -21.989  26.580  -2.970  1.00  0.00    -0.502 OA
ATOM     23  H   UNL     1     -22.918  26.905  -2.729  1.00  0.00     0.293 HD
ENDBRANCH   2  22
BRANCH   6  24
ATOM     24  O   UNL     1     -21.998  21.608  -1.062  1.00  0.00    -0.507 OA
ATOM     25  H   UNL     1     -22.232  21.374  -2.015  1.00  0.00     0.293 HD
ENDBRANCH   6  24
BRANCH   8  26
ATOM     26  O   UNL     1     -17.875  21.644   1.400  1.00  0.00    -0.508 OA
ATOM     27  H   UNL     1     -18.035  20.692   1.707  1.00  0.00     0.293 HD
ENDBRANCH   8  26
TORSDOF 6
ENDMDL
MODEL 6
REMARK VINA RESULT:    -5.946      1.884      6.905
REMARK INTER + INTRA:          -7.116
REMARK INTER:                  -6.885
REMARK INTRA:                  -0.231
REMARK UNBOUND:                 0.047
REMARK SMILES O=c1c(O)c(-c2ccc(O)c(O)c2)oc2cc(O)cc(O)c12
REMARK SMILES IDX 5 1 3 2 2 3 1 4 22 5 20 6 19 7 17 8 16 9 15 10 14 11 6 12
REMARK SMILES IDX 7 13 8 14 9 15 13 16 11 17 10 18 12 20 4 22 21 24 18 26
REMARK H PARENT 10 19 12 21 4 23 21 25 18 27
REMARK Flexibility Score: inf
ROOT
ATOM      1  C   UNL     1     -20.167  26.544  -0.158  1.00  0.00     0.180 A 
ATOM      2  C   UNL     1     -20.713  27.369   0.840  1.00  0.00     0.208 A 
ATOM      3  C   UNL     1     -20.635  28.762   0.691  1.00  0.00     0.238 A 
ATOM      4  O   UNL     1     -21.077  29.495   1.614  1.00  0.00    -0.285 OA
ATOM      5  C   UNL     1     -20.026  29.315  -0.462  1.00  0.00     0.111 A 
ATOM      6  C   UNL     1     -19.927  30.712  -0.736  1.00  0.00     0.134 A 
ATOM      7  C   UNL     1     -19.189  31.148  -1.843  1.00  0.00     0.093 A 
ATOM      8  C   UNL     1     -18.601  30.234  -2.722  1.00  0.00     0.123 A 
ATOM      9  C   UNL     1     -18.743  28.868  -2.495  1.00  0.00     0.094 A 
ATOM     10  C   UNL     1     -19.442  28.402  -1.379  1.00  0.00     0.146 A 
ATOM     11  O   UNL     1     -19.544  27.092  -1.196  1.00  0.00    -0.452 OA
ENDROOT
BRANCH   1  12
ATOM     12  C   UNL     1     -20.233  25.067  -0.084  1.00  0.00     0.025 A 
ATOM     13  C   UNL     1     -19.458  24.346   0.839  1.00  0.00     0.016 A 
ATOM     14  C   UNL     1     -19.553  22.955   0.906  1.00  0.00     0.051 A 
ATOM     15  C   UNL     1     -20.429  22.257   0.068  1.00  0.00     0.157 A 
ATOM     16  C   UNL     1     -21.127  24.372  -0.912  1.00  0.00     0.062 A 
ATOM     17  C   UNL     1     -21.230  22.976  -0.852  1.00  0.00     0.158 A 
BRANCH  15  18
ATOM     18  O   UNL     1     -20.474  20.866   0.182  1.00  0.00    -0.504 OA
ATOM     19  H   UNL     1     -19.668  20.265   0.087  1.00  0.00     0.293 HD
ENDBRANCH  15  18
BRANCH  17  20
ATOM     20  O   UNL     1     -22.133  22.350  -1.714  1.00  0.00    -0.504 OA
ATOM     21  H   UNL     1     -22.086  22.407  -2.720  1.00  0.00     0.293 HD
ENDBRANCH  17  20
ENDBRANCH   1  12
BRANCH   2  22
ATOM     22  O   UNL     1     -21.291  26.803   1.980  1.00  0.00    -0.502 OA
ATOM     23  H   UNL     1     -21.244  27.244   2.890  1.00  0.00     0.293 HD
ENDBRANCH   2  22
BRANCH   6  24
ATOM     24  O   UNL     1     -20.553  31.703   0.026  1.00  0.00    -0.507 OA
ATOM     25  H   UNL     1     -20.233  32.656   0.104  1.00  0.00     0.293 HD
ENDBRANCH   6  24
BRANCH   8  26
ATOM     26  O   UNL     1     -17.880  30.677  -3.829  1.00  0.00    -0.508 OA
ATOM     27  H   UNL     1     -18.241  30.576  -4.771  1.00  0.00     0.293 HD
ENDBRANCH   8  26
TORSDOF 6
ENDMDL
MODEL 7
REMARK VINA RESULT:    -5.863      1.879      6.759
REMARK INTER + INTRA:          -7.016
REMARK INTER:                  -6.857
REMARK INTRA:                  -0.158
REMARK UNBOUND:                 0.047
REMARK SMILES O=c1c(O)c(-c2ccc(O)c(O)c2)oc2cc(O)cc(O)c12
REMARK SMILES IDX 5 1 3 2 2 3 1 4 22 5 20 6 19 7 17 8 16 9 15 10 14 11 6 12
REMARK SMILES IDX 7 13 8 14 9 15 13 16 11 17 10 18 12 20 4 22 21 24 18 26
REMARK H PARENT 10 19 12 21 4 23 21 25 18 27
REMARK Flexibility Score: inf
ROOT
ATOM      1  C   UNL     1     -19.493  26.798  -0.035  1.00  0.00     0.180 A 
ATOM      2  C   UNL     1     -19.196  27.909   0.772  1.00  0.00     0.208 A 
ATOM      3  C   UNL     1     -19.185  29.188   0.194  1.00  0.00     0.238 A 
ATOM      4  O   UNL     1     -18.865  30.173   0.910  1.00  0.00    -0.285 OA
ATOM      5  C   UNL     1     -19.487  29.343  -1.181  1.00  0.00     0.111 A 
ATOM      6  C   UNL     1     -19.545  30.596  -1.862  1.00  0.00     0.134 A 
ATOM      7  C   UNL     1     -19.725  30.619  -3.251  1.00  0.00     0.093 A 
ATOM      8  C   UNL     1     -19.915  29.438  -3.973  1.00  0.00     0.123 A 
ATOM      9  C   UNL     1     -19.920  28.215  -3.307  1.00  0.00     0.094 A 
ATOM     10  C   UNL     1     -19.705  28.156  -1.928  1.00  0.00     0.146 A 
ATOM     11  O   UNL     1     -19.708  26.969  -1.335  1.00  0.00    -0.452 OA
ENDROOT
BRANCH   1  12
ATOM     12  C   UNL     1     -19.548  25.421   0.506  1.00  0.00     0.025 A 
ATOM     13  C   UNL     1     -20.467  25.066   1.507  1.00  0.00     0.016 A 
ATOM     14  C   UNL     1     -20.517  23.756   1.986  1.00  0.00     0.051 A 
ATOM     15  C   UNL     1     -19.665  22.773   1.471  1.00  0.00     0.157 A 
ATOM     16  C   UNL     1     -18.707  24.433  -0.028  1.00  0.00     0.062 A 
ATOM     17  C   UNL     1     -18.750  23.116   0.446  1.00  0.00     0.158 A 
BRANCH  15  18
ATOM     18  O   UNL     1     -19.762  21.483   1.996  1.00  0.00    -0.504 OA
ATOM     19  H   UNL     1     -20.632  20.980   2.100  1.00  0.00     0.293 HD
ENDBRANCH  15  18
BRANCH  17  20
ATOM     20  O   UNL     1     -17.875  22.188  -0.123  1.00  0.00    -0.504 OA
ATOM     21  H   UNL     1     -18.117  21.582  -0.893  1.00  0.00     0.293 HD
ENDBRANCH  17  20
ENDBRANCH   1  12
BRANCH   2  22
ATOM     22  O   UNL     1     -18.879  27.732   2.122  1.00  0.00    -0.502 OA
ATOM     23  H   UNL     1     -19.579  27.519   2.822  1.00  0.00     0.293 HD
ENDBRANCH   2  22
BRANCH   6  24
ATOM     24  O   UNL     1     -19.459  31.836  -1.223  1.00  0.00    -0.507 OA
ATOM     25  H   UNL     1     -19.521  31.975  -0.226  1.00  0.00     0.293 HD
ENDBRANCH   6  24
BRANCH   8  26
ATOM     26  O   UNL     1     -20.108  29.471  -5.352  1.00  0.00    -0.508 OA
ATOM     27  H   UNL     1     -20.975  29.805  -5.757  1.00  0.00     0.293 HD
ENDBRANCH   8  26
TORSDOF 6
ENDMDL
MODEL 8
REMARK VINA RESULT:    -5.222      1.684      7.264
REMARK INTER + INTRA:          -6.244
REMARK INTER:                  -6.338
REMARK INTRA:                   0.094
REMARK UNBOUND:                 0.047
REMARK SMILES O=c1c(O)c(-c2ccc(O)c(O)c2)oc2cc(O)cc(O)c12
REMARK SMILES IDX 5 1 3 2 2 3 1 4 22 5 20 6 19 7 17 8 16 9 15 10 14 11 6 12
REMARK SMILES IDX 7 13 8 14 9 15 13 16 11 17 10 18 12 20 4 22 21 24 18 26
REMARK H PARENT 10 19 12 21 4 23 21 25 18 27
REMARK Flexibility Score: inf
ROOT
ATOM      1  C   UNL     1     -19.560  26.501  -0.721  1.00  0.00     0.180 A 
ATOM      2  C   UNL     1     -19.666  26.954  -2.047  1.00  0.00     0.208 A 
ATOM      3  C   UNL     1     -19.474  28.318  -2.319  1.00  0.00     0.238 A 
ATOM      4  O   UNL     1     -19.623  28.726  -3.500  1.00  0.00    -0.285 OA
ATOM      5  C   UNL     1     -19.161  29.210  -1.263  1.00  0.00     0.111 A 
ATOM      6  C   UNL     1     -18.907  30.604  -1.429  1.00  0.00     0.134 A 
ATOM      7  C   UNL     1     -18.736  31.414  -0.300  1.00  0.00     0.093 A 
ATOM      8  C   UNL     1     -18.747  30.868   0.986  1.00  0.00     0.123 A 
ATOM      9  C   UNL     1     -18.936  29.498   1.154  1.00  0.00     0.094 A 
ATOM     10  C   UNL     1     -19.145  28.670   0.049  1.00  0.00     0.146 A 
ATOM     11  O   UNL     1     -19.331  27.372   0.255  1.00  0.00    -0.452 OA
ENDROOT
BRANCH   1  12
ATOM     12  C   UNL     1     -19.725  25.075  -0.359  1.00  0.00     0.025 A 
ATOM     13  C   UNL     1     -20.766  24.300  -0.896  1.00  0.00     0.016 A 
ATOM     14  C   UNL     1     -20.888  22.951  -0.559  1.00  0.00     0.051 A 
ATOM     15  C   UNL     1     -19.972  22.345   0.307  1.00  0.00     0.157 A 
ATOM     16  C   UNL     1     -18.792  24.465   0.493  1.00  0.00     0.062 A 
ATOM     17  C   UNL     1     -18.906  23.112   0.838  1.00  0.00     0.158 A 
BRANCH  15  18
ATOM     18  O   UNL     1     -20.153  20.994   0.608  1.00  0.00    -0.504 OA
ATOM     19  H   UNL     1     -19.433  20.401   0.996  1.00  0.00     0.293 HD
ENDBRANCH  15  18
BRANCH  17  20
ATOM     20  O   UNL     1     -17.949  22.575   1.700  1.00  0.00    -0.504 OA
ATOM     21  H   UNL     1     -16.962  22.528   1.491  1.00  0.00     0.293 HD
ENDBRANCH  17  20
ENDBRANCH   1  12
BRANCH   2  22
ATOM     22  O   UNL     1     -19.996  26.061  -3.071  1.00  0.00    -0.502 OA
ATOM     23  H   UNL     1     -19.296  25.616  -3.651  1.00  0.00     0.293 HD
ENDBRANCH   2  22
BRANCH   6  24
ATOM     24  O   UNL     1     -18.784  31.232  -2.672  1.00  0.00    -0.507 OA
ATOM     25  H   UNL     1     -19.300  32.051  -2.956  1.00  0.00     0.293 HD
ENDBRANCH   6  24
BRANCH   8  26
ATOM     26  O   UNL     1     -18.562  31.679   2.104  1.00  0.00    -0.508 OA
ATOM     27  H   UNL     1     -19.070  31.518   2.965  1.00  0.00     0.293 HD
ENDBRANCH   8  26
TORSDOF 6
ENDMDL
