MODEL 1
REMARK VINA RESULT:    -3.688      0.000      0.000
REMARK INTER + INTRA:          -8.419
REMARK INTER:                  -6.275
REMARK INTRA:                  -2.143
REMARK UNBOUND:                -2.143
REMARK SMILES CC(=O)CCC[C@H](C)CCC[C@H](C)CCCC(C)C
REMARK SMILES IDX 10 1 11 2 12 3 13 4 14 5 15 6 16 7 17 8 18 9 19 10 9 11 7 12
REMARK SMILES IDX 8 13 6 14 5 15 4 16 2 17 3 18 1 19
REMARK H PARENT
REMARK Flexibility Score: inf
ROOT
ATOM      1  C   UNL     1       4.299  -7.229  -5.462  1.00  0.00     0.001 C 
ENDROOT
BRANCH   1   2
ATOM      2  C   UNL     1       5.344  -6.794  -4.409  1.00  0.00     0.003 C 
BRANCH   2   3
ATOM      3  C   UNL     1       6.135  -5.523  -4.806  1.00  0.00    -0.014 C 
ATOM      4  C   UNL     1       7.584  -5.837  -5.214  1.00  0.00     0.007 C 
BRANCH   3   5
ATOM      5  C   UNL     1       6.072  -4.440  -3.699  1.00  0.00     0.003 C 
BRANCH   5   6
ATOM      6  C   UNL     1       6.079  -2.992  -4.225  1.00  0.00     0.001 C 
BRANCH   6   7
ATOM      7  C   UNL     1       5.360  -2.819  -5.580  1.00  0.00     0.003 C 
BRANCH   7   8
ATOM      8  C   UNL     1       6.240  -2.531  -6.826  1.00  0.00    -0.017 C 
ATOM      9  C   UNL     1       6.075  -3.567  -7.945  1.00  0.00     0.007 C 
ATOM     10  C   UNL     1       7.721  -2.315  -6.481  1.00  0.00     0.007 C 
ENDBRANCH   7   8
ENDBRANCH   6   7
ENDBRANCH   5   6
ENDBRANCH   3   5
ENDBRANCH   2   3
ENDBRANCH   1   2
BRANCH   1  11
ATOM     11  C   UNL     1       3.873  -6.067  -6.382  1.00  0.00     0.003 C 
BRANCH  11  12
ATOM     12  C   UNL     1       2.766  -6.463  -7.392  1.00  0.00    -0.014 C 
ATOM     13  C   UNL     1       1.977  -7.692  -6.905  1.00  0.00     0.007 C 
BRANCH  12  14
ATOM     14  C   UNL     1       1.773  -5.297  -7.639  1.00  0.00     0.004 C 
BRANCH  14  15
ATOM     15  C   UNL     1       2.201  -3.923  -7.088  1.00  0.00     0.008 C 
BRANCH  15  16
ATOM     16  C   UNL     1       2.174  -2.812  -8.148  1.00  0.00     0.075 C 
BRANCH  16  17
ATOM     17  C   UNL     1       1.167  -1.754  -7.780  1.00  0.00     0.129 C 
ATOM     18  O   UNL     1       1.284  -1.151  -6.725  1.00  0.00    -0.300 OA
ATOM     19  C   UNL     1       0.024  -1.413  -8.691  1.00  0.00     0.087 C 
ENDBRANCH  16  17
ENDBRANCH  15  16
ENDBRANCH  14  15
ENDBRANCH  12  14
ENDBRANCH  11  12
ENDBRANCH   1  11
TORSDOF 12
ENDMDL
MODEL 2
REMARK VINA RESULT:    -3.616      2.203      5.300
REMARK INTER + INTRA:          -8.296
REMARK INTER:                  -6.084
REMARK INTRA:                  -2.212
REMARK UNBOUND:                -2.143
REMARK SMILES CC(=O)CCC[C@H](C)CCC[C@H](C)CCCC(C)C
REMARK SMILES IDX 10 1 11 2 12 3 13 4 14 5 15 6 16 7 17 8 18 9 19 10 9 11 7 12
REMARK SMILES IDX 8 13 6 14 5 15 4 16 2 17 3 18 1 19
REMARK H PARENT
REMARK Flexibility Score: inf
ROOT
ATOM      1  C   UNL     1       5.038  -7.150  -6.597  1.00  0.00     0.001 C 
ENDROOT
BRANCH   1   2
ATOM      2  C   UNL     1       3.865  -7.729  -7.420  1.00  0.00     0.003 C 
BRANCH   2   3
ATOM      3  C   UNL     1       2.512  -7.725  -6.664  1.00  0.00    -0.014 C 
ATOM      4  C   UNL     1       2.102  -9.128  -6.188  1.00  0.00     0.007 C 
BRANCH   3   5
ATOM      5  C   UNL     1       1.393  -7.049  -7.495  1.00  0.00     0.003 C 
BRANCH   5   6
ATOM      6  C   UNL     1       1.836  -5.778  -8.244  1.00  0.00     0.001 C 
BRANCH   6   7
ATOM      7  C   UNL     1       2.158  -4.589  -7.314  1.00  0.00     0.003 C 
BRANCH   7   8
ATOM      8  C   UNL     1       2.889  -3.369  -7.938  1.00  0.00    -0.017 C 
ATOM      9  C   UNL     1       4.208  -3.736  -8.631  1.00  0.00     0.007 C 
ATOM     10  C   UNL     1       3.083  -2.212  -6.948  1.00  0.00     0.007 C 
ENDBRANCH   7   8
ENDBRANCH   6   7
ENDBRANCH   5   6
ENDBRANCH   3   5
ENDBRANCH   2   3
ENDBRANCH   1   2
BRANCH   1  11
ATOM     11  C   UNL     1       4.563  -6.441  -5.314  1.00  0.00     0.003 C 
BRANCH  11  12
ATOM     12  C   UNL     1       5.561  -5.373  -4.801  1.00  0.00    -0.014 C 
ATOM     13  C   UNL     1       6.489  -5.949  -3.715  1.00  0.00     0.007 C 
BRANCH  12  14
ATOM     14  C   UNL     1       6.432  -4.803  -5.951  1.00  0.00     0.004 C 
BRANCH  14  15
ATOM     15  C   UNL     1       6.636  -3.275  -5.943  1.00  0.00     0.008 C 
BRANCH  15  16
ATOM     16  C   UNL     1       6.016  -2.590  -4.716  1.00  0.00     0.075 C 
BRANCH  16  17
ATOM     17  C   UNL     1       7.085  -2.204  -3.728  1.00  0.00     0.129 C 
ATOM     18  O   UNL     1       6.962  -2.519  -2.554  1.00  0.00    -0.300 OA
ATOM     19  C   UNL     1       8.309  -1.448  -4.155  1.00  0.00     0.087 C 
ENDBRANCH  16  17
ENDBRANCH  15  16
ENDBRANCH  14  15
ENDBRANCH  12  14
ENDBRANCH  11  12
ENDBRANCH   1  11
TORSDOF 12
ENDMDL
MODEL 3
REMARK VINA RESULT:    -3.599      1.584      2.397
REMARK INTER + INTRA:          -8.268
REMARK INTER:                  -6.318
REMARK INTRA:                  -1.950
REMARK UNBOUND:                -2.143
REMARK SMILES CC(=O)CCC[C@H](C)CCC[C@H](C)CCCC(C)C
REMARK SMILES IDX 10 1 11 2 12 3 13 4 14 5 15 6 16 7 17 8 18 9 19 10 9 11 7 12
REMARK SMILES IDX 8 13 6 14 5 15 4 16 2 17 3 18 1 19
REMARK H PARENT
REMARK Flexibility Score: inf
ROOT
ATOM      1  C   UNL     1       4.992  -6.544  -5.984  1.00  0.00     0.001 C 
ENDROOT
BRANCH   1   2
ATOM      2  C   UNL     1       5.438  -5.380  -5.069  1.00  0.00     0.003 C 
BRANCH   2   3
ATOM      3  C   UNL     1       5.894  -4.119  -5.845  1.00  0.00    -0.014 C 
ATOM      4  C   UNL     1       7.298  -4.277  -6.451  1.00  0.00     0.007 C 
BRANCH   3   5
ATOM      5  C   UNL     1       5.784  -2.841  -4.976  1.00  0.00     0.003 C 
BRANCH   5   6
ATOM      6  C   UNL     1       6.036  -3.070  -3.473  1.00  0.00     0.001 C 
BRANCH   6   7
ATOM      7  C   UNL     1       7.270  -2.320  -2.928  1.00  0.00     0.003 C 
BRANCH   7   8
ATOM      8  C   UNL     1       8.616  -3.092  -2.888  1.00  0.00    -0.017 C 
ATOM      9  C   UNL     1       9.617  -2.632  -3.957  1.00  0.00     0.007 C 
ATOM     10  C   UNL     1       8.438  -4.617  -2.912  1.00  0.00     0.007 C 
ENDBRANCH   7   8
ENDBRANCH   6   7
ENDBRANCH   5   6
ENDBRANCH   3   5
ENDBRANCH   2   3
ENDBRANCH   1   2
BRANCH   1  11
ATOM     11  C   UNL     1       3.458  -6.664  -6.078  1.00  0.00     0.003 C 
BRANCH  11  12
ATOM     12  C   UNL     1       2.920  -6.491  -7.520  1.00  0.00    -0.014 C 
ATOM     13  C   UNL     1       1.442  -6.914  -7.621  1.00  0.00     0.007 C 
BRANCH  12  14
ATOM     14  C   UNL     1       3.055  -5.026  -8.011  1.00  0.00     0.004 C 
BRANCH  14  15
ATOM     15  C   UNL     1       2.162  -3.993  -7.295  1.00  0.00     0.008 C 
BRANCH  15  16
ATOM     16  C   UNL     1       2.829  -2.618  -7.147  1.00  0.00     0.075 C 
BRANCH  16  17
ATOM     17  C   UNL     1       1.919  -1.531  -7.657  1.00  0.00     0.129 C 
ATOM     18  O   UNL     1       0.764  -1.479  -7.265  1.00  0.00    -0.300 OA
ATOM     19  C   UNL     1       2.405  -0.498  -8.630  1.00  0.00     0.087 C 
ENDBRANCH  16  17
ENDBRANCH  15  16
ENDBRANCH  14  15
ENDBRANCH  12  14
ENDBRANCH  11  12
ENDBRANCH   1  11
TORSDOF 12
ENDMDL
MODEL 4
REMARK VINA RESULT:    -3.596      2.329      5.185
REMARK INTER + INTRA:          -8.261
REMARK INTER:                  -6.249
REMARK INTRA:                  -2.012
REMARK UNBOUND:                -2.143
REMARK SMILES CC(=O)CCC[C@H](C)CCC[C@H](C)CCCC(C)C
REMARK SMILES IDX 10 1 11 2 12 3 13 4 14 5 15 6 16 7 17 8 18 9 19 10 9 11 7 12
REMARK SMILES IDX 8 13 6 14 5 15 4 16 2 17 3 18 1 19
REMARK H PARENT
REMARK Flexibility Score: inf
ROOT
ATOM      1  C   UNL     1       1.705  -6.310  -7.412  1.00  0.00     0.001 C 
ENDROOT
BRANCH   1   2
ATOM      2  C   UNL     1       1.872  -5.646  -8.797  1.00  0.00     0.003 C 
BRANCH   2   3
ATOM      3  C   UNL     1       2.394  -4.188  -8.729  1.00  0.00    -0.014 C 
ATOM      4  C   UNL     1       3.884  -4.080  -9.091  1.00  0.00     0.007 C 
BRANCH   3   5
ATOM      5  C   UNL     1       2.086  -3.533  -7.359  1.00  0.00     0.003 C 
BRANCH   5   6
ATOM      6  C   UNL     1       2.941  -2.292  -7.041  1.00  0.00     0.001 C 
BRANCH   6   7
ATOM      7  C   UNL     1       2.140  -0.973  -7.019  1.00  0.00     0.003 C 
BRANCH   7   8
ATOM      8  C   UNL     1       1.973  -0.215  -8.363  1.00  0.00    -0.017 C 
ATOM      9  C   UNL     1       0.681  -0.570  -9.110  1.00  0.00     0.007 C 
ATOM     10  C   UNL     1       3.198  -0.337  -9.281  1.00  0.00     0.007 C 
ENDBRANCH   7   8
ENDBRANCH   6   7
ENDBRANCH   5   6
ENDBRANCH   3   5
ENDBRANCH   2   3
ENDBRANCH   1   2
BRANCH   1  11
ATOM     11  C   UNL     1       2.765  -7.399  -7.150  1.00  0.00     0.003 C 
BRANCH  11  12
ATOM     12  C   UNL     1       3.631  -7.118  -5.896  1.00  0.00    -0.014 C 
ATOM     13  C   UNL     1       4.006  -8.424  -5.171  1.00  0.00     0.007 C 
BRANCH  12  14
ATOM     14  C   UNL     1       4.932  -6.355  -6.256  1.00  0.00     0.004 C 
BRANCH  14  15
ATOM     15  C   UNL     1       5.089  -4.960  -5.620  1.00  0.00     0.008 C 
BRANCH  15  16
ATOM     16  C   UNL     1       5.835  -4.989  -4.278  1.00  0.00     0.075 C 
BRANCH  16  17
ATOM     17  C   UNL     1       6.711  -3.772  -4.132  1.00  0.00     0.129 C 
ATOM     18  O   UNL     1       7.855  -3.800  -4.559  1.00  0.00    -0.300 OA
ATOM     19  C   UNL     1       6.205  -2.518  -3.483  1.00  0.00     0.087 C 
ENDBRANCH  16  17
ENDBRANCH  15  16
ENDBRANCH  14  15
ENDBRANCH  12  14
ENDBRANCH  11  12
ENDBRANCH   1  11
TORSDOF 12
ENDMDL
MODEL 5
REMARK VINA RESULT:    -3.524      1.574      3.388
REMARK INTER + INTRA:          -8.139
REMARK INTER:                  -6.162
REMARK INTRA:                  -1.977
REMARK UNBOUND:                -2.143
REMARK SMILES CC(=O)CCC[C@H](C)CCC[C@H](C)CCCC(C)C
REMARK SMILES IDX 10 1 11 2 12 3 13 4 14 5 15 6 16 7 17 8 18 9 19 10 9 11 7 12
REMARK SMILES IDX 8 13 6 14 5 15 4 16 2 17 3 18 1 19
REMARK H PARENT
REMARK Flexibility Score: inf
ROOT
ATOM      1  C   UNL     1       1.601  -7.063  -8.690  1.00  0.00     0.001 C 
ENDROOT
BRANCH   1   2
ATOM      2  C   UNL     1       1.854  -6.314  -7.362  1.00  0.00     0.003 C 
BRANCH   2   3
ATOM      3  C   UNL     1       3.355  -6.175  -7.003  1.00  0.00    -0.014 C 
ATOM      4  C   UNL     1       3.760  -7.065  -5.817  1.00  0.00     0.007 C 
BRANCH   3   5
ATOM      5  C   UNL     1       3.755  -4.695  -6.773  1.00  0.00     0.003 C 
BRANCH   5   6
ATOM      6  C   UNL     1       5.265  -4.468  -6.574  1.00  0.00     0.001 C 
BRANCH   6   7
ATOM      7  C   UNL     1       5.598  -3.312  -5.607  1.00  0.00     0.003 C 
BRANCH   7   8
ATOM      8  C   UNL     1       6.440  -3.652  -4.348  1.00  0.00    -0.017 C 
ATOM      9  C   UNL     1       6.130  -5.034  -3.759  1.00  0.00     0.007 C 
ATOM     10  C   UNL     1       6.379  -2.560  -3.269  1.00  0.00     0.007 C 
ENDBRANCH   7   8
ENDBRANCH   6   7
ENDBRANCH   5   6
ENDBRANCH   3   5
ENDBRANCH   2   3
ENDBRANCH   1   2
BRANCH   1  11
ATOM     11  C   UNL     1       1.040  -6.139  -9.790  1.00  0.00     0.003 C 
BRANCH  11  12
ATOM     12  C   UNL     1       1.600  -4.696  -9.719  1.00  0.00    -0.014 C 
ATOM     13  C   UNL     1       2.892  -4.555 -10.544  1.00  0.00     0.007 C 
BRANCH  12  14
ATOM     14  C   UNL     1       0.567  -3.655 -10.224  1.00  0.00     0.004 C 
BRANCH  14  15
ATOM     15  C   UNL     1       0.286  -2.474  -9.275  1.00  0.00     0.008 C 
BRANCH  15  16
ATOM     16  C   UNL     1       0.918  -2.652  -7.886  1.00  0.00     0.075 C 
BRANCH  16  17
ATOM     17  C   UNL     1       1.843  -1.505  -7.575  1.00  0.00     0.129 C 
ATOM     18  O   UNL     1       1.570  -0.742  -6.661  1.00  0.00    -0.300 OA
ATOM     19  C   UNL     1       3.105  -1.285  -8.356  1.00  0.00     0.087 C 
ENDBRANCH  16  17
ENDBRANCH  15  16
ENDBRANCH  14  15
ENDBRANCH  12  14
ENDBRANCH  11  12
ENDBRANCH   1  11
TORSDOF 12
ENDMDL
MODEL 6
REMARK VINA RESULT:    -3.521     13.984     16.270
REMARK INTER + INTRA:          -8.134
REMARK INTER:                  -6.025
REMARK INTRA:                  -2.110
REMARK UNBOUND:                -2.143
REMARK SMILES CC(=O)CCC[C@H](C)CCC[C@H](C)CCCC(C)C
REMARK SMILES IDX 10 1 11 2 12 3 13 4 14 5 15 6 16 7 17 8 18 9 19 10 9 11 7 12
REMARK SMILES IDX 8 13 6 14 5 15 4 16 2 17 3 18 1 19
REMARK H PARENT
REMARK Flexibility Score: inf
ROOT
ATOM      1  C   UNL     1      -3.580   8.596   2.268  1.00  0.00     0.001 C 
ENDROOT
BRANCH   1   2
ATOM      2  C   UNL     1      -4.478   8.077   1.121  1.00  0.00     0.003 C 
BRANCH   2   3
ATOM      3  C   UNL     1      -5.095   6.683   1.397  1.00  0.00    -0.014 C 
ATOM      4  C   UNL     1      -5.058   6.309   2.888  1.00  0.00     0.007 C 
BRANCH   3   5
ATOM      5  C   UNL     1      -4.451   5.586   0.512  1.00  0.00     0.003 C 
BRANCH   5   6
ATOM      6  C   UNL     1      -5.281   5.199  -0.726  1.00  0.00     0.001 C 
BRANCH   6   7
ATOM      7  C   UNL     1      -6.750   4.850  -0.406  1.00  0.00     0.003 C 
BRANCH   7   8
ATOM      8  C   UNL     1      -7.009   3.669   0.568  1.00  0.00    -0.017 C 
ATOM      9  C   UNL     1      -7.146   2.313  -0.137  1.00  0.00     0.007 C 
ATOM     10  C   UNL     1      -8.185   3.921   1.523  1.00  0.00     0.007 C 
ENDBRANCH   7   8
ENDBRANCH   6   7
ENDBRANCH   5   6
ENDBRANCH   3   5
ENDBRANCH   2   3
ENDBRANCH   1   2
BRANCH   1  11
ATOM     11  C   UNL     1      -2.347   9.363   1.749  1.00  0.00     0.003 C 
BRANCH  11  12
ATOM     12  C   UNL     1      -1.006   8.781   2.262  1.00  0.00    -0.014 C 
ATOM     13  C   UNL     1      -1.145   7.292   2.630  1.00  0.00     0.007 C 
BRANCH  12  14
ATOM     14  C   UNL     1       0.124   8.932   1.211  1.00  0.00     0.004 C 
BRANCH  14  15
ATOM     15  C   UNL     1      -0.327   9.336  -0.206  1.00  0.00     0.008 C 
BRANCH  15  16
ATOM     16  C   UNL     1      -0.126   8.223  -1.245  1.00  0.00     0.075 C 
BRANCH  16  17
ATOM     17  C   UNL     1      -1.322   7.308  -1.279  1.00  0.00     0.129 C 
ATOM     18  O   UNL     1      -1.268   6.225  -0.716  1.00  0.00    -0.300 OA
ATOM     19  C   UNL     1      -2.589   7.702  -1.979  1.00  0.00     0.087 C 
ENDBRANCH  16  17
ENDBRANCH  15  16
ENDBRANCH  14  15
ENDBRANCH  12  14
ENDBRANCH  11  12
ENDBRANCH   1  11
TORSDOF 12
ENDMDL
MODEL 7
REMARK VINA RESULT:    -3.492      1.916      5.197
REMARK INTER + INTRA:          -8.084
REMARK INTER:                  -5.763
REMARK INTRA:                  -2.321
REMARK UNBOUND:                -2.143
REMARK SMILES CC(=O)CCC[C@H](C)CCC[C@H](C)CCCC(C)C
REMARK SMILES IDX 10 1 11 2 12 3 13 4 14 5 15 6 16 7 17 8 18 9 19 10 9 11 7 12
REMARK SMILES IDX 8 13 6 14 5 15 4 16 2 17 3 18 1 19
REMARK H PARENT
REMARK Flexibility Score: inf
ROOT
ATOM      1  C   UNL     1       3.284  -8.233  -6.625  1.00  0.00     0.001 C 
ENDROOT
BRANCH   1   2
ATOM      2  C   UNL     1       1.793  -7.855  -6.777  1.00  0.00     0.003 C 
BRANCH   2   3
ATOM      3  C   UNL     1       1.503  -6.947  -8.000  1.00  0.00    -0.014 C 
ATOM      4  C   UNL     1       2.149  -7.477  -9.290  1.00  0.00     0.007 C 
BRANCH   3   5
ATOM      5  C   UNL     1       1.894  -5.473  -7.724  1.00  0.00     0.003 C 
BRANCH   5   6
ATOM      6  C   UNL     1       2.727  -4.817  -8.842  1.00  0.00     0.001 C 
BRANCH   6   7
ATOM      7  C   UNL     1       2.912  -3.295  -8.668  1.00  0.00     0.003 C 
BRANCH   7   8
ATOM      8  C   UNL     1       2.069  -2.592  -7.569  1.00  0.00    -0.017 C 
ATOM      9  C   UNL     1       0.756  -1.996  -8.094  1.00  0.00     0.007 C 
ATOM     10  C   UNL     1       2.868  -1.557  -6.765  1.00  0.00     0.007 C 
ENDBRANCH   7   8
ENDBRANCH   6   7
ENDBRANCH   5   6
ENDBRANCH   3   5
ENDBRANCH   2   3
ENDBRANCH   1   2
BRANCH   1  11
ATOM     11  C   UNL     1       3.958  -7.507  -5.444  1.00  0.00     0.003 C 
BRANCH  11  12
ATOM     12  C   UNL     1       5.123  -6.583  -5.880  1.00  0.00    -0.014 C 
ATOM     13  C   UNL     1       5.525  -6.841  -7.344  1.00  0.00     0.007 C 
BRANCH  12  14
ATOM     14  C   UNL     1       4.757  -5.084  -5.719  1.00  0.00     0.004 C 
BRANCH  14  15
ATOM     15  C   UNL     1       5.832  -4.079  -6.178  1.00  0.00     0.008 C 
BRANCH  15  16
ATOM     16  C   UNL     1       6.002  -2.895  -5.214  1.00  0.00     0.075 C 
BRANCH  16  17
ATOM     17  C   UNL     1       6.385  -3.381  -3.841  1.00  0.00     0.129 C 
ATOM     18  O   UNL     1       5.684  -3.093  -2.883  1.00  0.00    -0.300 OA
ATOM     19  C   UNL     1       7.607  -4.223  -3.623  1.00  0.00     0.087 C 
ENDBRANCH  16  17
ENDBRANCH  15  16
ENDBRANCH  14  15
ENDBRANCH  12  14
ENDBRANCH  11  12
ENDBRANCH   1  11
TORSDOF 12
ENDMDL
MODEL 8
REMARK VINA RESULT:    -3.485      1.401      3.783
REMARK INTER + INTRA:          -8.074
REMARK INTER:                  -6.151
REMARK INTRA:                  -1.922
REMARK UNBOUND:                -2.143
REMARK SMILES CC(=O)CCC[C@H](C)CCC[C@H](C)CCCC(C)C
REMARK SMILES IDX 10 1 11 2 12 3 13 4 14 5 15 6 16 7 17 8 18 9 19 10 9 11 7 12
REMARK SMILES IDX 8 13 6 14 5 15 4 16 2 17 3 18 1 19
REMARK H PARENT
REMARK Flexibility Score: inf
ROOT
ATOM      1  C   UNL     1       2.144  -4.558  -8.385  1.00  0.00     0.001 C 
ENDROOT
BRANCH   1   2
ATOM      2  C   UNL     1       2.379  -5.189  -6.993  1.00  0.00     0.003 C 
BRANCH   2   3
ATOM      3  C   UNL     1       2.900  -6.647  -7.051  1.00  0.00    -0.014 C 
ATOM      4  C   UNL     1       1.760  -7.677  -7.078  1.00  0.00     0.007 C 
BRANCH   3   5
ATOM      5  C   UNL     1       3.912  -6.938  -5.913  1.00  0.00     0.003 C 
BRANCH   5   6
ATOM      6  C   UNL     1       5.193  -6.085  -5.968  1.00  0.00     0.001 C 
BRANCH   6   7
ATOM      7  C   UNL     1       5.513  -5.358  -4.644  1.00  0.00     0.003 C 
BRANCH   7   8
ATOM      8  C   UNL     1       6.142  -3.942  -4.738  1.00  0.00    -0.017 C 
ATOM      9  C   UNL     1       7.610  -3.952  -5.182  1.00  0.00     0.007 C 
ATOM     10  C   UNL     1       5.952  -3.112  -3.460  1.00  0.00     0.007 C 
ENDBRANCH   7   8
ENDBRANCH   6   7
ENDBRANCH   5   6
ENDBRANCH   3   5
ENDBRANCH   2   3
ENDBRANCH   1   2
BRANCH   1  11
ATOM     11  C   UNL     1       3.271  -3.586  -8.788  1.00  0.00     0.003 C 
BRANCH  11  12
ATOM     12  C   UNL     1       4.045  -3.012  -7.575  1.00  0.00    -0.014 C 
ATOM     13  C   UNL     1       5.411  -2.444  -8.001  1.00  0.00     0.007 C 
BRANCH  12  14
ATOM     14  C   UNL     1       3.241  -1.897  -6.857  1.00  0.00     0.004 C 
BRANCH  14  15
ATOM     15  C   UNL     1       2.470  -0.929  -7.775  1.00  0.00     0.008 C 
BRANCH  15  16
ATOM     16  C   UNL     1       0.947  -1.009  -7.593  1.00  0.00     0.075 C 
BRANCH  16  17
ATOM     17  C   UNL     1       0.267  -1.244  -8.916  1.00  0.00     0.129 C 
ATOM     18  O   UNL     1       0.717  -0.723  -9.925  1.00  0.00    -0.300 OA
ATOM     19  C   UNL     1      -0.950  -2.115  -9.026  1.00  0.00     0.087 C 
ENDBRANCH  16  17
ENDBRANCH  15  16
ENDBRANCH  14  15
ENDBRANCH  12  14
ENDBRANCH  11  12
ENDBRANCH   1  11
TORSDOF 12
ENDMDL
MODEL 9
REMARK VINA RESULT:    -3.434      1.586      5.539
REMARK INTER + INTRA:          -7.986
REMARK INTER:                  -6.202
REMARK INTRA:                  -1.784
REMARK UNBOUND:                -2.143
REMARK SMILES CC(=O)CCC[C@H](C)CCC[C@H](C)CCCC(C)C
REMARK SMILES IDX 10 1 11 2 12 3 13 4 14 5 15 6 16 7 17 8 18 9 19 10 9 11 7 12
REMARK SMILES IDX 8 13 6 14 5 15 4 16 2 17 3 18 1 19
REMARK H PARENT
REMARK Flexibility Score: inf
ROOT
ATOM      1  C   UNL     1       2.565  -4.598  -7.420  1.00  0.00     0.001 C 
ENDROOT
BRANCH   1   2
ATOM      2  C   UNL     1       3.150  -3.845  -8.637  1.00  0.00     0.003 C 
BRANCH   2   3
ATOM      3  C   UNL     1       3.691  -2.434  -8.295  1.00  0.00    -0.014 C 
ATOM      4  C   UNL     1       5.223  -2.407  -8.167  1.00  0.00     0.007 C 
BRANCH   3   5
ATOM      5  C   UNL     1       2.999  -1.844  -7.040  1.00  0.00     0.003 C 
BRANCH   5   6
ATOM      6  C   UNL     1       1.965  -0.743  -7.342  1.00  0.00     0.001 C 
BRANCH   6   7
ATOM      7  C   UNL     1       0.560  -1.284  -7.679  1.00  0.00     0.003 C 
BRANCH   7   8
ATOM      8  C   UNL     1       0.169  -1.379  -9.179  1.00  0.00    -0.017 C 
ATOM      9  C   UNL     1      -0.848  -0.316  -9.615  1.00  0.00     0.007 C 
ATOM     10  C   UNL     1      -0.282  -2.786  -9.597  1.00  0.00     0.007 C 
ENDBRANCH   7   8
ENDBRANCH   6   7
ENDBRANCH   5   6
ENDBRANCH   3   5
ENDBRANCH   2   3
ENDBRANCH   1   2
BRANCH   1  11
ATOM     11  C   UNL     1       3.219  -5.978  -7.211  1.00  0.00     0.003 C 
BRANCH  11  12
ATOM     12  C   UNL     1       3.990  -6.091  -5.872  1.00  0.00    -0.014 C 
ATOM     13  C   UNL     1       4.600  -7.494  -5.694  1.00  0.00     0.007 C 
BRANCH  12  14
ATOM     14  C   UNL     1       5.123  -5.037  -5.772  1.00  0.00     0.004 C 
BRANCH  14  15
ATOM     15  C   UNL     1       6.079  -5.191  -4.572  1.00  0.00     0.008 C 
BRANCH  15  16
ATOM     16  C   UNL     1       6.013  -4.010  -3.593  1.00  0.00     0.075 C 
BRANCH  16  17
ATOM     17  C   UNL     1       6.146  -2.703  -4.330  1.00  0.00     0.129 C 
ATOM     18  O   UNL     1       5.208  -1.921  -4.341  1.00  0.00    -0.300 OA
ATOM     19  C   UNL     1       7.413  -2.333  -5.042  1.00  0.00     0.087 C 
ENDBRANCH  16  17
ENDBRANCH  15  16
ENDBRANCH  14  15
ENDBRANCH  12  14
ENDBRANCH  11  12
ENDBRANCH   1  11
TORSDOF 12
ENDMDL
