MODEL 1
REMARK VINA RESULT:    -6.371      0.000      0.000
REMARK INTER + INTRA:          -6.856
REMARK INTER:                  -6.744
REMARK INTRA:                  -0.113
REMARK UNBOUND:                -0.113
REMARK SMILES C=C(C)[C@H]1CC=C(C)C(=O)C1
REMARK SMILES IDX 8 1 7 2 6 3 5 4 4 5 11 6 9 7 10 8 2 9 1 10 3 11
REMARK H PARENT
REMARK Flexibility Score: inf
ROOT
ATOM      1  C   UNL     1      -6.746  30.347  23.516  1.00  0.00     0.048 C 
ATOM      2  C   UNL     1      -7.777  31.313  23.003  1.00  0.00    -0.012 C 
ATOM      3  C   UNL     1      -8.099  31.318  21.701  1.00  0.00    -0.019 C 
ATOM      4  C   UNL     1      -9.149  32.244  21.155  1.00  0.00     0.036 C 
ATOM      5  C   UNL     1      -9.096  33.624  21.837  1.00  0.00     0.025 C 
ATOM      6  C   UNL     1      -9.199  33.464  23.372  1.00  0.00     0.089 C 
ATOM      7  C   UNL     1      -8.334  32.350  23.906  1.00  0.00     0.158 C 
ATOM      8  O   UNL     1      -8.095  32.304  25.142  1.00  0.00    -0.295 OA
ENDROOT
BRANCH   5   9
ATOM      9  C   UNL     1      -7.896  34.439  21.344  1.00  0.00    -0.077 C 
ATOM     10  C   UNL     1      -7.529  35.531  22.038  1.00  0.00     0.008 C 
ATOM     11  C   UNL     1      -7.096  34.096  20.109  1.00  0.00     0.039 C 
ENDBRANCH   5   9
TORSDOF 1
ENDMDL
MODEL 2
REMARK VINA RESULT:    -5.904      1.828      4.061
REMARK INTER + INTRA:          -6.363
REMARK INTER:                  -6.158
REMARK INTRA:                  -0.205
REMARK UNBOUND:                -0.113
REMARK SMILES C=C(C)[C@H]1CC=C(C)C(=O)C1
REMARK SMILES IDX 8 1 7 2 6 3 5 4 4 5 11 6 9 7 10 8 2 9 1 10 3 11
REMARK H PARENT
REMARK Flexibility Score: inf
ROOT
ATOM      1  C   UNL     1      -7.447  35.629  22.144  1.00  0.00     0.048 C 
ATOM      2  C   UNL     1      -8.117  34.284  22.170  1.00  0.00    -0.012 C 
ATOM      3  C   UNL     1      -8.947  33.970  23.176  1.00  0.00    -0.019 C 
ATOM      4  C   UNL     1      -9.662  32.649  23.221  1.00  0.00     0.036 C 
ATOM      5  C   UNL     1      -8.770  31.504  22.706  1.00  0.00     0.025 C 
ATOM      6  C   UNL     1      -8.243  31.836  21.289  1.00  0.00     0.089 C 
ATOM      7  C   UNL     1      -7.756  33.257  21.162  1.00  0.00     0.158 C 
ATOM      8  O   UNL     1      -7.038  33.569  20.174  1.00  0.00    -0.295 OA
ENDROOT
BRANCH   5   9
ATOM      9  C   UNL     1      -7.695  31.135  23.733  1.00  0.00    -0.077 C 
ATOM     10  C   UNL     1      -6.474  30.786  23.292  1.00  0.00     0.008 C 
ATOM     11  C   UNL     1      -7.927  31.127  25.227  1.00  0.00     0.039 C 
ENDBRANCH   5   9
TORSDOF 1
ENDMDL
MODEL 3
REMARK VINA RESULT:    -5.524      2.245      4.224
REMARK INTER + INTRA:          -5.959
REMARK INTER:                  -5.732
REMARK INTRA:                  -0.227
REMARK UNBOUND:                -0.113
REMARK SMILES C=C(C)[C@H]1CC=C(C)C(=O)C1
REMARK SMILES IDX 8 1 7 2 6 3 5 4 4 5 11 6 9 7 10 8 2 9 1 10 3 11
REMARK H PARENT
REMARK Flexibility Score: inf
ROOT
ATOM      1  C   UNL     1      -9.439  31.685  20.439  1.00  0.00     0.048 C 
ATOM      2  C   UNL     1      -8.568  31.178  21.554  1.00  0.00    -0.012 C 
ATOM      3  C   UNL     1      -8.710  29.918  21.994  1.00  0.00    -0.019 C 
ATOM      4  C   UNL     1      -7.836  29.363  23.083  1.00  0.00     0.036 C 
ATOM      5  C   UNL     1      -7.537  30.420  24.163  1.00  0.00     0.025 C 
ATOM      6  C   UNL     1      -6.930  31.687  23.514  1.00  0.00     0.089 C 
ATOM      7  C   UNL     1      -7.651  32.107  22.259  1.00  0.00     0.158 C 
ATOM      8  O   UNL     1      -7.458  33.266  21.805  1.00  0.00    -0.295 OA
ENDROOT
BRANCH   5   9
ATOM      9  C   UNL     1      -8.760  30.664  25.053  1.00  0.00    -0.077 C 
ATOM     10  C   UNL     1      -9.382  29.604  25.598  1.00  0.00     0.008 C 
ATOM     11  C   UNL     1      -9.324  32.034  25.351  1.00  0.00     0.039 C 
ENDBRANCH   5   9
TORSDOF 1
ENDMDL
MODEL 4
REMARK VINA RESULT:    -5.494      2.062      3.355
REMARK INTER + INTRA:          -5.928
REMARK INTER:                  -5.745
REMARK INTRA:                  -0.183
REMARK UNBOUND:                -0.113
REMARK SMILES C=C(C)[C@H]1CC=C(C)C(=O)C1
REMARK SMILES IDX 8 1 7 2 6 3 5 4 4 5 11 6 9 7 10 8 2 9 1 10 3 11
REMARK H PARENT
REMARK Flexibility Score: inf
ROOT
ATOM      1  C   UNL     1      -8.631  28.875  22.374  1.00  0.00     0.048 C 
ATOM      2  C   UNL     1      -8.095  30.275  22.479  1.00  0.00    -0.012 C 
ATOM      3  C   UNL     1      -7.237  30.591  23.461  1.00  0.00    -0.019 C 
ATOM      4  C   UNL     1      -6.652  31.970  23.580  1.00  0.00     0.036 C 
ATOM      5  C   UNL     1      -7.683  33.055  23.218  1.00  0.00     0.025 C 
ATOM      6  C   UNL     1      -8.265  32.787  21.809  1.00  0.00     0.089 C 
ATOM      7  C   UNL     1      -8.618  31.338  21.586  1.00  0.00     0.158 C 
ATOM      8  O   UNL     1      -9.364  31.036  20.617  1.00  0.00    -0.295 OA
ENDROOT
BRANCH   5   9
ATOM      9  C   UNL     1      -8.720  33.228  24.332  1.00  0.00    -0.077 C 
ATOM     10  C   UNL     1     -10.017  33.332  23.994  1.00  0.00     0.008 C 
ATOM     11  C   UNL     1      -8.372  33.300  25.801  1.00  0.00     0.039 C 
ENDBRANCH   5   9
TORSDOF 1
ENDMDL
MODEL 5
REMARK VINA RESULT:    -5.454      1.628      3.549
REMARK INTER + INTRA:          -5.886
REMARK INTER:                  -5.711
REMARK INTRA:                  -0.175
REMARK UNBOUND:                -0.113
REMARK SMILES C=C(C)[C@H]1CC=C(C)C(=O)C1
REMARK SMILES IDX 8 1 7 2 6 3 5 4 4 5 11 6 9 7 10 8 2 9 1 10 3 11
REMARK H PARENT
REMARK Flexibility Score: inf
ROOT
ATOM      1  C   UNL     1      -8.824  34.876  24.900  1.00  0.00     0.048 C 
ATOM      2  C   UNL     1      -8.928  34.235  23.545  1.00  0.00    -0.012 C 
ATOM      3  C   UNL     1      -9.918  33.366  23.290  1.00  0.00    -0.019 C 
ATOM      4  C   UNL     1     -10.077  32.730  21.938  1.00  0.00     0.036 C 
ATOM      5  C   UNL     1      -8.713  32.393  21.307  1.00  0.00     0.025 C 
ATOM      6  C   UNL     1      -7.823  33.658  21.257  1.00  0.00     0.089 C 
ATOM      7  C   UNL     1      -7.861  34.454  22.538  1.00  0.00     0.158 C 
ATOM      8  O   UNL     1      -6.972  35.323  22.741  1.00  0.00    -0.295 OA
ENDROOT
BRANCH   5   9
ATOM      9  C   UNL     1      -8.077  31.173  21.981  1.00  0.00    -0.077 C 
ATOM     10  C   UNL     1      -8.674  29.977  21.843  1.00  0.00     0.008 C 
ATOM     11  C   UNL     1      -6.814  31.233  22.809  1.00  0.00     0.039 C 
ENDBRANCH   5   9
TORSDOF 1
ENDMDL
MODEL 6
REMARK VINA RESULT:    -5.452      1.768      4.120
REMARK INTER + INTRA:          -5.884
REMARK INTER:                  -5.929
REMARK INTRA:                   0.045
REMARK UNBOUND:                -0.113
REMARK SMILES C=C(C)[C@H]1CC=C(C)C(=O)C1
REMARK SMILES IDX 8 1 7 2 6 3 5 4 4 5 11 6 9 7 10 8 2 9 1 10 3 11
REMARK H PARENT
REMARK Flexibility Score: inf
ROOT
ATOM      1  C   UNL     1      -8.625  33.475  21.398  1.00  0.00     0.048 C 
ATOM      2  C   UNL     1      -8.065  32.674  22.540  1.00  0.00    -0.012 C 
ATOM      3  C   UNL     1      -7.180  31.696  22.300  1.00  0.00    -0.019 C 
ATOM      4  C   UNL     1      -6.571  30.896  23.417  1.00  0.00     0.036 C 
ATOM      5  C   UNL     1      -7.594  30.614  24.534  1.00  0.00     0.025 C 
ATOM      6  C   UNL     1      -8.213  31.941  25.036  1.00  0.00     0.089 C 
ATOM      7  C   UNL     1      -8.593  32.873  23.913  1.00  0.00     0.158 C 
ATOM      8  O   UNL     1      -9.366  33.837  24.157  1.00  0.00    -0.295 OA
ENDROOT
BRANCH   5   9
ATOM      9  C   UNL     1      -8.602  29.543  24.106  1.00  0.00    -0.077 C 
ATOM     10  C   UNL     1      -9.548  29.161  24.981  1.00  0.00     0.008 C 
ATOM     11  C   UNL     1      -8.593  28.875  22.750  1.00  0.00     0.039 C 
ENDBRANCH   5   9
TORSDOF 1
ENDMDL
MODEL 7
REMARK VINA RESULT:    -5.419      1.909      3.056
REMARK INTER + INTRA:          -5.849
REMARK INTER:                  -5.622
REMARK INTRA:                  -0.228
REMARK UNBOUND:                -0.113
REMARK SMILES C=C(C)[C@H]1CC=C(C)C(=O)C1
REMARK SMILES IDX 8 1 7 2 6 3 5 4 4 5 11 6 9 7 10 8 2 9 1 10 3 11
REMARK H PARENT
REMARK Flexibility Score: inf
ROOT
ATOM      1  C   UNL     1      -6.411  30.655  23.445  1.00  0.00     0.048 C 
ATOM      2  C   UNL     1      -7.533  31.654  23.495  1.00  0.00    -0.012 C 
ATOM      3  C   UNL     1      -7.358  32.883  22.986  1.00  0.00    -0.019 C 
ATOM      4  C   UNL     1      -8.465  33.898  22.986  1.00  0.00     0.036 C 
ATOM      5  C   UNL     1      -9.305  33.820  24.275  1.00  0.00     0.025 C 
ATOM      6  C   UNL     1      -9.833  32.380  24.480  1.00  0.00     0.089 C 
ATOM      7  C   UNL     1      -8.782  31.328  24.226  1.00  0.00     0.158 C 
ATOM      8  O   UNL     1      -8.983  30.155  24.639  1.00  0.00    -0.295 OA
ENDROOT
BRANCH   5   9
ATOM      9  C   UNL     1      -8.548  34.415  25.466  1.00  0.00    -0.077 C 
ATOM     10  C   UNL     1      -7.971  35.621  25.326  1.00  0.00     0.008 C 
ATOM     11  C   UNL     1      -8.398  33.719  26.800  1.00  0.00     0.039 C 
ENDBRANCH   5   9
TORSDOF 1
ENDMDL
MODEL 8
REMARK VINA RESULT:    -5.213      1.840      3.680
REMARK INTER + INTRA:          -5.630
REMARK INTER:                  -5.534
REMARK INTRA:                  -0.096
REMARK UNBOUND:                -0.113
REMARK SMILES C=C(C)[C@H]1CC=C(C)C(=O)C1
REMARK SMILES IDX 8 1 7 2 6 3 5 4 4 5 11 6 9 7 10 8 2 9 1 10 3 11
REMARK H PARENT
REMARK Flexibility Score: inf
ROOT
ATOM      1  C   UNL     1      -6.980  33.457  20.191  1.00  0.00     0.048 C 
ATOM      2  C   UNL     1      -7.965  33.756  21.286  1.00  0.00    -0.012 C 
ATOM      3  C   UNL     1      -7.667  34.667  22.224  1.00  0.00    -0.019 C 
ATOM      4  C   UNL     1      -8.639  35.018  23.315  1.00  0.00     0.036 C 
ATOM      5  C   UNL     1      -9.409  33.779  23.807  1.00  0.00     0.025 C 
ATOM      6  C   UNL     1     -10.099  33.073  22.615  1.00  0.00     0.089 C 
ATOM      7  C   UNL     1      -9.203  32.946  21.409  1.00  0.00     0.158 C 
ATOM      8  O   UNL     1      -9.525  32.144  20.493  1.00  0.00    -0.295 OA
ENDROOT
BRANCH   5   9
ATOM      9  C   UNL     1      -8.520  32.881  24.672  1.00  0.00    -0.077 C 
ATOM     10  C   UNL     1      -8.255  33.260  25.934  1.00  0.00     0.008 C 
ATOM     11  C   UNL     1      -7.907  31.587  24.188  1.00  0.00     0.039 C 
ENDBRANCH   5   9
TORSDOF 1
ENDMDL
MODEL 9
REMARK VINA RESULT:    -5.159      1.765      2.904
REMARK INTER + INTRA:          -5.574
REMARK INTER:                  -5.574
REMARK INTRA:                  -0.000
REMARK UNBOUND:                -0.113
REMARK SMILES C=C(C)[C@H]1CC=C(C)C(=O)C1
REMARK SMILES IDX 8 1 7 2 6 3 5 4 4 5 11 6 9 7 10 8 2 9 1 10 3 11
REMARK H PARENT
REMARK Flexibility Score: inf
ROOT
ATOM      1  C   UNL     1      -9.103  32.076  20.552  1.00  0.00     0.048 C 
ATOM      2  C   UNL     1      -9.086  32.327  22.034  1.00  0.00    -0.012 C 
ATOM      3  C   UNL     1     -10.089  33.008  22.609  1.00  0.00    -0.019 C 
ATOM      4  C   UNL     1     -10.125  33.250  24.092  1.00  0.00     0.036 C 
ATOM      5  C   UNL     1      -8.718  33.529  24.654  1.00  0.00     0.025 C 
ATOM      6  C   UNL     1      -7.756  32.379  24.274  1.00  0.00     0.089 C 
ATOM      7  C   UNL     1      -7.897  31.946  22.836  1.00  0.00     0.158 C 
ATOM      8  O   UNL     1      -6.988  31.243  22.320  1.00  0.00    -0.295 OA
ENDROOT
BRANCH   5   9
ATOM      9  C   UNL     1      -8.239  34.934  24.277  1.00  0.00    -0.077 C 
ATOM     10  C   UNL     1      -8.622  35.972  25.040  1.00  0.00     0.008 C 
ATOM     11  C   UNL     1      -7.364  35.232  23.081  1.00  0.00     0.039 C 
ENDBRANCH   5   9
TORSDOF 1
ENDMDL
