MODEL 1
REMARK VINA RESULT:    -3.945      0.000      0.000
REMARK INTER + INTRA:          -7.360
REMARK INTER:                  -6.251
REMARK INTRA:                  -1.109
REMARK UNBOUND:                -1.109
REMARK SMILES CCCCCCCCCCCC(=O)[O-]
REMARK SMILES IDX 7 1 8 2 9 3 10 4 11 5 12 6 13 7 14 8 6 9 5 10 4 11 3 12 2 13
REMARK SMILES IDX 1 14
REMARK H PARENT
REMARK Flexibility Score: inf
ROOT
ATOM      1  C   UNL     1       8.312 -27.172 -27.655  1.00  0.00     0.000 C 
ENDROOT
BRANCH   1   2
ATOM      2  C   UNL     1       9.592 -27.184 -26.803  1.00  0.00     0.000 C 
BRANCH   2   3
ATOM      3  C   UNL     1      10.020 -25.777 -26.361  1.00  0.00     0.000 C 
BRANCH   3   4
ATOM      4  C   UNL     1      10.258 -25.726 -24.847  1.00  0.00     0.006 C 
BRANCH   4   5
ATOM      5  C   UNL     1       9.212 -24.848 -24.156  1.00  0.00     0.053 C 
BRANCH   5   6
ATOM      6  C   UNL     1       9.814 -23.542 -23.742  1.00  0.00     0.041 C 
ATOM      7  O   UNL     1       9.090 -22.640 -23.244  1.00  0.00    -0.550 OA
ATOM      8  O   UNL     1      11.165 -23.302 -23.954  1.00  0.00    -0.550 OA
ENDBRANCH   5   6
ENDBRANCH   4   5
ENDBRANCH   3   4
ENDBRANCH   2   3
ENDBRANCH   1   2
BRANCH   1   9
ATOM      9  C   UNL     1       8.456 -27.990 -28.949  1.00  0.00     0.000 C 
BRANCH   9  10
ATOM     10  C   UNL     1       9.912 -28.088 -29.434  1.00  0.00    -0.000 C 
BRANCH  10  11
ATOM     11  C   UNL     1      10.292 -27.008 -30.469  1.00  0.00    -0.000 C 
BRANCH  11  12
ATOM     12  C   UNL     1      11.245 -25.952 -29.884  1.00  0.00    -0.000 C 
BRANCH  12  13
ATOM     13  C   UNL     1      10.607 -24.556 -29.813  1.00  0.00    -0.003 C 
ATOM     14  C   UNL     1       9.412 -24.403 -30.753  1.00  0.00     0.004 C 
ENDBRANCH  12  13
ENDBRANCH  11  12
ENDBRANCH  10  11
ENDBRANCH   9  10
ENDBRANCH   1   9
TORSDOF 10
ENDMDL
MODEL 2
REMARK VINA RESULT:    -3.856      3.424      5.312
REMARK INTER + INTRA:          -7.218
REMARK INTER:                  -6.022
REMARK INTRA:                  -1.196
REMARK UNBOUND:                -1.109
REMARK SMILES CCCCCCCCCCCC(=O)[O-]
REMARK SMILES IDX 7 1 8 2 9 3 10 4 11 5 12 6 13 7 14 8 6 9 5 10 4 11 3 12 2 13
REMARK SMILES IDX 1 14
REMARK H PARENT
REMARK Flexibility Score: inf
ROOT
ATOM      1  C   UNL     1       9.486 -27.103 -30.030  1.00  0.00     0.000 C 
ENDROOT
BRANCH   1   2
ATOM      2  C   UNL     1      10.687 -27.192 -30.986  1.00  0.00     0.000 C 
BRANCH   2   3
ATOM      3  C   UNL     1      11.049 -25.835 -31.607  1.00  0.00     0.000 C 
BRANCH   3   4
ATOM      4  C   UNL     1      10.330 -24.691 -30.883  1.00  0.00     0.006 C 
BRANCH   4   5
ATOM      5  C   UNL     1      11.317 -23.850 -30.069  1.00  0.00     0.053 C 
BRANCH   5   6
ATOM      6  C   UNL     1      12.008 -22.855 -30.948  1.00  0.00     0.041 C 
ATOM      7  O   UNL     1      13.253 -22.919 -31.121  1.00  0.00    -0.550 OA
ATOM      8  O   UNL     1      11.283 -21.827 -31.537  1.00  0.00    -0.550 OA
ENDBRANCH   5   6
ENDBRANCH   4   5
ENDBRANCH   3   4
ENDBRANCH   2   3
ENDBRANCH   1   2
BRANCH   1   9
ATOM      9  C   UNL     1       9.025 -28.482 -29.529  1.00  0.00     0.000 C 
BRANCH   9  10
ATOM     10  C   UNL     1       8.833 -28.528 -28.003  1.00  0.00    -0.000 C 
BRANCH  10  11
ATOM     11  C   UNL     1       8.385 -27.181 -27.396  1.00  0.00    -0.000 C 
BRANCH  11  12
ATOM     12  C   UNL     1       9.334 -26.700 -26.286  1.00  0.00    -0.000 C 
BRANCH  12  13
ATOM     13  C   UNL     1      10.342 -25.652 -26.782  1.00  0.00    -0.003 C 
ATOM     14  C   UNL     1      11.689 -26.263 -27.169  1.00  0.00     0.004 C 
ENDBRANCH  12  13
ENDBRANCH  11  12
ENDBRANCH  10  11
ENDBRANCH   9  10
ENDBRANCH   1   9
TORSDOF 10
ENDMDL
MODEL 3
REMARK VINA RESULT:    -3.843      3.380      5.610
REMARK INTER + INTRA:          -7.199
REMARK INTER:                  -5.765
REMARK INTRA:                  -1.434
REMARK UNBOUND:                -1.109
REMARK SMILES CCCCCCCCCCCC(=O)[O-]
REMARK SMILES IDX 7 1 8 2 9 3 10 4 11 5 12 6 13 7 14 8 6 9 5 10 4 11 3 12 2 13
REMARK SMILES IDX 1 14
REMARK H PARENT
REMARK Flexibility Score: inf
ROOT
ATOM      1  C   UNL     1       8.757 -28.467 -27.862  1.00  0.00     0.000 C 
ENDROOT
BRANCH   1   2
ATOM      2  C   UNL     1       8.892 -28.439 -29.393  1.00  0.00     0.000 C 
BRANCH   2   3
ATOM      3  C   UNL     1       9.476 -27.116 -29.910  1.00  0.00     0.000 C 
BRANCH   3   4
ATOM      4  C   UNL     1      10.865 -27.331 -30.523  1.00  0.00     0.006 C 
BRANCH   4   5
ATOM      5  C   UNL     1      10.977 -26.643 -31.886  1.00  0.00     0.053 C 
BRANCH   5   6
ATOM      6  C   UNL     1      10.821 -25.162 -31.740  1.00  0.00     0.041 C 
ATOM      7  O   UNL     1      11.656 -24.500 -31.070  1.00  0.00    -0.550 OA
ATOM      8  O   UNL     1       9.725 -24.520 -32.302  1.00  0.00    -0.550 OA
ENDBRANCH   5   6
ENDBRANCH   4   5
ENDBRANCH   3   4
ENDBRANCH   2   3
ENDBRANCH   1   2
BRANCH   1   9
ATOM      9  C   UNL     1       8.433 -27.084 -27.272  1.00  0.00     0.000 C 
BRANCH   9  10
ATOM     10  C   UNL     1       9.410 -26.665 -26.161  1.00  0.00    -0.000 C 
BRANCH  10  11
ATOM     11  C   UNL     1      10.387 -25.550 -26.587  1.00  0.00    -0.000 C 
BRANCH  11  12
ATOM     12  C   UNL     1      11.725 -26.112 -27.096  1.00  0.00    -0.000 C 
BRANCH  12  13
ATOM     13  C   UNL     1      12.128 -27.414 -26.387  1.00  0.00    -0.003 C 
ATOM     14  C   UNL     1      12.435 -28.549 -27.364  1.00  0.00     0.004 C 
ENDBRANCH  12  13
ENDBRANCH  11  12
ENDBRANCH  10  11
ENDBRANCH   9  10
ENDBRANCH   1   9
TORSDOF 10
ENDMDL
MODEL 4
REMARK VINA RESULT:    -3.835      1.375      2.165
REMARK INTER + INTRA:          -7.186
REMARK INTER:                  -6.301
REMARK INTRA:                  -0.885
REMARK UNBOUND:                -1.109
REMARK SMILES CCCCCCCCCCCC(=O)[O-]
REMARK SMILES IDX 7 1 8 2 9 3 10 4 11 5 12 6 13 7 14 8 6 9 5 10 4 11 3 12 2 13
REMARK SMILES IDX 1 14
REMARK H PARENT
REMARK Flexibility Score: inf
ROOT
ATOM      1  C   UNL     1       9.238 -28.157 -29.499  1.00  0.00     0.000 C 
ENDROOT
BRANCH   1   2
ATOM      2  C   UNL     1       8.542 -27.482 -28.306  1.00  0.00     0.000 C 
BRANCH   2   3
ATOM      3  C   UNL     1       9.414 -26.402 -27.648  1.00  0.00     0.000 C 
BRANCH   3   4
ATOM      4  C   UNL     1       9.443 -26.574 -26.124  1.00  0.00     0.006 C 
BRANCH   4   5
ATOM      5  C   UNL     1      10.199 -25.423 -25.456  1.00  0.00     0.053 C 
BRANCH   5   6
ATOM      6  C   UNL     1       9.742 -25.246 -24.042  1.00  0.00     0.041 C 
ATOM      7  O   UNL     1       9.939 -26.156 -23.194  1.00  0.00    -0.550 OA
ATOM      8  O   UNL     1       9.053 -24.098 -23.673  1.00  0.00    -0.550 OA
ENDBRANCH   5   6
ENDBRANCH   4   5
ENDBRANCH   3   4
ENDBRANCH   2   3
ENDBRANCH   1   2
BRANCH   1   9
ATOM      9  C   UNL     1      10.585 -27.501 -29.846  1.00  0.00     0.000 C 
BRANCH   9  10
ATOM     10  C   UNL     1      10.756 -27.253 -31.354  1.00  0.00    -0.000 C 
BRANCH  10  11
ATOM     11  C   UNL     1      10.963 -25.767 -31.715  1.00  0.00    -0.000 C 
BRANCH  11  12
ATOM     12  C   UNL     1       9.734 -24.909 -31.373  1.00  0.00    -0.000 C 
BRANCH  12  13
ATOM     13  C   UNL     1      10.096 -23.655 -30.562  1.00  0.00    -0.003 C 
ATOM     14  C   UNL     1      11.604 -23.427 -30.466  1.00  0.00     0.004 C 
ENDBRANCH  12  13
ENDBRANCH  11  12
ENDBRANCH  10  11
ENDBRANCH   9  10
ENDBRANCH   1   9
TORSDOF 10
ENDMDL
MODEL 5
REMARK VINA RESULT:    -3.833      3.408      6.009
REMARK INTER + INTRA:          -7.183
REMARK INTER:                  -6.389
REMARK INTRA:                  -0.793
REMARK UNBOUND:                -1.109
REMARK SMILES CCCCCCCCCCCC(=O)[O-]
REMARK SMILES IDX 7 1 8 2 9 3 10 4 11 5 12 6 13 7 14 8 6 9 5 10 4 11 3 12 2 13
REMARK SMILES IDX 1 14
REMARK H PARENT
REMARK Flexibility Score: inf
ROOT
ATOM      1  C   UNL     1       9.971 -27.908 -29.510  1.00  0.00     0.000 C 
ENDROOT
BRANCH   1   2
ATOM      2  C   UNL     1      10.275 -26.886 -30.618  1.00  0.00     0.000 C 
BRANCH   2   3
ATOM      3  C   UNL     1      10.359 -25.447 -30.086  1.00  0.00     0.000 C 
BRANCH   3   4
ATOM      4  C   UNL     1       9.602 -24.478 -31.003  1.00  0.00     0.006 C 
BRANCH   4   5
ATOM      5  C   UNL     1      10.207 -24.468 -32.409  1.00  0.00     0.053 C 
BRANCH   5   6
ATOM      6  C   UNL     1      11.296 -23.447 -32.505  1.00  0.00     0.041 C 
ATOM      7  O   UNL     1      12.351 -23.703 -33.143  1.00  0.00    -0.550 OA
ATOM      8  O   UNL     1      11.169 -22.231 -31.845  1.00  0.00    -0.550 OA
ENDBRANCH   5   6
ENDBRANCH   4   5
ENDBRANCH   3   4
ENDBRANCH   2   3
ENDBRANCH   1   2
BRANCH   1   9
ATOM      9  C   UNL     1       8.497 -27.882 -29.070  1.00  0.00     0.000 C 
BRANCH   9  10
ATOM     10  C   UNL     1       8.314 -27.376 -27.629  1.00  0.00    -0.000 C 
BRANCH  10  11
ATOM     11  C   UNL     1       9.637 -27.262 -26.843  1.00  0.00    -0.000 C 
BRANCH  11  12
ATOM     12  C   UNL     1       9.816 -25.874 -26.205  1.00  0.00    -0.000 C 
BRANCH  12  13
ATOM     13  C   UNL     1       9.408 -25.846 -24.725  1.00  0.00    -0.003 C 
ATOM     14  C   UNL     1       9.388 -24.432 -24.143  1.00  0.00     0.004 C 
ENDBRANCH  12  13
ENDBRANCH  11  12
ENDBRANCH  10  11
ENDBRANCH   9  10
ENDBRANCH   1   9
TORSDOF 10
ENDMDL
MODEL 6
REMARK VINA RESULT:    -3.832      3.319      5.588
REMARK INTER + INTRA:          -7.180
REMARK INTER:                  -6.363
REMARK INTRA:                  -0.818
REMARK UNBOUND:                -1.109
REMARK SMILES CCCCCCCCCCCC(=O)[O-]
REMARK SMILES IDX 7 1 8 2 9 3 10 4 11 5 12 6 13 7 14 8 6 9 5 10 4 11 3 12 2 13
REMARK SMILES IDX 1 14
REMARK H PARENT
REMARK Flexibility Score: inf
ROOT
ATOM      1  C   UNL     1      10.627 -25.669 -26.810  1.00  0.00     0.000 C 
ENDROOT
BRANCH   1   2
ATOM      2  C   UNL     1      11.422 -26.127 -28.044  1.00  0.00     0.000 C 
BRANCH   2   3
ATOM      3  C   UNL     1      11.346 -25.121 -29.202  1.00  0.00     0.000 C 
BRANCH   3   4
ATOM      4  C   UNL     1      10.316 -25.566 -30.249  1.00  0.00     0.006 C 
BRANCH   4   5
ATOM      5  C   UNL     1       9.698 -24.359 -30.959  1.00  0.00     0.053 C 
BRANCH   5   6
ATOM      6  C   UNL     1      10.765 -23.506 -31.569  1.00  0.00     0.041 C 
ATOM      7  O   UNL     1      11.520 -23.976 -32.460  1.00  0.00    -0.550 OA
ATOM      8  O   UNL     1      10.960 -22.207 -31.118  1.00  0.00    -0.550 OA
ENDBRANCH   5   6
ENDBRANCH   4   5
ENDBRANCH   3   4
ENDBRANCH   2   3
ENDBRANCH   1   2
BRANCH   1   9
ATOM      9  C   UNL     1       9.580 -26.703 -26.364  1.00  0.00     0.000 C 
BRANCH   9  10
ATOM     10  C   UNL     1       8.586 -27.065 -27.480  1.00  0.00    -0.000 C 
BRANCH  10  11
ATOM     11  C   UNL     1       8.744 -28.508 -28.004  1.00  0.00    -0.000 C 
BRANCH  11  12
ATOM     12  C   UNL     1       8.340 -28.637 -29.482  1.00  0.00    -0.000 C 
BRANCH  12  13
ATOM     13  C   UNL     1       7.943 -30.071 -29.863  1.00  0.00    -0.003 C 
ATOM     14  C   UNL     1       8.610 -31.125 -28.980  1.00  0.00     0.004 C 
ENDBRANCH  12  13
ENDBRANCH  11  12
ENDBRANCH  10  11
ENDBRANCH   9  10
ENDBRANCH   1   9
TORSDOF 10
ENDMDL
MODEL 7
REMARK VINA RESULT:    -3.802      4.009      6.168
REMARK INTER + INTRA:          -7.133
REMARK INTER:                  -6.085
REMARK INTRA:                  -1.049
REMARK UNBOUND:                -1.109
REMARK SMILES CCCCCCCCCCCC(=O)[O-]
REMARK SMILES IDX 7 1 8 2 9 3 10 4 11 5 12 6 13 7 14 8 6 9 5 10 4 11 3 12 2 13
REMARK SMILES IDX 1 14
REMARK H PARENT
REMARK Flexibility Score: inf
ROOT
ATOM      1  C   UNL     1      10.632 -26.725 -30.955  1.00  0.00     0.000 C 
ENDROOT
BRANCH   1   2
ATOM      2  C   UNL     1       9.888 -25.416 -30.645  1.00  0.00     0.000 C 
BRANCH   2   3
ATOM      3  C   UNL     1      10.769 -24.397 -29.906  1.00  0.00     0.000 C 
BRANCH   3   4
ATOM      4  C   UNL     1      11.024 -23.160 -30.776  1.00  0.00     0.006 C 
BRANCH   4   5
ATOM      5  C   UNL     1      12.341 -23.291 -31.546  1.00  0.00     0.053 C 
BRANCH   5   6
ATOM      6  C   UNL     1      12.081 -23.402 -33.015  1.00  0.00     0.041 C 
ATOM      7  O   UNL     1      10.905 -23.546 -33.442  1.00  0.00    -0.550 OA
ATOM      8  O   UNL     1      13.143 -23.399 -33.911  1.00  0.00    -0.550 OA
ENDBRANCH   5   6
ENDBRANCH   4   5
ENDBRANCH   3   4
ENDBRANCH   2   3
ENDBRANCH   1   2
BRANCH   1   9
ATOM      9  C   UNL     1      10.449 -27.784 -29.854  1.00  0.00     0.000 C 
BRANCH   9  10
ATOM     10  C   UNL     1       8.971 -28.065 -29.537  1.00  0.00    -0.000 C 
BRANCH  10  11
ATOM     11  C   UNL     1       8.702 -28.343 -28.043  1.00  0.00    -0.000 C 
BRANCH  11  12
ATOM     12  C   UNL     1       8.653 -27.050 -27.211  1.00  0.00    -0.000 C 
BRANCH  12  13
ATOM     13  C   UNL     1       9.851 -26.915 -26.259  1.00  0.00    -0.003 C 
ATOM     14  C   UNL     1      10.521 -25.543 -26.343  1.00  0.00     0.004 C 
ENDBRANCH  12  13
ENDBRANCH  11  12
ENDBRANCH  10  11
ENDBRANCH   9  10
ENDBRANCH   1   9
TORSDOF 10
ENDMDL
MODEL 8
REMARK VINA RESULT:    -3.728      3.185      4.077
REMARK INTER + INTRA:          -7.016
REMARK INTER:                  -5.504
REMARK INTRA:                  -1.512
REMARK UNBOUND:                -1.109
REMARK SMILES CCCCCCCCCCCC(=O)[O-]
REMARK SMILES IDX 7 1 8 2 9 3 10 4 11 5 12 6 13 7 14 8 6 9 5 10 4 11 3 12 2 13
REMARK SMILES IDX 1 14
REMARK H PARENT
REMARK Flexibility Score: inf
ROOT
ATOM      1  C   UNL     1       9.441 -27.304 -26.727  1.00  0.00     0.000 C 
ENDROOT
BRANCH   1   2
ATOM      2  C   UNL     1       9.827 -25.872 -26.322  1.00  0.00     0.000 C 
BRANCH   2   3
ATOM      3  C   UNL     1      11.337 -25.613 -26.435  1.00  0.00     0.000 C 
BRANCH   3   4
ATOM      4  C   UNL     1      12.132 -26.910 -26.238  1.00  0.00     0.006 C 
BRANCH   4   5
ATOM      5  C   UNL     1      13.187 -27.080 -27.335  1.00  0.00     0.053 C 
BRANCH   5   6
ATOM      6  C   UNL     1      14.288 -27.980 -26.869  1.00  0.00     0.041 C 
ATOM      7  O   UNL     1      15.475 -27.769 -27.232  1.00  0.00    -0.550 OA
ATOM      8  O   UNL     1      13.996 -29.081 -26.074  1.00  0.00    -0.550 OA
ENDBRANCH   5   6
ENDBRANCH   4   5
ENDBRANCH   3   4
ENDBRANCH   2   3
ENDBRANCH   1   2
BRANCH   1   9
ATOM      9  C   UNL     1       8.264 -27.341 -27.716  1.00  0.00     0.000 C 
BRANCH   9  10
ATOM     10  C   UNL     1       8.606 -28.077 -29.022  1.00  0.00    -0.000 C 
BRANCH  10  11
ATOM     11  C   UNL     1      10.116 -28.100 -29.340  1.00  0.00    -0.000 C 
BRANCH  11  12
ATOM     12  C   UNL     1      10.478 -27.165 -30.506  1.00  0.00    -0.000 C 
BRANCH  12  13
ATOM     13  C   UNL     1      10.840 -25.748 -30.037  1.00  0.00    -0.003 C 
ATOM     14  C   UNL     1       9.736 -24.730 -30.324  1.00  0.00     0.004 C 
ENDBRANCH  12  13
ENDBRANCH  11  12
ENDBRANCH  10  11
ENDBRANCH   9  10
ENDBRANCH   1   9
TORSDOF 10
ENDMDL
MODEL 9
REMARK VINA RESULT:    -3.721      3.967      5.955
REMARK INTER + INTRA:          -7.005
REMARK INTER:                  -6.389
REMARK INTRA:                  -0.616
REMARK UNBOUND:                -1.109
REMARK SMILES CCCCCCCCCCCC(=O)[O-]
REMARK SMILES IDX 7 1 8 2 9 3 10 4 11 5 12 6 13 7 14 8 6 9 5 10 4 11 3 12 2 13
REMARK SMILES IDX 1 14
REMARK H PARENT
REMARK Flexibility Score: inf
ROOT
ATOM      1  C   UNL     1      10.401 -27.159 -30.663  1.00  0.00     0.000 C 
ENDROOT
BRANCH   1   2
ATOM      2  C   UNL     1      11.023 -26.303 -31.778  1.00  0.00     0.000 C 
BRANCH   2   3
ATOM      3  C   UNL     1      10.167 -25.076 -32.128  1.00  0.00     0.000 C 
BRANCH   3   4
ATOM      4  C   UNL     1      11.020 -23.802 -32.152  1.00  0.00     0.006 C 
BRANCH   4   5
ATOM      5  C   UNL     1      10.852 -23.004 -30.857  1.00  0.00     0.053 C 
BRANCH   5   6
ATOM      6  C   UNL     1      11.427 -21.631 -31.008  1.00  0.00     0.041 C 
ATOM      7  O   UNL     1      12.675 -21.468 -31.056  1.00  0.00    -0.550 OA
ATOM      8  O   UNL     1      10.586 -20.525 -31.046  1.00  0.00    -0.550 OA
ENDBRANCH   5   6
ENDBRANCH   4   5
ENDBRANCH   3   4
ENDBRANCH   2   3
ENDBRANCH   1   2
BRANCH   1   9
ATOM      9  C   UNL     1      10.118 -26.350 -29.386  1.00  0.00     0.000 C 
BRANCH   9  10
ATOM     10  C   UNL     1       9.083 -27.025 -28.470  1.00  0.00    -0.000 C 
BRANCH  10  11
ATOM     11  C   UNL     1       8.351 -28.210 -29.134  1.00  0.00    -0.000 C 
BRANCH  11  12
ATOM     12  C   UNL     1       8.846 -29.568 -28.608  1.00  0.00    -0.000 C 
BRANCH  12  13
ATOM     13  C   UNL     1       8.307 -30.751 -29.426  1.00  0.00    -0.003 C 
ATOM     14  C   UNL     1       7.147 -30.358 -30.341  1.00  0.00     0.004 C 
ENDBRANCH  12  13
ENDBRANCH  11  12
ENDBRANCH  10  11
ENDBRANCH   9  10
ENDBRANCH   1   9
TORSDOF 10
ENDMDL
