MODEL 1
REMARK VINA RESULT:    -5.657      0.000      0.000
REMARK INTER + INTRA:          -6.530
REMARK INTER:                  -6.484
REMARK INTRA:                  -0.046
REMARK UNBOUND:                -0.046
REMARK SMILES O=C([O-])c1cc(O)c(O)c(O)c1
REMARK SMILES IDX 4 1 5 2 12 3 6 4 10 5 8 6 2 7 1 8 3 9 7 10 11 12 9 14
REMARK H PARENT 7 11 11 13 9 15
REMARK Flexibility Score: inf
ROOT
ATOM      1  C   UNL     1      16.510  16.207  61.184  1.00  0.00     0.005 A 
ATOM      2  C   UNL     1      17.880  16.514  61.219  1.00  0.00     0.060 A 
ATOM      3  C   UNL     1      15.913  15.901  59.952  1.00  0.00     0.060 A 
ATOM      4  C   UNL     1      18.648  16.518  60.049  1.00  0.00     0.162 A 
ATOM      5  C   UNL     1      16.669  15.902  58.773  1.00  0.00     0.162 A 
ATOM      6  C   UNL     1      18.037  16.209  58.811  1.00  0.00     0.200 A 
ENDROOT
BRANCH   1   7
ATOM      7  C   UNL     1      15.713  16.206  62.431  1.00  0.00     0.072 C 
ATOM      8  O   UNL     1      15.247  15.130  62.893  1.00  0.00    -0.545 OA
ATOM      9  O   UNL     1      15.466  17.393  63.110  1.00  0.00    -0.545 OA
ENDBRANCH   1   7
BRANCH   4  10
ATOM     10  O   UNL     1      20.003  16.834  60.162  1.00  0.00    -0.504 OA
ATOM     11  H   UNL     1      20.396  17.735  59.935  1.00  0.00     0.293 HD
ENDBRANCH   4  10
BRANCH   5  12
ATOM     12  O   UNL     1      16.067  15.598  57.553  1.00  0.00    -0.504 OA
ATOM     13  H   UNL     1      16.056  14.653  57.188  1.00  0.00     0.293 HD
ENDBRANCH   5  12
BRANCH   6  14
ATOM     14  O   UNL     1      18.745  16.197  57.606  1.00  0.00    -0.502 OA
ATOM     15  H   UNL     1      19.539  16.788  57.411  1.00  0.00     0.293 HD
ENDBRANCH   6  14
TORSDOF 4
ENDMDL
MODEL 2
REMARK VINA RESULT:    -5.616      0.214      2.613
REMARK INTER + INTRA:          -6.482
REMARK INTER:                  -6.438
REMARK INTRA:                  -0.045
REMARK UNBOUND:                -0.046
REMARK SMILES O=C([O-])c1cc(O)c(O)c(O)c1
REMARK SMILES IDX 4 1 5 2 12 3 6 4 10 5 8 6 2 7 1 8 3 9 7 10 11 12 9 14
REMARK H PARENT 7 11 11 13 9 15
REMARK Flexibility Score: inf
ROOT
ATOM      1  C   UNL     1      16.544  16.397  61.231  1.00  0.00     0.005 A 
ATOM      2  C   UNL     1      15.948  16.066  60.004  1.00  0.00     0.060 A 
ATOM      3  C   UNL     1      17.929  16.621  61.277  1.00  0.00     0.060 A 
ATOM      4  C   UNL     1      16.713  15.957  58.836  1.00  0.00     0.162 A 
ATOM      5  C   UNL     1      18.707  16.514  60.117  1.00  0.00     0.162 A 
ATOM      6  C   UNL     1      18.109  16.183  58.892  1.00  0.00     0.200 A 
ENDROOT
BRANCH   1   7
ATOM      7  C   UNL     1      15.721  16.510  62.455  1.00  0.00     0.072 C 
ATOM      8  O   UNL     1      15.372  17.639  62.892  1.00  0.00    -0.545 OA
ATOM      9  O   UNL     1      15.320  15.370  63.142  1.00  0.00    -0.545 OA
ENDBRANCH   1   7
BRANCH   4  10
ATOM     10  O   UNL     1      16.050  15.623  57.654  1.00  0.00    -0.504 OA
ATOM     11  H   UNL     1      15.647  14.717  57.467  1.00  0.00     0.293 HD
ENDBRANCH   4  10
BRANCH   5  12
ATOM     12  O   UNL     1      20.082  16.737  60.172  1.00  0.00    -0.504 OA
ATOM     13  H   UNL     1      20.709  16.077  60.616  1.00  0.00     0.293 HD
ENDBRANCH   5  12
BRANCH   6  14
ATOM     14  O   UNL     1      18.930  16.089  57.766  1.00  0.00    -0.502 OA
ATOM     15  H   UNL     1      19.354  16.882  57.307  1.00  0.00     0.293 HD
ENDBRANCH   6  14
TORSDOF 4
ENDMDL
MODEL 3
REMARK VINA RESULT:    -5.565      1.448      4.832
REMARK INTER + INTRA:          -6.424
REMARK INTER:                  -6.378
REMARK INTRA:                  -0.046
REMARK UNBOUND:                -0.046
REMARK SMILES O=C([O-])c1cc(O)c(O)c(O)c1
REMARK SMILES IDX 4 1 5 2 12 3 6 4 10 5 8 6 2 7 1 8 3 9 7 10 11 12 9 14
REMARK H PARENT 7 11 11 13 9 15
REMARK Flexibility Score: inf
ROOT
ATOM      1  C   UNL     1      17.750  15.505  59.308  1.00  0.00     0.005 A 
ATOM      2  C   UNL     1      16.520  14.883  59.575  1.00  0.00     0.060 A 
ATOM      3  C   UNL     1      18.328  16.322  60.292  1.00  0.00     0.060 A 
ATOM      4  C   UNL     1      15.871  15.067  60.802  1.00  0.00     0.162 A 
ATOM      5  C   UNL     1      17.689  16.515  61.523  1.00  0.00     0.162 A 
ATOM      6  C   UNL     1      16.461  15.893  61.788  1.00  0.00     0.200 A 
ENDROOT
BRANCH   1   7
ATOM      7  C   UNL     1      18.423  15.299  58.006  1.00  0.00     0.072 C 
ATOM      8  O   UNL     1      18.594  16.263  57.213  1.00  0.00    -0.545 OA
ATOM      9  O   UNL     1      18.877  14.038  57.639  1.00  0.00    -0.545 OA
ENDBRANCH   1   7
BRANCH   4  10
ATOM     10  O   UNL     1      14.651  14.417  60.996  1.00  0.00    -0.504 OA
ATOM     11  H   UNL     1      14.383  13.564  60.528  1.00  0.00     0.293 HD
ENDBRANCH   4  10
BRANCH   5  12
ATOM     12  O   UNL     1      18.271  17.329  62.494  1.00  0.00    -0.504 OA
ATOM     13  H   UNL     1      19.151  17.805  62.330  1.00  0.00     0.293 HD
ENDBRANCH   5  12
BRANCH   6  14
ATOM     14  O   UNL     1      15.867  16.119  63.032  1.00  0.00    -0.502 OA
ATOM     15  H   UNL     1      15.086  16.741  63.181  1.00  0.00     0.293 HD
ENDBRANCH   6  14
TORSDOF 4
ENDMDL
MODEL 4
REMARK VINA RESULT:    -5.536      1.446      4.252
REMARK INTER + INTRA:          -6.391
REMARK INTER:                  -6.345
REMARK INTRA:                  -0.046
REMARK UNBOUND:                -0.046
REMARK SMILES O=C([O-])c1cc(O)c(O)c(O)c1
REMARK SMILES IDX 4 1 5 2 12 3 6 4 10 5 8 6 2 7 1 8 3 9 7 10 11 12 9 14
REMARK H PARENT 7 11 11 13 9 15
REMARK Flexibility Score: inf
ROOT
ATOM      1  C   UNL     1      17.756  15.470  59.307  1.00  0.00     0.005 A 
ATOM      2  C   UNL     1      18.294  16.322  60.284  1.00  0.00     0.060 A 
ATOM      3  C   UNL     1      16.560  14.788  59.580  1.00  0.00     0.060 A 
ATOM      4  C   UNL     1      17.655  16.497  61.518  1.00  0.00     0.162 A 
ATOM      5  C   UNL     1      15.912  14.954  60.810  1.00  0.00     0.162 A 
ATOM      6  C   UNL     1      16.450  15.806  61.785  1.00  0.00     0.200 A 
ENDROOT
BRANCH   1   7
ATOM      7  C   UNL     1      18.444  15.297  58.008  1.00  0.00     0.072 C 
ATOM      8  O   UNL     1      18.582  16.271  57.221  1.00  0.00    -0.545 OA
ATOM      9  O   UNL     1      18.946  14.055  57.636  1.00  0.00    -0.545 OA
ENDBRANCH   1   7
BRANCH   4  10
ATOM     10  O   UNL     1      18.250  17.360  62.440  1.00  0.00    -0.504 OA
ATOM     11  H   UNL     1      18.273  17.196  63.436  1.00  0.00     0.293 HD
ENDBRANCH   4  10
BRANCH   5  12
ATOM     12  O   UNL     1      14.724  14.272  61.074  1.00  0.00    -0.504 OA
ATOM     13  H   UNL     1      14.555  13.828  61.969  1.00  0.00     0.293 HD
ENDBRANCH   5  12
BRANCH   6  14
ATOM     14  O   UNL     1      15.763  15.935  62.995  1.00  0.00    -0.502 OA
ATOM     15  H   UNL     1      16.209  16.111  63.883  1.00  0.00     0.293 HD
ENDBRANCH   6  14
TORSDOF 4
ENDMDL
MODEL 5
REMARK VINA RESULT:    -5.520      1.386      3.273
REMARK INTER + INTRA:          -6.372
REMARK INTER:                  -6.322
REMARK INTRA:                  -0.050
REMARK UNBOUND:                -0.046
REMARK SMILES O=C([O-])c1cc(O)c(O)c(O)c1
REMARK SMILES IDX 4 1 5 2 12 3 6 4 10 5 8 6 2 7 1 8 3 9 7 10 11 12 9 14
REMARK H PARENT 7 11 11 13 9 15
REMARK Flexibility Score: inf
ROOT
ATOM      1  C   UNL     1      18.420  16.749  60.841  1.00  0.00     0.005 A 
ATOM      2  C   UNL     1      18.635  16.562  59.467  1.00  0.00     0.060 A 
ATOM      3  C   UNL     1      17.191  16.360  61.396  1.00  0.00     0.060 A 
ATOM      4  C   UNL     1      17.647  15.998  58.651  1.00  0.00     0.162 A 
ATOM      5  C   UNL     1      16.193  15.795  60.592  1.00  0.00     0.162 A 
ATOM      6  C   UNL     1      16.411  15.610  59.220  1.00  0.00     0.200 A 
ENDROOT
BRANCH   1   7
ATOM      7  C   UNL     1      19.476  17.346  61.689  1.00  0.00     0.072 C 
ATOM      8  O   UNL     1      20.692  17.114  61.456  1.00  0.00    -0.545 OA
ATOM      9  O   UNL     1      19.140  18.171  62.756  1.00  0.00    -0.545 OA
ENDBRANCH   1   7
BRANCH   4  10
ATOM     10  O   UNL     1      17.934  15.845  57.294  1.00  0.00    -0.504 OA
ATOM     11  H   UNL     1      18.680  15.268  56.934  1.00  0.00     0.293 HD
ENDBRANCH   4  10
BRANCH   5  12
ATOM     12  O   UNL     1      14.974  15.412  61.152  1.00  0.00    -0.504 OA
ATOM     13  H   UNL     1      14.841  15.374  62.156  1.00  0.00     0.293 HD
ENDBRANCH   5  12
BRANCH   6  14
ATOM     14  O   UNL     1      15.382  15.042  58.463  1.00  0.00    -0.502 OA
ATOM     15  H   UNL     1      15.425  14.122  58.050  1.00  0.00     0.293 HD
ENDBRANCH   6  14
TORSDOF 4
ENDMDL
MODEL 6
REMARK VINA RESULT:    -5.502      1.381      3.322
REMARK INTER + INTRA:          -6.352
REMARK INTER:                  -6.303
REMARK INTRA:                  -0.049
REMARK UNBOUND:                -0.046
REMARK SMILES O=C([O-])c1cc(O)c(O)c(O)c1
REMARK SMILES IDX 4 1 5 2 12 3 6 4 10 5 8 6 2 7 1 8 3 9 7 10 11 12 9 14
REMARK H PARENT 7 11 11 13 9 15
REMARK Flexibility Score: inf
ROOT
ATOM      1  C   UNL     1      18.457  16.760  60.860  1.00  0.00     0.005 A 
ATOM      2  C   UNL     1      17.217  16.354  61.377  1.00  0.00     0.060 A 
ATOM      3  C   UNL     1      18.706  16.604  59.487  1.00  0.00     0.060 A 
ATOM      4  C   UNL     1      16.236  15.799  60.547  1.00  0.00     0.162 A 
ATOM      5  C   UNL     1      17.734  16.049  58.645  1.00  0.00     0.162 A 
ATOM      6  C   UNL     1      16.497  15.644  59.165  1.00  0.00     0.200 A 
ENDROOT
BRANCH   1   7
ATOM      7  C   UNL     1      19.483  17.346  61.751  1.00  0.00     0.072 C 
ATOM      8  O   UNL     1      20.703  17.078  61.587  1.00  0.00    -0.545 OA
ATOM      9  O   UNL     1      19.114  18.199  62.785  1.00  0.00    -0.545 OA
ENDBRANCH   1   7
BRANCH   4  10
ATOM     10  O   UNL     1      15.028  15.417  61.133  1.00  0.00    -0.504 OA
ATOM     11  H   UNL     1      14.955  14.925  62.012  1.00  0.00     0.293 HD
ENDBRANCH   4  10
BRANCH   5  12
ATOM     12  O   UNL     1      17.991  15.897  57.283  1.00  0.00    -0.504 OA
ATOM     13  H   UNL     1      17.306  16.154  56.582  1.00  0.00     0.293 HD
ENDBRANCH   5  12
BRANCH   6  14
ATOM     14  O   UNL     1      15.562  15.097  58.281  1.00  0.00    -0.502 OA
ATOM     15  H   UNL     1      15.553  14.129  57.995  1.00  0.00     0.293 HD
ENDBRANCH   6  14
TORSDOF 4
ENDMDL
MODEL 7
REMARK VINA RESULT:    -5.461      1.319      3.892
REMARK INTER + INTRA:          -6.305
REMARK INTER:                  -6.253
REMARK INTRA:                  -0.052
REMARK UNBOUND:                -0.046
REMARK SMILES O=C([O-])c1cc(O)c(O)c(O)c1
REMARK SMILES IDX 4 1 5 2 12 3 6 4 10 5 8 6 2 7 1 8 3 9 7 10 11 12 9 14
REMARK H PARENT 7 11 11 13 9 15
REMARK Flexibility Score: inf
ROOT
ATOM      1  C   UNL     1      17.510  16.061  59.512  1.00  0.00     0.005 A 
ATOM      2  C   UNL     1      18.883  16.344  59.584  1.00  0.00     0.060 A 
ATOM      3  C   UNL     1      16.696  16.353  60.617  1.00  0.00     0.060 A 
ATOM      4  C   UNL     1      19.444  16.909  60.736  1.00  0.00     0.162 A 
ATOM      5  C   UNL     1      17.243  16.917  61.776  1.00  0.00     0.162 A 
ATOM      6  C   UNL     1      18.615  17.199  61.846  1.00  0.00     0.200 A 
ENDROOT
BRANCH   1   7
ATOM      7  C   UNL     1      16.934  15.465  58.286  1.00  0.00     0.072 C 
ATOM      8  O   UNL     1      17.542  15.549  57.186  1.00  0.00    -0.545 OA
ATOM      9  O   UNL     1      15.712  14.804  58.331  1.00  0.00    -0.545 OA
ENDBRANCH   1   7
BRANCH   4  10
ATOM     10  O   UNL     1      20.816  17.161  60.735  1.00  0.00    -0.504 OA
ATOM     11  H   UNL     1      21.236  18.014  61.074  1.00  0.00     0.293 HD
ENDBRANCH   4  10
BRANCH   5  12
ATOM     12  O   UNL     1      16.426  17.203  62.869  1.00  0.00    -0.504 OA
ATOM     13  H   UNL     1      16.703  17.874  63.577  1.00  0.00     0.293 HD
ENDBRANCH   5  12
BRANCH   6  14
ATOM     14  O   UNL     1      19.109  17.761  63.025  1.00  0.00    -0.502 OA
ATOM     15  H   UNL     1      19.246  17.248  63.883  1.00  0.00     0.293 HD
ENDBRANCH   6  14
TORSDOF 4
ENDMDL
MODEL 8
REMARK VINA RESULT:    -5.276      3.413      5.585
REMARK INTER + INTRA:          -6.093
REMARK INTER:                  -6.046
REMARK INTRA:                  -0.048
REMARK UNBOUND:                -0.046
REMARK SMILES O=C([O-])c1cc(O)c(O)c(O)c1
REMARK SMILES IDX 4 1 5 2 12 3 6 4 10 5 8 6 2 7 1 8 3 9 7 10 11 12 9 14
REMARK H PARENT 7 11 11 13 9 15
REMARK Flexibility Score: inf
ROOT
ATOM      1  C   UNL     1      14.831  15.697  62.810  1.00  0.00     0.005 A 
ATOM      2  C   UNL     1      14.108  15.586  64.007  1.00  0.00     0.060 A 
ATOM      3  C   UNL     1      14.919  14.581  61.962  1.00  0.00     0.060 A 
ATOM      4  C   UNL     1      13.479  14.387  64.363  1.00  0.00     0.162 A 
ATOM      5  C   UNL     1      14.296  13.375  62.306  1.00  0.00     0.162 A 
ATOM      6  C   UNL     1      13.574  13.267  63.503  1.00  0.00     0.200 A 
ENDROOT
BRANCH   1   7
ATOM      7  C   UNL     1      15.489  16.972  62.449  1.00  0.00     0.072 C 
ATOM      8  O   UNL     1      16.700  16.994  62.102  1.00  0.00    -0.545 OA
ATOM      9  O   UNL     1      14.779  18.167  62.488  1.00  0.00    -0.545 OA
ENDBRANCH   1   7
BRANCH   4  10
ATOM     10  O   UNL     1      12.779  14.353  65.570  1.00  0.00    -0.504 OA
ATOM     11  H   UNL     1      11.836  14.005  65.668  1.00  0.00     0.293 HD
ENDBRANCH   4  10
BRANCH   5  12
ATOM     12  O   UNL     1      14.390  12.271  61.458  1.00  0.00    -0.504 OA
ATOM     13  H   UNL     1      13.581  11.911  60.965  1.00  0.00     0.293 HD
ENDBRANCH   5  12
BRANCH   6  14
ATOM     14  O   UNL     1      12.972  12.041  63.798  1.00  0.00    -0.502 OA
ATOM     15  H   UNL     1      12.688  11.368  63.101  1.00  0.00     0.293 HD
ENDBRANCH   6  14
TORSDOF 4
ENDMDL
MODEL 9
REMARK VINA RESULT:    -5.214      1.814      3.359
REMARK INTER + INTRA:          -6.022
REMARK INTER:                  -5.969
REMARK INTRA:                  -0.053
REMARK UNBOUND:                -0.046
REMARK SMILES O=C([O-])c1cc(O)c(O)c(O)c1
REMARK SMILES IDX 4 1 5 2 12 3 6 4 10 5 8 6 2 7 1 8 3 9 7 10 11 12 9 14
REMARK H PARENT 7 11 11 13 9 15
REMARK Flexibility Score: inf
ROOT
ATOM      1  C   UNL     1      16.309  14.479  59.769  1.00  0.00     0.005 A 
ATOM      2  C   UNL     1      17.075  14.856  58.655  1.00  0.00     0.060 A 
ATOM      3  C   UNL     1      16.420  15.223  60.954  1.00  0.00     0.060 A 
ATOM      4  C   UNL     1      17.942  15.955  58.713  1.00  0.00     0.162 A 
ATOM      5  C   UNL     1      17.282  16.324  61.027  1.00  0.00     0.162 A 
ATOM      6  C   UNL     1      18.047  16.698  59.913  1.00  0.00     0.200 A 
ENDROOT
BRANCH   1   7
ATOM      7  C   UNL     1      15.398  13.316  59.690  1.00  0.00     0.072 C 
ATOM      8  O   UNL     1      15.347  12.612  58.646  1.00  0.00    -0.545 OA
ATOM      9  O   UNL     1      14.585  12.983  60.766  1.00  0.00    -0.545 OA
ENDBRANCH   1   7
BRANCH   4  10
ATOM     10  O   UNL     1      18.672  16.269  57.565  1.00  0.00    -0.504 OA
ATOM     11  H   UNL     1      18.301  16.223  56.628  1.00  0.00     0.293 HD
ENDBRANCH   4  10
BRANCH   5  12
ATOM     12  O   UNL     1      17.386  17.056  62.209  1.00  0.00    -0.504 OA
ATOM     13  H   UNL     1      18.051  17.815  62.306  1.00  0.00     0.293 HD
ENDBRANCH   5  12
BRANCH   6  14
ATOM     14  O   UNL     1      18.892  17.804  60.039  1.00  0.00    -0.502 OA
ATOM     15  H   UNL     1      19.894  17.742  60.143  1.00  0.00     0.293 HD
ENDBRANCH   6  14
TORSDOF 4
ENDMDL
