MODEL 1
REMARK VINA RESULT:    -6.318      0.000      0.000
REMARK INTER + INTRA:          -7.092
REMARK INTER:                  -7.057
REMARK INTRA:                  -0.036
REMARK UNBOUND:                -0.036
REMARK SMILES O=C([O-])c1ccc(O)c(O)c1
REMARK SMILES IDX 4 1 11 2 5 3 9 4 6 5 7 6 2 7 1 8 3 9 10 10 8 12
REMARK H PARENT 10 11 8 13
REMARK Flexibility Score: inf
ROOT
ATOM      1  C   UNL     1      12.636 -13.368  28.480  1.00  0.00     0.001 A 
ATOM      2  C   UNL     1      11.355 -13.428  27.908  1.00  0.00     0.060 A 
ATOM      3  C   UNL     1      12.806 -12.690  29.697  1.00  0.00     0.014 A 
ATOM      4  C   UNL     1      10.256 -12.824  28.532  1.00  0.00     0.158 A 
ATOM      5  C   UNL     1      11.717 -12.084  30.327  1.00  0.00     0.051 A 
ATOM      6  C   UNL     1      10.439 -12.143  29.759  1.00  0.00     0.157 A 
ENDROOT
BRANCH   1   7
ATOM      7  C   UNL     1      13.787 -14.012  27.808  1.00  0.00     0.072 C 
ATOM      8  O   UNL     1      14.427 -13.403  26.910  1.00  0.00    -0.545 OA
ATOM      9  O   UNL     1      14.177 -15.300  28.158  1.00  0.00    -0.545 OA
ENDBRANCH   1   7
BRANCH   4  10
ATOM     10  O   UNL     1       9.013 -12.924  27.905  1.00  0.00    -0.504 OA
ATOM     11  H   UNL     1       8.417 -13.738  27.957  1.00  0.00     0.293 HD
ENDBRANCH   4  10
BRANCH   6  12
ATOM     12  O   UNL     1       9.393 -11.517  30.440  1.00  0.00    -0.504 OA
ATOM     13  H   UNL     1       9.519 -10.932  31.253  1.00  0.00     0.293 HD
ENDBRANCH   6  12
TORSDOF 3
ENDMDL
MODEL 2
REMARK VINA RESULT:    -6.184     12.348     13.479
REMARK INTER + INTRA:          -6.943
REMARK INTER:                  -6.907
REMARK INTRA:                  -0.036
REMARK UNBOUND:                -0.036
REMARK SMILES O=C([O-])c1ccc(O)c(O)c1
REMARK SMILES IDX 4 1 11 2 5 3 9 4 6 5 7 6 2 7 1 8 3 9 10 10 8 12
REMARK H PARENT 10 11 8 13
REMARK Flexibility Score: inf
ROOT
ATOM      1  C   UNL     1      15.727  -1.032  26.710  1.00  0.00     0.001 A 
ATOM      2  C   UNL     1      17.003  -0.582  26.333  1.00  0.00     0.060 A 
ATOM      3  C   UNL     1      15.597  -2.307  27.283  1.00  0.00     0.014 A 
ATOM      4  C   UNL     1      18.135  -1.384  26.521  1.00  0.00     0.158 A 
ATOM      5  C   UNL     1      16.720  -3.113  27.474  1.00  0.00     0.051 A 
ATOM      6  C   UNL     1      17.993  -2.667  27.099  1.00  0.00     0.157 A 
ENDROOT
BRANCH   1   7
ATOM      7  C   UNL     1      14.539  -0.172  26.505  1.00  0.00     0.072 C 
ATOM      8  O   UNL     1      14.256   0.737  27.330  1.00  0.00    -0.545 OA
ATOM      9  O   UNL     1      13.719  -0.356  25.398  1.00  0.00    -0.545 OA
ENDBRANCH   1   7
BRANCH   4  10
ATOM     10  O   UNL     1      19.371  -0.871  26.123  1.00  0.00    -0.504 OA
ATOM     11  H   UNL     1      19.514   0.075  25.798  1.00  0.00     0.293 HD
ENDBRANCH   4  10
BRANCH   6  12
ATOM     12  O   UNL     1      19.075  -3.522  27.318  1.00  0.00    -0.504 OA
ATOM     13  H   UNL     1      19.499  -3.675  28.222  1.00  0.00     0.293 HD
ENDBRANCH   6  12
TORSDOF 3
ENDMDL
MODEL 3
REMARK VINA RESULT:    -6.169      0.978      2.251
REMARK INTER + INTRA:          -6.926
REMARK INTER:                  -6.890
REMARK INTRA:                  -0.036
REMARK UNBOUND:                -0.036
REMARK SMILES O=C([O-])c1ccc(O)c(O)c1
REMARK SMILES IDX 4 1 11 2 5 3 9 4 6 5 7 6 2 7 1 8 3 9 10 10 8 12
REMARK H PARENT 10 11 8 13
REMARK Flexibility Score: inf
ROOT
ATOM      1  C   UNL     1      12.226 -13.463  28.275  1.00  0.00     0.001 A 
ATOM      2  C   UNL     1      12.137 -12.775  29.496  1.00  0.00     0.060 A 
ATOM      3  C   UNL     1      11.157 -13.379  27.368  1.00  0.00     0.014 A 
ATOM      4  C   UNL     1      11.006 -12.014  29.815  1.00  0.00     0.158 A 
ATOM      5  C   UNL     1      10.025 -12.624  27.678  1.00  0.00     0.051 A 
ATOM      6  C   UNL     1       9.935 -11.937  28.894  1.00  0.00     0.157 A 
ENDROOT
BRANCH   1   7
ATOM      7  C   UNL     1      13.429 -14.262  27.951  1.00  0.00     0.072 C 
ATOM      8  O   UNL     1      13.595 -15.404  28.458  1.00  0.00    -0.545 OA
ATOM      9  O   UNL     1      14.394 -13.764  27.083  1.00  0.00    -0.545 OA
ENDBRANCH   1   7
BRANCH   4  10
ATOM     10  O   UNL     1      10.988 -11.357  31.047  1.00  0.00    -0.504 OA
ATOM     11  H   UNL     1      11.110 -10.361  31.159  1.00  0.00     0.293 HD
ENDBRANCH   4  10
BRANCH   6  12
ATOM     12  O   UNL     1       8.776 -11.199  29.143  1.00  0.00    -0.504 OA
ATOM     13  H   UNL     1       8.707 -10.475  29.843  1.00  0.00     0.293 HD
ENDBRANCH   6  12
TORSDOF 3
ENDMDL
MODEL 4
REMARK VINA RESULT:    -6.055      1.866      2.759
REMARK INTER + INTRA:          -6.799
REMARK INTER:                  -6.756
REMARK INTRA:                  -0.042
REMARK UNBOUND:                -0.036
REMARK SMILES O=C([O-])c1ccc(O)c(O)c1
REMARK SMILES IDX 4 1 11 2 5 3 9 4 6 5 7 6 2 7 1 8 3 9 10 10 8 12
REMARK H PARENT 10 11 8 13
REMARK Flexibility Score: inf
ROOT
ATOM      1  C   UNL     1      11.105 -12.090  28.570  1.00  0.00     0.001 A 
ATOM      2  C   UNL     1       9.863 -11.575  28.977  1.00  0.00     0.060 A 
ATOM      3  C   UNL     1      12.280 -11.499  29.059  1.00  0.00     0.014 A 
ATOM      4  C   UNL     1       9.786 -10.489  29.857  1.00  0.00     0.158 A 
ATOM      5  C   UNL     1      12.213 -10.415  29.936  1.00  0.00     0.051 A 
ATOM      6  C   UNL     1      10.977  -9.900  30.343  1.00  0.00     0.157 A 
ENDROOT
BRANCH   1   7
ATOM      7  C   UNL     1      11.169 -13.240  27.640  1.00  0.00     0.072 C 
ATOM      8  O   UNL     1      10.261 -13.426  26.787  1.00  0.00    -0.545 OA
ATOM      9  O   UNL     1      12.234 -14.133  27.695  1.00  0.00    -0.545 OA
ENDBRANCH   1   7
BRANCH   4  10
ATOM     10  O   UNL     1       8.518 -10.030  30.219  1.00  0.00    -0.504 OA
ATOM     11  H   UNL     1       7.997  -9.339  29.699  1.00  0.00     0.293 HD
ENDBRANCH   4  10
BRANCH   6  12
ATOM     12  O   UNL     1      10.980  -8.815  31.223  1.00  0.00    -0.504 OA
ATOM     13  H   UNL     1      11.792  -8.245  31.412  1.00  0.00     0.293 HD
ENDBRANCH   6  12
TORSDOF 3
ENDMDL
MODEL 5
REMARK VINA RESULT:    -5.881      2.317      3.602
REMARK INTER + INTRA:          -6.605
REMARK INTER:                  -6.561
REMARK INTRA:                  -0.044
REMARK UNBOUND:                -0.036
REMARK SMILES O=C([O-])c1ccc(O)c(O)c1
REMARK SMILES IDX 4 1 11 2 5 3 9 4 6 5 7 6 2 7 1 8 3 9 10 10 8 12
REMARK H PARENT 10 11 8 13
REMARK Flexibility Score: inf
ROOT
ATOM      1  C   UNL     1      10.933 -11.838  28.737  1.00  0.00     0.001 A 
ATOM      2  C   UNL     1      12.093 -11.890  29.527  1.00  0.00     0.060 A 
ATOM      3  C   UNL     1      10.037 -10.772  28.914  1.00  0.00     0.014 A 
ATOM      4  C   UNL     1      12.362 -10.900  30.480  1.00  0.00     0.158 A 
ATOM      5  C   UNL     1      10.296  -9.781  29.862  1.00  0.00     0.051 A 
ATOM      6  C   UNL     1      11.451  -9.831  30.650  1.00  0.00     0.157 A 
ENDROOT
BRANCH   1   7
ATOM      7  C   UNL     1      10.663 -12.892  27.733  1.00  0.00     0.072 C 
ATOM      8  O   UNL     1       9.536 -12.975  27.178  1.00  0.00    -0.545 OA
ATOM      9  O   UNL     1      11.652 -13.807  27.389  1.00  0.00    -0.545 OA
ENDBRANCH   1   7
BRANCH   4  10
ATOM     10  O   UNL     1      13.534 -11.017  31.229  1.00  0.00    -0.504 OA
ATOM     11  H   UNL     1      13.768 -10.422  32.011  1.00  0.00     0.293 HD
ENDBRANCH   4  10
BRANCH   6  12
ATOM     12  O   UNL     1      11.651  -8.808  31.580  1.00  0.00    -0.504 OA
ATOM     13  H   UNL     1      12.547  -8.584  31.988  1.00  0.00     0.293 HD
ENDBRANCH   6  12
TORSDOF 3
ENDMDL
MODEL 6
REMARK VINA RESULT:    -5.837      1.433      4.145
REMARK INTER + INTRA:          -6.555
REMARK INTER:                  -6.513
REMARK INTRA:                  -0.042
REMARK UNBOUND:                -0.036
REMARK SMILES O=C([O-])c1ccc(O)c(O)c1
REMARK SMILES IDX 4 1 11 2 5 3 9 4 6 5 7 6 2 7 1 8 3 9 10 10 8 12
REMARK H PARENT 10 11 8 13
REMARK Flexibility Score: inf
ROOT
ATOM      1  C   UNL     1      10.995 -11.407  29.494  1.00  0.00     0.001 A 
ATOM      2  C   UNL     1      10.473 -12.047  28.358  1.00  0.00     0.060 A 
ATOM      3  C   UNL     1      12.155 -11.922  30.093  1.00  0.00     0.014 A 
ATOM      4  C   UNL     1      11.093 -13.183  27.822  1.00  0.00     0.158 A 
ATOM      5  C   UNL     1      12.779 -13.054  29.566  1.00  0.00     0.051 A 
ATOM      6  C   UNL     1      12.262 -13.693  28.434  1.00  0.00     0.157 A 
ENDROOT
BRANCH   1   7
ATOM      7  C   UNL     1      10.328 -10.207  30.049  1.00  0.00     0.072 C 
ATOM      8  O   UNL     1      10.999  -9.310  30.625  1.00  0.00    -0.545 OA
ATOM      9  O   UNL     1       8.950 -10.053  29.941  1.00  0.00    -0.545 OA
ENDBRANCH   1   7
BRANCH   4  10
ATOM     10  O   UNL     1      10.520 -13.767  26.691  1.00  0.00    -0.504 OA
ATOM     11  H   UNL     1       9.556 -14.062  26.634  1.00  0.00     0.293 HD
ENDBRANCH   4  10
BRANCH   6  12
ATOM     12  O   UNL     1      12.935 -14.820  27.957  1.00  0.00    -0.504 OA
ATOM     13  H   UNL     1      12.844 -15.175  27.016  1.00  0.00     0.293 HD
ENDBRANCH   6  12
TORSDOF 3
ENDMDL
MODEL 7
REMARK VINA RESULT:    -5.814      1.654      2.072
REMARK INTER + INTRA:          -6.529
REMARK INTER:                  -6.490
REMARK INTRA:                  -0.039
REMARK UNBOUND:                -0.036
REMARK SMILES O=C([O-])c1ccc(O)c(O)c1
REMARK SMILES IDX 4 1 11 2 5 3 9 4 6 5 7 6 2 7 1 8 3 9 10 10 8 12
REMARK H PARENT 10 11 8 13
REMARK Flexibility Score: inf
ROOT
ATOM      1  C   UNL     1      12.035 -11.793  29.149  1.00  0.00     0.001 A 
ATOM      2  C   UNL     1      11.021 -12.548  28.537  1.00  0.00     0.060 A 
ATOM      3  C   UNL     1      11.687 -10.624  29.844  1.00  0.00     0.014 A 
ATOM      4  C   UNL     1       9.680 -12.150  28.612  1.00  0.00     0.158 A 
ATOM      5  C   UNL     1      10.353 -10.220  29.924  1.00  0.00     0.051 A 
ATOM      6  C   UNL     1       9.341 -10.970  29.315  1.00  0.00     0.157 A 
ENDROOT
BRANCH   1   7
ATOM      7  C   UNL     1      13.447 -12.226  29.060  1.00  0.00     0.072 C 
ATOM      8  O   UNL     1      14.152 -12.328  30.099  1.00  0.00    -0.545 OA
ATOM      9  O   UNL     1      14.016 -12.527  27.828  1.00  0.00    -0.545 OA
ENDBRANCH   1   7
BRANCH   4  10
ATOM     10  O   UNL     1       8.726 -12.950  27.980  1.00  0.00    -0.504 OA
ATOM     11  H   UNL     1       7.863 -12.600  27.589  1.00  0.00     0.293 HD
ENDBRANCH   4  10
BRANCH   6  12
ATOM     12  O   UNL     1       8.027 -10.512  29.434  1.00  0.00    -0.504 OA
ATOM     13  H   UNL     1       7.638  -9.765  28.877  1.00  0.00     0.293 HD
ENDBRANCH   6  12
TORSDOF 3
ENDMDL
MODEL 8
REMARK VINA RESULT:    -5.802     12.437     13.394
REMARK INTER + INTRA:          -6.516
REMARK INTER:                  -6.480
REMARK INTRA:                  -0.036
REMARK UNBOUND:                -0.036
REMARK SMILES O=C([O-])c1ccc(O)c(O)c1
REMARK SMILES IDX 4 1 11 2 5 3 9 4 6 5 7 6 2 7 1 8 3 9 10 10 8 12
REMARK H PARENT 10 11 8 13
REMARK Flexibility Score: inf
ROOT
ATOM      1  C   UNL     1      15.721  -0.688  26.176  1.00  0.00     0.001 A 
ATOM      2  C   UNL     1      15.548  -1.624  27.210  1.00  0.00     0.060 A 
ATOM      3  C   UNL     1      16.938  -0.666  25.477  1.00  0.00     0.014 A 
ATOM      4  C   UNL     1      16.566  -2.524  27.546  1.00  0.00     0.158 A 
ATOM      5  C   UNL     1      17.959  -1.559  25.805  1.00  0.00     0.051 A 
ATOM      6  C   UNL     1      17.789  -2.492  26.834  1.00  0.00     0.157 A 
ENDROOT
BRANCH   1   7
ATOM      7  C   UNL     1      14.635   0.257  25.833  1.00  0.00     0.072 C 
ATOM      8  O   UNL     1      13.649  -0.123  25.147  1.00  0.00    -0.545 OA
ATOM      9  O   UNL     1      14.689   1.578  26.263  1.00  0.00    -0.545 OA
ENDBRANCH   1   7
BRANCH   4  10
ATOM     10  O   UNL     1      16.324  -3.426  28.584  1.00  0.00    -0.504 OA
ATOM     11  H   UNL     1      15.511  -3.395  29.182  1.00  0.00     0.293 HD
ENDBRANCH   4  10
BRANCH   6  12
ATOM     12  O   UNL     1      18.849  -3.358  27.111  1.00  0.00    -0.504 OA
ATOM     13  H   UNL     1      18.842  -4.036  27.859  1.00  0.00     0.293 HD
ENDBRANCH   6  12
TORSDOF 3
ENDMDL
MODEL 9
REMARK VINA RESULT:    -5.676      1.992      3.859
REMARK INTER + INTRA:          -6.376
REMARK INTER:                  -6.335
REMARK INTRA:                  -0.040
REMARK UNBOUND:                -0.036
REMARK SMILES O=C([O-])c1ccc(O)c(O)c1
REMARK SMILES IDX 4 1 11 2 5 3 9 4 6 5 7 6 2 7 1 8 3 9 10 10 8 12
REMARK H PARENT 10 11 8 13
REMARK Flexibility Score: inf
ROOT
ATOM      1  C   UNL     1      12.043 -11.313  30.145  1.00  0.00     0.001 A 
ATOM      2  C   UNL     1      10.711 -11.489  29.736  1.00  0.00     0.060 A 
ATOM      3  C   UNL     1      13.053 -12.049  29.506  1.00  0.00     0.014 A 
ATOM      4  C   UNL     1      10.384 -12.382  28.708  1.00  0.00     0.158 A 
ATOM      5  C   UNL     1      12.737 -12.942  28.481  1.00  0.00     0.051 A 
ATOM      6  C   UNL     1      11.411 -13.119  28.072  1.00  0.00     0.157 A 
ENDROOT
BRANCH   1   7
ATOM      7  C   UNL     1      12.373 -10.364  31.233  1.00  0.00     0.072 C 
ATOM      8  O   UNL     1      13.230 -10.663  32.106  1.00  0.00    -0.545 OA
ATOM      9  O   UNL     1      11.739  -9.129  31.306  1.00  0.00    -0.545 OA
ENDBRANCH   1   7
BRANCH   4  10
ATOM     10  O   UNL     1       9.039 -12.505  28.354  1.00  0.00    -0.504 OA
ATOM     11  H   UNL     1       8.613 -12.026  27.573  1.00  0.00     0.293 HD
ENDBRANCH   4  10
BRANCH   6  12
ATOM     12  O   UNL     1      11.162 -14.027  27.040  1.00  0.00    -0.504 OA
ATOM     13  H   UNL     1      11.413 -15.004  27.076  1.00  0.00     0.293 HD
ENDBRANCH   6  12
TORSDOF 3
ENDMDL
