MODEL 1
REMARK VINA RESULT:    -4.045      0.000      0.000
REMARK INTER + INTRA:          -4.417
REMARK INTER:                  -4.636
REMARK INTRA:                   0.220
REMARK UNBOUND:                 0.220
REMARK SMILES CC(C)[C@H]([NH3+])C(=O)[O-]
REMARK SMILES IDX 4 1 5 2 6 6 7 7 8 8 2 9 1 10 3 11
REMARK H PARENT 5 3 5 4 5 5
REMARK Flexibility Score: inf
ROOT
ATOM      1  C   UNL     1      47.326  57.235  89.050  1.00  0.00     0.230 C 
ENDROOT
BRANCH   1   2
ATOM      2  N   UNL     1      46.993  55.811  88.877  1.00  0.00    -0.350 N 
ATOM      3  H   UNL     1      47.698  55.343  88.265  1.00  0.00     0.345 HD
ATOM      4  H   UNL     1      46.040  55.689  88.466  1.00  0.00     0.345 HD
ATOM      5  H   UNL     1      47.016  55.334  89.808  1.00  0.00     0.345 HD
ENDBRANCH   1   2
BRANCH   1   6
ATOM      6  C   UNL     1      47.135  57.664  90.483  1.00  0.00     0.099 C 
ATOM      7  O   UNL     1      47.974  58.415  91.051  1.00  0.00    -0.544 OA
ATOM      8  O   UNL     1      46.049  57.189  91.206  1.00  0.00    -0.544 OA
ENDBRANCH   1   6
BRANCH   1   9
ATOM      9  C   UNL     1      46.539  58.168  88.080  1.00  0.00     0.047 C 
ATOM     10  C   UNL     1      47.415  58.796  86.983  1.00  0.00     0.014 C 
ATOM     11  C   UNL     1      45.772  59.263  88.837  1.00  0.00     0.014 C 
ENDBRANCH   1   9
TORSDOF 3
ENDMDL
MODEL 2
REMARK VINA RESULT:    -3.842      3.571      4.643
REMARK INTER + INTRA:          -4.184
REMARK INTER:                  -4.284
REMARK INTRA:                   0.100
REMARK UNBOUND:                 0.220
REMARK SMILES CC(C)[C@H]([NH3+])C(=O)[O-]
REMARK SMILES IDX 4 1 5 2 6 6 7 7 8 8 2 9 1 10 3 11
REMARK H PARENT 5 3 5 4 5 5
REMARK Flexibility Score: inf
ROOT
ATOM      1  C   UNL     1      44.524  56.305  92.278  1.00  0.00     0.230 C 
ENDROOT
BRANCH   1   2
ATOM      2  N   UNL     1      43.621  55.824  93.336  1.00  0.00    -0.350 N 
ATOM      3  H   UNL     1      43.738  54.795  93.477  1.00  0.00     0.345 HD
ATOM      4  H   UNL     1      42.622  56.031  93.110  1.00  0.00     0.345 HD
ATOM      5  H   UNL     1      43.861  56.295  94.239  1.00  0.00     0.345 HD
ENDBRANCH   1   2
BRANCH   1   6
ATOM      6  C   UNL     1      45.572  55.271  91.949  1.00  0.00     0.099 C 
ATOM      7  O   UNL     1      45.674  54.214  92.630  1.00  0.00    -0.544 OA
ATOM      8  O   UNL     1      46.469  55.504  90.915  1.00  0.00    -0.544 OA
ENDBRANCH   1   6
BRANCH   1   9
ATOM      9  C   UNL     1      45.182  57.677  92.614  1.00  0.00     0.047 C 
ATOM     10  C   UNL     1      44.393  58.504  93.643  1.00  0.00     0.014 C 
ATOM     11  C   UNL     1      45.442  58.512  91.351  1.00  0.00     0.014 C 
ENDBRANCH   1   9
TORSDOF 3
ENDMDL
MODEL 3
REMARK VINA RESULT:    -3.833      2.099      2.744
REMARK INTER + INTRA:          -4.173
REMARK INTER:                  -4.288
REMARK INTRA:                   0.115
REMARK UNBOUND:                 0.220
REMARK SMILES CC(C)[C@H]([NH3+])C(=O)[O-]
REMARK SMILES IDX 4 1 5 2 6 6 7 7 8 8 2 9 1 10 3 11
REMARK H PARENT 5 3 5 4 5 5
REMARK Flexibility Score: inf
ROOT
ATOM      1  C   UNL     1      46.978  56.182  90.852  1.00  0.00     0.230 C 
ENDROOT
BRANCH   1   2
ATOM      2  N   UNL     1      47.824  55.491  89.865  1.00  0.00    -0.350 N 
ATOM      3  H   UNL     1      47.940  56.078  89.009  1.00  0.00     0.345 HD
ATOM      4  H   UNL     1      47.420  54.564  89.598  1.00  0.00     0.345 HD
ATOM      5  H   UNL     1      48.775  55.333  90.272  1.00  0.00     0.345 HD
ENDBRANCH   1   2
BRANCH   1   6
ATOM      6  C   UNL     1      45.910  55.262  91.388  1.00  0.00     0.099 C 
ATOM      7  O   UNL     1      45.785  54.088  90.943  1.00  0.00    -0.544 OA
ATOM      8  O   UNL     1      45.020  55.725  92.348  1.00  0.00    -0.544 OA
ENDBRANCH   1   6
BRANCH   1   9
ATOM      9  C   UNL     1      46.353  57.501  90.304  1.00  0.00     0.047 C 
ATOM     10  C   UNL     1      47.131  58.108  89.125  1.00  0.00     0.014 C 
ATOM     11  C   UNL     1      46.166  58.549  91.412  1.00  0.00     0.014 C 
ENDBRANCH   1   9
TORSDOF 3
ENDMDL
MODEL 4
REMARK VINA RESULT:    -3.799      6.662      7.625
REMARK INTER + INTRA:          -4.135
REMARK INTER:                  -4.074
REMARK INTRA:                  -0.060
REMARK UNBOUND:                 0.220
REMARK SMILES CC(C)[C@H]([NH3+])C(=O)[O-]
REMARK SMILES IDX 4 1 5 2 6 6 7 7 8 8 2 9 1 10 3 11
REMARK H PARENT 5 3 5 4 5 5
REMARK Flexibility Score: inf
ROOT
ATOM      1  C   UNL     1      44.455  51.688  91.944  1.00  0.00     0.230 C 
ENDROOT
BRANCH   1   2
ATOM      2  N   UNL     1      43.564  51.747  90.773  1.00  0.00    -0.350 N 
ATOM      3  H   UNL     1      44.015  51.293  89.947  1.00  0.00     0.345 HD
ATOM      4  H   UNL     1      43.313  52.733  90.533  1.00  0.00     0.345 HD
ATOM      5  H   UNL     1      42.683  51.222  90.980  1.00  0.00     0.345 HD
ENDBRANCH   1   2
BRANCH   1   6
ATOM      6  C   UNL     1      45.565  52.703  91.830  1.00  0.00     0.099 C 
ATOM      7  O   UNL     1      46.704  52.475  92.322  1.00  0.00    -0.544 OA
ATOM      8  O   UNL     1      45.320  53.926  91.218  1.00  0.00    -0.544 OA
ENDBRANCH   1   6
BRANCH   1   9
ATOM      9  C   UNL     1      45.029  50.262  92.203  1.00  0.00     0.047 C 
ATOM     10  C   UNL     1      45.219  49.432  90.923  1.00  0.00     0.014 C 
ATOM     11  C   UNL     1      44.184  49.481  93.220  1.00  0.00     0.014 C 
ENDBRANCH   1   9
TORSDOF 3
ENDMDL
MODEL 5
REMARK VINA RESULT:    -3.796      6.468      7.674
REMARK INTER + INTRA:          -4.132
REMARK INTER:                  -4.072
REMARK INTRA:                  -0.060
REMARK UNBOUND:                 0.220
REMARK SMILES CC(C)[C@H]([NH3+])C(=O)[O-]
REMARK SMILES IDX 4 1 5 2 6 6 7 7 8 8 2 9 1 10 3 11
REMARK H PARENT 5 3 5 4 5 5
REMARK Flexibility Score: inf
ROOT
ATOM      1  C   UNL     1      46.972  51.721  92.004  1.00  0.00     0.230 C 
ENDROOT
BRANCH   1   2
ATOM      2  N   UNL     1      47.882  51.996  93.127  1.00  0.00    -0.350 N 
ATOM      3  H   UNL     1      48.018  53.025  93.243  1.00  0.00     0.345 HD
ATOM      4  H   UNL     1      48.811  51.537  92.988  1.00  0.00     0.345 HD
ATOM      5  H   UNL     1      47.462  51.631  94.013  1.00  0.00     0.345 HD
ENDBRANCH   1   2
BRANCH   1   6
ATOM      6  C   UNL     1      45.814  52.688  91.997  1.00  0.00     0.099 C 
ATOM      7  O   UNL     1      44.667  52.322  91.621  1.00  0.00    -0.544 OA
ATOM      8  O   UNL     1      46.020  54.012  92.362  1.00  0.00    -0.544 OA
ENDBRANCH   1   6
BRANCH   1   9
ATOM      9  C   UNL     1      46.466  50.247  91.975  1.00  0.00     0.047 C 
ATOM     10  C   UNL     1      46.318  49.618  93.370  1.00  0.00     0.014 C 
ATOM     11  C   UNL     1      47.346  49.358  91.083  1.00  0.00     0.014 C 
ENDBRANCH   1   9
TORSDOF 3
ENDMDL
MODEL 6
REMARK VINA RESULT:    -3.780      2.412      3.523
REMARK INTER + INTRA:          -4.113
REMARK INTER:                  -4.121
REMARK INTRA:                   0.008
REMARK UNBOUND:                 0.220
REMARK SMILES CC(C)[C@H]([NH3+])C(=O)[O-]
REMARK SMILES IDX 4 1 5 2 6 6 7 7 8 8 2 9 1 10 3 11
REMARK H PARENT 5 3 5 4 5 5
REMARK Flexibility Score: inf
ROOT
ATOM      1  C   UNL     1      47.196  57.553  89.825  1.00  0.00     0.230 C 
ENDROOT
BRANCH   1   2
ATOM      2  N   UNL     1      46.587  58.062  91.065  1.00  0.00    -0.350 N 
ATOM      3  H   UNL     1      45.575  58.272  90.915  1.00  0.00     0.345 HD
ATOM      4  H   UNL     1      47.073  58.923  91.404  1.00  0.00     0.345 HD
ATOM      5  H   UNL     1      46.652  57.330  91.810  1.00  0.00     0.345 HD
ENDBRANCH   1   2
BRANCH   1   6
ATOM      6  C   UNL     1      46.770  58.376  88.635  1.00  0.00     0.099 C 
ATOM      7  O   UNL     1      45.739  59.101  88.686  1.00  0.00    -0.544 OA
ATOM      8  O   UNL     1      47.491  58.299  87.451  1.00  0.00    -0.544 OA
ENDBRANCH   1   6
BRANCH   1   9
ATOM      9  C   UNL     1      46.916  56.038  89.584  1.00  0.00     0.047 C 
ATOM     10  C   UNL     1      46.495  55.280  90.854  1.00  0.00     0.014 C 
ATOM     11  C   UNL     1      48.108  55.335  88.917  1.00  0.00     0.014 C 
ENDBRANCH   1   9
TORSDOF 3
ENDMDL
MODEL 7
REMARK VINA RESULT:    -3.742      7.138      8.139
REMARK INTER + INTRA:          -4.069
REMARK INTER:                  -4.019
REMARK INTRA:                  -0.051
REMARK UNBOUND:                 0.220
REMARK SMILES CC(C)[C@H]([NH3+])C(=O)[O-]
REMARK SMILES IDX 4 1 5 2 6 6 7 7 8 8 2 9 1 10 3 11
REMARK H PARENT 5 3 5 4 5 5
REMARK Flexibility Score: inf
ROOT
ATOM      1  C   UNL     1      44.697  50.952  91.564  1.00  0.00     0.230 C 
ENDROOT
BRANCH   1   2
ATOM      2  N   UNL     1      43.886  52.037  90.988  1.00  0.00    -0.350 N 
ATOM      3  H   UNL     1      42.873  51.887  91.197  1.00  0.00     0.345 HD
ATOM      4  H   UNL     1      44.020  52.107  89.954  1.00  0.00     0.345 HD
ATOM      5  H   UNL     1      44.167  52.948  91.420  1.00  0.00     0.345 HD
ENDBRANCH   1   2
BRANCH   1   6
ATOM      6  C   UNL     1      43.863  50.072  92.462  1.00  0.00     0.099 C 
ATOM      7  O   UNL     1      44.228  49.823  93.643  1.00  0.00    -0.544 OA
ATOM      8  O   UNL     1      42.703  49.488  91.970  1.00  0.00    -0.544 OA
ENDBRANCH   1   6
BRANCH   1   9
ATOM      9  C   UNL     1      45.965  51.466  92.310  1.00  0.00     0.047 C 
ATOM     10  C   UNL     1      46.250  52.960  92.081  1.00  0.00     0.014 C 
ATOM     11  C   UNL     1      47.208  50.631  91.968  1.00  0.00     0.014 C 
ENDBRANCH   1   9
TORSDOF 3
ENDMDL
MODEL 8
REMARK VINA RESULT:    -3.738      7.142      8.014
REMARK INTER + INTRA:          -4.064
REMARK INTER:                  -4.006
REMARK INTRA:                  -0.058
REMARK UNBOUND:                 0.220
REMARK SMILES CC(C)[C@H]([NH3+])C(=O)[O-]
REMARK SMILES IDX 4 1 5 2 6 6 7 7 8 8 2 9 1 10 3 11
REMARK H PARENT 5 3 5 4 5 5
REMARK Flexibility Score: inf
ROOT
ATOM      1  C   UNL     1      44.601  51.579  91.972  1.00  0.00     0.230 C 
ENDROOT
BRANCH   1   2
ATOM      2  N   UNL     1      44.091  52.419  90.877  1.00  0.00    -0.350 N 
ATOM      3  H   UNL     1      43.117  52.737  91.083  1.00  0.00     0.345 HD
ATOM      4  H   UNL     1      44.102  51.908  89.965  1.00  0.00     0.345 HD
ATOM      5  H   UNL     1      44.690  53.272  90.785  1.00  0.00     0.345 HD
ENDBRANCH   1   2
BRANCH   1   6
ATOM      6  C   UNL     1      46.107  51.624  92.031  1.00  0.00     0.099 C 
ATOM      7  O   UNL     1      46.709  52.659  92.426  1.00  0.00    -0.544 OA
ATOM      8  O   UNL     1      46.847  50.530  91.599  1.00  0.00    -0.544 OA
ENDBRANCH   1   6
BRANCH   1   9
ATOM      9  C   UNL     1      44.090  50.108  91.901  1.00  0.00     0.047 C 
ATOM     10  C   UNL     1      42.831  49.933  91.037  1.00  0.00     0.014 C 
ATOM     11  C   UNL     1      43.860  49.515  93.300  1.00  0.00     0.014 C 
ENDBRANCH   1   9
TORSDOF 3
ENDMDL
MODEL 9
REMARK VINA RESULT:    -3.707      7.219      8.033
REMARK INTER + INTRA:          -4.029
REMARK INTER:                  -3.969
REMARK INTRA:                  -0.060
REMARK UNBOUND:                 0.220
REMARK SMILES CC(C)[C@H]([NH3+])C(=O)[O-]
REMARK SMILES IDX 4 1 5 2 6 6 7 7 8 8 2 9 1 10 3 11
REMARK H PARENT 5 3 5 4 5 5
REMARK Flexibility Score: inf
ROOT
ATOM      1  C   UNL     1      46.730  51.002  92.666  1.00  0.00     0.230 C 
ENDROOT
BRANCH   1   2
ATOM      2  N   UNL     1      47.374  52.323  92.754  1.00  0.00    -0.350 N 
ATOM      3  H   UNL     1      46.714  53.025  93.159  1.00  0.00     0.345 HD
ATOM      4  H   UNL     1      47.699  52.653  91.817  1.00  0.00     0.345 HD
ATOM      5  H   UNL     1      48.203  52.264  93.390  1.00  0.00     0.345 HD
ENDBRANCH   1   2
BRANCH   1   6
ATOM      6  C   UNL     1      47.672  49.980  92.080  1.00  0.00     0.099 C 
ATOM      7  O   UNL     1      48.637  49.528  92.754  1.00  0.00    -0.544 OA
ATOM      8  O   UNL     1      47.507  49.566  90.765  1.00  0.00    -0.544 OA
ENDBRANCH   1   6
BRANCH   1   9
ATOM      9  C   UNL     1      45.383  51.030  91.883  1.00  0.00     0.047 C 
ATOM     10  C   UNL     1      44.893  52.449  91.550  1.00  0.00     0.014 C 
ATOM     11  C   UNL     1      44.281  50.248  92.613  1.00  0.00     0.014 C 
ENDBRANCH   1   9
TORSDOF 3
ENDMDL
