MODEL 1
REMARK VINA RESULT:    -3.268      0.000      0.000
REMARK INTER + INTRA:          -4.350
REMARK INTER:                  -4.224
REMARK INTRA:                  -0.127
REMARK UNBOUND:                -0.127
REMARK SMILES CCCCCCC(=O)[O-]
REMARK SMILES IDX 5 1 6 2 7 3 8 4 9 5 4 6 3 7 2 8 1 9
REMARK H PARENT
REMARK Flexibility Score: inf
ROOT
ATOM      1  C   UNL     1      61.813  32.964  60.554  1.00  0.00     0.006 C 
ENDROOT
BRANCH   1   2
ATOM      2  C   UNL     1      62.294  31.511  60.450  1.00  0.00     0.053 C 
BRANCH   2   3
ATOM      3  C   UNL     1      61.681  30.646  61.508  1.00  0.00     0.041 C 
ATOM      4  O   UNL     1      60.593  30.979  62.048  1.00  0.00    -0.550 OA
ATOM      5  O   UNL     1      62.329  29.490  61.925  1.00  0.00    -0.550 OA
ENDBRANCH   2   3
ENDBRANCH   1   2
BRANCH   1   6
ATOM      6  C   UNL     1      62.983  33.956  60.679  1.00  0.00     0.000 C 
BRANCH   6   7
ATOM      7  C   UNL     1      62.514  35.387  60.982  1.00  0.00    -0.000 C 
BRANCH   7   8
ATOM      8  C   UNL     1      63.683  36.360  61.192  1.00  0.00    -0.003 C 
ATOM      9  C   UNL     1      64.844  35.678  61.908  1.00  0.00     0.004 C 
ENDBRANCH   7   8
ENDBRANCH   6   7
ENDBRANCH   1   6
TORSDOF 5
ENDMDL
MODEL 2
REMARK VINA RESULT:    -3.266      0.569      1.478
REMARK INTER + INTRA:          -4.347
REMARK INTER:                  -4.145
REMARK INTRA:                  -0.202
REMARK UNBOUND:                -0.127
REMARK SMILES CCCCCCC(=O)[O-]
REMARK SMILES IDX 5 1 6 2 7 3 8 4 9 5 4 6 3 7 2 8 1 9
REMARK H PARENT
REMARK Flexibility Score: inf
ROOT
ATOM      1  C   UNL     1      61.670  32.832  60.521  1.00  0.00     0.006 C 
ENDROOT
BRANCH   1   2
ATOM      2  C   UNL     1      62.559  31.609  60.780  1.00  0.00     0.053 C 
BRANCH   2   3
ATOM      3  C   UNL     1      61.844  30.560  61.574  1.00  0.00     0.041 C 
ATOM      4  O   UNL     1      62.447  29.513  61.930  1.00  0.00    -0.550 OA
ATOM      5  O   UNL     1      60.501  30.721  61.893  1.00  0.00    -0.550 OA
ENDBRANCH   2   3
ENDBRANCH   1   2
BRANCH   1   6
ATOM      6  C   UNL     1      62.464  34.149  60.573  1.00  0.00     0.000 C 
BRANCH   6   7
ATOM      7  C   UNL     1      63.942  33.933  60.931  1.00  0.00    -0.000 C 
BRANCH   7   8
ATOM      8  C   UNL     1      64.595  35.188  61.527  1.00  0.00    -0.003 C 
ATOM      9  C   UNL     1      63.658  36.389  61.441  1.00  0.00     0.004 C 
ENDBRANCH   7   8
ENDBRANCH   6   7
ENDBRANCH   1   6
TORSDOF 5
ENDMDL
MODEL 3
REMARK VINA RESULT:    -3.252     13.276     14.681
REMARK INTER + INTRA:          -4.329
REMARK INTER:                  -4.186
REMARK INTRA:                  -0.143
REMARK UNBOUND:                -0.127
REMARK SMILES CCCCCCC(=O)[O-]
REMARK SMILES IDX 5 1 6 2 7 3 8 4 9 5 4 6 3 7 2 8 1 9
REMARK H PARENT
REMARK Flexibility Score: inf
ROOT
ATOM      1  C   UNL     1      56.922  28.360  50.525  1.00  0.00     0.006 C 
ENDROOT
BRANCH   1   2
ATOM      2  C   UNL     1      58.293  27.682  50.407  1.00  0.00     0.053 C 
BRANCH   2   3
ATOM      3  C   UNL     1      59.168  28.368  49.403  1.00  0.00     0.041 C 
ATOM      4  O   UNL     1      58.827  29.480  48.920  1.00  0.00    -0.550 OA
ATOM      5  O   UNL     1      60.343  27.764  48.974  1.00  0.00    -0.550 OA
ENDBRANCH   2   3
ENDBRANCH   1   2
BRANCH   1   6
ATOM      6  C   UNL     1      55.764  27.376  50.279  1.00  0.00     0.000 C 
BRANCH   6   7
ATOM      7  C   UNL     1      54.433  28.090  49.999  1.00  0.00    -0.000 C 
BRANCH   7   8
ATOM      8  C   UNL     1      53.332  27.126  49.532  1.00  0.00    -0.003 C 
ATOM      9  C   UNL     1      53.921  25.782  49.112  1.00  0.00     0.004 C 
ENDBRANCH   7   8
ENDBRANCH   6   7
ENDBRANCH   1   6
TORSDOF 5
ENDMDL
MODEL 4
REMARK VINA RESULT:    -3.210      1.390      1.958
REMARK INTER + INTRA:          -4.276
REMARK INTER:                  -4.067
REMARK INTRA:                  -0.209
REMARK UNBOUND:                -0.127
REMARK SMILES CCCCCCC(=O)[O-]
REMARK SMILES IDX 5 1 6 2 7 3 8 4 9 5 4 6 3 7 2 8 1 9
REMARK H PARENT
REMARK Flexibility Score: inf
ROOT
ATOM      1  C   UNL     1      61.217  31.570  60.400  1.00  0.00     0.006 C 
ENDROOT
BRANCH   1   2
ATOM      2  C   UNL     1      61.182  30.758  61.700  1.00  0.00     0.053 C 
BRANCH   2   3
ATOM      3  C   UNL     1      62.273  29.733  61.744  1.00  0.00     0.041 C 
ATOM      4  O   UNL     1      63.481  30.090  61.713  1.00  0.00    -0.550 OA
ATOM      5  O   UNL     1      61.958  28.380  61.784  1.00  0.00    -0.550 OA
ENDBRANCH   2   3
ENDBRANCH   1   2
BRANCH   1   6
ATOM      6  C   UNL     1      61.623  33.035  60.640  1.00  0.00     0.000 C 
BRANCH   6   7
ATOM      7  C   UNL     1      63.107  33.294  60.332  1.00  0.00    -0.000 C 
BRANCH   7   8
ATOM      8  C   UNL     1      63.646  34.548  61.034  1.00  0.00    -0.003 C 
ATOM      9  C   UNL     1      62.607  35.666  61.036  1.00  0.00     0.004 C 
ENDBRANCH   7   8
ENDBRANCH   6   7
ENDBRANCH   1   6
TORSDOF 5
ENDMDL
MODEL 5
REMARK VINA RESULT:    -3.192     13.564     14.547
REMARK INTER + INTRA:          -4.252
REMARK INTER:                  -4.114
REMARK INTRA:                  -0.138
REMARK UNBOUND:                -0.127
REMARK SMILES CCCCCCC(=O)[O-]
REMARK SMILES IDX 5 1 6 2 7 3 8 4 9 5 4 6 3 7 2 8 1 9
REMARK H PARENT
REMARK Flexibility Score: inf
ROOT
ATOM      1  C   UNL     1      55.870  27.588  50.426  1.00  0.00     0.006 C 
ENDROOT
BRANCH   1   2
ATOM      2  C   UNL     1      55.297  26.302  49.816  1.00  0.00     0.053 C 
BRANCH   2   3
ATOM      3  C   UNL     1      53.883  26.488  49.357  1.00  0.00     0.041 C 
ATOM      4  O   UNL     1      53.258  25.532  48.826  1.00  0.00    -0.550 OA
ATOM      5  O   UNL     1      53.267  27.727  49.481  1.00  0.00    -0.550 OA
ENDBRANCH   2   3
ENDBRANCH   1   2
BRANCH   1   6
ATOM      6  C   UNL     1      57.406  27.633  50.348  1.00  0.00     0.000 C 
BRANCH   6   7
ATOM      7  C   UNL     1      57.944  29.057  50.137  1.00  0.00    -0.000 C 
BRANCH   7   8
ATOM      8  C   UNL     1      59.090  29.110  49.116  1.00  0.00    -0.003 C 
ATOM      9  C   UNL     1      59.921  27.831  49.155  1.00  0.00     0.004 C 
ENDBRANCH   7   8
ENDBRANCH   6   7
ENDBRANCH   1   6
TORSDOF 5
ENDMDL
MODEL 6
REMARK VINA RESULT:    -3.186     12.589     13.963
REMARK INTER + INTRA:          -4.245
REMARK INTER:                  -4.017
REMARK INTRA:                  -0.228
REMARK UNBOUND:                -0.127
REMARK SMILES CCCCCCC(=O)[O-]
REMARK SMILES IDX 5 1 6 2 7 3 8 4 9 5 4 6 3 7 2 8 1 9
REMARK H PARENT
REMARK Flexibility Score: inf
ROOT
ATOM      1  C   UNL     1      58.153  29.117  50.602  1.00  0.00     0.006 C 
ENDROOT
BRANCH   1   2
ATOM      2  C   UNL     1      58.823  28.893  49.240  1.00  0.00     0.053 C 
BRANCH   2   3
ATOM      3  C   UNL     1      59.872  27.825  49.305  1.00  0.00     0.041 C 
ATOM      4  O   UNL     1      59.554  26.615  49.162  1.00  0.00    -0.550 OA
ATOM      5  O   UNL     1      61.195  28.163  49.560  1.00  0.00    -0.550 OA
ENDBRANCH   2   3
ENDBRANCH   1   2
BRANCH   1   6
ATOM      6  C   UNL     1      56.628  28.917  50.539  1.00  0.00     0.000 C 
BRANCH   6   7
ATOM      7  C   UNL     1      56.236  27.470  50.202  1.00  0.00    -0.000 C 
BRANCH   7   8
ATOM      8  C   UNL     1      54.721  27.294  50.025  1.00  0.00    -0.003 C 
ATOM      9  C   UNL     1      53.999  28.636  50.105  1.00  0.00     0.004 C 
ENDBRANCH   7   8
ENDBRANCH   6   7
ENDBRANCH   1   6
TORSDOF 5
ENDMDL
MODEL 7
REMARK VINA RESULT:    -3.105      3.133      5.133
REMARK INTER + INTRA:          -4.140
REMARK INTER:                  -3.991
REMARK INTRA:                  -0.148
REMARK UNBOUND:                -0.127
REMARK SMILES CCCCCCC(=O)[O-]
REMARK SMILES IDX 5 1 6 2 7 3 8 4 9 5 4 6 3 7 2 8 1 9
REMARK H PARENT
REMARK Flexibility Score: inf
ROOT
ATOM      1  C   UNL     1      62.886  33.678  60.396  1.00  0.00     0.006 C 
ENDROOT
BRANCH   1   2
ATOM      2  C   UNL     1      64.204  34.100  61.059  1.00  0.00     0.053 C 
BRANCH   2   3
ATOM      3  C   UNL     1      64.188  35.543  61.459  1.00  0.00     0.041 C 
ATOM      4  O   UNL     1      65.251  36.112  61.823  1.00  0.00    -0.550 OA
ATOM      5  O   UNL     1      62.993  36.252  61.464  1.00  0.00    -0.550 OA
ENDBRANCH   2   3
ENDBRANCH   1   2
BRANCH   1   6
ATOM      6  C   UNL     1      62.609  32.174  60.559  1.00  0.00     0.000 C 
BRANCH   6   7
ATOM      7  C   UNL     1      61.130  31.874  60.849  1.00  0.00    -0.000 C 
BRANCH   7   8
ATOM      8  C   UNL     1      60.933  30.569  61.632  1.00  0.00    -0.003 C 
ATOM      9  C   UNL     1      62.252  29.818  61.789  1.00  0.00     0.004 C 
ENDBRANCH   7   8
ENDBRANCH   6   7
ENDBRANCH   1   6
TORSDOF 5
ENDMDL
MODEL 8
REMARK VINA RESULT:    -2.977     12.996     13.816
REMARK INTER + INTRA:          -3.974
REMARK INTER:                  -3.709
REMARK INTRA:                  -0.265
REMARK UNBOUND:                -0.127
REMARK SMILES CCCCCCC(=O)[O-]
REMARK SMILES IDX 5 1 6 2 7 3 8 4 9 5 4 6 3 7 2 8 1 9
REMARK H PARENT
REMARK Flexibility Score: inf
ROOT
ATOM      1  C   UNL     1      57.814  28.515  50.690  1.00  0.00     0.006 C 
ENDROOT
BRANCH   1   2
ATOM      2  C   UNL     1      56.302  28.721  50.540  1.00  0.00     0.053 C 
BRANCH   2   3
ATOM      3  C   UNL     1      55.603  27.450  50.163  1.00  0.00     0.041 C 
ATOM      4  O   UNL     1      56.190  26.343  50.290  1.00  0.00    -0.550 OA
ATOM      5  O   UNL     1      54.318  27.491  49.638  1.00  0.00    -0.550 OA
ENDBRANCH   2   3
ENDBRANCH   1   2
BRANCH   1   6
ATOM      6  C   UNL     1      58.604  29.135  49.524  1.00  0.00     0.000 C 
BRANCH   6   7
ATOM      7  C   UNL     1      59.748  28.231  49.039  1.00  0.00    -0.000 C 
BRANCH   7   8
ATOM      8  C   UNL     1      59.523  26.753  49.390  1.00  0.00    -0.003 C 
ATOM      9  C   UNL     1      60.803  26.112  49.918  1.00  0.00     0.004 C 
ENDBRANCH   7   8
ENDBRANCH   6   7
ENDBRANCH   1   6
TORSDOF 5
ENDMDL
MODEL 9
REMARK VINA RESULT:    -2.899     12.495     13.443
REMARK INTER + INTRA:          -3.873
REMARK INTER:                  -3.572
REMARK INTRA:                  -0.302
REMARK UNBOUND:                -0.127
REMARK SMILES CCCCCCC(=O)[O-]
REMARK SMILES IDX 5 1 6 2 7 3 8 4 9 5 4 6 3 7 2 8 1 9
REMARK H PARENT
REMARK Flexibility Score: inf
ROOT
ATOM      1  C   UNL     1      59.790  28.137  48.999  1.00  0.00     0.006 C 
ENDROOT
BRANCH   1   2
ATOM      2  C   UNL     1      59.450  26.707  49.441  1.00  0.00     0.053 C 
BRANCH   2   3
ATOM      3  C   UNL     1      60.622  26.031  50.083  1.00  0.00     0.041 C 
ATOM      4  O   UNL     1      60.781  24.788  49.962  1.00  0.00    -0.550 OA
ATOM      5  O   UNL     1      61.520  26.768  50.845  1.00  0.00    -0.550 OA
ENDBRANCH   2   3
ENDBRANCH   1   2
BRANCH   1   6
ATOM      6  C   UNL     1      58.736  29.156  49.468  1.00  0.00     0.000 C 
BRANCH   6   7
ATOM      7  C   UNL     1      57.977  28.687  50.719  1.00  0.00    -0.000 C 
BRANCH   7   8
ATOM      8  C   UNL     1      56.454  28.813  50.568  1.00  0.00    -0.003 C 
ATOM      9  C   UNL     1      55.823  27.466  50.226  1.00  0.00     0.004 C 
ENDBRANCH   7   8
ENDBRANCH   6   7
ENDBRANCH   1   6
TORSDOF 5
ENDMDL
