MODEL 1
REMARK VINA RESULT:    -3.972      0.000      0.000
REMARK INTER + INTRA:          -8.013
REMARK INTER:                  -6.991
REMARK INTRA:                  -1.023
REMARK UNBOUND:                -1.023
REMARK SMILES CCCCCCCCCCCCCCC(=O)[O-]
REMARK SMILES IDX 9 1 10 2 11 3 12 4 13 5 14 6 15 7 16 8 17 9 8 10 7 11 6 12
REMARK SMILES IDX 5 13 4 14 3 15 2 16 1 17
REMARK H PARENT
REMARK Flexibility Score: inf
ROOT
ATOM      1  C   UNL     1     -43.739 -27.140  -0.024  1.00  0.00     0.000 C 
ENDROOT
BRANCH   1   2
ATOM      2  C   UNL     1     -43.236 -28.543  -0.411  1.00  0.00     0.000 C 
BRANCH   2   3
ATOM      3  C   UNL     1     -44.379 -29.579  -0.453  1.00  0.00     0.000 C 
BRANCH   3   4
ATOM      4  C   UNL     1     -44.864 -29.902  -1.876  1.00  0.00     0.000 C 
BRANCH   4   5
ATOM      5  C   UNL     1     -46.001 -28.977  -2.344  1.00  0.00     0.006 C 
BRANCH   5   6
ATOM      6  C   UNL     1     -46.033 -28.824  -3.870  1.00  0.00     0.053 C 
BRANCH   6   7
ATOM      7  C   UNL     1     -45.320 -27.585  -4.318  1.00  0.00     0.041 C 
ATOM      8  O   UNL     1     -44.897 -26.756  -3.471  1.00  0.00    -0.550 OA
ATOM      9  O   UNL     1     -45.092 -27.364  -5.670  1.00  0.00    -0.550 OA
ENDBRANCH   6   7
ENDBRANCH   5   6
ENDBRANCH   4   5
ENDBRANCH   3   4
ENDBRANCH   2   3
ENDBRANCH   1   2
BRANCH   1  10
ATOM     10  C   UNL     1     -45.090 -27.180   0.708  1.00  0.00     0.000 C 
BRANCH  10  11
ATOM     11  C   UNL     1     -45.291 -25.973   1.642  1.00  0.00    -0.000 C 
BRANCH  11  12
ATOM     12  C   UNL     1     -46.340 -26.236   2.735  1.00  0.00    -0.000 C 
BRANCH  12  13
ATOM     13  C   UNL     1     -46.491 -27.732   3.058  1.00  0.00    -0.000 C 
BRANCH  13  14
ATOM     14  C   UNL     1     -46.284 -28.047   4.552  1.00  0.00    -0.000 C 
BRANCH  14  15
ATOM     15  C   UNL     1     -46.068 -26.819   5.456  1.00  0.00    -0.000 C 
BRANCH  15  16
ATOM     16  C   UNL     1     -45.364 -27.163   6.776  1.00  0.00    -0.003 C 
ATOM     17  C   UNL     1     -45.067 -28.658   6.867  1.00  0.00     0.004 C 
ENDBRANCH  15  16
ENDBRANCH  14  15
ENDBRANCH  13  14
ENDBRANCH  12  13
ENDBRANCH  11  12
ENDBRANCH  10  11
ENDBRANCH   1  10
TORSDOF 13
ENDMDL
MODEL 2
REMARK VINA RESULT:    -3.959      0.756      1.688
REMARK INTER + INTRA:          -7.991
REMARK INTER:                  -6.590
REMARK INTRA:                  -1.401
REMARK UNBOUND:                -1.023
REMARK SMILES CCCCCCCCCCCCCCC(=O)[O-]
REMARK SMILES IDX 9 1 10 2 11 3 12 4 13 5 14 6 15 7 16 8 17 9 8 10 7 11 6 12
REMARK SMILES IDX 5 13 4 14 3 15 2 16 1 17
REMARK H PARENT
REMARK Flexibility Score: inf
ROOT
ATOM      1  C   UNL     1     -45.101 -27.000   0.414  1.00  0.00     0.000 C 
ENDROOT
BRANCH   1   2
ATOM      2  C   UNL     1     -43.637 -27.225  -0.006  1.00  0.00     0.000 C 
BRANCH   2   3
ATOM      3  C   UNL     1     -43.302 -28.722  -0.167  1.00  0.00     0.000 C 
BRANCH   3   4
ATOM      4  C   UNL     1     -44.544 -29.622  -0.272  1.00  0.00     0.000 C 
BRANCH   4   5
ATOM      5  C   UNL     1     -44.866 -30.028  -1.721  1.00  0.00     0.006 C 
BRANCH   5   6
ATOM      6  C   UNL     1     -46.032 -29.219  -2.303  1.00  0.00     0.053 C 
BRANCH   6   7
ATOM      7  C   UNL     1     -45.584 -28.322  -3.416  1.00  0.00     0.041 C 
ATOM      8  O   UNL     1     -45.672 -28.703  -4.612  1.00  0.00    -0.550 OA
ATOM      9  O   UNL     1     -45.101 -27.050  -3.134  1.00  0.00    -0.550 OA
ENDBRANCH   6   7
ENDBRANCH   5   6
ENDBRANCH   4   5
ENDBRANCH   3   4
ENDBRANCH   2   3
ENDBRANCH   1   2
BRANCH   1  10
ATOM     10  C   UNL     1     -45.232 -26.049   1.614  1.00  0.00     0.000 C 
BRANCH  10  11
ATOM     11  C   UNL     1     -46.229 -26.561   2.668  1.00  0.00    -0.000 C 
BRANCH  11  12
ATOM     12  C   UNL     1     -46.744 -27.977   2.362  1.00  0.00    -0.000 C 
BRANCH  12  13
ATOM     13  C   UNL     1     -46.268 -29.012   3.394  1.00  0.00    -0.000 C 
BRANCH  13  14
ATOM     14  C   UNL     1     -46.456 -28.540   4.848  1.00  0.00    -0.000 C 
BRANCH  14  15
ATOM     15  C   UNL     1     -45.327 -28.939   5.817  1.00  0.00    -0.000 C 
BRANCH  15  16
ATOM     16  C   UNL     1     -45.235 -28.017   7.041  1.00  0.00    -0.003 C 
ATOM     17  C   UNL     1     -45.572 -26.575   6.670  1.00  0.00     0.004 C 
ENDBRANCH  15  16
ENDBRANCH  14  15
ENDBRANCH  13  14
ENDBRANCH  12  13
ENDBRANCH  11  12
ENDBRANCH  10  11
ENDBRANCH   1  10
TORSDOF 13
ENDMDL
MODEL 3
REMARK VINA RESULT:    -3.558      1.055      1.444
REMARK INTER + INTRA:          -7.285
REMARK INTER:                  -6.321
REMARK INTRA:                  -0.964
REMARK UNBOUND:                -1.023
REMARK SMILES CCCCCCCCCCCCCCC(=O)[O-]
REMARK SMILES IDX 9 1 10 2 11 3 12 4 13 5 14 6 15 7 16 8 17 9 8 10 7 11 6 12
REMARK SMILES IDX 5 13 4 14 3 15 2 16 1 17
REMARK H PARENT
REMARK Flexibility Score: inf
ROOT
ATOM      1  C   UNL     1     -43.844 -27.811  -0.655  1.00  0.00     0.000 C 
ENDROOT
BRANCH   1   2
ATOM      2  C   UNL     1     -44.413 -29.215  -0.379  1.00  0.00     0.000 C 
BRANCH   2   3
ATOM      3  C   UNL     1     -45.269 -29.735  -1.553  1.00  0.00     0.000 C 
BRANCH   3   4
ATOM      4  C   UNL     1     -45.974 -28.619  -2.341  1.00  0.00     0.000 C 
BRANCH   4   5
ATOM      5  C   UNL     1     -45.820 -28.775  -3.864  1.00  0.00     0.006 C 
BRANCH   5   6
ATOM      6  C   UNL     1     -45.398 -27.465  -4.541  1.00  0.00     0.053 C 
BRANCH   6   7
ATOM      7  C   UNL     1     -45.539 -27.539  -6.030  1.00  0.00     0.041 C 
ATOM      8  O   UNL     1     -46.594 -27.995  -6.545  1.00  0.00    -0.550 OA
ATOM      9  O   UNL     1     -44.520 -27.072  -6.851  1.00  0.00    -0.550 OA
ENDBRANCH   6   7
ENDBRANCH   5   6
ENDBRANCH   4   5
ENDBRANCH   3   4
ENDBRANCH   2   3
ENDBRANCH   1   2
BRANCH   1  10
ATOM     10  C   UNL     1     -44.208 -26.800   0.444  1.00  0.00     0.000 C 
BRANCH  10  11
ATOM     11  C   UNL     1     -45.710 -26.806   0.777  1.00  0.00    -0.000 C 
BRANCH  11  12
ATOM     12  C   UNL     1     -45.984 -26.697   2.286  1.00  0.00    -0.000 C 
BRANCH  12  13
ATOM     13  C   UNL     1     -46.321 -28.055   2.923  1.00  0.00    -0.000 C 
BRANCH  13  14
ATOM     14  C   UNL     1     -46.573 -27.961   4.440  1.00  0.00    -0.000 C 
BRANCH  14  15
ATOM     15  C   UNL     1     -46.061 -26.672   5.109  1.00  0.00    -0.000 C 
BRANCH  15  16
ATOM     16  C   UNL     1     -45.671 -26.875   6.580  1.00  0.00    -0.003 C 
ATOM     17  C   UNL     1     -45.183 -28.300   6.828  1.00  0.00     0.004 C 
ENDBRANCH  15  16
ENDBRANCH  14  15
ENDBRANCH  13  14
ENDBRANCH  12  13
ENDBRANCH  11  12
ENDBRANCH  10  11
ENDBRANCH   1  10
TORSDOF 13
ENDMDL
MODEL 4
REMARK VINA RESULT:    -3.530      4.123      8.341
REMARK INTER + INTRA:          -7.236
REMARK INTER:                  -6.311
REMARK INTRA:                  -0.925
REMARK UNBOUND:                -1.023
REMARK SMILES CCCCCCCCCCCCCCC(=O)[O-]
REMARK SMILES IDX 9 1 10 2 11 3 12 4 13 5 14 6 15 7 16 8 17 9 8 10 7 11 6 12
REMARK SMILES IDX 5 13 4 14 3 15 2 16 1 17
REMARK H PARENT
REMARK Flexibility Score: inf
ROOT
ATOM      1  C   UNL     1     -44.479 -26.493   0.773  1.00  0.00     0.000 C 
ENDROOT
BRANCH   1   2
ATOM      2  C   UNL     1     -45.959 -26.831   1.030  1.00  0.00     0.000 C 
BRANCH   2   3
ATOM      3  C   UNL     1     -46.302 -26.830   2.534  1.00  0.00     0.000 C 
BRANCH   3   4
ATOM      4  C   UNL     1     -46.252 -28.226   3.177  1.00  0.00     0.000 C 
BRANCH   4   5
ATOM      5  C   UNL     1     -46.266 -28.176   4.715  1.00  0.00     0.006 C 
BRANCH   5   6
ATOM      6  C   UNL     1     -46.080 -26.750   5.250  1.00  0.00     0.053 C 
BRANCH   6   7
ATOM      7  C   UNL     1     -45.637 -26.748   6.680  1.00  0.00     0.041 C 
ATOM      8  O   UNL     1     -44.907 -27.674   7.119  1.00  0.00    -0.550 OA
ATOM      9  O   UNL     1     -46.001 -25.703   7.521  1.00  0.00    -0.550 OA
ENDBRANCH   6   7
ENDBRANCH   5   6
ENDBRANCH   4   5
ENDBRANCH   3   4
ENDBRANCH   2   3
ENDBRANCH   1   2
BRANCH   1  10
ATOM     10  C   UNL     1     -43.828 -27.434  -0.252  1.00  0.00     0.000 C 
BRANCH  10  11
ATOM     11  C   UNL     1     -44.421 -28.854  -0.211  1.00  0.00    -0.000 C 
BRANCH  11  12
ATOM     12  C   UNL     1     -44.916 -29.331  -1.586  1.00  0.00    -0.000 C 
BRANCH  12  13
ATOM     13  C   UNL     1     -45.602 -28.212  -2.386  1.00  0.00    -0.000 C 
BRANCH  13  14
ATOM     14  C   UNL     1     -46.687 -28.738  -3.345  1.00  0.00    -0.000 C 
BRANCH  14  15
ATOM     15  C   UNL     1     -46.410 -28.499  -4.841  1.00  0.00    -0.000 C 
BRANCH  15  16
ATOM     16  C   UNL     1     -45.358 -27.408  -5.088  1.00  0.00    -0.003 C 
ATOM     17  C   UNL     1     -44.727 -27.556  -6.470  1.00  0.00     0.004 C 
ENDBRANCH  15  16
ENDBRANCH  14  15
ENDBRANCH  13  14
ENDBRANCH  12  13
ENDBRANCH  11  12
ENDBRANCH  10  11
ENDBRANCH   1  10
TORSDOF 13
ENDMDL
MODEL 5
REMARK VINA RESULT:    -3.517      3.640      5.849
REMARK INTER + INTRA:          -7.213
REMARK INTER:                  -6.137
REMARK INTRA:                  -1.076
REMARK UNBOUND:                -1.023
REMARK SMILES CCCCCCCCCCCCCCC(=O)[O-]
REMARK SMILES IDX 9 1 10 2 11 3 12 4 13 5 14 6 15 7 16 8 17 9 8 10 7 11 6 12
REMARK SMILES IDX 5 13 4 14 3 15 2 16 1 17
REMARK H PARENT
REMARK Flexibility Score: inf
ROOT
ATOM      1  C   UNL     1     -45.620 -28.700  -4.646  1.00  0.00     0.000 C 
ENDROOT
BRANCH   1   2
ATOM      2  C   UNL     1     -45.918 -27.476  -5.532  1.00  0.00     0.000 C 
BRANCH   2   3
ATOM      3  C   UNL     1     -46.673 -27.862  -6.821  1.00  0.00     0.000 C 
BRANCH   3   4
ATOM      4  C   UNL     1     -45.938 -27.456  -8.109  1.00  0.00     0.000 C 
BRANCH   4   5
ATOM      5  C   UNL     1     -45.219 -28.636  -8.784  1.00  0.00     0.006 C 
BRANCH   5   6
ATOM      6  C   UNL     1     -43.742 -28.330  -9.064  1.00  0.00     0.053 C 
BRANCH   6   7
ATOM      7  C   UNL     1     -42.838 -29.014  -8.085  1.00  0.00     0.041 C 
ATOM      8  O   UNL     1     -41.594 -28.828  -8.135  1.00  0.00    -0.550 OA
ATOM      9  O   UNL     1     -43.372 -29.829  -7.095  1.00  0.00    -0.550 OA
ENDBRANCH   6   7
ENDBRANCH   5   6
ENDBRANCH   4   5
ENDBRANCH   3   4
ENDBRANCH   2   3
ENDBRANCH   1   2
BRANCH   1  10
ATOM     10  C   UNL     1     -45.898 -28.433  -3.159  1.00  0.00     0.000 C 
BRANCH  10  11
ATOM     11  C   UNL     1     -45.591 -29.653  -2.272  1.00  0.00    -0.000 C 
BRANCH  11  12
ATOM     12  C   UNL     1     -45.632 -29.323  -0.771  1.00  0.00    -0.000 C 
BRANCH  12  13
ATOM     13  C   UNL     1     -45.442 -27.823  -0.493  1.00  0.00    -0.000 C 
BRANCH  13  14
ATOM     14  C   UNL     1     -44.100 -27.504   0.192  1.00  0.00    -0.000 C 
BRANCH  14  15
ATOM     15  C   UNL     1     -42.902 -27.335  -0.761  1.00  0.00    -0.000 C 
BRANCH  15  16
ATOM     16  C   UNL     1     -41.649 -28.084  -0.287  1.00  0.00    -0.003 C 
ATOM     17  C   UNL     1     -41.919 -29.581  -0.158  1.00  0.00     0.004 C 
ENDBRANCH  15  16
ENDBRANCH  14  15
ENDBRANCH  13  14
ENDBRANCH  12  13
ENDBRANCH  11  12
ENDBRANCH  10  11
ENDBRANCH   1  10
TORSDOF 13
ENDMDL
MODEL 6
REMARK VINA RESULT:    -3.485      3.597      5.361
REMARK INTER + INTRA:          -7.157
REMARK INTER:                  -5.993
REMARK INTRA:                  -1.164
REMARK UNBOUND:                -1.023
REMARK SMILES CCCCCCCCCCCCCCC(=O)[O-]
REMARK SMILES IDX 9 1 10 2 11 3 12 4 13 5 14 6 15 7 16 8 17 9 8 10 7 11 6 12
REMARK SMILES IDX 5 13 4 14 3 15 2 16 1 17
REMARK H PARENT
REMARK Flexibility Score: inf
ROOT
ATOM      1  C   UNL     1     -45.643 -28.439  -3.456  1.00  0.00     0.000 C 
ENDROOT
BRANCH   1   2
ATOM      2  C   UNL     1     -45.431 -27.376  -4.549  1.00  0.00     0.000 C 
BRANCH   2   3
ATOM      3  C   UNL     1     -46.498 -27.464  -5.660  1.00  0.00     0.000 C 
BRANCH   3   4
ATOM      4  C   UNL     1     -45.919 -27.353  -7.080  1.00  0.00     0.000 C 
BRANCH   4   5
ATOM      5  C   UNL     1     -45.611 -28.722  -7.709  1.00  0.00     0.006 C 
BRANCH   5   6
ATOM      6  C   UNL     1     -44.220 -29.239  -7.320  1.00  0.00     0.053 C 
BRANCH   6   7
ATOM      7  C   UNL     1     -43.150 -28.663  -8.196  1.00  0.00     0.041 C 
ATOM      8  O   UNL     1     -43.400 -28.375  -9.396  1.00  0.00    -0.550 OA
ATOM      9  O   UNL     1     -41.886 -28.411  -7.677  1.00  0.00    -0.550 OA
ENDBRANCH   6   7
ENDBRANCH   5   6
ENDBRANCH   4   5
ENDBRANCH   3   4
ENDBRANCH   2   3
ENDBRANCH   1   2
BRANCH   1  10
ATOM     10  C   UNL     1     -47.074 -28.431  -2.896  1.00  0.00     0.000 C 
BRANCH  10  11
ATOM     11  C   UNL     1     -47.115 -28.149  -1.383  1.00  0.00    -0.000 C 
BRANCH  11  12
ATOM     12  C   UNL     1     -46.606 -29.332  -0.544  1.00  0.00    -0.000 C 
BRANCH  12  13
ATOM     13  C   UNL     1     -45.343 -28.983   0.260  1.00  0.00    -0.000 C 
BRANCH  13  14
ATOM     14  C   UNL     1     -44.932 -27.505   0.121  1.00  0.00    -0.000 C 
BRANCH  14  15
ATOM     15  C   UNL     1     -43.525 -27.268  -0.458  1.00  0.00    -0.000 C 
BRANCH  15  16
ATOM     16  C   UNL     1     -42.630 -28.513  -0.386  1.00  0.00    -0.003 C 
ATOM     17  C   UNL     1     -41.161 -28.126  -0.235  1.00  0.00     0.004 C 
ENDBRANCH  15  16
ENDBRANCH  14  15
ENDBRANCH  13  14
ENDBRANCH  12  13
ENDBRANCH  11  12
ENDBRANCH  10  11
ENDBRANCH   1  10
TORSDOF 13
ENDMDL
MODEL 7
REMARK VINA RESULT:    -3.426      2.029      3.219
REMARK INTER + INTRA:          -7.051
REMARK INTER:                  -6.445
REMARK INTRA:                  -0.606
REMARK UNBOUND:                -1.023
REMARK SMILES CCCCCCCCCCCCCCC(=O)[O-]
REMARK SMILES IDX 9 1 10 2 11 3 12 4 13 5 14 6 15 7 16 8 17 9 8 10 7 11 6 12
REMARK SMILES IDX 5 13 4 14 3 15 2 16 1 17
REMARK H PARENT
REMARK Flexibility Score: inf
ROOT
ATOM      1  C   UNL     1     -44.341 -27.157  -2.483  1.00  0.00     0.000 C 
ENDROOT
BRANCH   1   2
ATOM      2  C   UNL     1     -45.377 -28.296  -2.446  1.00  0.00     0.000 C 
BRANCH   2   3
ATOM      3  C   UNL     1     -46.136 -28.434  -3.782  1.00  0.00     0.000 C 
BRANCH   3   4
ATOM      4  C   UNL     1     -45.583 -27.534  -4.899  1.00  0.00     0.000 C 
BRANCH   4   5
ATOM      5  C   UNL     1     -45.103 -28.330  -6.125  1.00  0.00     0.006 C 
BRANCH   5   6
ATOM      6  C   UNL     1     -44.199 -27.494  -7.041  1.00  0.00     0.053 C 
BRANCH   6   7
ATOM      7  C   UNL     1     -43.284 -28.357  -7.854  1.00  0.00     0.041 C 
ATOM      8  O   UNL     1     -43.728 -28.996  -8.843  1.00  0.00    -0.550 OA
ATOM      9  O   UNL     1     -41.932 -28.427  -7.542  1.00  0.00    -0.550 OA
ENDBRANCH   6   7
ENDBRANCH   5   6
ENDBRANCH   4   5
ENDBRANCH   3   4
ENDBRANCH   2   3
ENDBRANCH   1   2
BRANCH   1  10
ATOM     10  C   UNL     1     -43.466 -27.114  -1.221  1.00  0.00     0.000 C 
BRANCH  10  11
ATOM     11  C   UNL     1     -44.162 -27.736   0.003  1.00  0.00    -0.000 C 
BRANCH  11  12
ATOM     12  C   UNL     1     -44.810 -26.683   0.917  1.00  0.00    -0.000 C 
BRANCH  12  13
ATOM     13  C   UNL     1     -46.047 -27.223   1.653  1.00  0.00    -0.000 C 
BRANCH  13  14
ATOM     14  C   UNL     1     -46.305 -26.512   2.995  1.00  0.00    -0.000 C 
BRANCH  14  15
ATOM     15  C   UNL     1     -46.249 -27.419   4.238  1.00  0.00    -0.000 C 
BRANCH  15  16
ATOM     16  C   UNL     1     -46.124 -26.631   5.550  1.00  0.00    -0.003 C 
ATOM     17  C   UNL     1     -45.435 -27.463   6.628  1.00  0.00     0.004 C 
ENDBRANCH  15  16
ENDBRANCH  14  15
ENDBRANCH  13  14
ENDBRANCH  12  13
ENDBRANCH  11  12
ENDBRANCH  10  11
ENDBRANCH   1  10
TORSDOF 13
ENDMDL
MODEL 8
REMARK VINA RESULT:    -3.389      3.689      8.802
REMARK INTER + INTRA:          -6.986
REMARK INTER:                  -6.351
REMARK INTRA:                  -0.635
REMARK UNBOUND:                -1.023
REMARK SMILES CCCCCCCCCCCCCCC(=O)[O-]
REMARK SMILES IDX 9 1 10 2 11 3 12 4 13 5 14 6 15 7 16 8 17 9 8 10 7 11 6 12
REMARK SMILES IDX 5 13 4 14 3 15 2 16 1 17
REMARK H PARENT
REMARK Flexibility Score: inf
ROOT
ATOM      1  C   UNL     1     -43.954 -28.006  -1.120  1.00  0.00     0.000 C 
ENDROOT
BRANCH   1   2
ATOM      2  C   UNL     1     -44.020 -27.225   0.205  1.00  0.00     0.000 C 
BRANCH   2   3
ATOM      3  C   UNL     1     -45.453 -27.166   0.774  1.00  0.00     0.000 C 
BRANCH   3   4
ATOM      4  C   UNL     1     -45.653 -26.061   1.825  1.00  0.00     0.000 C 
BRANCH   4   5
ATOM      5  C   UNL     1     -46.758 -26.396   2.841  1.00  0.00     0.006 C 
BRANCH   5   6
ATOM      6  C   UNL     1     -46.453 -27.677   3.628  1.00  0.00     0.053 C 
BRANCH   6   7
ATOM      7  C   UNL     1     -46.041 -27.377   5.037  1.00  0.00     0.041 C 
ATOM      8  O   UNL     1     -46.291 -26.253   5.544  1.00  0.00    -0.550 OA
ATOM      9  O   UNL     1     -45.413 -28.352   5.802  1.00  0.00    -0.550 OA
ENDBRANCH   6   7
ENDBRANCH   5   6
ENDBRANCH   4   5
ENDBRANCH   3   4
ENDBRANCH   2   3
ENDBRANCH   1   2
BRANCH   1  10
ATOM     10  C   UNL     1     -45.265 -27.930  -1.916  1.00  0.00     0.000 C 
BRANCH  10  11
ATOM     11  C   UNL     1     -45.515 -29.187  -2.768  1.00  0.00    -0.000 C 
BRANCH  11  12
ATOM     12  C   UNL     1     -46.034 -28.857  -4.176  1.00  0.00    -0.000 C 
BRANCH  12  13
ATOM     13  C   UNL     1     -45.532 -27.496  -4.686  1.00  0.00    -0.000 C 
BRANCH  13  14
ATOM     14  C   UNL     1     -45.323 -27.466  -6.211  1.00  0.00    -0.000 C 
BRANCH  14  15
ATOM     15  C   UNL     1     -44.331 -28.511  -6.756  1.00  0.00    -0.000 C 
BRANCH  15  16
ATOM     16  C   UNL     1     -43.281 -27.905  -7.699  1.00  0.00    -0.003 C 
ATOM     17  C   UNL     1     -42.452 -28.996  -8.372  1.00  0.00     0.004 C 
ENDBRANCH  15  16
ENDBRANCH  14  15
ENDBRANCH  13  14
ENDBRANCH  12  13
ENDBRANCH  11  12
ENDBRANCH  10  11
ENDBRANCH   1  10
TORSDOF 13
ENDMDL
MODEL 9
REMARK VINA RESULT:    -3.326      3.768      9.477
REMARK INTER + INTRA:          -6.877
REMARK INTER:                  -5.414
REMARK INTRA:                  -1.463
REMARK UNBOUND:                -1.023
REMARK SMILES CCCCCCCCCCCCCCC(=O)[O-]
REMARK SMILES IDX 9 1 10 2 11 3 12 4 13 5 14 6 15 7 16 8 17 9 8 10 7 11 6 12
REMARK SMILES IDX 5 13 4 14 3 15 2 16 1 17
REMARK H PARENT
REMARK Flexibility Score: inf
ROOT
ATOM      1  C   UNL     1     -45.374 -27.798  -5.743  1.00  0.00     0.000 C 
ENDROOT
BRANCH   1   2
ATOM      2  C   UNL     1     -45.891 -29.244  -5.626  1.00  0.00     0.000 C 
BRANCH   2   3
ATOM      3  C   UNL     1     -45.694 -29.818  -4.207  1.00  0.00     0.000 C 
BRANCH   3   4
ATOM      4  C   UNL     1     -45.672 -28.744  -3.107  1.00  0.00     0.000 C 
BRANCH   4   5
ATOM      5  C   UNL     1     -45.590 -29.341  -1.692  1.00  0.00     0.006 C 
BRANCH   5   6
ATOM      6  C   UNL     1     -44.528 -28.644  -0.831  1.00  0.00     0.053 C 
BRANCH   6   7
ATOM      7  C   UNL     1     -45.053 -27.383  -0.215  1.00  0.00     0.041 C 
ATOM      8  O   UNL     1     -44.274 -26.601   0.390  1.00  0.00    -0.550 OA
ATOM      9  O   UNL     1     -46.397 -27.054  -0.341  1.00  0.00    -0.550 OA
ENDBRANCH   6   7
ENDBRANCH   5   6
ENDBRANCH   4   5
ENDBRANCH   3   4
ENDBRANCH   2   3
ENDBRANCH   1   2
BRANCH   1  10
ATOM     10  C   UNL     1     -45.749 -27.144  -7.082  1.00  0.00     0.000 C 
BRANCH  10  11
ATOM     11  C   UNL     1     -46.842 -27.923  -7.834  1.00  0.00    -0.000 C 
BRANCH  11  12
ATOM     12  C   UNL     1     -46.391 -28.382  -9.230  1.00  0.00    -0.000 C 
BRANCH  12  13
ATOM     13  C   UNL     1     -45.130 -27.647  -9.713  1.00  0.00    -0.000 C 
BRANCH  13  14
ATOM     14  C   UNL     1     -43.935 -28.592  -9.941  1.00  0.00    -0.000 C 
BRANCH  14  15
ATOM     15  C   UNL     1     -43.959 -29.889  -9.110  1.00  0.00    -0.000 C 
BRANCH  15  16
ATOM     16  C   UNL     1     -43.038 -29.830  -7.882  1.00  0.00    -0.003 C 
ATOM     17  C   UNL     1     -42.303 -28.494  -7.809  1.00  0.00     0.004 C 
ENDBRANCH  15  16
ENDBRANCH  14  15
ENDBRANCH  13  14
ENDBRANCH  12  13
ENDBRANCH  11  12
ENDBRANCH  10  11
ENDBRANCH   1  10
TORSDOF 13
ENDMDL
