MODEL 1
REMARK VINA RESULT:    -3.213      0.000      0.000
REMARK INTER + INTRA:          -3.307
REMARK INTER:                  -3.307
REMARK INTRA:                   0.000
REMARK UNBOUND:                 0.000
REMARK SMILES Nc1ncnc2nc[nH]c12
REMARK SMILES IDX 8 1 7 2 6 3 5 4 4 5 3 6 2 7 10 8 9 9 1 11
REMARK H PARENT 9 10 1 12 1 13
REMARK Flexibility Score: inf
ROOT
ATOM      1  C   UNL     1     105.272 105.071  93.209  1.00  0.00     0.199 A 
ATOM      2  N   UNL     1     104.955 103.905  92.582  1.00  0.00    -0.217 NA
ATOM      3  C   UNL     1     103.705 103.677  93.020  1.00  0.00     0.182 A 
ATOM      4  N   UNL     1     102.915 102.626  92.694  1.00  0.00    -0.215 NA
ATOM      5  C   UNL     1     101.664 102.565  93.244  1.00  0.00     0.226 A 
ATOM      6  N   UNL     1     101.232 103.544  94.101  1.00  0.00    -0.217 NA
ATOM      7  C   UNL     1     102.028 104.605  94.431  1.00  0.00     0.152 A 
ATOM      8  C   UNL     1     103.298 104.653  93.863  1.00  0.00     0.127 A 
ATOM      9  N   UNL     1     104.278 105.554  93.998  1.00  0.00    -0.340 N 
ATOM     10  H   UNL     1     104.291 106.425  94.574  1.00  0.00     0.168 HD
ENDROOT
BRANCH   7  11
ATOM     11  N   UNL     1     101.556 105.614  95.325  1.00  0.00    -0.382 N 
ATOM     12  H   UNL     1     100.618 106.052  95.204  1.00  0.00     0.158 HD
ATOM     13  H   UNL     1     102.155 105.926  96.121  1.00  0.00     0.158 HD
ENDBRANCH   7  11
TORSDOF 1
ENDMDL
MODEL 2
REMARK VINA RESULT:    -3.064      5.498      6.677
REMARK INTER + INTRA:          -3.154
REMARK INTER:                  -3.154
REMARK INTRA:                   0.000
REMARK UNBOUND:                 0.000
REMARK SMILES Nc1ncnc2nc[nH]c12
REMARK SMILES IDX 8 1 7 2 6 3 5 4 4 5 3 6 2 7 10 8 9 9 1 11
REMARK H PARENT 9 10 1 12 1 13
REMARK Flexibility Score: inf
ROOT
ATOM      1  C   UNL     1     104.731  99.465  93.521  1.00  0.00     0.199 A 
ATOM      2  N   UNL     1     105.226  98.354  92.909  1.00  0.00    -0.217 NA
ATOM      3  C   UNL     1     104.175  97.517  92.946  1.00  0.00     0.182 A 
ATOM      4  N   UNL     1     104.132  96.254  92.461  1.00  0.00    -0.215 NA
ATOM      5  C   UNL     1     102.966  95.552  92.591  1.00  0.00     0.226 A 
ATOM      6  N   UNL     1     101.875  96.120  93.199  1.00  0.00    -0.217 NA
ATOM      7  C   UNL     1     101.917  97.395  93.688  1.00  0.00     0.152 A 
ATOM      8  C   UNL     1     103.111  98.096  93.548  1.00  0.00     0.127 A 
ATOM      9  N   UNL     1     103.441  99.338  93.923  1.00  0.00    -0.340 N 
ATOM     10  H   UNL     1     102.854 100.051  94.411  1.00  0.00     0.168 HD
ENDROOT
BRANCH   7  11
ATOM     11  N   UNL     1     100.769  97.967  94.317  1.00  0.00    -0.382 N 
ATOM     12  H   UNL     1     100.180  97.416  94.978  1.00  0.00     0.158 HD
ATOM     13  H   UNL     1     100.504  98.957  94.118  1.00  0.00     0.158 HD
ENDBRANCH   7  11
TORSDOF 1
ENDMDL
MODEL 3
REMARK VINA RESULT:    -3.030      6.445      7.581
REMARK INTER + INTRA:          -3.118
REMARK INTER:                  -3.118
REMARK INTRA:                   0.000
REMARK UNBOUND:                 0.000
REMARK SMILES Nc1ncnc2nc[nH]c12
REMARK SMILES IDX 8 1 7 2 6 3 5 4 4 5 3 6 2 7 10 8 9 9 1 11
REMARK H PARENT 9 10 1 12 1 13
REMARK Flexibility Score: inf
ROOT
ATOM      1  C   UNL     1     106.630 113.242  92.804  1.00  0.00     0.199 A 
ATOM      2  N   UNL     1     106.895 112.133  92.061  1.00  0.00    -0.217 NA
ATOM      3  C   UNL     1     105.885 111.314  92.399  1.00  0.00     0.182 A 
ATOM      4  N   UNL     1     105.674 110.059  91.936  1.00  0.00    -0.215 NA
ATOM      5  C   UNL     1     104.584 109.375  92.400  1.00  0.00     0.226 A 
ATOM      6  N   UNL     1     103.736 109.952  93.311  1.00  0.00    -0.217 NA
ATOM      7  C   UNL     1     103.949 111.218  93.779  1.00  0.00     0.152 A 
ATOM      8  C   UNL     1     105.061 111.901  93.297  1.00  0.00     0.127 A 
ATOM      9  N   UNL     1     105.514 113.131  93.570  1.00  0.00    -0.340 N 
ATOM     10  H   UNL     1     105.115 113.845  94.219  1.00  0.00     0.168 HD
ENDROOT
BRANCH   7  11
ATOM     11  N   UNL     1     103.052 111.799  94.727  1.00  0.00    -0.382 N 
ATOM     12  H   UNL     1     102.741 112.791  94.644  1.00  0.00     0.158 HD
ATOM     13  H   UNL     1     102.694 111.228  95.525  1.00  0.00     0.158 HD
ENDBRANCH   7  11
TORSDOF 1
ENDMDL
MODEL 4
REMARK VINA RESULT:    -3.014      1.772      3.766
REMARK INTER + INTRA:          -3.102
REMARK INTER:                  -3.102
REMARK INTRA:                   0.000
REMARK UNBOUND:                 0.000
REMARK SMILES Nc1ncnc2nc[nH]c12
REMARK SMILES IDX 8 1 7 2 6 3 5 4 4 5 3 6 2 7 10 8 9 9 1 11
REMARK H PARENT 9 10 1 12 1 13
REMARK Flexibility Score: inf
ROOT
ATOM      1  C   UNL     1     102.112 103.888  94.126  1.00  0.00     0.199 A 
ATOM      2  N   UNL     1     101.624 104.878  93.330  1.00  0.00    -0.217 NA
ATOM      3  C   UNL     1     102.732 105.580  93.036  1.00  0.00     0.182 A 
ATOM      4  N   UNL     1     102.803 106.688  92.262  1.00  0.00    -0.215 NA
ATOM      5  C   UNL     1     104.028 107.267  92.076  1.00  0.00     0.226 A 
ATOM      6  N   UNL     1     105.147 106.734  92.664  1.00  0.00    -0.217 NA
ATOM      7  C   UNL     1     105.075 105.616  93.447  1.00  0.00     0.152 A 
ATOM      8  C   UNL     1     103.822 105.038  93.625  1.00  0.00     0.127 A 
ATOM      9  N   UNL     1     103.453 103.958  94.324  1.00  0.00    -0.340 N 
ATOM     10  H   UNL     1     104.046 103.314  94.893  1.00  0.00     0.168 HD
ENDROOT
BRANCH   7  11
ATOM     11  N   UNL     1     106.254 105.077  94.048  1.00  0.00    -0.382 N 
ATOM     12  H   UNL     1     106.273 104.109  94.437  1.00  0.00     0.158 HD
ATOM     13  H   UNL     1     107.121 105.656  94.106  1.00  0.00     0.158 HD
ENDBRANCH   7  11
TORSDOF 1
ENDMDL
MODEL 5
REMARK VINA RESULT:    -3.004      6.414      8.026
REMARK INTER + INTRA:          -3.092
REMARK INTER:                  -3.092
REMARK INTRA:                   0.000
REMARK UNBOUND:                 0.000
REMARK SMILES Nc1ncnc2nc[nH]c12
REMARK SMILES IDX 8 1 7 2 6 3 5 4 4 5 3 6 2 7 10 8 9 9 1 11
REMARK H PARENT 9 10 1 12 1 13
REMARK Flexibility Score: inf
ROOT
ATOM      1  C   UNL     1     102.912 110.785  94.078  1.00  0.00     0.199 A 
ATOM      2  N   UNL     1     103.382 109.912  93.145  1.00  0.00    -0.217 NA
ATOM      3  C   UNL     1     104.516 110.510  92.741  1.00  0.00     0.182 A 
ATOM      4  N   UNL     1     105.381 110.051  91.806  1.00  0.00    -0.215 NA
ATOM      5  C   UNL     1     106.489 110.804  91.528  1.00  0.00     0.226 A 
ATOM      6  N   UNL     1     106.707 111.990  92.182  1.00  0.00    -0.217 NA
ATOM      7  C   UNL     1     105.834 112.454  93.125  1.00  0.00     0.152 A 
ATOM      8  C   UNL     1     104.712 111.676  93.397  1.00  0.00     0.127 A 
ATOM      9  N   UNL     1     103.704 111.873  94.256  1.00  0.00    -0.340 N 
ATOM     10  H   UNL     1     103.550 112.671  94.910  1.00  0.00     0.168 HD
ENDROOT
BRANCH   7  11
ATOM     11  N   UNL     1     106.082 113.692  93.793  1.00  0.00    -0.382 N 
ATOM     12  H   UNL     1     106.505 114.504  93.295  1.00  0.00     0.158 HD
ATOM     13  H   UNL     1     105.837 113.797  94.803  1.00  0.00     0.158 HD
ENDBRANCH   7  11
TORSDOF 1
ENDMDL
MODEL 6
REMARK VINA RESULT:    -2.997      5.184      7.093
REMARK INTER + INTRA:          -3.085
REMARK INTER:                  -3.085
REMARK INTRA:                   0.000
REMARK UNBOUND:                 0.000
REMARK SMILES Nc1ncnc2nc[nH]c12
REMARK SMILES IDX 8 1 7 2 6 3 5 4 4 5 3 6 2 7 10 8 9 9 1 11
REMARK H PARENT 9 10 1 12 1 13
REMARK Flexibility Score: inf
ROOT
ATOM      1  C   UNL     1      99.838  98.990  93.909  1.00  0.00     0.199 A 
ATOM      2  N   UNL     1     100.848  99.875  93.680  1.00  0.00    -0.217 NA
ATOM      3  C   UNL     1     101.927  99.074  93.651  1.00  0.00     0.182 A 
ATOM      4  N   UNL     1     103.210  99.457  93.453  1.00  0.00    -0.215 NA
ATOM      5  C   UNL     1     104.179  98.492  93.457  1.00  0.00     0.226 A 
ATOM      6  N   UNL     1     103.850  97.176  93.659  1.00  0.00    -0.217 NA
ATOM      7  C   UNL     1     102.555  96.789  93.860  1.00  0.00     0.152 A 
ATOM      8  C   UNL     1     101.581  97.782  93.852  1.00  0.00     0.127 A 
ATOM      9  N   UNL     1     100.255  97.703  94.018  1.00  0.00    -0.340 N 
ATOM     10  H   UNL     1      99.668  96.858  94.192  1.00  0.00     0.168 HD
ENDROOT
BRANCH   7  11
ATOM     11  N   UNL     1     102.236  95.412  94.067  1.00  0.00    -0.382 N 
ATOM     12  H   UNL     1     102.473  94.686  93.357  1.00  0.00     0.158 HD
ATOM     13  H   UNL     1     101.754  95.115  94.945  1.00  0.00     0.158 HD
ENDBRANCH   7  11
TORSDOF 1
ENDMDL
MODEL 7
REMARK VINA RESULT:    -2.991      8.317      8.761
REMARK INTER + INTRA:          -3.079
REMARK INTER:                  -3.079
REMARK INTRA:                   0.000
REMARK UNBOUND:                 0.000
REMARK SMILES Nc1ncnc2nc[nH]c12
REMARK SMILES IDX 8 1 7 2 6 3 5 4 4 5 3 6 2 7 10 8 9 9 1 11
REMARK H PARENT 9 10 1 12 1 13
REMARK Flexibility Score: inf
ROOT
ATOM      1  C   UNL     1     106.030 102.424  99.962  1.00  0.00     0.199 A 
ATOM      2  N   UNL     1     105.361 101.416 100.586  1.00  0.00    -0.217 NA
ATOM      3  C   UNL     1     106.121 100.347 100.295  1.00  0.00     0.182 A 
ATOM      4  N   UNL     1     105.897  99.069 100.681  1.00  0.00    -0.215 NA
ATOM      5  C   UNL     1     106.788  98.109 100.285  1.00  0.00     0.226 A 
ATOM      6  N   UNL     1     107.875  98.443  99.518  1.00  0.00    -0.217 NA
ATOM      7  C   UNL     1     108.102  99.733  99.128  1.00  0.00     0.152 A 
ATOM      8  C   UNL     1     107.187 100.697  99.539  1.00  0.00     0.127 A 
ATOM      9  N   UNL     1     107.152 102.016  99.314  1.00  0.00    -0.340 N 
ATOM     10  H   UNL     1     107.820 102.604  98.770  1.00  0.00     0.168 HD
ENDROOT
BRANCH   7  11
ATOM     11  N   UNL     1     109.241 100.057  98.330  1.00  0.00    -0.382 N 
ATOM     12  H   UNL     1     109.210 100.825  97.624  1.00  0.00     0.158 HD
ATOM     13  H   UNL     1     110.129  99.521  98.446  1.00  0.00     0.158 HD
ENDBRANCH   7  11
TORSDOF 1
ENDMDL
MODEL 8
REMARK VINA RESULT:    -2.960      8.821      9.072
REMARK INTER + INTRA:          -3.046
REMARK INTER:                  -3.046
REMARK INTRA:                   0.000
REMARK UNBOUND:                 0.000
REMARK SMILES Nc1ncnc2nc[nH]c12
REMARK SMILES IDX 8 1 7 2 6 3 5 4 4 5 3 6 2 7 10 8 9 9 1 11
REMARK H PARENT 9 10 1 12 1 13
REMARK Flexibility Score: inf
ROOT
ATOM      1  C   UNL     1     110.831 106.126  99.068  1.00  0.00     0.199 A 
ATOM      2  N   UNL     1     110.004 105.381  99.851  1.00  0.00    -0.217 NA
ATOM      3  C   UNL     1     108.977 106.222 100.062  1.00  0.00     0.182 A 
ATOM      4  N   UNL     1     107.865 105.971 100.792  1.00  0.00    -0.215 NA
ATOM      5  C   UNL     1     106.923 106.957 100.893  1.00  0.00     0.226 A 
ATOM      6  N   UNL     1     107.109 108.164 100.269  1.00  0.00    -0.217 NA
ATOM      7  C   UNL     1     108.231 108.419  99.532  1.00  0.00     0.152 A 
ATOM      8  C   UNL     1     109.180 107.405  99.439  1.00  0.00     0.127 A 
ATOM      9  N   UNL     1     110.355 107.368  98.798  1.00  0.00    -0.340 N 
ATOM     10  H   UNL     1     110.810 108.112  98.224  1.00  0.00     0.168 HD
ENDROOT
BRANCH   7  11
ATOM     11  N   UNL     1     108.404 109.683  98.890  1.00  0.00    -0.382 N 
ATOM     12  H   UNL     1     109.201 109.859  98.241  1.00  0.00     0.158 HD
ATOM     13  H   UNL     1     107.724 110.456  99.068  1.00  0.00     0.158 HD
ENDBRANCH   7  11
TORSDOF 1
ENDMDL
MODEL 9
REMARK VINA RESULT:    -2.954      2.805      4.756
REMARK INTER + INTRA:          -3.040
REMARK INTER:                  -3.040
REMARK INTRA:                   0.000
REMARK UNBOUND:                 0.000
REMARK SMILES Nc1ncnc2nc[nH]c12
REMARK SMILES IDX 8 1 7 2 6 3 5 4 4 5 3 6 2 7 10 8 9 9 1 11
REMARK H PARENT 9 10 1 12 1 13
REMARK Flexibility Score: inf
ROOT
ATOM      1  C   UNL     1     105.383 105.300  93.398  1.00  0.00     0.199 A 
ATOM      2  N   UNL     1     104.582 104.384  92.787  1.00  0.00    -0.217 NA
ATOM      3  C   UNL     1     105.471 103.625  92.124  1.00  0.00     0.182 A 
ATOM      4  N   UNL     1     105.195 102.554  91.343  1.00  0.00    -0.215 NA
ATOM      5  C   UNL     1     106.239 101.903  90.746  1.00  0.00     0.226 A 
ATOM      6  N   UNL     1     107.528 102.332  90.939  1.00  0.00    -0.217 NA
ATOM      7  C   UNL     1     107.808 103.413  91.727  1.00  0.00     0.152 A 
ATOM      8  C   UNL     1     106.734 104.064  92.327  1.00  0.00     0.127 A 
ATOM      9  N   UNL     1     106.704 105.130  93.136  1.00  0.00    -0.340 N 
ATOM     10  H   UNL     1     107.501 105.705  93.489  1.00  0.00     0.168 HD
ENDROOT
BRANCH   7  11
ATOM     11  N   UNL     1     109.158 103.841  91.914  1.00  0.00    -0.382 N 
ATOM     12  H   UNL     1     109.382 104.803  92.250  1.00  0.00     0.158 HD
ATOM     13  H   UNL     1     109.946 103.186  91.713  1.00  0.00     0.158 HD
ENDBRANCH   7  11
TORSDOF 1
ENDMDL
