MODEL 1
REMARK VINA RESULT:    -5.957      0.000      0.000
REMARK INTER + INTRA:          -7.098
REMARK INTER:                  -7.001
REMARK INTRA:                  -0.096
REMARK UNBOUND:                -0.096
REMARK SMILES O=c1c(O)c(-c2ccc(O)c(O)c2)oc2cc(O)ccc12
REMARK SMILES IDX 5 1 3 2 2 3 1 4 21 5 15 6 14 7 16 8 17 9 19 10 20 11 6 12
REMARK SMILES IDX 7 13 8 14 9 15 13 16 11 17 10 18 12 20 4 22 18 24
REMARK H PARENT 10 19 12 21 4 23 18 25
REMARK Flexibility Score: inf
ROOT
ATOM      1  C   UNL     1     -11.441 -16.184  31.966  1.00  0.00     0.180 A 
ATOM      2  C   UNL     1     -10.898 -17.478  31.819  1.00  0.00     0.208 A 
ATOM      3  C   UNL     1     -11.079 -18.153  30.601  1.00  0.00     0.235 A 
ATOM      4  O   UNL     1     -10.594 -19.307  30.442  1.00  0.00    -0.285 OA
ATOM      5  C   UNL     1     -11.808 -17.537  29.572  1.00  0.00     0.069 A 
ATOM      6  C   UNL     1     -12.339 -16.250  29.806  1.00  0.00     0.142 A 
ATOM      7  O   UNL     1     -12.138 -15.641  30.970  1.00  0.00    -0.452 OA
ATOM      8  C   UNL     1     -13.080 -15.606  28.809  1.00  0.00     0.094 A 
ATOM      9  C   UNL     1     -13.296 -16.234  27.575  1.00  0.00     0.119 A 
ATOM     10  C   UNL     1     -12.769 -17.509  27.340  1.00  0.00     0.047 A 
ATOM     11  C   UNL     1     -12.029 -18.160  28.330  1.00  0.00     0.020 A 
ENDROOT
BRANCH   1  12
ATOM     12  C   UNL     1     -11.278 -15.400  33.212  1.00  0.00     0.025 A 
ATOM     13  C   UNL     1     -10.005 -15.116  33.737  1.00  0.00     0.016 A 
ATOM     14  C   UNL     1      -9.875 -14.354  34.901  1.00  0.00     0.051 A 
ATOM     15  C   UNL     1     -11.012 -13.854  35.549  1.00  0.00     0.157 A 
ATOM     16  C   UNL     1     -12.413 -14.878  33.853  1.00  0.00     0.062 A 
ATOM     17  C   UNL     1     -12.284 -14.114  35.022  1.00  0.00     0.158 A 
BRANCH  15  18
ATOM     18  O   UNL     1     -10.887 -13.095  36.711  1.00  0.00    -0.504 OA
ATOM     19  H   UNL     1     -10.405 -13.451  37.527  1.00  0.00     0.293 HD
ENDBRANCH  15  18
BRANCH  17  20
ATOM     20  O   UNL     1     -13.413 -13.609  35.664  1.00  0.00    -0.504 OA
ATOM     21  H   UNL     1     -13.406 -13.388  36.653  1.00  0.00     0.293 HD
ENDBRANCH  17  20
ENDBRANCH   1  12
BRANCH   2  22
ATOM     22  O   UNL     1     -10.220 -18.086  32.879  1.00  0.00    -0.502 OA
ATOM     23  H   UNL     1      -9.718 -18.958  32.770  1.00  0.00     0.293 HD
ENDBRANCH   2  22
BRANCH   9  24
ATOM     24  O   UNL     1     -14.032 -15.601  26.576  1.00  0.00    -0.508 OA
ATOM     25  H   UNL     1     -13.580 -15.158  25.785  1.00  0.00     0.293 HD
ENDBRANCH   9  24
TORSDOF 5
ENDMDL
MODEL 2
REMARK VINA RESULT:    -4.994      1.775      2.271
REMARK INTER + INTRA:          -5.966
REMARK INTER:                  -5.716
REMARK INTRA:                  -0.250
REMARK UNBOUND:                -0.096
REMARK SMILES O=c1c(O)c(-c2ccc(O)c(O)c2)oc2cc(O)ccc12
REMARK SMILES IDX 5 1 3 2 2 3 1 4 21 5 15 6 14 7 16 8 17 9 19 10 20 11 6 12
REMARK SMILES IDX 7 13 8 14 9 15 13 16 11 17 10 18 12 20 4 22 18 24
REMARK H PARENT 10 19 12 21 4 23 18 25
REMARK Flexibility Score: inf
ROOT
ATOM      1  C   UNL     1     -12.743 -16.373  31.649  1.00  0.00     0.180 A 
ATOM      2  C   UNL     1     -13.304 -17.665  31.727  1.00  0.00     0.208 A 
ATOM      3  C   UNL     1     -13.279 -18.483  30.587  1.00  0.00     0.235 A 
ATOM      4  O   UNL     1     -13.765 -19.647  30.635  1.00  0.00    -0.285 OA
ATOM      5  C   UNL     1     -12.719 -17.993  29.397  1.00  0.00     0.069 A 
ATOM      6  C   UNL     1     -12.200 -16.681  29.393  1.00  0.00     0.142 A 
ATOM      7  O   UNL     1     -12.234 -15.941  30.496  1.00  0.00    -0.452 OA
ATOM      8  C   UNL     1     -11.642 -16.152  28.223  1.00  0.00     0.094 A 
ATOM      9  C   UNL     1     -11.595 -16.922  27.054  1.00  0.00     0.119 A 
ATOM     10  C   UNL     1     -12.108 -18.224  27.056  1.00  0.00     0.047 A 
ATOM     11  C   UNL     1     -12.668 -18.760  28.219  1.00  0.00     0.020 A 
ENDROOT
BRANCH   1  12
ATOM     12  C   UNL     1     -12.713 -15.456  32.811  1.00  0.00     0.025 A 
ATOM     13  C   UNL     1     -13.876 -14.807  33.261  1.00  0.00     0.016 A 
ATOM     14  C   UNL     1     -13.828 -13.965  34.376  1.00  0.00     0.051 A 
ATOM     15  C   UNL     1     -12.623 -13.771  35.064  1.00  0.00     0.157 A 
ATOM     16  C   UNL     1     -11.513 -15.275  33.518  1.00  0.00     0.062 A 
ATOM     17  C   UNL     1     -11.464 -14.430  34.636  1.00  0.00     0.158 A 
BRANCH  15  18
ATOM     18  O   UNL     1     -12.572 -12.931  36.175  1.00  0.00    -0.504 OA
ATOM     19  H   UNL     1     -13.360 -12.352  36.439  1.00  0.00     0.293 HD
ENDBRANCH  15  18
BRANCH  17  20
ATOM     20  O   UNL     1     -10.268 -14.241  35.326  1.00  0.00    -0.504 OA
ATOM     21  H   UNL     1     -10.205 -14.386  36.327  1.00  0.00     0.293 HD
ENDBRANCH  17  20
ENDBRANCH   1  12
BRANCH   2  22
ATOM     22  O   UNL     1     -13.898 -18.107  32.912  1.00  0.00    -0.502 OA
ATOM     23  H   UNL     1     -13.651 -18.988  33.345  1.00  0.00     0.293 HD
ENDBRANCH   2  22
BRANCH   9  24
ATOM     24  O   UNL     1     -11.041 -16.404  25.886  1.00  0.00    -0.508 OA
ATOM     25  H   UNL     1     -11.605 -16.243  25.059  1.00  0.00     0.293 HD
ENDBRANCH   9  24
TORSDOF 5
ENDMDL
MODEL 3
REMARK VINA RESULT:    -4.884      2.352      3.585
REMARK INTER + INTRA:          -5.837
REMARK INTER:                  -6.184
REMARK INTRA:                   0.346
REMARK UNBOUND:                -0.096
REMARK SMILES O=c1c(O)c(-c2ccc(O)c(O)c2)oc2cc(O)ccc12
REMARK SMILES IDX 5 1 3 2 2 3 1 4 21 5 15 6 14 7 16 8 17 9 19 10 20 11 6 12
REMARK SMILES IDX 7 13 8 14 9 15 13 16 11 17 10 18 12 20 4 22 18 24
REMARK H PARENT 10 19 12 21 4 23 18 25
REMARK Flexibility Score: inf
ROOT
ATOM      1  C   UNL     1     -12.095 -15.047  33.705  1.00  0.00     0.180 A 
ATOM      2  C   UNL     1     -13.451 -15.139  33.325  1.00  0.00     0.208 A 
ATOM      3  C   UNL     1     -13.837 -16.156  32.439  1.00  0.00     0.235 A 
ATOM      4  O   UNL     1     -15.045 -16.265  32.092  1.00  0.00    -0.285 OA
ATOM      5  C   UNL     1     -12.869 -17.040  31.938  1.00  0.00     0.069 A 
ATOM      6  C   UNL     1     -11.529 -16.867  32.348  1.00  0.00     0.142 A 
ATOM      7  O   UNL     1     -11.206 -15.897  33.196  1.00  0.00    -0.452 OA
ATOM      8  C   UNL     1     -10.533 -17.722  31.862  1.00  0.00     0.094 A 
ATOM      9  C   UNL     1     -10.860 -18.753  30.972  1.00  0.00     0.119 A 
ATOM     10  C   UNL     1     -12.188 -18.926  30.565  1.00  0.00     0.047 A 
ATOM     11  C   UNL     1     -13.189 -18.077  31.042  1.00  0.00     0.020 A 
ENDROOT
BRANCH   1  12
ATOM     12  C   UNL     1     -11.611 -14.014  34.650  1.00  0.00     0.025 A 
ATOM     13  C   UNL     1     -10.302 -13.507  34.572  1.00  0.00     0.016 A 
ATOM     14  C   UNL     1      -9.875 -12.515  35.459  1.00  0.00     0.051 A 
ATOM     15  C   UNL     1     -10.753 -12.006  36.426  1.00  0.00     0.157 A 
ATOM     16  C   UNL     1     -12.493 -13.485  35.606  1.00  0.00     0.062 A 
ATOM     17  C   UNL     1     -12.065 -12.490  36.497  1.00  0.00     0.158 A 
BRANCH  15  18
ATOM     18  O   UNL     1     -10.330 -11.018  37.313  1.00  0.00    -0.504 OA
ATOM     19  H   UNL     1     -10.931 -10.244  37.569  1.00  0.00     0.293 HD
ENDBRANCH  15  18
BRANCH  17  20
ATOM     20  O   UNL     1     -12.938 -11.978  37.455  1.00  0.00    -0.504 OA
ATOM     21  H   UNL     1     -13.865 -12.365  37.588  1.00  0.00     0.293 HD
ENDBRANCH  17  20
ENDBRANCH   1  12
BRANCH   2  22
ATOM     22  O   UNL     1     -14.383 -14.214  33.802  1.00  0.00    -0.502 OA
ATOM     23  H   UNL     1     -15.310 -14.487  34.103  1.00  0.00     0.293 HD
ENDBRANCH   2  22
BRANCH   9  24
ATOM     24  O   UNL     1      -9.875 -19.608  30.484  1.00  0.00    -0.508 OA
ATOM     25  H   UNL     1      -9.416 -19.437  29.597  1.00  0.00     0.293 HD
ENDBRANCH   9  24
TORSDOF 5
ENDMDL
MODEL 4
REMARK VINA RESULT:    -4.392      1.878      7.008
REMARK INTER + INTRA:          -5.259
REMARK INTER:                  -5.104
REMARK INTRA:                  -0.155
REMARK UNBOUND:                -0.096
REMARK SMILES O=c1c(O)c(-c2ccc(O)c(O)c2)oc2cc(O)ccc12
REMARK SMILES IDX 5 1 3 2 2 3 1 4 21 5 15 6 14 7 16 8 17 9 19 10 20 11 6 12
REMARK SMILES IDX 7 13 8 14 9 15 13 16 11 17 10 18 12 20 4 22 18 24
REMARK H PARENT 10 19 12 21 4 23 18 25
REMARK Flexibility Score: inf
ROOT
ATOM      1  C   UNL     1     -12.735 -15.692  31.416  1.00  0.00     0.180 A 
ATOM      2  C   UNL     1     -14.053 -15.333  31.773  1.00  0.00     0.208 A 
ATOM      3  C   UNL     1     -14.275 -14.729  33.020  1.00  0.00     0.235 A 
ATOM      4  O   UNL     1     -15.443 -14.390  33.357  1.00  0.00    -0.285 OA
ATOM      5  C   UNL     1     -13.192 -14.516  33.887  1.00  0.00     0.069 A 
ATOM      6  C   UNL     1     -11.908 -14.924  33.466  1.00  0.00     0.142 A 
ATOM      7  O   UNL     1     -11.738 -15.484  32.274  1.00  0.00    -0.452 OA
ATOM      8  C   UNL     1     -10.804 -14.737  34.306  1.00  0.00     0.094 A 
ATOM      9  C   UNL     1     -10.968 -14.143  35.565  1.00  0.00     0.119 A 
ATOM     10  C   UNL     1     -12.240 -13.736  35.983  1.00  0.00     0.047 A 
ATOM     11  C   UNL     1     -13.348 -13.920  35.152  1.00  0.00     0.020 A 
ENDROOT
BRANCH   1  12
ATOM     12  C   UNL     1     -12.416 -16.316  30.112  1.00  0.00     0.025 A 
ATOM     13  C   UNL     1     -11.592 -15.669  29.175  1.00  0.00     0.016 A 
ATOM     14  C   UNL     1     -11.284 -16.288  27.959  1.00  0.00     0.051 A 
ATOM     15  C   UNL     1     -11.783 -17.565  27.671  1.00  0.00     0.157 A 
ATOM     16  C   UNL     1     -12.895 -17.605  29.827  1.00  0.00     0.062 A 
ATOM     17  C   UNL     1     -12.588 -18.226  28.608  1.00  0.00     0.158 A 
BRANCH  15  18
ATOM     18  O   UNL     1     -11.479 -18.185  26.460  1.00  0.00    -0.504 OA
ATOM     19  H   UNL     1     -11.974 -19.013  26.149  1.00  0.00     0.293 HD
ENDBRANCH  15  18
BRANCH  17  20
ATOM     20  O   UNL     1     -13.077 -19.499  28.321  1.00  0.00    -0.504 OA
ATOM     21  H   UNL     1     -13.351 -20.140  29.057  1.00  0.00     0.293 HD
ENDBRANCH  17  20
ENDBRANCH   1  12
BRANCH   2  22
ATOM     22  O   UNL     1     -15.117 -15.603  30.910  1.00  0.00    -0.502 OA
ATOM     23  H   UNL     1     -15.425 -16.547  30.708  1.00  0.00     0.293 HD
ENDBRANCH   2  22
BRANCH   9  24
ATOM     24  O   UNL     1      -9.875 -13.953  36.407  1.00  0.00    -0.508 OA
ATOM     25  H   UNL     1      -9.003 -14.450  36.263  1.00  0.00     0.293 HD
ENDBRANCH   9  24
TORSDOF 5
ENDMDL
MODEL 5
REMARK VINA RESULT:    -3.886      2.088      7.064
REMARK INTER + INTRA:          -4.664
REMARK INTER:                  -4.388
REMARK INTRA:                  -0.276
REMARK UNBOUND:                -0.096
REMARK SMILES O=c1c(O)c(-c2ccc(O)c(O)c2)oc2cc(O)ccc12
REMARK SMILES IDX 5 1 3 2 2 3 1 4 21 5 15 6 14 7 16 8 17 9 19 10 20 11 6 12
REMARK SMILES IDX 7 13 8 14 9 15 13 16 11 17 10 18 12 20 4 22 18 24
REMARK H PARENT 10 19 12 21 4 23 18 25
REMARK Flexibility Score: inf
ROOT
ATOM      1  C   UNL     1     -13.193 -16.457  32.256  1.00  0.00     0.180 A 
ATOM      2  C   UNL     1     -14.424 -15.788  32.426  1.00  0.00     0.208 A 
ATOM      3  C   UNL     1     -14.495 -14.724  33.339  1.00  0.00     0.235 A 
ATOM      4  O   UNL     1     -15.582 -14.104  33.501  1.00  0.00    -0.285 OA
ATOM      5  C   UNL     1     -13.353 -14.366  34.072  1.00  0.00     0.069 A 
ATOM      6  C   UNL     1     -12.166 -15.099  33.861  1.00  0.00     0.142 A 
ATOM      7  O   UNL     1     -12.137 -16.094  32.981  1.00  0.00    -0.452 OA
ATOM      8  C   UNL     1     -11.008 -14.779  34.580  1.00  0.00     0.094 A 
ATOM      9  C   UNL     1     -11.022 -13.729  35.508  1.00  0.00     0.119 A 
ATOM     10  C   UNL     1     -12.198 -13.000  35.717  1.00  0.00     0.047 A 
ATOM     11  C   UNL     1     -13.359 -13.313  35.005  1.00  0.00     0.020 A 
ENDROOT
BRANCH   1  12
ATOM     12  C   UNL     1     -13.032 -17.576  31.300  1.00  0.00     0.025 A 
ATOM     13  C   UNL     1     -13.061 -18.914  31.728  1.00  0.00     0.016 A 
ATOM     14  C   UNL     1     -12.931 -19.955  30.804  1.00  0.00     0.051 A 
ATOM     15  C   UNL     1     -12.783 -19.674  29.440  1.00  0.00     0.157 A 
ATOM     16  C   UNL     1     -12.906 -17.300  29.928  1.00  0.00     0.062 A 
ATOM     17  C   UNL     1     -12.774 -18.344  29.001  1.00  0.00     0.158 A 
BRANCH  15  18
ATOM     18  O   UNL     1     -12.652 -20.709  28.516  1.00  0.00    -0.504 OA
ATOM     19  H   UNL     1     -12.205 -20.565  27.618  1.00  0.00     0.293 HD
ENDBRANCH  15  18
BRANCH  17  20
ATOM     20  O   UNL     1     -12.635 -18.067  27.642  1.00  0.00    -0.504 OA
ATOM     21  H   UNL     1     -11.964 -17.385  27.306  1.00  0.00     0.293 HD
ENDBRANCH  17  20
ENDBRANCH   1  12
BRANCH   2  22
ATOM     22  O   UNL     1     -15.556 -16.200  31.718  1.00  0.00    -0.502 OA
ATOM     23  H   UNL     1     -15.697 -17.161  31.435  1.00  0.00     0.293 HD
ENDBRANCH   2  22
BRANCH   9  24
ATOM     24  O   UNL     1      -9.875 -13.403  36.227  1.00  0.00    -0.508 OA
ATOM     25  H   UNL     1      -9.209 -14.112  36.511  1.00  0.00     0.293 HD
ENDBRANCH   9  24
TORSDOF 5
ENDMDL
MODEL 6
REMARK VINA RESULT:    -3.624      2.018      3.766
REMARK INTER + INTRA:          -4.357
REMARK INTER:                  -4.125
REMARK INTRA:                  -0.232
REMARK UNBOUND:                -0.096
REMARK SMILES O=c1c(O)c(-c2ccc(O)c(O)c2)oc2cc(O)ccc12
REMARK SMILES IDX 5 1 3 2 2 3 1 4 21 5 15 6 14 7 16 8 17 9 19 10 20 11 6 12
REMARK SMILES IDX 7 13 8 14 9 15 13 16 11 17 10 18 12 20 4 22 18 24
REMARK H PARENT 10 19 12 21 4 23 18 25
REMARK Flexibility Score: inf
ROOT
ATOM      1  C   UNL     1     -13.132 -16.389  31.810  1.00  0.00     0.180 A 
ATOM      2  C   UNL     1     -13.271 -16.051  30.447  1.00  0.00     0.208 A 
ATOM      3  C   UNL     1     -13.228 -17.076  29.489  1.00  0.00     0.235 A 
ATOM      4  O   UNL     1     -13.360 -16.801  28.264  1.00  0.00    -0.285 OA
ATOM      5  C   UNL     1     -13.029 -18.402  29.904  1.00  0.00     0.069 A 
ATOM      6  C   UNL     1     -12.875 -18.655  31.284  1.00  0.00     0.142 A 
ATOM      7  O   UNL     1     -12.931 -17.657  32.160  1.00  0.00    -0.452 OA
ATOM      8  C   UNL     1     -12.664 -19.962  31.738  1.00  0.00     0.094 A 
ATOM      9  C   UNL     1     -12.608 -21.024  30.825  1.00  0.00     0.119 A 
ATOM     10  C   UNL     1     -12.762 -20.776  29.457  1.00  0.00     0.047 A 
ATOM     11  C   UNL     1     -12.971 -19.474  28.995  1.00  0.00     0.020 A 
ENDROOT
BRANCH   1  12
ATOM     12  C   UNL     1     -13.185 -15.368  32.882  1.00  0.00     0.025 A 
ATOM     13  C   UNL     1     -14.383 -14.709  33.206  1.00  0.00     0.016 A 
ATOM     14  C   UNL     1     -14.414 -13.766  34.238  1.00  0.00     0.051 A 
ATOM     15  C   UNL     1     -13.253 -13.481  34.969  1.00  0.00     0.157 A 
ATOM     16  C   UNL     1     -12.029 -15.094  33.632  1.00  0.00     0.062 A 
ATOM     17  C   UNL     1     -12.059 -14.149  34.667  1.00  0.00     0.158 A 
BRANCH  15  18
ATOM     18  O   UNL     1     -13.279 -12.541  35.997  1.00  0.00    -0.504 OA
ATOM     19  H   UNL     1     -13.897 -12.645  36.794  1.00  0.00     0.293 HD
ENDBRANCH  15  18
BRANCH  17  20
ATOM     20  O   UNL     1     -10.907 -13.868  35.400  1.00  0.00    -0.504 OA
ATOM     21  H   UNL     1     -10.070 -13.509  34.955  1.00  0.00     0.293 HD
ENDBRANCH  17  20
ENDBRANCH   1  12
BRANCH   2  22
ATOM     22  O   UNL     1     -13.418 -14.717  30.060  1.00  0.00    -0.502 OA
ATOM     23  H   UNL     1     -12.633 -14.148  29.769  1.00  0.00     0.293 HD
ENDBRANCH   2  22
BRANCH   9  24
ATOM     24  O   UNL     1     -12.400 -22.328  31.268  1.00  0.00    -0.508 OA
ATOM     25  H   UNL     1     -12.320 -23.102  30.617  1.00  0.00     0.293 HD
ENDBRANCH   9  24
TORSDOF 5
ENDMDL
