MODEL 1
REMARK VINA RESULT:    -4.387      0.000      0.000
REMARK INTER + INTRA:          -4.969
REMARK INTER:                  -4.900
REMARK INTRA:                  -0.069
REMARK UNBOUND:                -0.069
REMARK SMILES COc1cc2ccc(=O)oc2c(O)c1O
REMARK SMILES IDX 3 1 14 2 12 3 11 4 5 5 4 6 6 7 7 8 8 9 9 10 10 11 2 12 1 13
REMARK SMILES IDX 15 14 13 16
REMARK H PARENT 15 15 13 17
REMARK Flexibility Score: inf
ROOT
ATOM      1  C   UNL     1      15.044 -16.936  19.806  1.00  0.00     0.165 A 
ATOM      2  C   UNL     1      14.797 -17.152  21.177  1.00  0.00     0.204 A 
ATOM      3  C   UNL     1      13.550 -17.646  21.602  1.00  0.00     0.205 A 
ATOM      4  C   UNL     1      12.550 -17.924  20.665  1.00  0.00     0.184 A 
ATOM      5  C   UNL     1      12.792 -17.709  19.292  1.00  0.00     0.025 A 
ATOM      6  C   UNL     1      14.032 -17.218  18.867  1.00  0.00     0.062 A 
ATOM      7  C   UNL     1      11.770 -17.998  18.381  1.00  0.00     0.020 A 
ATOM      8  C   UNL     1      10.551 -18.485  18.849  1.00  0.00     0.094 A 
ATOM      9  C   UNL     1      10.382 -18.674  20.224  1.00  0.00     0.336 A 
ATOM     10  O   UNL     1       9.289 -19.113  20.668  1.00  0.00    -0.246 OA
ATOM     11  O   UNL     1      11.369 -18.392  21.069  1.00  0.00    -0.419 OA
ENDROOT
BRANCH   1  12
ATOM     12  O   UNL     1      16.299 -16.442  19.416  1.00  0.00    -0.493 OA
ATOM     13  C   UNL     1      16.563 -15.086  19.068  1.00  0.00     0.278 C 
ENDBRANCH   1  12
BRANCH   2  14
ATOM     14  O   UNL     1      15.783 -16.881  22.125  1.00  0.00    -0.502 OA
ATOM     15  H   UNL     1      16.765 -16.816  21.884  1.00  0.00     0.293 HD
ENDBRANCH   2  14
BRANCH   3  16
ATOM     16  O   UNL     1      13.292 -17.865  22.957  1.00  0.00    -0.502 OA
ATOM     17  H   UNL     1      13.372 -17.131  23.648  1.00  0.00     0.293 HD
ENDBRANCH   3  16
TORSDOF 3
ENDMDL
MODEL 2
REMARK VINA RESULT:    -4.140      1.636      4.687
REMARK INTER + INTRA:          -4.693
REMARK INTER:                  -4.625
REMARK INTRA:                  -0.069
REMARK UNBOUND:                -0.069
REMARK SMILES COc1cc2ccc(=O)oc2c(O)c1O
REMARK SMILES IDX 3 1 14 2 12 3 11 4 5 5 4 6 6 7 7 8 8 9 9 10 10 11 2 12 1 13
REMARK SMILES IDX 15 14 13 16
REMARK H PARENT 15 15 13 17
REMARK Flexibility Score: inf
ROOT
ATOM      1  C   UNL     1      11.508 -17.871  19.706  1.00  0.00     0.165 A 
ATOM      2  C   UNL     1      11.482 -17.775  21.112  1.00  0.00     0.204 A 
ATOM      3  C   UNL     1      12.683 -17.795  21.845  1.00  0.00     0.205 A 
ATOM      4  C   UNL     1      13.908 -17.912  21.180  1.00  0.00     0.184 A 
ATOM      5  C   UNL     1      13.939 -18.009  19.773  1.00  0.00     0.025 A 
ATOM      6  C   UNL     1      12.745 -17.988  19.043  1.00  0.00     0.062 A 
ATOM      7  C   UNL     1      15.180 -18.124  19.139  1.00  0.00     0.020 A 
ATOM      8  C   UNL     1      16.344 -18.140  19.907  1.00  0.00     0.094 A 
ATOM      9  C   UNL     1      16.238 -18.039  21.297  1.00  0.00     0.336 A 
ATOM     10  O   UNL     1      17.275 -18.052  22.009  1.00  0.00    -0.246 OA
ATOM     11  O   UNL     1      15.044 -17.931  21.875  1.00  0.00    -0.419 OA
ENDROOT
BRANCH   1  12
ATOM     12  O   UNL     1      10.291 -17.848  19.006  1.00  0.00    -0.493 OA
ATOM     13  C   UNL     1       9.599 -19.005  18.546  1.00  0.00     0.278 C 
ENDBRANCH   1  12
BRANCH   2  14
ATOM     14  O   UNL     1      10.270 -17.657  21.791  1.00  0.00    -0.502 OA
ATOM     15  H   UNL     1       9.963 -18.336  22.478  1.00  0.00     0.293 HD
ENDBRANCH   2  14
BRANCH   3  16
ATOM     16  O   UNL     1      12.672 -17.700  23.238  1.00  0.00    -0.502 OA
ATOM     17  H   UNL     1      13.510 -17.816  23.794  1.00  0.00     0.293 HD
ENDBRANCH   3  16
TORSDOF 3
ENDMDL
MODEL 3
REMARK VINA RESULT:    -4.075     13.801     15.801
REMARK INTER + INTRA:          -4.621
REMARK INTER:                  -4.554
REMARK INTRA:                  -0.068
REMARK UNBOUND:                -0.069
REMARK SMILES COc1cc2ccc(=O)oc2c(O)c1O
REMARK SMILES IDX 3 1 14 2 12 3 11 4 5 5 4 6 6 7 7 8 8 9 9 10 10 11 2 12 1 13
REMARK SMILES IDX 15 14 13 16
REMARK H PARENT 15 15 13 17
REMARK Flexibility Score: inf
ROOT
ATOM      1  C   UNL     1      14.537  -6.083  12.355  1.00  0.00     0.165 A 
ATOM      2  C   UNL     1      15.518  -6.815  11.655  1.00  0.00     0.204 A 
ATOM      3  C   UNL     1      15.557  -6.782  10.249  1.00  0.00     0.205 A 
ATOM      4  C   UNL     1      14.620  -6.022   9.539  1.00  0.00     0.184 A 
ATOM      5  C   UNL     1      13.637  -5.288  10.235  1.00  0.00     0.025 A 
ATOM      6  C   UNL     1      13.597  -5.320  11.634  1.00  0.00     0.062 A 
ATOM      7  C   UNL     1      12.715  -4.539   9.496  1.00  0.00     0.020 A 
ATOM      8  C   UNL     1      12.793  -4.538   8.104  1.00  0.00     0.094 A 
ATOM      9  C   UNL     1      13.794  -5.288   7.481  1.00  0.00     0.336 A 
ATOM     10  O   UNL     1      13.882  -5.301   6.226  1.00  0.00    -0.246 OA
ATOM     11  O   UNL     1      14.658  -5.992   8.208  1.00  0.00    -0.419 OA
ENDROOT
BRANCH   1  12
ATOM     12  O   UNL     1      14.527  -6.138  13.758  1.00  0.00    -0.493 OA
ATOM     13  C   UNL     1      15.133  -5.171  14.610  1.00  0.00     0.278 C 
ENDBRANCH   1  12
BRANCH   2  14
ATOM     14  O   UNL     1      16.459  -7.576  12.346  1.00  0.00    -0.502 OA
ATOM     15  H   UNL     1      16.880  -7.264  13.214  1.00  0.00     0.293 HD
ENDBRANCH   2  14
BRANCH   3  16
ATOM     16  O   UNL     1      16.523  -7.501   9.543  1.00  0.00    -0.502 OA
ATOM     17  H   UNL     1      17.190  -7.051   8.929  1.00  0.00     0.293 HD
ENDBRANCH   3  16
TORSDOF 3
ENDMDL
MODEL 4
REMARK VINA RESULT:    -4.068      1.782      2.863
REMARK INTER + INTRA:          -4.614
REMARK INTER:                  -4.565
REMARK INTRA:                  -0.049
REMARK UNBOUND:                -0.069
REMARK SMILES COc1cc2ccc(=O)oc2c(O)c1O
REMARK SMILES IDX 3 1 14 2 12 3 11 4 5 5 4 6 6 7 7 8 8 9 9 10 10 11 2 12 1 13
REMARK SMILES IDX 15 14 13 16
REMARK H PARENT 15 15 13 17
REMARK Flexibility Score: inf
ROOT
ATOM      1  C   UNL     1      15.432 -17.344  20.188  1.00  0.00     0.165 A 
ATOM      2  C   UNL     1      15.164 -16.768  18.929  1.00  0.00     0.204 A 
ATOM      3  C   UNL     1      13.842 -16.692  18.452  1.00  0.00     0.205 A 
ATOM      4  C   UNL     1      12.788 -17.189  19.227  1.00  0.00     0.184 A 
ATOM      5  C   UNL     1      13.051 -17.766  20.486  1.00  0.00     0.025 A 
ATOM      6  C   UNL     1      14.366 -17.843  20.962  1.00  0.00     0.062 A 
ATOM      7  C   UNL     1      11.975 -18.254  21.235  1.00  0.00     0.020 A 
ATOM      8  C   UNL     1      10.682 -18.157  20.721  1.00  0.00     0.094 A 
ATOM      9  C   UNL     1      10.496 -17.571  19.466  1.00  0.00     0.336 A 
ATOM     10  O   UNL     1       9.338 -17.473  18.983  1.00  0.00    -0.246 OA
ATOM     11  O   UNL     1      11.537 -17.116  18.774  1.00  0.00    -0.419 OA
ENDROOT
BRANCH   1  12
ATOM     12  O   UNL     1      16.762 -17.405  20.633  1.00  0.00    -0.493 OA
ATOM     13  C   UNL     1      17.158 -17.777  21.949  1.00  0.00     0.278 C 
ENDBRANCH   1  12
BRANCH   2  14
ATOM     14  O   UNL     1      16.203 -16.267  18.145  1.00  0.00    -0.502 OA
ATOM     15  H   UNL     1      16.362 -16.575  17.193  1.00  0.00     0.293 HD
ENDBRANCH   2  14
BRANCH   3  16
ATOM     16  O   UNL     1      13.563 -16.123  17.209  1.00  0.00    -0.502 OA
ATOM     17  H   UNL     1      12.873 -15.391  17.092  1.00  0.00     0.293 HD
ENDBRANCH   3  16
TORSDOF 3
ENDMDL
MODEL 5
REMARK VINA RESULT:    -3.980     11.052     13.713
REMARK INTER + INTRA:          -4.514
REMARK INTER:                  -4.461
REMARK INTRA:                  -0.054
REMARK UNBOUND:                -0.069
REMARK SMILES COc1cc2ccc(=O)oc2c(O)c1O
REMARK SMILES IDX 3 1 14 2 12 3 11 4 5 5 4 6 6 7 7 8 8 9 9 10 10 11 2 12 1 13
REMARK SMILES IDX 15 14 13 16
REMARK H PARENT 15 15 13 17
REMARK Flexibility Score: inf
ROOT
ATOM      1  C   UNL     1      14.717  -9.785  11.306  1.00  0.00     0.165 A 
ATOM      2  C   UNL     1      15.024  -8.842  10.305  1.00  0.00     0.204 A 
ATOM      3  C   UNL     1      15.347  -7.518  10.655  1.00  0.00     0.205 A 
ATOM      4  C   UNL     1      15.366  -7.133  12.001  1.00  0.00     0.184 A 
ATOM      5  C   UNL     1      15.059  -8.074  13.006  1.00  0.00     0.025 A 
ATOM      6  C   UNL     1      14.737  -9.391  12.659  1.00  0.00     0.062 A 
ATOM      7  C   UNL     1      15.087  -7.657  14.341  1.00  0.00     0.020 A 
ATOM      8  C   UNL     1      15.413  -6.335  14.640  1.00  0.00     0.094 A 
ATOM      9  C   UNL     1      15.706  -5.457  13.592  1.00  0.00     0.336 A 
ATOM     10  O   UNL     1      16.003  -4.259  13.840  1.00  0.00    -0.246 OA
ATOM     11  O   UNL     1      15.672  -5.879  12.331  1.00  0.00    -0.419 OA
ENDROOT
BRANCH   1  12
ATOM     12  O   UNL     1      14.398 -11.098  10.922  1.00  0.00    -0.493 OA
ATOM     13  C   UNL     1      14.834 -12.269  11.605  1.00  0.00     0.278 C 
ENDBRANCH   1  12
BRANCH   2  14
ATOM     14  O   UNL     1      15.011  -9.208   8.960  1.00  0.00    -0.502 OA
ATOM     15  H   UNL     1      15.790  -9.683   8.519  1.00  0.00     0.293 HD
ENDBRANCH   2  14
BRANCH   3  16
ATOM     16  O   UNL     1      15.654  -6.573   9.674  1.00  0.00    -0.502 OA
ATOM     17  H   UNL     1      16.223  -5.759   9.867  1.00  0.00     0.293 HD
ENDBRANCH   3  16
TORSDOF 3
ENDMDL
MODEL 6
REMARK VINA RESULT:    -3.918      1.185      4.900
REMARK INTER + INTRA:          -4.445
REMARK INTER:                  -4.396
REMARK INTRA:                  -0.049
REMARK UNBOUND:                -0.069
REMARK SMILES COc1cc2ccc(=O)oc2c(O)c1O
REMARK SMILES IDX 3 1 14 2 12 3 11 4 5 5 4 6 6 7 7 8 8 9 9 10 10 11 2 12 1 13
REMARK SMILES IDX 15 14 13 16
REMARK H PARENT 15 15 13 17
REMARK Flexibility Score: inf
ROOT
ATOM      1  C   UNL     1      12.637 -17.803  21.017  1.00  0.00     0.165 A 
ATOM      2  C   UNL     1      13.243 -17.454  22.242  1.00  0.00     0.204 A 
ATOM      3  C   UNL     1      14.470 -16.766  22.253  1.00  0.00     0.205 A 
ATOM      4  C   UNL     1      15.095 -16.426  21.048  1.00  0.00     0.184 A 
ATOM      5  C   UNL     1      14.493 -16.774  19.821  1.00  0.00     0.025 A 
ATOM      6  C   UNL     1      13.272 -17.458  19.808  1.00  0.00     0.062 A 
ATOM      7  C   UNL     1      15.143 -16.419  18.634  1.00  0.00     0.020 A 
ATOM      8  C   UNL     1      16.358 -15.739  18.696  1.00  0.00     0.094 A 
ATOM      9  C   UNL     1      16.896 -15.426  19.947  1.00  0.00     0.336 A 
ATOM     10  O   UNL     1      17.992 -14.812  20.026  1.00  0.00    -0.246 OA
ATOM     11  O   UNL     1      16.257 -15.775  21.061  1.00  0.00    -0.419 OA
ENDROOT
BRANCH   1  12
ATOM     12  O   UNL     1      11.412 -18.490  21.042  1.00  0.00    -0.493 OA
ATOM     13  C   UNL     1      10.568 -18.679  19.911  1.00  0.00     0.278 C 
ENDBRANCH   1  12
BRANCH   2  14
ATOM     14  O   UNL     1      12.634 -17.784  23.452  1.00  0.00    -0.502 OA
ATOM     15  H   UNL     1      11.760 -17.368  23.752  1.00  0.00     0.293 HD
ENDBRANCH   2  14
BRANCH   3  16
ATOM     16  O   UNL     1      15.081 -16.413  23.458  1.00  0.00    -0.502 OA
ATOM     17  H   UNL     1      14.626 -15.821  24.141  1.00  0.00     0.293 HD
ENDBRANCH   3  16
TORSDOF 3
ENDMDL
MODEL 7
REMARK VINA RESULT:    -3.878     11.894     13.856
REMARK INTER + INTRA:          -4.401
REMARK INTER:                  -4.346
REMARK INTRA:                  -0.055
REMARK UNBOUND:                -0.069
REMARK SMILES COc1cc2ccc(=O)oc2c(O)c1O
REMARK SMILES IDX 3 1 14 2 12 3 11 4 5 5 4 6 6 7 7 8 8 9 9 10 10 11 2 12 1 13
REMARK SMILES IDX 15 14 13 16
REMARK H PARENT 15 15 13 17
REMARK Flexibility Score: inf
ROOT
ATOM      1  C   UNL     1      15.185  -7.444   9.588  1.00  0.00     0.165 A 
ATOM      2  C   UNL     1      14.978  -8.760  10.047  1.00  0.00     0.204 A 
ATOM      3  C   UNL     1      14.928  -9.029  11.427  1.00  0.00     0.205 A 
ATOM      4  C   UNL     1      15.084  -7.989  12.350  1.00  0.00     0.184 A 
ATOM      5  C   UNL     1      15.292  -6.670  11.895  1.00  0.00     0.025 A 
ATOM      6  C   UNL     1      15.342  -6.401  10.522  1.00  0.00     0.062 A 
ATOM      7  C   UNL     1      15.444  -5.653  12.844  1.00  0.00     0.020 A 
ATOM      8  C   UNL     1      15.388  -5.967  14.201  1.00  0.00     0.094 A 
ATOM      9  C   UNL     1      15.178  -7.296  14.579  1.00  0.00     0.336 A 
ATOM     10  O   UNL     1      15.124  -7.602  15.799  1.00  0.00    -0.246 OA
ATOM     11  O   UNL     1      15.037  -8.245  13.656  1.00  0.00    -0.419 OA
ENDROOT
BRANCH   1  12
ATOM     12  O   UNL     1      15.230  -7.211   8.204  1.00  0.00    -0.493 OA
ATOM     13  C   UNL     1      16.176  -6.366   7.556  1.00  0.00     0.278 C 
ENDBRANCH   1  12
BRANCH   2  14
ATOM     14  O   UNL     1      14.819  -9.809   9.141  1.00  0.00    -0.502 OA
ATOM     15  H   UNL     1      13.983 -10.380   9.113  1.00  0.00     0.293 HD
ENDBRANCH   2  14
BRANCH   3  16
ATOM     16  O   UNL     1      14.722 -10.328  11.896  1.00  0.00    -0.502 OA
ATOM     17  H   UNL     1      14.445 -11.085  11.285  1.00  0.00     0.293 HD
ENDBRANCH   3  16
TORSDOF 3
ENDMDL
MODEL 8
REMARK VINA RESULT:    -3.810      1.854      3.121
REMARK INTER + INTRA:          -4.325
REMARK INTER:                  -4.256
REMARK INTRA:                  -0.069
REMARK UNBOUND:                -0.069
REMARK SMILES COc1cc2ccc(=O)oc2c(O)c1O
REMARK SMILES IDX 3 1 14 2 12 3 11 4 5 5 4 6 6 7 7 8 8 9 9 10 10 11 2 12 1 13
REMARK SMILES IDX 15 14 13 16
REMARK H PARENT 15 15 13 17
REMARK Flexibility Score: inf
ROOT
ATOM      1  C   UNL     1      17.499 -15.014  19.735  1.00  0.00     0.165 A 
ATOM      2  C   UNL     1      17.488 -15.487  21.063  1.00  0.00     0.204 A 
ATOM      3  C   UNL     1      16.416 -16.273  21.526  1.00  0.00     0.205 A 
ATOM      4  C   UNL     1      15.356 -16.587  20.669  1.00  0.00     0.184 A 
ATOM      5  C   UNL     1      15.362 -16.115  19.340  1.00  0.00     0.025 A 
ATOM      6  C   UNL     1      16.428 -15.334  18.878  1.00  0.00     0.062 A 
ATOM      7  C   UNL     1      14.287 -16.447  18.508  1.00  0.00     0.020 A 
ATOM      8  C   UNL     1      13.247 -17.228  19.012  1.00  0.00     0.094 A 
ATOM      9  C   UNL     1      13.308 -17.661  20.339  1.00  0.00     0.336 A 
ATOM     10  O   UNL     1      12.380 -18.367  20.814  1.00  0.00    -0.246 OA
ATOM     11  O   UNL     1      14.342 -17.331  21.108  1.00  0.00    -0.419 OA
ENDROOT
BRANCH   1  12
ATOM     12  O   UNL     1      18.584 -14.233  19.306  1.00  0.00    -0.493 OA
ATOM     13  C   UNL     1      18.585 -12.810  19.254  1.00  0.00     0.278 C 
ENDBRANCH   1  12
BRANCH   2  14
ATOM     14  O   UNL     1      18.537 -15.185  21.931  1.00  0.00    -0.502 OA
ATOM     15  H   UNL     1      18.555 -15.502  22.893  1.00  0.00     0.293 HD
ENDBRANCH   2  14
BRANCH   3  16
ATOM     16  O   UNL     1      16.393 -16.749  22.838  1.00  0.00    -0.502 OA
ATOM     17  H   UNL     1      16.673 -16.178  23.626  1.00  0.00     0.293 HD
ENDBRANCH   3  16
TORSDOF 3
ENDMDL
MODEL 9
REMARK VINA RESULT:    -2.374     16.100     18.403
REMARK INTER + INTRA:          -2.721
REMARK INTER:                  -2.655
REMARK INTRA:                  -0.067
REMARK UNBOUND:                -0.069
REMARK SMILES COc1cc2ccc(=O)oc2c(O)c1O
REMARK SMILES IDX 3 1 14 2 12 3 11 4 5 5 4 6 6 7 7 8 8 9 9 10 10 11 2 12 1 13
REMARK SMILES IDX 15 14 13 16
REMARK H PARENT 15 15 13 17
REMARK Flexibility Score: inf
ROOT
ATOM      1  C   UNL     1      17.518  -4.152   5.919  1.00  0.00     0.165 A 
ATOM      2  C   UNL     1      18.318  -5.068   6.631  1.00  0.00     0.204 A 
ATOM      3  C   UNL     1      17.728  -6.170   7.278  1.00  0.00     0.205 A 
ATOM      4  C   UNL     1      16.344  -6.361   7.215  1.00  0.00     0.184 A 
ATOM      5  C   UNL     1      15.539  -5.447   6.503  1.00  0.00     0.025 A 
ATOM      6  C   UNL     1      16.124  -4.350   5.860  1.00  0.00     0.062 A 
ATOM      7  C   UNL     1      14.158  -5.666   6.460  1.00  0.00     0.020 A 
ATOM      8  C   UNL     1      13.618  -6.772   7.116  1.00  0.00     0.094 A 
ATOM      9  C   UNL     1      14.477  -7.637   7.802  1.00  0.00     0.336 A 
ATOM     10  O   UNL     1      14.011  -8.641   8.401  1.00  0.00    -0.246 OA
ATOM     11  O   UNL     1      15.787  -7.405   7.827  1.00  0.00    -0.419 OA
ENDROOT
BRANCH   1  12
ATOM     12  O   UNL     1      18.139  -3.063   5.286  1.00  0.00    -0.493 OA
ATOM     13  C   UNL     1      18.235  -2.895   3.875  1.00  0.00     0.278 C 
ENDBRANCH   1  12
BRANCH   2  14
ATOM     14  O   UNL     1      19.700  -4.894   6.703  1.00  0.00    -0.502 OA
ATOM     15  H   UNL     1      20.123  -4.039   7.044  1.00  0.00     0.293 HD
ENDBRANCH   2  14
BRANCH   3  16
ATOM     16  O   UNL     1      18.509  -7.086   7.986  1.00  0.00    -0.502 OA
ATOM     17  H   UNL     1      19.350  -6.813   8.477  1.00  0.00     0.293 HD
ENDBRANCH   3  16
TORSDOF 3
ENDMDL
