MODEL 1
REMARK VINA RESULT:    -4.081      0.000      0.000
REMARK INTER + INTRA:          -6.087
REMARK INTER:                  -5.751
REMARK INTRA:                  -0.335
REMARK UNBOUND:                -0.335
REMARK SMILES CCCCCCCCC(=O)[O-]
REMARK SMILES IDX 6 1 7 2 8 3 9 4 10 5 11 6 5 7 4 8 3 9 2 10 1 11
REMARK H PARENT
REMARK Flexibility Score: inf
ROOT
ATOM      1  C   UNL     1      10.054   8.436  -7.874  1.00  0.00     0.000 C 
ENDROOT
BRANCH   1   2
ATOM      2  C   UNL     1      10.888   7.539  -6.950  1.00  0.00     0.006 C 
BRANCH   2   3
ATOM      3  C   UNL     1      10.502   6.067  -7.120  1.00  0.00     0.053 C 
BRANCH   3   4
ATOM      4  C   UNL     1      11.282   5.209  -6.174  1.00  0.00     0.041 C 
ATOM      5  O   UNL     1      10.746   4.197  -5.649  1.00  0.00    -0.550 OA
ATOM      6  O   UNL     1      12.614   5.496  -5.911  1.00  0.00    -0.550 OA
ENDBRANCH   3   4
ENDBRANCH   2   3
ENDBRANCH   1   2
BRANCH   1   7
ATOM      7  C   UNL     1      10.611   9.865  -7.905  1.00  0.00     0.000 C 
BRANCH   7   8
ATOM      8  C   UNL     1      12.143   9.860  -7.806  1.00  0.00    -0.000 C 
BRANCH   8   9
ATOM      9  C   UNL     1      12.804  10.824  -8.804  1.00  0.00    -0.000 C 
BRANCH   9  10
ATOM     10  C   UNL     1      11.990  10.986 -10.096  1.00  0.00    -0.003 C 
ATOM     11  C   UNL     1      12.895  10.951 -11.324  1.00  0.00     0.004 C 
ENDBRANCH   9  10
ENDBRANCH   8   9
ENDBRANCH   7   8
ENDBRANCH   1   7
TORSDOF 7
ENDMDL
MODEL 2
REMARK VINA RESULT:    -3.853     16.663     17.646
REMARK INTER + INTRA:          -5.765
REMARK INTER:                  -5.379
REMARK INTRA:                  -0.386
REMARK UNBOUND:                -0.335
REMARK SMILES CCCCCCCCC(=O)[O-]
REMARK SMILES IDX 6 1 7 2 8 3 9 4 10 5 11 6 5 7 4 8 3 9 2 10 1 11
REMARK H PARENT
REMARK Flexibility Score: inf
ROOT
ATOM      1  C   UNL     1      25.663  -0.210  -8.986  1.00  0.00     0.000 C 
ENDROOT
BRANCH   1   2
ATOM      2  C   UNL     1      26.863  -0.444  -8.059  1.00  0.00     0.006 C 
BRANCH   2   3
ATOM      3  C   UNL     1      27.128  -1.940  -7.871  1.00  0.00     0.053 C 
BRANCH   3   4
ATOM      4  C   UNL     1      28.169  -2.160  -6.819  1.00  0.00     0.041 C 
ATOM      5  O   UNL     1      28.460  -3.329  -6.451  1.00  0.00    -0.550 OA
ATOM      6  O   UNL     1      28.852  -1.078  -6.280  1.00  0.00    -0.550 OA
ENDBRANCH   3   4
ENDBRANCH   2   3
ENDBRANCH   1   2
BRANCH   1   7
ATOM      7  C   UNL     1      24.731  -1.427  -9.000  1.00  0.00     0.000 C 
BRANCH   7   8
ATOM      8  C   UNL     1      24.092  -1.615 -10.384  1.00  0.00    -0.000 C 
BRANCH   8   9
ATOM      9  C   UNL     1      24.908  -0.955 -11.507  1.00  0.00    -0.000 C 
BRANCH   9  10
ATOM     10  C   UNL     1      24.028  -0.453 -12.660  1.00  0.00    -0.003 C 
ATOM     11  C   UNL     1      24.578   0.844 -13.247  1.00  0.00     0.004 C 
ENDBRANCH   9  10
ENDBRANCH   8   9
ENDBRANCH   7   8
ENDBRANCH   1   7
TORSDOF 7
ENDMDL
MODEL 3
REMARK VINA RESULT:    -3.845     16.237     16.796
REMARK INTER + INTRA:          -5.754
REMARK INTER:                  -5.306
REMARK INTRA:                  -0.447
REMARK UNBOUND:                -0.335
REMARK SMILES CCCCCCCCC(=O)[O-]
REMARK SMILES IDX 6 1 7 2 8 3 9 4 10 5 11 6 5 7 4 8 3 9 2 10 1 11
REMARK H PARENT
REMARK Flexibility Score: inf
ROOT
ATOM      1  C   UNL     1      25.594  -0.881  -9.486  1.00  0.00     0.000 C 
ENDROOT
BRANCH   1   2
ATOM      2  C   UNL     1      24.366  -1.717  -9.104  1.00  0.00     0.006 C 
BRANCH   2   3
ATOM      3  C   UNL     1      24.781  -3.090  -8.569  1.00  0.00     0.053 C 
BRANCH   3   4
ATOM      4  C   UNL     1      24.218  -4.179  -9.428  1.00  0.00     0.041 C 
ATOM      5  O   UNL     1      24.604  -4.308 -10.620  1.00  0.00    -0.550 OA
ATOM      6  O   UNL     1      23.305  -5.081  -8.899  1.00  0.00    -0.550 OA
ENDBRANCH   3   4
ENDBRANCH   2   3
ENDBRANCH   1   2
BRANCH   1   7
ATOM      7  C   UNL     1      25.436  -0.277 -10.886  1.00  0.00     0.000 C 
BRANCH   7   8
ATOM      8  C   UNL     1      24.268  -0.930 -11.639  1.00  0.00    -0.000 C 
BRANCH   8   9
ATOM      9  C   UNL     1      24.100  -0.380 -13.064  1.00  0.00    -0.000 C 
BRANCH   9  10
ATOM     10  C   UNL     1      24.773   0.987 -13.254  1.00  0.00    -0.003 C 
ATOM     11  C   UNL     1      25.450   1.082 -14.618  1.00  0.00     0.004 C 
ENDBRANCH   9  10
ENDBRANCH   8   9
ENDBRANCH   7   8
ENDBRANCH   1   7
TORSDOF 7
ENDMDL
MODEL 4
REMARK VINA RESULT:    -3.838      3.300      6.020
REMARK INTER + INTRA:          -5.743
REMARK INTER:                  -5.420
REMARK INTRA:                  -0.324
REMARK UNBOUND:                -0.335
REMARK SMILES CCCCCCCCC(=O)[O-]
REMARK SMILES IDX 6 1 7 2 8 3 9 4 10 5 11 6 5 7 4 8 3 9 2 10 1 11
REMARK H PARENT
REMARK Flexibility Score: inf
ROOT
ATOM      1  C   UNL     1      11.040   7.866  -6.917  1.00  0.00     0.000 C 
ENDROOT
BRANCH   1   2
ATOM      2  C   UNL     1      10.636   9.156  -7.642  1.00  0.00     0.006 C 
BRANCH   2   3
ATOM      3  C   UNL     1      11.864  10.010  -7.967  1.00  0.00     0.053 C 
BRANCH   3   4
ATOM      4  C   UNL     1      11.732  10.621  -9.327  1.00  0.00     0.041 C 
ATOM      5  O   UNL     1      10.612  11.034  -9.729  1.00  0.00    -0.550 OA
ATOM      6  O   UNL     1      12.853  10.780 -10.130  1.00  0.00    -0.550 OA
ENDBRANCH   3   4
ENDBRANCH   2   3
ENDBRANCH   1   2
BRANCH   1   7
ATOM      7  C   UNL     1      10.042   6.737  -7.203  1.00  0.00     0.000 C 
BRANCH   7   8
ATOM      8  C   UNL     1      10.738   5.368  -7.174  1.00  0.00    -0.000 C 
BRANCH   8   9
ATOM      9  C   UNL     1      10.795   4.762  -5.763  1.00  0.00    -0.000 C 
BRANCH   9  10
ATOM     10  C   UNL     1      12.183   4.892  -5.120  1.00  0.00    -0.003 C 
ATOM     11  C   UNL     1      12.148   5.839  -3.924  1.00  0.00     0.004 C 
ENDBRANCH   9  10
ENDBRANCH   8   9
ENDBRANCH   7   8
ENDBRANCH   1   7
TORSDOF 7
ENDMDL
MODEL 5
REMARK VINA RESULT:    -3.834      3.719      6.009
REMARK INTER + INTRA:          -5.738
REMARK INTER:                  -5.393
REMARK INTRA:                  -0.345
REMARK UNBOUND:                -0.335
REMARK SMILES CCCCCCCCC(=O)[O-]
REMARK SMILES IDX 6 1 7 2 8 3 9 4 10 5 11 6 5 7 4 8 3 9 2 10 1 11
REMARK H PARENT
REMARK Flexibility Score: inf
ROOT
ATOM      1  C   UNL     1      11.721  10.156  -7.110  1.00  0.00     0.000 C 
ENDROOT
BRANCH   1   2
ATOM      2  C   UNL     1      11.469  10.251  -8.620  1.00  0.00     0.006 C 
BRANCH   2   3
ATOM      3  C   UNL     1      12.714  10.754  -9.354  1.00  0.00     0.053 C 
BRANCH   3   4
ATOM      4  C   UNL     1      12.396  11.047 -10.787  1.00  0.00     0.041 C 
ATOM      5  O   UNL     1      13.219  10.748 -11.692  1.00  0.00    -0.550 OA
ATOM      6  O   UNL     1      11.170  11.604 -11.127  1.00  0.00    -0.550 OA
ENDBRANCH   3   4
ENDBRANCH   2   3
ENDBRANCH   1   2
BRANCH   1   7
ATOM      7  C   UNL     1      10.891   9.030  -6.482  1.00  0.00     0.000 C 
BRANCH   7   8
ATOM      8  C   UNL     1      10.286   8.123  -7.564  1.00  0.00    -0.000 C 
BRANCH   8   9
ATOM      9  C   UNL     1      10.244   6.645  -7.143  1.00  0.00    -0.000 C 
BRANCH   9  10
ATOM     10  C   UNL     1      11.485   6.222  -6.345  1.00  0.00    -0.003 C 
ATOM     11  C   UNL     1      11.578   4.703  -6.237  1.00  0.00     0.004 C 
ENDBRANCH   9  10
ENDBRANCH   8   9
ENDBRANCH   7   8
ENDBRANCH   1   7
TORSDOF 7
ENDMDL
MODEL 6
REMARK VINA RESULT:    -3.834     16.387     16.976
REMARK INTER + INTRA:          -5.738
REMARK INTER:                  -5.406
REMARK INTRA:                  -0.332
REMARK UNBOUND:                -0.335
REMARK SMILES CCCCCCCCC(=O)[O-]
REMARK SMILES IDX 6 1 7 2 8 3 9 4 10 5 11 6 5 7 4 8 3 9 2 10 1 11
REMARK H PARENT
REMARK Flexibility Score: inf
ROOT
ATOM      1  C   UNL     1      24.021  -1.719 -10.335  1.00  0.00     0.000 C 
ENDROOT
BRANCH   1   2
ATOM      2  C   UNL     1      24.600  -1.555  -8.924  1.00  0.00     0.006 C 
BRANCH   2   3
ATOM      3  C   UNL     1      25.775  -0.573  -8.923  1.00  0.00     0.053 C 
BRANCH   3   4
ATOM      4  C   UNL     1      26.958  -1.172  -8.231  1.00  0.00     0.041 C 
ATOM      5  O   UNL     1      27.199  -2.404  -8.341  1.00  0.00    -0.550 OA
ATOM      6  O   UNL     1      27.822  -0.364  -7.504  1.00  0.00    -0.550 OA
ENDBRANCH   3   4
ENDBRANCH   2   3
ENDBRANCH   1   2
BRANCH   1   7
ATOM      7  C   UNL     1      24.898  -1.014 -11.377  1.00  0.00     0.000 C 
BRANCH   7   8
ATOM      8  C   UNL     1      24.040  -0.209 -12.364  1.00  0.00    -0.000 C 
BRANCH   8   9
ATOM      9  C   UNL     1      24.344  -0.553 -13.831  1.00  0.00    -0.000 C 
BRANCH   9  10
ATOM     10  C   UNL     1      25.175   0.530 -14.533  1.00  0.00    -0.003 C 
ATOM     11  C   UNL     1      25.233   1.806 -13.697  1.00  0.00     0.004 C 
ENDBRANCH   9  10
ENDBRANCH   8   9
ENDBRANCH   7   8
ENDBRANCH   1   7
TORSDOF 7
ENDMDL
MODEL 7
REMARK VINA RESULT:    -3.825     16.044     17.485
REMARK INTER + INTRA:          -5.725
REMARK INTER:                  -5.199
REMARK INTRA:                  -0.526
REMARK UNBOUND:                -0.335
REMARK SMILES CCCCCCCCC(=O)[O-]
REMARK SMILES IDX 6 1 7 2 8 3 9 4 10 5 11 6 5 7 4 8 3 9 2 10 1 11
REMARK H PARENT
REMARK Flexibility Score: inf
ROOT
ATOM      1  C   UNL     1      25.641  -0.566 -10.727  1.00  0.00     0.000 C 
ENDROOT
BRANCH   1   2
ATOM      2  C   UNL     1      24.547  -1.268 -11.541  1.00  0.00     0.006 C 
BRANCH   2   3
ATOM      3  C   UNL     1      23.760  -0.262 -12.385  1.00  0.00     0.053 C 
BRANCH   3   4
ATOM      4  C   UNL     1      24.599   0.244 -13.515  1.00  0.00     0.041 C 
ATOM      5  O   UNL     1      24.968   1.449 -13.540  1.00  0.00    -0.550 OA
ATOM      6  O   UNL     1      25.016  -0.624 -14.515  1.00  0.00    -0.550 OA
ENDBRANCH   3   4
ENDBRANCH   2   3
ENDBRANCH   1   2
BRANCH   1   7
ATOM      7  C   UNL     1      25.394  -0.719  -9.222  1.00  0.00     0.000 C 
BRANCH   7   8
ATOM      8  C   UNL     1      24.406  -1.861  -8.940  1.00  0.00    -0.000 C 
BRANCH   8   9
ATOM      9  C   UNL     1      24.985  -2.928  -7.998  1.00  0.00    -0.000 C 
BRANCH   9  10
ATOM     10  C   UNL     1      24.493  -4.343  -8.334  1.00  0.00    -0.003 C 
ATOM     11  C   UNL     1      23.750  -4.365  -9.667  1.00  0.00     0.004 C 
ENDBRANCH   9  10
ENDBRANCH   8   9
ENDBRANCH   7   8
ENDBRANCH   1   7
TORSDOF 7
ENDMDL
MODEL 8
REMARK VINA RESULT:    -3.782     16.240     17.662
REMARK INTER + INTRA:          -5.664
REMARK INTER:                  -5.412
REMARK INTRA:                  -0.253
REMARK UNBOUND:                -0.335
REMARK SMILES CCCCCCCCC(=O)[O-]
REMARK SMILES IDX 6 1 7 2 8 3 9 4 10 5 11 6 5 7 4 8 3 9 2 10 1 11
REMARK H PARENT
REMARK Flexibility Score: inf
ROOT
ATOM      1  C   UNL     1      24.411  -1.702 -10.515  1.00  0.00     0.000 C 
ENDROOT
BRANCH   1   2
ATOM      2  C   UNL     1      24.976  -0.616 -11.440  1.00  0.00     0.006 C 
BRANCH   2   3
ATOM      3  C   UNL     1      23.912  -0.124 -12.424  1.00  0.00     0.053 C 
BRANCH   3   4
ATOM      4  C   UNL     1      24.551   0.366 -13.685  1.00  0.00     0.041 C 
ATOM      5  O   UNL     1      24.630  -0.390 -14.690  1.00  0.00    -0.550 OA
ATOM      6  O   UNL     1      25.014   1.672 -13.768  1.00  0.00    -0.550 OA
ENDBRANCH   3   4
ENDBRANCH   2   3
ENDBRANCH   1   2
BRANCH   1   7
ATOM      7  C   UNL     1      24.633  -1.342  -9.041  1.00  0.00     0.000 C 
BRANCH   7   8
ATOM      8  C   UNL     1      25.944  -0.564  -8.857  1.00  0.00    -0.000 C 
BRANCH   8   9
ATOM      9  C   UNL     1      27.064  -1.424  -8.249  1.00  0.00    -0.000 C 
BRANCH   9  10
ATOM     10  C   UNL     1      28.131  -0.585  -7.533  1.00  0.00    -0.003 C 
ATOM     11  C   UNL     1      28.664  -1.310  -6.300  1.00  0.00     0.004 C 
ENDBRANCH   9  10
ENDBRANCH   8   9
ENDBRANCH   7   8
ENDBRANCH   1   7
TORSDOF 7
ENDMDL
MODEL 9
REMARK VINA RESULT:    -3.773     16.616     18.158
REMARK INTER + INTRA:          -5.652
REMARK INTER:                  -5.228
REMARK INTRA:                  -0.424
REMARK UNBOUND:                -0.335
REMARK SMILES CCCCCCCCC(=O)[O-]
REMARK SMILES IDX 6 1 7 2 8 3 9 4 10 5 11 6 5 7 4 8 3 9 2 10 1 11
REMARK H PARENT
REMARK Flexibility Score: inf
ROOT
ATOM      1  C   UNL     1      24.941  -2.738  -8.279  1.00  0.00     0.000 C 
ENDROOT
BRANCH   1   2
ATOM      2  C   UNL     1      24.536  -1.435  -8.978  1.00  0.00     0.006 C 
BRANCH   2   3
ATOM      3  C   UNL     1      23.872  -1.719 -10.328  1.00  0.00     0.053 C 
BRANCH   3   4
ATOM      4  C   UNL     1      24.539  -0.935 -11.415  1.00  0.00     0.041 C 
ATOM      5  O   UNL     1      25.796  -0.919 -11.504  1.00  0.00    -0.550 OA
ATOM      6  O   UNL     1      23.773  -0.262 -12.358  1.00  0.00    -0.550 OA
ENDBRANCH   3   4
ENDBRANCH   2   3
ENDBRANCH   1   2
BRANCH   1   7
ATOM      7  C   UNL     1      26.372  -2.651  -7.735  1.00  0.00     0.000 C 
BRANCH   7   8
ATOM      8  C   UNL     1      27.141  -1.495  -8.392  1.00  0.00    -0.000 C 
BRANCH   8   9
ATOM      9  C   UNL     1      27.835  -0.585  -7.366  1.00  0.00    -0.000 C 
BRANCH   9  10
ATOM     10  C   UNL     1      28.622  -1.377  -6.311  1.00  0.00    -0.003 C 
ATOM     11  C   UNL     1      30.109  -1.419  -6.653  1.00  0.00     0.004 C 
ENDBRANCH   9  10
ENDBRANCH   8   9
ENDBRANCH   7   8
ENDBRANCH   1   7
TORSDOF 7
ENDMDL
