MODEL 1
REMARK VINA RESULT:    -4.938      0.000      0.000
REMARK INTER + INTRA:          -5.083
REMARK INTER:                  -5.083
REMARK INTRA:                   0.000
REMARK UNBOUND:                 0.000
REMARK SMILES Cc1ccccc1O
REMARK SMILES IDX 1 1 2 2 3 3 4 4 5 5 6 6 7 7 8 8
REMARK H PARENT 8 9
REMARK Flexibility Score: inf
ROOT
ATOM      1  C   UNL     1      -5.404  -9.957   4.066  1.00  0.00     0.048 C 
ATOM      2  C   UNL     1      -4.799  -8.928   3.154  1.00  0.00    -0.009 A 
ATOM      3  C   UNL     1      -3.403  -8.841   3.011  1.00  0.00     0.007 A 
ATOM      4  C   UNL     1      -2.838  -7.884   2.163  1.00  0.00     0.001 A 
ATOM      5  C   UNL     1      -3.660  -7.007   1.452  1.00  0.00     0.004 A 
ATOM      6  C   UNL     1      -5.049  -7.084   1.587  1.00  0.00     0.046 A 
ATOM      7  C   UNL     1      -5.624  -8.041   2.436  1.00  0.00     0.118 A 
ENDROOT
BRANCH   7   8
ATOM      8  O   UNL     1      -7.010  -8.115   2.568  1.00  0.00    -0.508 OA
ATOM      9  H   UNL     1      -7.586  -7.282   2.592  1.00  0.00     0.293 HD
ENDBRANCH   7   8
TORSDOF 1
ENDMDL
MODEL 2
REMARK VINA RESULT:    -4.738     16.970     17.922
REMARK INTER + INTRA:          -4.877
REMARK INTER:                  -4.877
REMARK INTRA:                   0.000
REMARK UNBOUND:                 0.000
REMARK SMILES Cc1ccccc1O
REMARK SMILES IDX 1 1 2 2 3 3 4 4 5 5 6 6 7 7 8 8
REMARK H PARENT 8 9
REMARK Flexibility Score: inf
ROOT
ATOM      1  C   UNL     1      -0.613 -10.124  18.542  1.00  0.00     0.048 C 
ATOM      2  C   UNL     1      -0.840  -8.836  19.281  1.00  0.00    -0.009 A 
ATOM      3  C   UNL     1      -2.132  -8.289  19.372  1.00  0.00     0.007 A 
ATOM      4  C   UNL     1      -2.344  -7.090  20.059  1.00  0.00     0.001 A 
ATOM      5  C   UNL     1      -1.271  -6.428  20.660  1.00  0.00     0.004 A 
ATOM      6  C   UNL     1       0.017  -6.963  20.576  1.00  0.00     0.046 A 
ATOM      7  C   UNL     1       0.240  -8.165  19.888  1.00  0.00     0.118 A 
ENDROOT
BRANCH   7   8
ATOM      8  O   UNL     1       1.527  -8.695  19.806  1.00  0.00    -0.508 OA
ATOM      9  H   UNL     1       2.303  -8.285  20.311  1.00  0.00     0.293 HD
ENDBRANCH   7   8
TORSDOF 1
ENDMDL
MODEL 3
REMARK VINA RESULT:    -4.734     17.512     18.108
REMARK INTER + INTRA:          -4.872
REMARK INTER:                  -4.872
REMARK INTRA:                   0.000
REMARK UNBOUND:                 0.000
REMARK SMILES Cc1ccccc1O
REMARK SMILES IDX 1 1 2 2 3 3 4 4 5 5 6 6 7 7 8 8
REMARK H PARENT 8 9
REMARK Flexibility Score: inf
ROOT
ATOM      1  C   UNL     1       3.961   3.561  13.764  1.00  0.00     0.048 C 
ATOM      2  C   UNL     1       3.377   4.289  12.586  1.00  0.00    -0.009 A 
ATOM      3  C   UNL     1       2.013   4.153  12.274  1.00  0.00     0.007 A 
ATOM      4  C   UNL     1       1.469   4.830  11.178  1.00  0.00     0.001 A 
ATOM      5  C   UNL     1       2.280   5.645  10.386  1.00  0.00     0.004 A 
ATOM      6  C   UNL     1       3.637   5.787  10.688  1.00  0.00     0.046 A 
ATOM      7  C   UNL     1       4.192   5.112  11.785  1.00  0.00     0.118 A 
ENDROOT
BRANCH   7   8
ATOM      8  O   UNL     1       5.546   5.256  12.082  1.00  0.00    -0.508 OA
ATOM      9  H   UNL     1       5.896   6.064  12.584  1.00  0.00     0.293 HD
ENDBRANCH   7   8
TORSDOF 1
ENDMDL
MODEL 4
REMARK VINA RESULT:    -4.705     14.110     15.370
REMARK INTER + INTRA:          -4.843
REMARK INTER:                  -4.843
REMARK INTRA:                   0.000
REMARK UNBOUND:                 0.000
REMARK SMILES Cc1ccccc1O
REMARK SMILES IDX 1 1 2 2 3 3 4 4 5 5 6 6 7 7 8 8
REMARK H PARENT 8 9
REMARK Flexibility Score: inf
ROOT
ATOM      1  C   UNL     1      -0.247   8.252   3.882  1.00  0.00     0.048 C 
ATOM      2  C   UNL     1      -0.971   7.108   3.230  1.00  0.00    -0.009 A 
ATOM      3  C   UNL     1      -2.335   6.891   3.493  1.00  0.00     0.007 A 
ATOM      4  C   UNL     1      -3.010   5.826   2.888  1.00  0.00     0.001 A 
ATOM      5  C   UNL     1      -2.331   4.971   2.018  1.00  0.00     0.004 A 
ATOM      6  C   UNL     1      -0.975   5.178   1.749  1.00  0.00     0.046 A 
ATOM      7  C   UNL     1      -0.289   6.243   2.352  1.00  0.00     0.118 A 
ENDROOT
BRANCH   7   8
ATOM      8  O   UNL     1       1.063   6.446   2.082  1.00  0.00    -0.508 OA
ATOM      9  H   UNL     1       1.586   7.193   2.523  1.00  0.00     0.293 HD
ENDBRANCH   7   8
TORSDOF 1
ENDMDL
MODEL 5
REMARK VINA RESULT:    -4.563     17.241     18.061
REMARK INTER + INTRA:          -4.697
REMARK INTER:                  -4.697
REMARK INTRA:                   0.000
REMARK UNBOUND:                 0.000
REMARK SMILES Cc1ccccc1O
REMARK SMILES IDX 1 1 2 2 3 3 4 4 5 5 6 6 7 7 8 8
REMARK H PARENT 8 9
REMARK Flexibility Score: inf
ROOT
ATOM      1  C   UNL     1       1.908  -7.792  20.172  1.00  0.00     0.048 C 
ATOM      2  C   UNL     1       0.411  -7.718  20.065  1.00  0.00    -0.009 A 
ATOM      3  C   UNL     1      -0.280  -6.598  20.561  1.00  0.00     0.007 A 
ATOM      4  C   UNL     1      -1.673  -6.528  20.462  1.00  0.00     0.001 A 
ATOM      5  C   UNL     1      -2.386  -7.572  19.869  1.00  0.00     0.004 A 
ATOM      6  C   UNL     1      -1.709  -8.690  19.373  1.00  0.00     0.046 A 
ATOM      7  C   UNL     1      -0.312  -8.769  19.469  1.00  0.00     0.118 A 
ENDROOT
BRANCH   7   8
ATOM      8  O   UNL     1       0.361  -9.886  18.973  1.00  0.00    -0.508 OA
ATOM      9  H   UNL     1       1.010 -10.411  19.546  1.00  0.00     0.293 HD
ENDBRANCH   7   8
TORSDOF 1
ENDMDL
MODEL 6
REMARK VINA RESULT:    -4.512      1.017      2.287
REMARK INTER + INTRA:          -4.644
REMARK INTER:                  -4.644
REMARK INTRA:                   0.000
REMARK UNBOUND:                 0.000
REMARK SMILES Cc1ccccc1O
REMARK SMILES IDX 1 1 2 2 3 3 4 4 5 5 6 6 7 7 8 8
REMARK H PARENT 8 9
REMARK Flexibility Score: inf
ROOT
ATOM      1  C   UNL     1      -7.018  -7.194   1.811  1.00  0.00     0.048 C 
ATOM      2  C   UNL     1      -5.599  -7.600   2.091  1.00  0.00    -0.009 A 
ATOM      3  C   UNL     1      -4.531  -6.885   1.519  1.00  0.00     0.007 A 
ATOM      4  C   UNL     1      -3.211  -7.263   1.779  1.00  0.00     0.001 A 
ATOM      5  C   UNL     1      -2.944  -8.353   2.609  1.00  0.00     0.004 A 
ATOM      6  C   UNL     1      -3.997  -9.070   3.182  1.00  0.00     0.046 A 
ATOM      7  C   UNL     1      -5.326  -8.700   2.927  1.00  0.00     0.118 A 
ENDROOT
BRANCH   7   8
ATOM      8  O   UNL     1      -6.375  -9.418   3.501  1.00  0.00    -0.508 OA
ATOM      9  H   UNL     1      -7.317  -9.047   3.533  1.00  0.00     0.293 HD
ENDBRANCH   7   8
TORSDOF 1
ENDMDL
MODEL 7
REMARK VINA RESULT:    -4.394     16.829     17.402
REMARK INTER + INTRA:          -4.522
REMARK INTER:                  -4.522
REMARK INTRA:                   0.000
REMARK UNBOUND:                 0.000
REMARK SMILES Cc1ccccc1O
REMARK SMILES IDX 1 1 2 2 3 3 4 4 5 5 6 6 7 7 8 8
REMARK H PARENT 8 9
REMARK Flexibility Score: inf
ROOT
ATOM      1  C   UNL     1       3.863   3.707  14.744  1.00  0.00     0.048 C 
ATOM      2  C   UNL     1       3.530   3.762  13.280  1.00  0.00    -0.009 A 
ATOM      3  C   UNL     1       4.311   4.535  12.403  1.00  0.00     0.007 A 
ATOM      4  C   UNL     1       4.001   4.587  11.041  1.00  0.00     0.001 A 
ATOM      5  C   UNL     1       2.911   3.871  10.543  1.00  0.00     0.004 A 
ATOM      6  C   UNL     1       2.128   3.099  11.405  1.00  0.00     0.046 A 
ATOM      7  C   UNL     1       2.430   3.041  12.774  1.00  0.00     0.118 A 
ENDROOT
BRANCH   7   8
ATOM      8  O   UNL     1       1.646   2.271  13.631  1.00  0.00    -0.508 OA
ATOM      9  H   UNL     1       1.244   2.660  14.476  1.00  0.00     0.293 HD
ENDBRANCH   7   8
TORSDOF 1
ENDMDL
MODEL 8
REMARK VINA RESULT:    -4.351     11.243     12.357
REMARK INTER + INTRA:          -4.478
REMARK INTER:                  -4.478
REMARK INTRA:                   0.000
REMARK UNBOUND:                 0.000
REMARK SMILES Cc1ccccc1O
REMARK SMILES IDX 1 1 2 2 3 3 4 4 5 5 6 6 7 7 8 8
REMARK H PARENT 8 9
REMARK Flexibility Score: inf
ROOT
ATOM      1  C   UNL     1     -11.125  -7.110  15.127  1.00  0.00     0.048 C 
ATOM      2  C   UNL     1      -9.796  -7.137  14.428  1.00  0.00    -0.009 A 
ATOM      3  C   UNL     1      -8.984  -8.283  14.490  1.00  0.00     0.007 A 
ATOM      4  C   UNL     1      -7.747  -8.308  13.840  1.00  0.00     0.001 A 
ATOM      5  C   UNL     1      -7.310  -7.193  13.123  1.00  0.00     0.004 A 
ATOM      6  C   UNL     1      -8.108  -6.048  13.054  1.00  0.00     0.046 A 
ATOM      7  C   UNL     1      -9.351  -6.013  13.704  1.00  0.00     0.118 A 
ENDROOT
BRANCH   7   8
ATOM      8  O   UNL     1     -10.145  -4.869  13.634  1.00  0.00    -0.508 OA
ATOM      9  H   UNL     1     -10.338  -4.411  12.751  1.00  0.00     0.293 HD
ENDBRANCH   7   8
TORSDOF 1
ENDMDL
